AV-unprocessed.smi:3338|AV-procd|sdf|12871|dock10
  -GOLD-   2272019273D 1   1.00000     0.00000
 Structure written by MMmdl.
 44 45  0  0  0  0  0  0  0  0  2 V2000
  144.9670  142.2620  155.4316 C   0  0  0  0  0  0  0  0  0  0  0  0
  146.2571  141.5070  155.7972 C   0  0  2  0  0  0  0  0  0  0  0  0
  147.5058  142.0902  155.1105 C   0  0  0  0  0  0  0  0  0  0  0  0
  147.5426  141.7260  153.6197 C   0  0  0  0  0  0  0  0  0  0  0  0
  147.4026  140.2090  153.4181 C   0  0  0  0  0  0  0  0  0  0  0  0
  146.1665  139.6952  154.0626 N   0  3  1  0  0  0  0  0  0  0  0  0
  145.9230  138.2636  153.7548 C   0  0  0  0  0  0  0  0  0  0  0  0
  146.0279  137.9655  152.2466 C   0  0  0  0  0  0  0  0  0  0  0  0
  145.0802  136.9370  151.8350 N   0  0  0  0  0  0  0  0  0  0  0  0
  145.2311  135.6208  152.0532 C   0  0  0  0  0  0  0  0  0  0  0  0
  146.1942  135.1511  152.6606 O   0  0  0  0  0  0  0  0  0  0  0  0
  144.1224  134.7072  151.5041 C   0  0  2  0  0  0  0  0  0  0  0  0
  143.2906  134.0364  152.6157 C   0  0  0  0  0  0  0  0  0  0  0  0
  144.6782  133.7278  150.5775 N   0  0  0  0  0  0  0  0  0  0  0  0
  144.0050  132.9573  149.6512 C   0  0  0  0  0  0  0  0  0  0  0  0
  144.9336  132.2072  148.9883 C   0  0  0  0  0  0  0  0  0  0  0  0
  146.1671  132.5956  149.5807 C   0  0  0  0  0  0  0  0  0  0  0  0
  146.0128  133.5083  150.5256 N   0  0  0  0  0  0  0  0  0  0  0  0
  146.1452  139.9934  155.5205 C   0  0  0  0  0  0  0  0  0  0  0  0
  144.7284  142.1745  154.3716 H   0  0  0  0  0  0  0  0  0  0  0  0
  145.0554  143.3235  155.6648 H   0  0  0  0  0  0  0  0  0  0  0  0
  144.1160  141.8742  155.9922 H   0  0  0  0  0  0  0  0  0  0  0  0
  146.3906  141.6332  156.8726 H   0  0  0  0  0  0  0  0  0  0  0  0
  147.5445  143.1728  155.2377 H   0  0  0  0  0  0  0  0  0  0  0  0
  148.3995  141.6946  155.5951 H   0  0  0  0  0  0  0  0  0  0  0  0
  146.7426  142.2434  153.0892 H   0  0  0  0  0  0  0  0  0  0  0  0
  148.4760  142.0741  153.1764 H   0  0  0  0  0  0  0  0  0  0  0  0
  147.3796  139.9953  152.3486 H   0  0  0  0  0  0  0  0  0  0  0  0
  148.2715  139.6907  153.8268 H   0  0  0  0  0  0  0  0  0  0  0  0
  146.6661  137.6584  154.2758 H   0  0  0  0  0  0  0  0  0  0  0  0
  144.9511  137.9584  154.1459 H   0  0  0  0  0  0  0  0  0  0  0  0
  145.8138  138.8561  151.6572 H   0  0  0  0  0  0  0  0  0  0  0  0
  147.0426  137.6586  151.9871 H   0  0  0  0  0  0  0  0  0  0  0  0
  144.2632  137.2424  151.3261 H   0  0  0  0  0  0  0  0  0  0  0  0
  143.4424  135.3411  150.9323 H   0  0  0  0  0  0  0  0  0  0  0  0
  142.8231  134.7808  153.2612 H   0  0  0  0  0  0  0  0  0  0  0  0
  143.8984  133.3859  153.2459 H   0  0  0  0  0  0  0  0  0  0  0  0
  142.4925  133.4281  152.1894 H   0  0  0  0  0  0  0  0  0  0  0  0
  142.9317  133.0060  149.5415 H   0  0  0  0  0  0  0  0  0  0  0  0
  144.7589  131.4913  148.1989 H   0  0  0  0  0  0  0  0  0  0  0  0
  147.1634  132.2467  149.3519 H   0  0  0  0  0  0  0  0  0  0  0  0
  146.9740  139.4702  156.0005 H   0  0  0  0  0  0  0  0  0  0  0  0
  145.2338  139.6109  155.9787 H   0  0  0  0  0  0  0  0  0  0  0  0
  145.4029  140.2081  153.6456 H   0  0  0  0  0  0  0  0  0  0  0  0
  1  2  1  0  0  0  0
  1 20  1  0  0  0  0
  1 21  1  0  0  0  0
  1 22  1  0  0  0  0
  2 19  1  0  0  0  0
  2  3  1  0  0  0  0
  2 23  1  0  0  0  0
  3  4  1  0  0  0  0
  3 24  1  0  0  0  0
  3 25  1  0  0  0  0
  4  5  1  0  0  0  0
  4 26  1  0  0  0  0
  4 27  1  0  0  0  0
  5  6  1  0  0  0  0
  5 28  1  0  0  0  0
  5 29  1  0  0  0  0
  6  7  1  0  0  0  0
  6 19  1  0  0  0  0
  6 44  1  0  0  0  0
  7  8  1  0  0  0  0
  7 30  1  0  0  0  0
  7 31  1  0  0  0  0
  8  9  1  0  0  0  0
  8 32  1  0  0  0  0
  8 33  1  0  0  0  0
  9 10  1  0  0  0  0
  9 34  1  0  0  0  0
 10 11  2  0  0  0  0
 10 12  1  0  0  0  0
 12 13  1  0  0  0  0
 12 14  1  0  0  0  0
 12 35  1  0  0  0  0
 13 36  1  0  0  0  0
 13 37  1  0  0  0  0
 13 38  1  0  0  0  0
 14 18  1  0  0  0  0
 14 15  1  0  0  0  0
 15 16  2  0  0  0  0
 15 39  1  0  0  0  0
 16 17  1  0  0  0  0
 16 40  1  0  0  0  0
 17 18  2  0  0  0  0
 17 41  1  0  0  0  0
 19 42  1  0  0  0  0
 19 43  1  0  0  0  0
M  CHG  1   6   1
M  END
> <s_m_source_file>
AV-unprocessed.smi

> <i_m_source_file_index>
3338

> <i_lp_mmshare_version>
43012

> <i_f3d_flags>
0

> <s_epik_input>
W0NIM11bQ0BASF0xW0NIMl1bQ0gyXVtDSDJdTihbQ0gyXTEpW0NIMl1bQ0gyXVtOSF1DKD1PKVtDQEhdKFtDSDNdKW4yW2NIXVtjSF1bY0hdbjI=

> <s_epik_cmdline>
J2VwaWtfcHl0aG9uJywgJy1waCcsICc3LjAnLCAnLXRuJywgJzgnLCAnLW1hJywgJzIwMCcsICctbWV0YWxfYmluZGluZycsICctaW1hZScsICc8aW5maWxlLm1hZT4nLCAnLW9tYWUnLCAnPG91dGZpbGUubWFlPic=

> <r_lp_tautomer_probability>
1

> <r_epik_Ionization_Penalty>
0.00225707

> <r_epik_Ionization_Penalty_Charging>
0.00223709

> <r_epik_Ionization_Penalty_Neutral>
1.99775e-05

> <r_epik_State_Penalty>
0.00153978

> <r_epik_Charging_Adjusted_Penalty>
0.00377687

> <i_epik_Tot_Q>
1

> <i_epik_Tot_abs_Q>
1

> <r_epik_Metal_State_Penalty>
-0

> <b_epik_Metal_Only>
0

> <s_lp_Force_Field>
OPLS_2005

> <r_lp_Energy>
22.4515

> <b_lp_Chiralities_Consistent>
1

> <s_lp_Variant>
AV-unprocessed.smi:3338-3

> <Gold.Version>
5.8.1

> <Gold.Id.Protein>
6NUR|6NUR_protein|mol2

> <Gold.PLP.Fitness>
46.2957

> <Gold.PLP.PLP>
-32.5823

> <Gold.PLP.part.hbond>
-2.0000

> <Gold.PLP.part.metal>
0.0000

> <Gold.PLP.part.buried>
-3.1997

> <Gold.PLP.part.nonpolar>
-28.2252

> <Gold.PLP.part.repulsive>
0.2937

> <Gold.PLP.ligand.clash>
0.0000

> <Gold.PLP.ligand.torsion>
0.7186

> <Gold.PLP.Chemscore.Hbond>
3.0000

> <Gold.PLP.Chemscore.CHOScore>
2.0000

> <Gold.PLP.Chemscore.Metal>
0.0000

> <Gold.Chemscore.Hbonds>
donor molecule, donor type, donor heavy atom, donor atom, acceptor molecule, acceptor atom, score
      L1  H     6    44       P1 10175  1.66
      L1  H     9    34       P1 10171  0.68
      L1  C    15    39       P1 10186  1.00
      L1  C    17    41       P1 10747  1.00

> <Gold.PLP.Chemscore.Internal.Correction>
0.1506

> <Gold.Rescore>
     Score         DG    S(hbond)    S(metal)    S(lipo)     H(rot)  DE(clash)    DE(int)     intcor
     14.80     -17.18       1.84        0.00      85.87       1.76       0.12       2.26       ----

> <Gold.Chemscore.Fitness>
14.7979

> <Gold.Chemscore.DG>
-17.1766

> <Gold.Chemscore.ZeroCoef>
-5.4800

> <Gold.Chemscore.Hbond>
1.8406

> <Gold.Chemscore.Metal>
0.0000

> <Gold.Chemscore.Lipo>
85.8713

> <Gold.Chemscore.Internal_Hbond>
0.0000

> <Gold.Chemscore.DEClash>
0.1207

> <Gold.Chemscore.DEInternal>
2.2579

> <Gold.Chemscore.Rot>
1.7570

> <Gold.Chemscore.Internal.Correction>
   9.000000E+99

> <Gold.Chemscore.Hbonds>
donor molecule, donor type, donor heavy atom, donor atom, acceptor molecule, acceptor atom, score
      L1  H     6    44       P1 10175  0.81
      L1  H     9    34       P1 10171  0.65

> <Gold.Chemscore.Hbond.Weighted>
-6.1475

> <Gold.Chemscore.Metal.Weighted>
-0.0000

> <Gold.Chemscore.Lipo.Weighted>
-10.0469

> <Gold.Chemscore.Internal_Hbond.Weighted>
0.0000

> <Gold.Chemscore.DEClash.Weighted>
0.1207

> <Gold.Chemscore.DEInternal.Weighted>
2.2579

> <Gold.Chemscore.Rot.Weighted>
4.4979

> <Gold.Chemscore.Internal.Correction.Weighted>
   9.000000E+99

> <Gold.Protein.RotatedTorsions>
[ 6907 6896 6895 6894 ] final    5.77 input  -60.11 | X-H torsion
[ 7974 7965 7964 7962 ] final -128.14 input  175.53 | X-H torsion
[ 8008 7997 7996 7995 ] final  173.39 input   59.86 | X-H torsion
[ 10167 10162 10161 10158 ] final   12.93 input  -65.29 | X-H torsion
[ 10718 10713 10712 10709 ] final -108.58 input   66.30 | X-H torsion
[ 10763 10752 10751 10750 ] final    9.09 input  -60.55 | X-H torsion
[ 11005 11000 10999 10996 ] final -136.77 input  -57.11 | X-H torsion

> <Gold.Protein.ActiveResidues>
 VAL166  LYS551  ARG553  GLY616  TRP617  ASP618  TYR619  PRO620  LYS621  CYS622 
 ASP623  PHE694  ASN695  SER759  ASP760  ASP761  ALA762  ILE779  LEU786  VAL792 
 PHE793  MET794  SER795  GLU796  ALA797  LYS798  CYS799  TRP800  GLU811  SER814 

> <Gold.Protein.RotatedAtoms>
  151.6629  135.0987  160.0182 H   0  0  0  0  0  0  0  0  0  0  0  0  # atno 6907 bound_to 6896
  152.3936  133.6710  159.6266 H   0  0  0  0  0  0  0  0  0  0  0  0  # atno 6908 bound_to 6896
  150.7847  133.8829  159.3332 H   0  0  0  0  0  0  0  0  0  0  0  0  # atno 6909 bound_to 6896
  144.9701  140.7536  143.4676 H   0  0  0  0  0  0  0  0  0  0  0  0  # atno 7974 bound_to 7965
  156.1080  140.1461  156.9377 H   0  0  0  0  0  0  0  0  0  0  0  0  # atno 8008 bound_to 7997
  154.4747  140.0898  156.7277 H   0  0  0  0  0  0  0  0  0  0  0  0  # atno 8009 bound_to 7997
  155.4645  140.3439  155.4319 H   0  0  0  0  0  0  0  0  0  0  0  0  # atno 8010 bound_to 7997
  140.6036  143.8555  150.6990 H   0  0  0  0  0  0  0  0  0  0  0  0  # atno 10167 bound_to 10162
  156.0493  130.5720  150.7981 H   0  0  0  0  0  0  0  0  0  0  0  0  # atno 10718 bound_to 10713
  153.2179  135.6877  153.8035 H   0  0  0  0  0  0  0  0  0  0  0  0  # atno 10763 bound_to 10752
  153.7245  135.3262  155.3274 H   0  0  0  0  0  0  0  0  0  0  0  0  # atno 10764 bound_to 10752
  154.8255  135.4621  154.1014 H   0  0  0  0  0  0  0  0  0  0  0  0  # atno 10765 bound_to 10752
  140.8774  134.1975  157.4613 H   0  0  0  0  0  0  0  0  0  0  0  0  # atno 11005 bound_to 11000
  145.2572  139.2007  143.4911 LP  0  0  0  0  0  0  0  0  0  0  0  0  # atno 17320 bound_to 7965
  146.3379  140.2496  142.8598 LP  0  0  0  0  0  0  0  0  0  0  0  0  # atno 17321 bound_to 7965
  140.2106  143.3886  152.1721 LP  0  0  0  0  0  0  0  0  0  0  0  0  # atno 17342 bound_to 10162
  139.5308  144.7157  151.5062 LP  0  0  0  0  0  0  0  0  0  0  0  0  # atno 17343 bound_to 10162
  157.5402  131.0940  150.9837 LP  0  0  0  0  0  0  0  0  0  0  0  0  # atno 17370 bound_to 10713
  157.0122  130.5641  149.5322 LP  0  0  0  0  0  0  0  0  0  0  0  0  # atno 17371 bound_to 10713
  139.8716  134.9801  156.5065 LP  0  0  0  0  0  0  0  0  0  0  0  0  # atno 17394 bound_to 11000
  140.8502  133.8138  155.9161 LP  0  0  0  0  0  0  0  0  0  0  0  0  # atno 17395 bound_to 11000

$$$$
