AV-unprocessed.smi:2802|AV-procd|sdf|10806|dock6
  -GOLD-   2272015243D 1   1.00000     0.00000
 Structure written by MMmdl.
 47 48  0  0  0  0  0  0  0  0  1 V2000
  147.7315  132.8899  152.3326 C   0  0  0  0  0  0  0  0  0  0  0  0
  148.4018  132.7506  153.7071 C   0  0  1  0  0  0  0  0  0  0  0  0
  149.4219  131.5971  153.7121 C   0  0  0  0  0  0  0  0  0  0  0  0
  150.1313  131.4084  155.0729 C   0  0  0  0  0  0  0  0  0  0  0  0
  149.1745  130.7700  156.1030 C   0  0  0  0  0  0  0  0  0  0  0  0
  151.3059  130.4270  154.8822 C   0  0  0  0  0  0  0  0  0  0  0  0
  150.7088  132.7659  155.5664 C   0  0  0  0  0  0  0  0  0  0  0  0
  149.7562  134.0026  155.5244 C   0  0  2  0  0  0  0  0  0  0  0  0
  150.5255  135.3428  155.7255 C   0  0  0  0  0  0  0  0  0  0  0  0
  151.3711  135.3500  156.8586 O   0  0  0  0  0  0  0  0  0  0  0  0
  148.6591  133.9309  156.5003 N   0  0  0  0  0  0  0  0  0  0  0  0
  148.6937  134.1208  157.8321 C   0  0  0  0  0  0  0  0  0  0  0  0
  149.7120  134.3873  158.4678 O   0  0  0  0  0  0  0  0  0  0  0  0
  147.3583  133.9818  158.5654 C   0  0  0  0  0  0  0  0  0  0  0  0
  147.5261  134.3073  160.0388 C   0  0  0  0  0  0  0  0  0  0  0  0
  147.6521  133.2820  160.9994 C   0  0  0  0  0  0  0  0  0  0  0  0
  147.8342  133.6366  162.3497 C   0  0  0  0  0  0  0  0  0  0  0  0
  147.8798  135.0049  162.6834 C   0  0  0  0  0  0  0  0  0  0  0  0
  147.7565  135.9949  161.7733 N   0  0  0  0  0  0  0  0  0  0  0  0
  147.5814  135.6469  160.4804 C   0  0  0  0  0  0  0  0  0  0  0  0
  149.0908  134.0633  154.1258 C   0  0  0  0  0  0  0  0  0  0  0  0
  148.4616  133.1179  151.5553 H   0  0  0  0  0  0  0  0  0  0  0  0
  146.9893  133.6885  152.3369 H   0  0  0  0  0  0  0  0  0  0  0  0
  147.2210  131.9687  152.0500 H   0  0  0  0  0  0  0  0  0  0  0  0
  147.6083  132.5270  154.4199 H   0  0  0  0  0  0  0  0  0  0  0  0
  148.9316  130.6677  153.4189 H   0  0  0  0  0  0  0  0  0  0  0  0
  150.1687  131.7947  152.9414 H   0  0  0  0  0  0  0  0  0  0  0  0
  149.6392  130.6996  157.0870 H   0  0  0  0  0  0  0  0  0  0  0  0
  148.8891  129.7608  155.8049 H   0  0  0  0  0  0  0  0  0  0  0  0
  148.2499  131.3287  156.2179 H   0  0  0  0  0  0  0  0  0  0  0  0
  151.8391  130.2601  155.8188 H   0  0  0  0  0  0  0  0  0  0  0  0
  152.0299  130.8009  154.1571 H   0  0  0  0  0  0  0  0  0  0  0  0
  150.9612  129.4564  154.5237 H   0  0  0  0  0  0  0  0  0  0  0  0
  151.1318  132.6345  156.5625 H   0  0  0  0  0  0  0  0  0  0  0  0
  151.5637  133.0077  154.9325 H   0  0  0  0  0  0  0  0  0  0  0  0
  151.1788  135.5356  154.8740 H   0  0  0  0  0  0  0  0  0  0  0  0
  149.8399  136.1898  155.7772 H   0  0  0  0  0  0  0  0  0  0  0  0
  152.1747  134.9046  156.6384 H   0  0  0  0  0  0  0  0  0  0  0  0
  147.7556  133.7078  156.1095 H   0  0  0  0  0  0  0  0  0  0  0  0
  146.6201  134.6532  158.1244 H   0  0  0  0  0  0  0  0  0  0  0  0
  146.9767  132.9671  158.4441 H   0  0  0  0  0  0  0  0  0  0  0  0
  147.6220  132.2425  160.7074 H   0  0  0  0  0  0  0  0  0  0  0  0
  147.9399  132.8786  163.1114 H   0  0  0  0  0  0  0  0  0  0  0  0
  148.0203  135.3123  163.7091 H   0  0  0  0  0  0  0  0  0  0  0  0
  147.4961  136.4614  159.7761 H   0  0  0  0  0  0  0  0  0  0  0  0
  149.8440  134.3033  153.3734 H   0  0  0  0  0  0  0  0  0  0  0  0
  148.3704  134.8825  154.0950 H   0  0  0  0  0  0  0  0  0  0  0  0
  1  2  1  0  0  0  0
  1 22  1  0  0  0  0
  1 23  1  0  0  0  0
  1 24  1  0  0  0  0
  2 21  1  0  0  0  0
  2  3  1  0  0  0  0
  2 25  1  0  0  0  0
  3  4  1  0  0  0  0
  3 26  1  0  0  0  0
  3 27  1  0  0  0  0
  4  5  1  0  0  0  0
  4  6  1  0  0  0  0
  4  7  1  0  0  0  0
  5 28  1  0  0  0  0
  5 29  1  0  0  0  0
  5 30  1  0  0  0  0
  6 31  1  0  0  0  0
  6 32  1  0  0  0  0
  6 33  1  0  0  0  0
  7  8  1  0  0  0  0
  7 34  1  0  0  0  0
  7 35  1  0  0  0  0
  8  9  1  0  0  0  0
  8 11  1  0  0  0  0
  8 21  1  0  0  0  0
  9 10  1  0  0  0  0
  9 36  1  0  0  0  0
  9 37  1  0  0  0  0
 10 38  1  0  0  0  0
 11 12  1  0  0  0  0
 11 39  1  0  0  0  0
 12 13  2  0  0  0  0
 12 14  1  0  0  0  0
 14 15  1  0  0  0  0
 14 40  1  0  0  0  0
 14 41  1  0  0  0  0
 15 20  1  0  0  0  0
 15 16  2  0  0  0  0
 16 17  1  0  0  0  0
 16 42  1  0  0  0  0
 17 18  2  0  0  0  0
 17 43  1  0  0  0  0
 18 19  1  0  0  0  0
 18 44  1  0  0  0  0
 19 20  2  0  0  0  0
 20 45  1  0  0  0  0
 21 46  1  0  0  0  0
 21 47  1  0  0  0  0
M  END
> <s_m_source_file>
AV-unprocessed.smi

> <i_m_source_file_index>
2802

> <i_lp_mmshare_version>
43012

> <i_f3d_flags>
0

> <s_epik_input>
W0NIM11DMShbQ0gzXSlbQ0gyXVtDQEBIXShbQ0gzXSlbQ0gyXVtDQF0oW0NIMl0xKShbQ0gyXVtPSF0pW05IXUMoPU8pW0NIMl1jMltjSF1bY0hdW2NIXW5bY0hdMg==

> <s_epik_cmdline>
J2VwaWtfcHl0aG9uJywgJy1waCcsICc3LjAnLCAnLXRuJywgJzgnLCAnLW1hJywgJzIwMCcsICctbWV0YWxfYmluZGluZycsICctaW1hZScsICc8aW5maWxlLm1hZT4nLCAnLW9tYWUnLCAnPG91dGZpbGUubWFlPic=

> <r_epik_Ionization_Penalty>
0.004793

> <r_epik_Ionization_Penalty_Charging>
0

> <r_epik_Ionization_Penalty_Neutral>
0.004793

> <r_epik_State_Penalty>
0.00347421

> <r_epik_Charging_Adjusted_Penalty>
0.00347421

> <i_epik_Tot_Q>
0

> <i_epik_Tot_abs_Q>
0

> <r_epik_Metal_State_Penalty>
-0

> <b_epik_Metal_Only>
0

> <s_lp_Force_Field>
OPLS_2005

> <r_lp_Energy>
17.3779

> <b_lp_Chiralities_Consistent>
1

> <s_lp_Variant>
AV-unprocessed.smi:2802-4

> <Gold.Version>
5.8.1

> <Gold.Id.Protein>
6NUR|6NUR_protein|mol2

> <Gold.PLP.Fitness>
42.1031

> <Gold.PLP.PLP>
-35.7856

> <Gold.PLP.part.hbond>
-3.0418

> <Gold.PLP.part.metal>
0.0000

> <Gold.PLP.part.buried>
-2.3531

> <Gold.PLP.part.nonpolar>
-30.7211

> <Gold.PLP.part.repulsive>
0.0272

> <Gold.PLP.ligand.clash>
0.0000

> <Gold.PLP.ligand.torsion>
0.6180

> <Gold.PLP.Chemscore.Hbond>
2.5025

> <Gold.PLP.Chemscore.CHOScore>
0.0000

> <Gold.PLP.Chemscore.Metal>
0.0000

> <Gold.Chemscore.Hbonds>
donor molecule, donor type, donor heavy atom, donor atom, acceptor molecule, acceptor atom, score
      P1  H  6896  6908       L1    13  0.49

> <Gold.PLP.Chemscore.Internal.Correction>
0.0459

> <Gold.Rescore>
     Score         DG    S(hbond)    S(metal)    S(lipo)     H(rot)  DE(clash)    DE(int)     intcor
     13.51     -16.64       1.88        0.00      85.42       2.00       0.01       3.12       ----

> <Gold.Chemscore.Fitness>
13.5058

> <Gold.Chemscore.DG>
-16.6361

> <Gold.Chemscore.ZeroCoef>
-5.4800

> <Gold.Chemscore.Hbond>
1.8828

> <Gold.Chemscore.Metal>
0.0000

> <Gold.Chemscore.Lipo>
85.4221

> <Gold.Chemscore.Internal_Hbond>
0.0000

> <Gold.Chemscore.DEClash>
0.0089

> <Gold.Chemscore.DEInternal>
3.1214

> <Gold.Chemscore.Rot>
2.0026

> <Gold.Chemscore.Internal.Correction>
   9.000000E+99

> <Gold.Chemscore.Hbonds>
donor molecule, donor type, donor heavy atom, donor atom, acceptor molecule, acceptor atom, score
      P1  H  6896  6908       L1    13  0.48

> <Gold.Chemscore.Hbond.Weighted>
-6.2884

> <Gold.Chemscore.Metal.Weighted>
-0.0000

> <Gold.Chemscore.Lipo.Weighted>
-9.9944

> <Gold.Chemscore.Internal_Hbond.Weighted>
0.0000

> <Gold.Chemscore.DEClash.Weighted>
0.0089

> <Gold.Chemscore.DEInternal.Weighted>
3.1214

> <Gold.Chemscore.Rot.Weighted>
5.1267

> <Gold.Chemscore.Internal.Correction.Weighted>
   9.000000E+99

> <Gold.Protein.RotatedTorsions>
[ 6907 6896 6895 6894 ] final  139.64 input  -60.11 | X-H torsion
[ 7974 7965 7964 7962 ] final  -12.45 input  175.53 | X-H torsion
[ 8008 7997 7996 7995 ] final  -63.83 input   59.86 | X-H torsion
[ 10167 10162 10161 10158 ] final -109.01 input  -65.29 | X-H torsion
[ 10718 10713 10712 10709 ] final  101.27 input   66.30 | X-H torsion
[ 10763 10752 10751 10750 ] final  113.82 input  -60.55 | X-H torsion
[ 11005 11000 10999 10996 ] final   87.50 input  -57.11 | X-H torsion

> <Gold.Protein.ActiveResidues>
 VAL166  LYS551  ARG553  GLY616  TRP617  ASP618  TYR619  PRO620  LYS621  CYS622 
 ASP623  PHE694  ASN695  SER759  ASP760  ASP761  ALA762  ILE779  LEU786  VAL792 
 PHE793  MET794  SER795  GLU796  ALA797  LYS798  CYS799  TRP800  GLU811  SER814 

> <Gold.Protein.RotatedAtoms>
  152.2525  133.5227  159.5333 H   0  0  0  0  0  0  0  0  0  0  0  0  # atno 6907 bound_to 6896
  150.7098  134.0940  159.3951 H   0  0  0  0  0  0  0  0  0  0  0  0  # atno 6908 bound_to 6896
  151.8860  135.0435  160.0544 H   0  0  0  0  0  0  0  0  0  0  0  0  # atno 6909 bound_to 6896
  146.2151  140.3059  142.8378 H   0  0  0  0  0  0  0  0  0  0  0  0  # atno 7974 bound_to 7965
  154.4577  140.0966  156.6804 H   0  0  0  0  0  0  0  0  0  0  0  0  # atno 8008 bound_to 7997
  155.5089  140.3476  155.4366 H   0  0  0  0  0  0  0  0  0  0  0  0  # atno 8009 bound_to 7997
  156.0809  140.1373  156.9702 H   0  0  0  0  0  0  0  0  0  0  0  0  # atno 8010 bound_to 7997
  140.1599  143.4129  152.1433 H   0  0  0  0  0  0  0  0  0  0  0  0  # atno 10167 bound_to 10162
  157.6833  131.0721  150.5227 H   0  0  0  0  0  0  0  0  0  0  0  0  # atno 10718 bound_to 10713
  153.4981  135.3644  155.2526 H   0  0  0  0  0  0  0  0  0  0  0  0  # atno 10763 bound_to 10752
  154.8749  135.3993  154.3510 H   0  0  0  0  0  0  0  0  0  0  0  0  # atno 10764 bound_to 10752
  153.4142  135.7078  153.6404 H   0  0  0  0  0  0  0  0  0  0  0  0  # atno 10765 bound_to 10752
  139.8918  134.8427  156.2869 H   0  0  0  0  0  0  0  0  0  0  0  0  # atno 11005 bound_to 11000
  144.9023  140.7658  143.5859 LP  0  0  0  0  0  0  0  0  0  0  0  0  # atno 17320 bound_to 7965
  145.2985  139.1858  143.4702 LP  0  0  0  0  0  0  0  0  0  0  0  0  # atno 17321 bound_to 7965
  139.5386  144.7234  151.4810 LP  0  0  0  0  0  0  0  0  0  0  0  0  # atno 17342 bound_to 10162
  140.6649  143.8419  150.6930 LP  0  0  0  0  0  0  0  0  0  0  0  0  # atno 17343 bound_to 10162
  156.5539  130.4238  149.6094 LP  0  0  0  0  0  0  0  0  0  0  0  0  # atno 17370 bound_to 10713
  156.2878  130.7107  151.1948 LP  0  0  0  0  0  0  0  0  0  0  0  0  # atno 17371 bound_to 10713
  141.0002  133.7156  156.0948 LP  0  0  0  0  0  0  0  0  0  0  0  0  # atno 17394 bound_to 11000
  140.7508  134.4046  157.5541 LP  0  0  0  0  0  0  0  0  0  0  0  0  # atno 17395 bound_to 11000

$$$$
