AV-unprocessed.smi:1795|AV-procd|sdf|7247|dock3
  -GOLD-   22720 8493D 1   1.00000     0.00000
 Structure written by MMmdl.
 48 49  0  0  0  0  0  0  0  0  2 V2000
  146.0116  132.9510  153.9600 C   0  0  0  0  0  0  0  0  0  0  0  0
  146.3312  134.1686  153.0853 C   0  0  2  0  0  0  0  0  0  0  0  0
  146.4143  135.4682  153.9090 C   0  0  0  0  0  0  0  0  0  0  0  0
  146.6342  136.6585  153.0403 N   0  3  2  0  0  0  0  0  0  0  0  0
  146.7290  137.9629  153.7785 C   0  0  2  0  0  0  0  0  0  0  0  0
  145.5027  138.1693  154.7009 C   0  0  0  0  0  0  0  0  0  0  0  0
  146.8993  139.1881  152.8338 C   0  0  0  0  0  0  0  0  0  0  0  0
  147.9411  140.1144  153.2700 N   0  0  0  0  0  0  0  0  0  0  0  0
  147.9131  140.8229  154.4093 C   0  0  0  0  0  0  0  0  0  0  0  0
  146.9782  140.7713  155.2096 O   0  0  0  0  0  0  0  0  0  0  0  0
  149.1155  141.7433  154.6624 C   0  0  0  0  0  0  0  0  0  0  0  0
  149.9563  141.3017  155.7875 N   0  0  0  0  0  0  0  0  0  0  0  0
  149.8094  141.9887  157.0094 C   0  0  0  0  0  0  0  0  0  0  0  0
  150.5255  141.6634  158.0974 C   0  0  0  0  0  0  0  0  0  0  0  0
  151.4692  140.5755  157.9933 C   0  0  0  0  0  0  0  0  0  0  0  0
  151.6156  139.9100  156.8303 C   0  0  0  0  0  0  0  0  0  0  0  0
  150.8332  140.2606  155.6392 C   0  0  0  0  0  0  0  0  0  0  0  0
  150.9570  139.6556  154.5736 O   0  0  0  0  0  0  0  0  0  0  0  0
  145.6112  136.6775  151.9577 C   0  0  0  0  0  0  0  0  0  0  0  0
  145.5684  135.3417  151.1932 C   0  0  2  0  0  0  0  0  0  0  0  0
  144.4704  135.3236  150.1235 C   0  0  0  0  0  0  0  0  0  0  0  0
  145.3046  134.2924  152.1125 O   0  0  0  0  0  0  0  0  0  0  0  0
  146.7775  132.8016  154.7215 H   0  0  0  0  0  0  0  0  0  0  0  0
  145.9595  132.0425  153.3594 H   0  0  0  0  0  0  0  0  0  0  0  0
  145.0537  133.0694  154.4673 H   0  0  0  0  0  0  0  0  0  0  0  0
  147.2840  133.9908  152.5832 H   0  0  0  0  0  0  0  0  0  0  0  0
  145.5022  135.6082  154.4919 H   0  0  0  0  0  0  0  0  0  0  0  0
  147.2380  135.3446  154.6102 H   0  0  0  0  0  0  0  0  0  0  0  0
  147.6187  137.9102  154.4083 H   0  0  0  0  0  0  0  0  0  0  0  0
  145.5289  139.1332  155.2085 H   0  0  0  0  0  0  0  0  0  0  0  0
  145.4483  137.4310  155.4988 H   0  0  0  0  0  0  0  0  0  0  0  0
  144.5718  138.1241  154.1349 H   0  0  0  0  0  0  0  0  0  0  0  0
  147.1592  138.8836  151.8199 H   0  0  0  0  0  0  0  0  0  0  0  0
  145.9619  139.7414  152.7650 H   0  0  0  0  0  0  0  0  0  0  0  0
  148.7447  140.2170  152.6669 H   0  0  0  0  0  0  0  0  0  0  0  0
  149.7173  141.8170  153.7544 H   0  0  0  0  0  0  0  0  0  0  0  0
  148.7386  142.7520  154.8373 H   0  0  0  0  0  0  0  0  0  0  0  0
  149.0784  142.7842  157.0062 H   0  0  0  0  0  0  0  0  0  0  0  0
  150.3963  142.1983  159.0269 H   0  0  0  0  0  0  0  0  0  0  0  0
  152.0594  140.2930  158.8527 H   0  0  0  0  0  0  0  0  0  0  0  0
  152.3254  139.0977  156.7715 H   0  0  0  0  0  0  0  0  0  0  0  0
  144.6320  136.8934  152.3888 H   0  0  0  0  0  0  0  0  0  0  0  0
  145.8222  137.4622  151.2343 H   0  0  0  0  0  0  0  0  0  0  0  0
  146.5286  135.1646  150.7051 H   0  0  0  0  0  0  0  0  0  0  0  0
  144.6302  136.1079  149.3835 H   0  0  0  0  0  0  0  0  0  0  0  0
  143.4851  135.4756  150.5653 H   0  0  0  0  0  0  0  0  0  0  0  0
  144.4549  134.3691  149.5968 H   0  0  0  0  0  0  0  0  0  0  0  0
  147.5286  136.5161  152.5931 H   0  0  0  0  0  0  0  0  0  0  0  0
  1  2  1  0  0  0  0
  1 23  1  0  0  0  0
  1 24  1  0  0  0  0
  1 25  1  0  0  0  0
  2 22  1  0  0  0  0
  2  3  1  0  0  0  0
  2 26  1  0  0  0  0
  3  4  1  0  0  0  0
  3 27  1  0  0  0  0
  3 28  1  0  0  0  0
  4  5  1  0  0  0  0
  4 19  1  0  0  0  0
  4 48  1  0  0  0  0
  5  6  1  0  0  0  0
  5  7  1  0  0  0  0
  5 29  1  0  0  0  0
  6 30  1  0  0  0  0
  6 31  1  0  0  0  0
  6 32  1  0  0  0  0
  7  8  1  0  0  0  0
  7 33  1  0  0  0  0
  7 34  1  0  0  0  0
  8  9  1  0  0  0  0
  8 35  1  0  0  0  0
  9 10  2  0  0  0  0
  9 11  1  0  0  0  0
 11 12  1  0  0  0  0
 11 36  1  0  0  0  0
 11 37  1  0  0  0  0
 12 17  1  0  0  0  0
 12 13  1  0  0  0  0
 13 14  2  0  0  0  0
 13 38  1  0  0  0  0
 14 15  1  0  0  0  0
 14 39  1  0  0  0  0
 15 16  2  0  0  0  0
 15 40  1  0  0  0  0
 16 17  1  0  0  0  0
 16 41  1  0  0  0  0
 17 18  2  0  0  0  0
 19 20  1  0  0  0  0
 19 42  1  0  0  0  0
 19 43  1  0  0  0  0
 20 21  1  0  0  0  0
 20 22  1  0  0  0  0
 20 44  1  0  0  0  0
 21 45  1  0  0  0  0
 21 46  1  0  0  0  0
 21 47  1  0  0  0  0
M  CHG  1   4   1
M  END
> <s_m_source_file>
AV-unprocessed.smi

> <i_m_source_file_index>
1795

> <i_lp_mmshare_version>
43012

> <i_f3d_flags>
0

> <s_epik_input>
W0NIM11bQ0BASF0xW0NIMl1OKFtDSDJdW0NASF0oTzEpW0NIM10pW0NASF0oW0NIM10pW0NIMl1bTkhdQyg9TylbQ0gyXW4yW2NIXVtjSF1bY0hdW2NIXWMyPU8=

> <s_epik_cmdline>
J2VwaWtfcHl0aG9uJywgJy1waCcsICc3LjAnLCAnLXRuJywgJzgnLCAnLW1hJywgJzIwMCcsICctbWV0YWxfYmluZGluZycsICctaW1hZScsICc8aW5maWxlLm1hZT4nLCAnLW9tYWUnLCAnPG91dGZpbGUubWFlPic=

> <r_lp_tautomer_probability>
1

> <r_epik_Ionization_Penalty>
0.656654

> <r_epik_Ionization_Penalty_Charging>
0.656654

> <r_epik_Ionization_Penalty_Neutral>
8.90321e-08

> <r_epik_State_Penalty>
0.675641

> <r_epik_Charging_Adjusted_Penalty>
1.33229

> <i_epik_Tot_Q>
1

> <i_epik_Tot_abs_Q>
1

> <r_epik_Metal_State_Penalty>
0.675691

> <b_epik_Metal_Only>
0

> <s_lp_Force_Field>
OPLS_2005

> <r_lp_Energy>
28.0815

> <b_lp_Chiralities_Consistent>
1

> <s_lp_Variant>
AV-unprocessed.smi:1795-11

> <Gold.Version>
5.8.1

> <Gold.Id.Protein>
6NUR|6NUR_protein|mol2

> <Gold.PLP.Fitness>
48.4044

> <Gold.PLP.PLP>
-35.3062

> <Gold.PLP.part.hbond>
-3.0000

> <Gold.PLP.part.metal>
0.0000

> <Gold.PLP.part.buried>
-2.0133

> <Gold.PLP.part.nonpolar>
-29.8269

> <Gold.PLP.part.repulsive>
0.3816

> <Gold.PLP.ligand.clash>
0.0000

> <Gold.PLP.ligand.torsion>
1.0088

> <Gold.PLP.Chemscore.Hbond>
4.0000

> <Gold.PLP.Chemscore.CHOScore>
1.0000

> <Gold.PLP.Chemscore.Metal>
0.0000

> <Gold.Chemscore.Hbonds>
donor molecule, donor type, donor heavy atom, donor atom, acceptor molecule, acceptor atom, score
      L1  H     4    48       P1  7948  2.00
      L1  H     8    35       P1  7957  1.00
      P1  H  7989  7998       L1    18  1.00
      L1  C    13    38       P1  8028  1.00

> <Gold.PLP.Chemscore.Internal.Correction>
0.1157

> <Gold.Rescore>
     Score         DG    S(hbond)    S(metal)    S(lipo)     H(rot)  DE(clash)    DE(int)     intcor
     16.34     -17.80       2.82        0.00      66.21       1.89       0.38       1.08       ----

> <Gold.Chemscore.Fitness>
16.3371

> <Gold.Chemscore.DG>
-17.7981

> <Gold.Chemscore.ZeroCoef>
-5.4800

> <Gold.Chemscore.Hbond>
2.8151

> <Gold.Chemscore.Metal>
0.0000

> <Gold.Chemscore.Lipo>
66.2093

> <Gold.Chemscore.Internal_Hbond>
0.0000

> <Gold.Chemscore.DEClash>
0.3777

> <Gold.Chemscore.DEInternal>
1.0833

> <Gold.Chemscore.Rot>
1.8870

> <Gold.Chemscore.Internal.Correction>
   9.000000E+99

> <Gold.Chemscore.Hbonds>
donor molecule, donor type, donor heavy atom, donor atom, acceptor molecule, acceptor atom, score
      L1  H     4    48       P1  7948  0.99
      L1  H     8    35       P1  7957  0.98
      P1  H  7989  7998       L1    18  0.45

> <Gold.Chemscore.Hbond.Weighted>
-9.4024

> <Gold.Chemscore.Metal.Weighted>
-0.0000

> <Gold.Chemscore.Lipo.Weighted>
-7.7465

> <Gold.Chemscore.Internal_Hbond.Weighted>
0.0000

> <Gold.Chemscore.DEClash.Weighted>
0.3777

> <Gold.Chemscore.DEInternal.Weighted>
1.0833

> <Gold.Chemscore.Rot.Weighted>
4.8308

> <Gold.Chemscore.Internal.Correction.Weighted>
   9.000000E+99

> <Gold.Protein.RotatedTorsions>
[ 6907 6896 6895 6894 ] final  169.11 input  -60.11 | X-H torsion
[ 7974 7965 7964 7962 ] final -130.24 input  175.53 | X-H torsion
[ 8008 7997 7996 7995 ] final   28.32 input   59.86 | X-H torsion
[ 10167 10162 10161 10158 ] final  -48.42 input  -65.29 | X-H torsion
[ 10718 10713 10712 10709 ] final  163.92 input   66.30 | X-H torsion
[ 10763 10752 10751 10750 ] final  -69.93 input  -60.55 | X-H torsion
[ 11005 11000 10999 10996 ] final  -71.04 input  -57.11 | X-H torsion

> <Gold.Protein.ActiveResidues>
 VAL166  LYS551  ARG553  GLY616  TRP617  ASP618  TYR619  PRO620  LYS621  CYS622 
 ASP623  PHE694  ASN695  SER759  ASP760  ASP761  ALA762  ILE779  LEU786  VAL792 
 PHE793  MET794  SER795  GLU796  ALA797  LYS798  CYS799  TRP800  GLU811  SER814 

> <Gold.Protein.RotatedAtoms>
  151.8370  133.3417  159.3630 H   0  0  0  0  0  0  0  0  0  0  0  0  # atno 6907 bound_to 6896
  150.7246  134.5428  159.5765 H   0  0  0  0  0  0  0  0  0  0  0  0  # atno 6908 bound_to 6896
  152.2893  134.7740  160.0432 H   0  0  0  0  0  0  0  0  0  0  0  0  # atno 6909 bound_to 6896
  144.9494  140.7327  143.4797 H   0  0  0  0  0  0  0  0  0  0  0  0  # atno 7974 bound_to 7965
  155.0567  140.3186  155.4674 H   0  0  0  0  0  0  0  0  0  0  0  0  # atno 8008 bound_to 7997
  156.2822  140.2136  156.5638 H   0  0  0  0  0  0  0  0  0  0  0  0  # atno 8009 bound_to 7997
  154.7165  140.0493  157.0587 H   0  0  0  0  0  0  0  0  0  0  0  0  # atno 8010 bound_to 7997
  140.6731  143.2741  151.4068 H   0  0  0  0  0  0  0  0  0  0  0  0  # atno 10167 bound_to 10162
  157.1016  131.0444  151.2495 H   0  0  0  0  0  0  0  0  0  0  0  0  # atno 10718 bound_to 10713
  154.4104  135.6010  153.5949 H   0  0  0  0  0  0  0  0  0  0  0  0  # atno 10763 bound_to 10752
  152.9790  135.5928  154.4076 H   0  0  0  0  0  0  0  0  0  0  0  0  # atno 10764 bound_to 10752
  154.3888  135.2842  155.2146 H   0  0  0  0  0  0  0  0  0  0  0  0  # atno 10765 bound_to 10752
  141.1585  133.6806  156.6844 H   0  0  0  0  0  0  0  0  0  0  0  0  # atno 11005 bound_to 11000
  145.2868  139.1898  143.4762 LP  0  0  0  0  0  0  0  0  0  0  0  0  # atno 17320 bound_to 7965
  146.3315  140.2838  142.8611 LP  0  0  0  0  0  0  0  0  0  0  0  0  # atno 17321 bound_to 7965
  139.6010  144.1296  152.2198 LP  0  0  0  0  0  0  0  0  0  0  0  0  # atno 17342 bound_to 10162
  140.0680  144.5802  150.7213 LP  0  0  0  0  0  0  0  0  0  0  0  0  # atno 17343 bound_to 10162
  157.4635  130.7667  149.7258 LP  0  0  0  0  0  0  0  0  0  0  0  0  # atno 17370 bound_to 10713
  155.9872  130.3969  150.3176 LP  0  0  0  0  0  0  0  0  0  0  0  0  # atno 17371 bound_to 10713
  140.3078  134.8111  157.4151 LP  0  0  0  0  0  0  0  0  0  0  0  0  # atno 17394 bound_to 11000
  140.1205  134.5226  155.8187 LP  0  0  0  0  0  0  0  0  0  0  0  0  # atno 17395 bound_to 11000

$$$$
