#       Name:                AV-unprocessed.smi:3289
#       Creating user name   scv26
#       Creation time:       Fri Mar 27 18:54:03 2020


#       File generated by GOLD software.
#

@<TRIPOS>MOLECULE
AV-unprocessed.smi:3289
    44    45     1
SMALL
NO_CHARGES


@<TRIPOS>ATOM
      1 ****        -2.4133   2.2562  -0.4190 C.3            1 S1                 0.0000
      2 ****        -2.1221   1.5431  -1.7469 C.3            1 S1                 0.0000
      3 ****        -2.5574   2.3823  -2.9578 C.3            1 S1                 0.0000
      4 ****        -2.7285   0.1659  -1.7767 C.2            1 S1                 0.0000
      5 ****        -4.0412  -0.0485  -1.8296 N.2            1 S1                 0.0000
      6 ****        -4.1846  -1.4301  -1.8081 C.2            1 S1                 0.0000
      7 ****        -2.9441  -2.0125  -1.7309 C.2            1 S1                 0.0000
      8 ****        -2.0143  -0.9797  -1.7033 N.pl3          1 S1                 0.0000
      9 ****        -0.5729  -1.1587  -1.6026 C.3            1 S1                 0.0000
     10 ****        -0.0840  -0.9357  -0.1696 C.2            1 S1                 0.0000
     11 ****        -0.4545  -1.6891   0.7305 O.2            1 S1                 0.0000
     12 ****         0.7407   0.1043   0.0284 N.am           1 S1                 0.0000
     13 ****         1.3122   0.4895   1.3136 C.3            1 S1                 0.0000
     14 ****         2.6686  -0.1931   1.5548 C.3            1 S1                 0.0000
     15 ****         3.3591   0.2495   2.8408 C.3            1 S1                 0.0000
     16 ****         4.3444  -0.8776   3.0683 C.3            1 S1                 0.0000
     17 ****         3.6150  -2.0973   2.5003 C.3            1 S1                 0.0000
     18 ****         2.5155  -1.5933   1.7465 O.3            1 S1                 0.0000
     19 ****        -2.0344   1.6794   0.4254 H              1 S1                 0.0000
     20 ****        -3.4840   2.3997  -0.2707 H              1 S1                 0.0000
     21 ****        -1.9383   3.2369  -0.3874 H              1 S1                 0.0000
     22 ****        -1.0405   1.4513  -1.8194 H              1 S1                 0.0000
     23 ****        -2.2920   1.8876  -3.8926 H              1 S1                 0.0000
     24 ****        -2.0735   3.3593  -2.9530 H              1 S1                 0.0000
     25 ****        -3.6354   2.5469  -2.9623 H              1 S1                 0.0000
     26 ****        -5.1593  -1.8935  -1.8452 H              1 S1                 0.0000
     27 ****        -2.6525  -3.0515  -1.6852 H              1 S1                 0.0000
     28 ****        -0.3224  -2.1764  -1.9042 H              1 S1                 0.0000
     29 ****        -0.0706  -0.4961  -2.3081 H              1 S1                 0.0000
     30 ****         0.9940   0.6681  -0.7700 H              1 S1                 0.0000
     31 ****         1.4466   1.5713   1.3009 H              1 S1                 0.0000
     32 ****         0.6195   0.2755   2.1294 H              1 S1                 0.0000
     33 ****         3.3361  -0.0261   0.7073 H              1 S1                 0.0000
     34 ****         3.8391   1.2246   2.7541 H              1 S1                 0.0000
     35 ****         2.6438   0.2906   3.6637 H              1 S1                 0.0000
     36 ****         5.2574  -0.6931   2.5003 H              1 S1                 0.0000
     37 ****         4.6166  -0.9965   4.1174 H              1 S1                 0.0000
     38 ****         4.2732  -2.6912   1.8656 H              1 S1                 0.0000
     39 ****         3.2369  -2.7425   3.2937 H              1 S1                 0.0000
     40 ****        -4.7676   0.6373  -1.8750 LP             1 S1                 0.0000
     41 ****        -1.0745  -2.4463   0.5253 LP             1 S1                 0.0000
     42 ****        -0.1354  -1.5440   1.6671 LP             1 S1                 0.0000
     43 ****         2.4852  -2.0493   0.8571 LP             1 S1                 0.0000
     44 ****         1.6645  -1.7701   2.2409 LP             1 S1                 0.0000
@<TRIPOS>BOND
    1    1    2 1     
    2    1   19 1     
    3    1   20 1     
    4    1   21 1     
    5    2    3 1     
    6    2    4 1     
    7    2   22 1     
    8    3   23 1     
    9    3   24 1     
   10    3   25 1     
   11    4    8 1     
   12    4    5 2     
   13    5    6 1     
   14    6    7 2     
   15    6   26 1     
   16    7    8 1     
   17    7   27 1     
   18    8    9 1     
   19    9   10 1     
   20    9   28 1     
   21    9   29 1     
   22   10   11 2     
   23   10   12 am    
   24   12   13 1     
   25   12   30 1     
   26   13   14 1     
   27   13   31 1     
   28   13   32 1     
   29   14   18 1     
   30   14   15 1     
   31   14   33 1     
   32   15   16 1     
   33   15   34 1     
   34   15   35 1     
   35   16   17 1     
   36   16   36 1     
   37   16   37 1     
   38   17   18 1     
   39   17   38 1     
   40   17   39 1     
   41    5   40 1     
   42   11   41 1     
   43   11   42 1     
   44   18   43 1     
   45   18   44 1     
@<TRIPOS>SUBSTRUCTURE
      1 S1             1
@<TRIPOS>SET
LONE_PAIRS      STATIC     ATOMS    <user>   **** ""
5 40 41 42 43 44
DONOR_HYDROGENS      STATIC     ATOMS    <user>   **** ""
1 30
ATOM$BLUE        STATIC     ATOMS    COLORGROUP SYSTEM
5 40 41 42 43 44
ATOM$RED        STATIC     ATOMS    COLORGROUP SYSTEM
1 30
