AV-unprocessed.smi:2983|AV-procd|sdf|11377|dock5
  -GOLD-   2272016293D 1   1.00000     0.00000
 Structure written by MMmdl.
 39 40  0  0  0  0  0  0  0  0  1 V2000
  151.6772  143.9381  161.5725 C   0  0  0  0  0  0  0  0  0  0  0  0
  152.7284  142.8311  161.4376 C   0  0  0  0  0  0  0  0  0  0  0  0
  152.3604  141.7984  160.3640 C   0  0  0  0  0  0  0  0  0  0  0  0
  152.2258  142.4278  158.9675 C   0  0  0  0  0  0  0  0  0  0  0  0
  151.6334  141.5213  158.0045 N   0  0  0  0  0  0  0  0  0  0  0  0
  150.5417  141.8547  157.1975 C   0  0  0  0  0  0  0  0  0  0  0  0
  149.9978  143.1228  157.3237 N   0  0  0  0  0  0  0  0  0  0  0  0
  150.0147  140.9741  156.2982 C   0  0  0  0  0  0  0  0  0  0  0  0
  148.9378  141.2676  155.4691 N   0  0  0  0  0  0  0  0  0  0  0  0
  147.6320  141.6844  155.9638 C   0  0  0  0  0  0  0  0  0  0  0  0
  146.5428  140.6878  155.5252 C   0  0  0  0  0  0  0  0  0  0  0  0
  146.5823  140.5218  154.1107 O   0  0  0  0  0  0  0  0  0  0  0  0
  147.8387  140.0211  153.6622 C   0  0  0  0  0  0  0  0  0  0  0  0
  148.9497  141.0180  154.0344 C   0  0  0  0  0  0  0  0  0  0  0  0
  150.5881  139.6329  156.1472 C   0  0  0  0  0  0  0  0  0  0  0  0
  150.1826  138.7614  155.3788 O   0  0  0  0  0  0  0  0  0  0  0  0
  151.6904  139.3704  156.9573 N   0  0  0  0  0  0  0  0  0  0  0  0
  152.2515  140.2550  157.8717 C   0  0  0  0  0  0  0  0  0  0  0  0
  153.2438  139.9105  158.5146 O   0  0  0  0  0  0  0  0  0  0  0  0
  152.1235  138.4629  156.8674 H   0  0  0  0  0  0  0  0  0  0  0  0
  151.9652  144.6573  162.3396 H   0  0  0  0  0  0  0  0  0  0  0  0
  150.7066  143.5264  161.8500 H   0  0  0  0  0  0  0  0  0  0  0  0
  151.5564  144.4818  160.6352 H   0  0  0  0  0  0  0  0  0  0  0  0
  153.6938  143.2789  161.1980 H   0  0  0  0  0  0  0  0  0  0  0  0
  152.8491  142.3318  162.3997 H   0  0  0  0  0  0  0  0  0  0  0  0
  153.1200  141.0161  160.3378 H   0  0  0  0  0  0  0  0  0  0  0  0
  151.4247  141.3097  160.6385 H   0  0  0  0  0  0  0  0  0  0  0  0
  151.6329  143.3442  158.9837 H   0  0  0  0  0  0  0  0  0  0  0  0
  153.1941  142.7274  158.5677 H   0  0  0  0  0  0  0  0  0  0  0  0
  150.3718  143.7955  157.9775 H   0  0  0  0  0  0  0  0  0  0  0  0
  149.2290  143.4340  156.7477 H   0  0  0  0  0  0  0  0  0  0  0  0
  147.6494  141.7681  157.0511 H   0  0  0  0  0  0  0  0  0  0  0  0
  147.4115  142.6795  155.5750 H   0  0  0  0  0  0  0  0  0  0  0  0
  146.6707  139.7226  156.0163 H   0  0  0  0  0  0  0  0  0  0  0  0
  145.5584  141.0584  155.8112 H   0  0  0  0  0  0  0  0  0  0  0  0
  148.0301  139.0411  154.1017 H   0  0  0  0  0  0  0  0  0  0  0  0
  147.8013  139.8845  152.5814 H   0  0  0  0  0  0  0  0  0  0  0  0
  148.8060  141.9619  153.5073 H   0  0  0  0  0  0  0  0  0  0  0  0
  149.9212  140.6291  153.7265 H   0  0  0  0  0  0  0  0  0  0  0  0
  1  2  1  0  0  0  0
  1 21  1  0  0  0  0
  1 22  1  0  0  0  0
  1 23  1  0  0  0  0
  2  3  1  0  0  0  0
  2 24  1  0  0  0  0
  2 25  1  0  0  0  0
  3  4  1  0  0  0  0
  3 26  1  0  0  0  0
  3 27  1  0  0  0  0
  4  5  1  0  0  0  0
  4 28  1  0  0  0  0
  4 29  1  0  0  0  0
  5 18  1  0  0  0  0
  5  6  1  0  0  0  0
  6  7  1  0  0  0  0
  6  8  2  0  0  0  0
  7 30  1  0  0  0  0
  7 31  1  0  0  0  0
  8  9  1  0  0  0  0
  8 15  1  0  0  0  0
  9 14  1  0  0  0  0
  9 10  1  0  0  0  0
 10 11  1  0  0  0  0
 10 32  1  0  0  0  0
 10 33  1  0  0  0  0
 11 12  1  0  0  0  0
 11 34  1  0  0  0  0
 11 35  1  0  0  0  0
 12 13  1  0  0  0  0
 13 14  1  0  0  0  0
 13 36  1  0  0  0  0
 13 37  1  0  0  0  0
 14 38  1  0  0  0  0
 14 39  1  0  0  0  0
 15 16  2  0  0  0  0
 15 17  1  0  0  0  0
 17 20  1  0  0  0  0
 17 18  1  0  0  0  0
 18 19  2  0  0  0  0
M  END
> <s_m_source_file>
AV-unprocessed.smi

> <i_m_source_file_index>
2983

> <i_lp_mmshare_version>
43012

> <i_f3d_flags>
0

> <s_epik_input>
W0NIM11bQ0gyXVtDSDJdW0NIMl1uMWMoW05IMl0pYyhjKD1PKVtuSF1jMT1PKU4yW0NIMl1bQ0gyXU9bQ0gyXVtDSDJdMg==

> <s_epik_cmdline>
J2VwaWtfcHl0aG9uJywgJy1waCcsICc3LjAnLCAnLXRuJywgJzgnLCAnLW1hJywgJzIwMCcsICctbWV0YWxfYmluZGluZycsICctaW1hZScsICc8aW5maWxlLm1hZT4nLCAnLW9tYWUnLCAnPG91dGZpbGUubWFlPic=

> <r_lp_tautomer_probability>
1

> <r_epik_Ionization_Penalty>
1.02563e-05

> <r_epik_Ionization_Penalty_Charging>
2.70122e-06

> <r_epik_Ionization_Penalty_Neutral>
7.55508e-06

> <r_epik_State_Penalty>
-0

> <r_epik_Charging_Adjusted_Penalty>
2.70122e-06

> <i_epik_Tot_Q>
0

> <i_epik_Tot_abs_Q>
0

> <r_epik_Metal_State_Penalty>
-0

> <b_epik_Metal_Only>
0

> <s_epik_Chemistry_Notes>
This compound has an imine and may undergo hydrolysis.

> <s_lp_Force_Field>
OPLS_2005

> <r_lp_Energy>
27.0785

> <b_lp_Chiralities_Consistent>
1

> <s_lp_Variant>
AV-unprocessed.smi:2983-1

> <Gold.Version>
5.8.1

> <Gold.Id.Protein>
6NUR|6NUR_protein|mol2

> <Gold.PLP.Fitness>
38.2058

> <Gold.PLP.PLP>
-32.6824

> <Gold.PLP.part.hbond>
-2.0000

> <Gold.PLP.part.metal>
0.0000

> <Gold.PLP.part.buried>
0.5477

> <Gold.PLP.part.nonpolar>
-29.6550

> <Gold.PLP.part.repulsive>
0.2719

> <Gold.PLP.ligand.clash>
0.0000

> <Gold.PLP.ligand.torsion>
1.0477

> <Gold.PLP.Chemscore.Hbond>
2.0000

> <Gold.PLP.Chemscore.CHOScore>
0.0000

> <Gold.PLP.Chemscore.Metal>
0.0000

> <Gold.Chemscore.Hbonds>
donor molecule, donor type, donor heavy atom, donor atom, acceptor molecule, acceptor atom, score
      L1  H     7    31       P1  8028  0.77
      P1  H  7997  8009       L1    19  0.80

> <Gold.PLP.Chemscore.Internal.Correction>
1.6187

> <Gold.Rescore>
     Score         DG    S(hbond)    S(metal)    S(lipo)     H(rot)  DE(clash)    DE(int)     intcor
     13.10     -15.68       1.66        0.00      71.48       1.45       0.08       2.50       ----

> <Gold.Chemscore.Fitness>
13.1010

> <Gold.Chemscore.DG>
-15.6785

> <Gold.Chemscore.ZeroCoef>
-5.4800

> <Gold.Chemscore.Hbond>
1.6619

> <Gold.Chemscore.Metal>
0.0000

> <Gold.Chemscore.Lipo>
71.4826

> <Gold.Chemscore.Internal_Hbond>
0.0000

> <Gold.Chemscore.DEClash>
0.0762

> <Gold.Chemscore.DEInternal>
2.5012

> <Gold.Chemscore.Rot>
1.4515

> <Gold.Chemscore.Internal.Correction>
   9.000000E+99

> <Gold.Chemscore.Hbonds>
donor molecule, donor type, donor heavy atom, donor atom, acceptor molecule, acceptor atom, score
      L1  H     7    31       P1  8028  0.73
      P1  H  7997  8009       L1    19  0.50

> <Gold.Chemscore.Hbond.Weighted>
-5.5509

> <Gold.Chemscore.Metal.Weighted>
-0.0000

> <Gold.Chemscore.Lipo.Weighted>
-8.3635

> <Gold.Chemscore.Internal_Hbond.Weighted>
0.0000

> <Gold.Chemscore.DEClash.Weighted>
0.0762

> <Gold.Chemscore.DEInternal.Weighted>
2.5012

> <Gold.Chemscore.Rot.Weighted>
3.7159

> <Gold.Chemscore.Internal.Correction.Weighted>
   9.000000E+99

> <Gold.Protein.RotatedTorsions>
[ 6907 6896 6895 6894 ] final  171.23 input  -60.11 | X-H torsion
[ 7974 7965 7964 7962 ] final  -87.20 input  175.53 | X-H torsion
[ 8008 7997 7996 7995 ] final  132.46 input   59.86 | X-H torsion
[ 10167 10162 10161 10158 ] final  -35.85 input  -65.29 | X-H torsion
[ 10718 10713 10712 10709 ] final   31.18 input   66.30 | X-H torsion
[ 10763 10752 10751 10750 ] final -100.35 input  -60.55 | X-H torsion
[ 11005 11000 10999 10996 ] final   91.56 input  -57.11 | X-H torsion

> <Gold.Protein.ActiveResidues>
 VAL166  LYS551  ARG553  GLY616  TRP617  ASP618  TYR619  PRO620  LYS621  CYS622 
 ASP623  PHE694  ASN695  SER759  ASP760  ASP761  ALA762  ILE779  LEU786  VAL792 
 PHE793  MET794  SER795  GLU796  ALA797  LYS798  CYS799  TRP800  GLU811  SER814 

> <Gold.Protein.RotatedAtoms>
  151.8036  133.3373  159.3533 H   0  0  0  0  0  0  0  0  0  0  0  0  # atno 6907 bound_to 6896
  150.7350  134.5730  159.5909 H   0  0  0  0  0  0  0  0  0  0  0  0  # atno 6908 bound_to 6896
  152.3125  134.7480  160.0384 H   0  0  0  0  0  0  0  0  0  0  0  0  # atno 6909 bound_to 6896
  145.4697  140.9560  143.1924 H   0  0  0  0  0  0  0  0  0  0  0  0  # atno 7974 bound_to 7965
  156.2982  140.2546  156.3092 H   0  0  0  0  0  0  0  0  0  0  0  0  # atno 8008 bound_to 7997
  154.9342  140.0397  157.2083 H   0  0  0  0  0  0  0  0  0  0  0  0  # atno 8009 bound_to 7997
  154.8188  140.2856  155.5805 H   0  0  0  0  0  0  0  0  0  0  0  0  # atno 8010 bound_to 7997
  140.7156  143.3448  151.2279 H   0  0  0  0  0  0  0  0  0  0  0  0  # atno 10167 bound_to 10162
  157.2691  130.7199  149.6495 H   0  0  0  0  0  0  0  0  0  0  0  0  # atno 10718 bound_to 10713
  154.7571  135.4938  153.9396 H   0  0  0  0  0  0  0  0  0  0  0  0  # atno 10763 bound_to 10752
  153.1209  135.6731  153.9346 H   0  0  0  0  0  0  0  0  0  0  0  0  # atno 10764 bound_to 10752
  153.9078  135.3102  155.3427 H   0  0  0  0  0  0  0  0  0  0  0  0  # atno 10765 bound_to 10752
  139.8837  134.8681  156.3445 H   0  0  0  0  0  0  0  0  0  0  0  0  # atno 11005 bound_to 11000
  144.7953  139.6247  143.7095 LP  0  0  0  0  0  0  0  0  0  0  0  0  # atno 17320 bound_to 7965
  146.2404  139.5989  142.9495 LP  0  0  0  0  0  0  0  0  0  0  0  0  # atno 17321 bound_to 7965
  139.6965  143.9604  152.2885 LP  0  0  0  0  0  0  0  0  0  0  0  0  # atno 17342 bound_to 10162
  139.9283  144.6757  150.8389 LP  0  0  0  0  0  0  0  0  0  0  0  0  # atno 17343 bound_to 10162
  155.9663  130.4373  150.5170 LP  0  0  0  0  0  0  0  0  0  0  0  0  # atno 17370 bound_to 10713
  157.3091  131.0660  151.2014 LP  0  0  0  0  0  0  0  0  0  0  0  0  # atno 17371 bound_to 10713
  140.9636  133.7373  156.0435 LP  0  0  0  0  0  0  0  0  0  0  0  0  # atno 17394 bound_to 11000
  140.7959  134.3564  157.5452 LP  0  0  0  0  0  0  0  0  0  0  0  0  # atno 17395 bound_to 11000

$$$$
