AV-unprocessed.smi:1645|AV-procd|sdf|6617|dock5
  -GOLD-   22720 7313D 1   1.00000     0.00000
 Structure written by MMmdl.
 55 58  0  0  0  0  0  0  0  0  4 V2000
  149.7037  137.8040  154.7636 O   0  0  0  0  0  0  0  0  0  0  0  0
  148.5501  138.2443  154.7056 C   0  0  0  0  0  0  0  0  0  0  0  0
  148.2384  139.4136  155.2922 N   0  0  0  0  0  0  0  0  0  0  0  0
  149.0783  140.2863  156.0337 C   0  0  0  0  0  0  0  0  0  0  0  0
  150.4284  140.4004  155.6390 C   0  0  0  0  0  0  0  0  0  0  0  0
  151.2918  141.2629  156.3451 C   0  0  0  0  0  0  0  0  0  0  0  0
  150.7845  142.0108  157.4321 C   0  0  0  0  0  0  0  0  0  0  0  0
  151.5672  142.8807  158.2016 N   0  0  0  0  0  0  0  0  0  0  0  0
  151.1038  144.2645  158.1450 C   0  0  0  0  0  0  0  0  0  0  0  0
  152.1108  145.2043  158.8296 C   0  0  0  0  0  0  0  0  0  0  0  0
  152.3999  144.7434  160.2674 C   0  0  0  0  0  0  0  0  0  0  0  0
  152.8472  143.2721  160.2759 C   0  0  0  0  0  0  0  0  0  0  0  0
  151.8247  142.3805  159.5493 C   0  0  0  0  0  0  0  0  0  0  0  0
  149.4805  141.8937  157.7636 N   0  3  0  0  0  0  0  0  0  0  0  0
  148.6217  141.0781  157.1147 C   0  0  0  0  0  0  0  0  0  0  0  0
  147.4813  137.6865  154.0767 N   0  5  0  0  0  0  0  0  0  0  0  0
  146.3584  138.4413  153.5024 C   0  0  1  0  0  0  0  0  0  0  0  0
  146.8987  139.5481  152.5753 C   0  0  0  0  0  0  0  0  0  0  0  0
  146.9670  138.9268  151.1643 C   0  0  0  0  0  0  0  0  0  0  0  0
  146.4152  137.5637  151.3007 N   0  3  2  0  0  0  0  0  0  0  0  0
  145.7335  136.9899  150.1193 C   0  0  0  0  0  0  0  0  0  0  0  0
  145.2877  135.5467  150.4312 C   0  0  0  0  0  0  0  0  0  0  0  0
  144.4329  135.4744  151.7132 C   0  0  0  0  0  0  0  0  0  0  0  0
  145.1574  136.1382  152.9000 C   0  0  0  0  0  0  0  0  0  0  0  0
  145.5705  137.5742  152.5064 C   0  0  1  0  0  0  0  0  0  0  0  0
  147.3028  139.7500  155.1172 H   0  0  0  0  0  0  0  0  0  0  0  0
  150.8052  139.8229  154.8074 H   0  0  0  0  0  0  0  0  0  0  0  0
  152.3288  141.3437  156.0538 H   0  0  0  0  0  0  0  0  0  0  0  0
  150.9643  144.5641  157.1053 H   0  0  0  0  0  0  0  0  0  0  0  0
  150.1322  144.3453  158.6343 H   0  0  0  0  0  0  0  0  0  0  0  0
  153.0394  145.2226  158.2576 H   0  0  0  0  0  0  0  0  0  0  0  0
  151.7280  146.2254  158.8316 H   0  0  0  0  0  0  0  0  0  0  0  0
  153.1659  145.3741  160.7193 H   0  0  0  0  0  0  0  0  0  0  0  0
  151.5020  144.8573  160.8762 H   0  0  0  0  0  0  0  0  0  0  0  0
  153.8192  143.1840  159.7881 H   0  0  0  0  0  0  0  0  0  0  0  0
  152.9828  142.9272  161.3012 H   0  0  0  0  0  0  0  0  0  0  0  0
  150.8912  142.3529  160.1132 H   0  0  0  0  0  0  0  0  0  0  0  0
  152.1975  141.3566  159.4970 H   0  0  0  0  0  0  0  0  0  0  0  0
  147.6060  141.0988  157.4808 H   0  0  0  0  0  0  0  0  0  0  0  0
  145.6915  138.8523  154.2613 H   0  0  0  0  0  0  0  0  0  0  0  0
  146.1996  140.3852  152.5655 H   0  0  0  0  0  0  0  0  0  0  0  0
  147.8616  139.9457  152.9000 H   0  0  0  0  0  0  0  0  0  0  0  0
  146.3759  139.5170  150.4619 H   0  0  0  0  0  0  0  0  0  0  0  0
  147.9889  138.8779  150.7864 H   0  0  0  0  0  0  0  0  0  0  0  0
  144.8723  137.6053  149.8548 H   0  0  0  0  0  0  0  0  0  0  0  0
  146.4126  136.9993  149.2662 H   0  0  0  0  0  0  0  0  0  0  0  0
  144.7304  135.1379  149.5879 H   0  0  0  0  0  0  0  0  0  0  0  0
  146.1693  134.9158  150.5523 H   0  0  0  0  0  0  0  0  0  0  0  0
  143.4794  135.9757  151.5426 H   0  0  0  0  0  0  0  0  0  0  0  0
  144.1987  134.4365  151.9507 H   0  0  0  0  0  0  0  0  0  0  0  0
  144.5039  136.1477  153.7738 H   0  0  0  0  0  0  0  0  0  0  0  0
  146.0274  135.5345  153.1648 H   0  0  0  0  0  0  0  0  0  0  0  0
  144.6581  138.1228  152.2617 H   0  0  0  0  0  0  0  0  0  0  0  0
  147.1975  136.9658  151.5268 H   0  0  0  0  0  0  0  0  0  0  0  0
  149.1256  142.4472  158.5435 H   0  0  0  0  0  0  0  0  0  0  0  0
  1  2  2  0  0  0  0
  2  3  1  0  0  0  0
  2 16  1  0  0  0  0
  3  4  1  0  0  0  0
  3 26  1  0  0  0  0
  4 15  1  0  0  0  0
  4  5  2  0  0  0  0
  5  6  1  0  0  0  0
  5 27  1  0  0  0  0
  6  7  2  0  0  0  0
  6 28  1  0  0  0  0
  7  8  1  0  0  0  0
  7 14  1  0  0  0  0
  8 13  1  0  0  0  0
  8  9  1  0  0  0  0
  9 10  1  0  0  0  0
  9 29  1  0  0  0  0
  9 30  1  0  0  0  0
 10 11  1  0  0  0  0
 10 31  1  0  0  0  0
 10 32  1  0  0  0  0
 11 12  1  0  0  0  0
 11 33  1  0  0  0  0
 11 34  1  0  0  0  0
 12 13  1  0  0  0  0
 12 35  1  0  0  0  0
 12 36  1  0  0  0  0
 13 37  1  0  0  0  0
 13 38  1  0  0  0  0
 14 15  2  0  0  0  0
 14 55  1  0  0  0  0
 15 39  1  0  0  0  0
 16 17  1  0  0  0  0
 17 25  1  0  0  0  0
 17 18  1  0  0  0  0
 17 40  1  0  0  0  0
 18 19  1  0  0  0  0
 18 41  1  0  0  0  0
 18 42  1  0  0  0  0
 19 20  1  0  0  0  0
 19 43  1  0  0  0  0
 19 44  1  0  0  0  0
 20 25  1  0  0  0  0
 20 21  1  0  0  0  0
 20 54  1  0  0  0  0
 21 22  1  0  0  0  0
 21 45  1  0  0  0  0
 21 46  1  0  0  0  0
 22 23  1  0  0  0  0
 22 47  1  0  0  0  0
 22 48  1  0  0  0  0
 23 24  1  0  0  0  0
 23 49  1  0  0  0  0
 23 50  1  0  0  0  0
 24 25  1  0  0  0  0
 24 51  1  0  0  0  0
 24 52  1  0  0  0  0
 25 53  1  0  0  0  0
M  CHG  1  14   1
M  CHG  1  16  -1
M  CHG  1  20   1
M  END
> <s_m_source_file>
AV-unprocessed.smi

> <i_m_source_file_index>
1645

> <i_lp_mmshare_version>
43012

> <i_f3d_flags>
0

> <s_epik_input>
W0NIMl0xW0NIMl1bQ0gyXVtDSDJdW0NASF0oTjEyKVtDQEBIXShbQ0gyXVtDSDJdMilbTkhdQyg9TylbTkhdYzNbY0hdW2NIXWMobltjSF0zKU40W0NIMl1bQ0gyXVtDSDJdW0NIMl1bQ0gyXTQ=

> <s_epik_cmdline>
J2VwaWtfcHl0aG9uJywgJy1waCcsICc3LjAnLCAnLXRuJywgJzgnLCAnLW1hJywgJzIwMCcsICctbWV0YWxfYmluZGluZycsICctaW1hZScsICc8aW5maWxlLm1hZT4nLCAnLW9tYWUnLCAnPG91dGZpbGUubWFlPic=

> <r_lp_tautomer_probability>
0.999994

> <r_epik_Ionization_Penalty>
8.55589

> <r_epik_Ionization_Penalty_Charging>
8.55589

> <r_epik_Ionization_Penalty_Neutral>
3.8092e-06

> <r_epik_State_Penalty>
8.15703

> <r_epik_Charging_Adjusted_Penalty>
16.7129

> <i_epik_Tot_Q>
1

> <i_epik_Tot_abs_Q>
3

> <r_epik_Metal_State_Penalty>
4.13781

> <b_epik_Metal_Only>
1

> <s_lp_Force_Field>
OPLS_2005

> <r_lp_Energy>
55.818

> <b_lp_Chiralities_Consistent>
1

> <s_lp_Variant>
AV-unprocessed.smi:1645-18

> <Gold.Version>
5.8.1

> <Gold.Id.Protein>
6NUR|6NUR_protein|mol2

> <Gold.PLP.Fitness>
45.3892

> <Gold.PLP.PLP>
-40.5288

> <Gold.PLP.part.hbond>
-1.7431

> <Gold.PLP.part.metal>
0.0000

> <Gold.PLP.part.buried>
1.7240

> <Gold.PLP.part.nonpolar>
-41.7559

> <Gold.PLP.part.repulsive>
1.2344

> <Gold.PLP.ligand.clash>
0.0000

> <Gold.PLP.ligand.torsion>
0.6764

> <Gold.PLP.Chemscore.Hbond>
2.0000

> <Gold.PLP.Chemscore.CHOScore>
0.0000

> <Gold.PLP.Chemscore.Metal>
0.0000

> <Gold.Chemscore.Hbonds>
donor molecule, donor type, donor heavy atom, donor atom, acceptor molecule, acceptor atom, score
      L1  H    20    54       P1  7948  2.00

> <Gold.PLP.Chemscore.Internal.Correction>
0.2133

> <Gold.Rescore>
     Score         DG    S(hbond)    S(metal)    S(lipo)     H(rot)  DE(clash)    DE(int)     intcor
     17.30     -20.16       0.99        0.00     122.89       1.17       0.92       1.93       ----

> <Gold.Chemscore.Fitness>
17.3045

> <Gold.Chemscore.DG>
-20.1564

> <Gold.Chemscore.ZeroCoef>
-5.4800

> <Gold.Chemscore.Hbond>
0.9885

> <Gold.Chemscore.Metal>
0.0000

> <Gold.Chemscore.Lipo>
122.8884

> <Gold.Chemscore.Internal_Hbond>
0.0000

> <Gold.Chemscore.DEClash>
0.9176

> <Gold.Chemscore.DEInternal>
1.9342

> <Gold.Chemscore.Rot>
1.1731

> <Gold.Chemscore.Internal.Correction>
   9.000000E+99

> <Gold.Chemscore.Hbonds>
donor molecule, donor type, donor heavy atom, donor atom, acceptor molecule, acceptor atom, score
      L1  H    20    54       P1  7948  1.00

> <Gold.Chemscore.Hbond.Weighted>
-3.3017

> <Gold.Chemscore.Metal.Weighted>
-0.0000

> <Gold.Chemscore.Lipo.Weighted>
-14.3779

> <Gold.Chemscore.Internal_Hbond.Weighted>
0.0000

> <Gold.Chemscore.DEClash.Weighted>
0.9176

> <Gold.Chemscore.DEInternal.Weighted>
1.9342

> <Gold.Chemscore.Rot.Weighted>
3.0032

> <Gold.Chemscore.Internal.Correction.Weighted>
   9.000000E+99

> <Gold.Protein.RotatedTorsions>
[ 6907 6896 6895 6894 ] final  118.27 input  -60.11 | X-H torsion
[ 7974 7965 7964 7962 ] final  157.60 input  175.53 | X-H torsion
[ 8008 7997 7996 7995 ] final  150.24 input   59.86 | X-H torsion
[ 10167 10162 10161 10158 ] final  -98.24 input  -65.29 | X-H torsion
[ 10718 10713 10712 10709 ] final  -35.34 input   66.30 | X-H torsion
[ 10763 10752 10751 10750 ] final   20.11 input  -60.55 | X-H torsion
[ 11005 11000 10999 10996 ] final   49.78 input  -57.11 | X-H torsion

> <Gold.Protein.ActiveResidues>
 VAL166  LYS551  ARG553  GLY616  TRP617  ASP618  TYR619  PRO620  LYS621  CYS622 
 ASP623  PHE694  ASN695  SER759  ASP760  ASP761  ALA762  ILE779  LEU786  VAL792 
 PHE793  MET794  SER795  GLU796  ALA797  LYS798  CYS799  TRP800  GLU811  SER814 

> <Gold.Protein.RotatedAtoms>
  152.4555  133.7714  159.6800 H   0  0  0  0  0  0  0  0  0  0  0  0  # atno 6907 bound_to 6896
  150.8480  133.7821  159.3042 H   0  0  0  0  0  0  0  0  0  0  0  0  # atno 6908 bound_to 6896
  151.5426  135.1071  159.9982 H   0  0  0  0  0  0  0  0  0  0  0  0  # atno 6909 bound_to 6896
  144.7894  139.7363  143.6228 H   0  0  0  0  0  0  0  0  0  0  0  0  # atno 7974 bound_to 7965
  156.2723  140.2080  156.5986 H   0  0  0  0  0  0  0  0  0  0  0  0  # atno 8008 bound_to 7997
  154.6925  140.0529  157.0401 H   0  0  0  0  0  0  0  0  0  0  0  0  # atno 8009 bound_to 7997
  155.0847  140.3190  155.4594 H   0  0  0  0  0  0  0  0  0  0  0  0  # atno 8010 bound_to 7997
  140.2750  143.3319  152.0497 H   0  0  0  0  0  0  0  0  0  0  0  0  # atno 10167 bound_to 10162
  156.3398  130.4292  149.7797 H   0  0  0  0  0  0  0  0  0  0  0  0  # atno 10718 bound_to 10713
  153.1104  135.6695  153.9510 H   0  0  0  0  0  0  0  0  0  0  0  0  # atno 10763 bound_to 10752
  153.9055  135.3031  155.3450 H   0  0  0  0  0  0  0  0  0  0  0  0  # atno 10764 bound_to 10752
  154.7524  135.5028  153.9390 H   0  0  0  0  0  0  0  0  0  0  0  0  # atno 10765 bound_to 10752
  140.1073  134.5001  155.8708 H   0  0  0  0  0  0  0  0  0  0  0  0  # atno 11005 bound_to 11000
  146.2139  139.5515  142.9663 LP  0  0  0  0  0  0  0  0  0  0  0  0  # atno 17320 bound_to 7965
  145.5836  141.0379  143.2109 LP  0  0  0  0  0  0  0  0  0  0  0  0  # atno 17321 bound_to 7965
  139.4978  144.6630  151.6420 LP  0  0  0  0  0  0  0  0  0  0  0  0  # atno 17342 bound_to 10162
  140.5858  143.9866  150.6295 LP  0  0  0  0  0  0  0  0  0  0  0  0  # atno 17343 bound_to 10162
  156.5038  130.8141  151.3143 LP  0  0  0  0  0  0  0  0  0  0  0  0  # atno 17370 bound_to 10713
  157.7445  130.9936  150.2677 LP  0  0  0  0  0  0  0  0  0  0  0  0  # atno 17371 bound_to 10713
  141.2121  133.6715  156.6637 LP  0  0  0  0  0  0  0  0  0  0  0  0  # atno 17394 bound_to 11000
  140.3138  134.8064  157.4197 LP  0  0  0  0  0  0  0  0  0  0  0  0  # atno 17395 bound_to 11000

$$$$
