AV-unprocessed.smi:2699|AV-procd|sdf|10424|dock2
  -GOLD-   2272014463D 1   1.00000     0.00000
 Structure written by MMmdl.
 43 45  0  0  0  0  0  0  0  0  1 V2000
  146.8921  142.5315  154.0103 C   0  0  0  0  0  0  0  0  0  0  0  0
  147.5780  141.1728  153.9380 C   0  0  0  0  0  0  0  0  0  0  0  0
  146.9743  140.1208  153.3552 C   0  0  0  0  0  0  0  0  0  0  0  0
  147.6621  138.8561  153.2708 C   0  0  0  0  0  0  0  0  0  0  0  0
  147.0640  137.8029  152.7007 O   0  0  0  0  0  0  0  0  0  0  0  0
  148.9101  138.7433  153.7610 C   0  0  0  0  0  0  0  0  0  0  0  0
  149.5986  139.8705  154.3939 C   0  0  0  0  0  0  0  0  0  0  0  0
  150.7467  139.7579  154.8263 O   0  0  0  0  0  0  0  0  0  0  0  0
  148.8921  141.0443  154.4778 N   0  0  0  0  0  0  0  0  0  0  0  0
  149.5286  142.2006  155.1515 C   0  0  0  0  0  0  0  0  0  0  0  0
  149.7155  142.0048  156.6698 C   0  0  0  0  0  0  0  0  0  0  0  0
  149.4242  140.9350  157.2026 O   0  0  0  0  0  0  0  0  0  0  0  0
  150.2083  143.0203  157.3953 N   0  0  0  0  0  0  0  0  0  0  0  0
  150.4530  143.0203  158.8345 C   0  0  0  0  0  0  0  0  0  0  0  0
  151.8938  143.4450  159.1770 C   0  0  0  0  0  0  0  0  0  0  0  0
  152.8057  142.2449  158.9008 C   0  0  0  0  0  0  0  0  0  0  0  0
  152.2458  140.9010  158.5076 C   0  0  0  0  0  0  0  0  0  0  0  0
  152.9728  141.0646  159.8294 C   0  0  0  0  0  0  0  0  0  0  0  0
  152.3609  144.7856  158.5682 C   0  0  0  0  0  0  0  0  0  0  0  0
  151.8924  145.5044  159.8321 C   0  0  0  0  0  0  0  0  0  0  0  0
  152.0216  144.1595  160.5457 C   0  0  0  0  0  0  0  0  0  0  0  0
  146.0301  142.5628  153.3435 H   0  0  0  0  0  0  0  0  0  0  0  0
  147.5544  143.3408  153.7042 H   0  0  0  0  0  0  0  0  0  0  0  0
  146.5335  142.7261  155.0213 H   0  0  0  0  0  0  0  0  0  0  0  0
  145.9827  140.2227  152.9381 H   0  0  0  0  0  0  0  0  0  0  0  0
  147.7404  137.1901  152.4554 H   0  0  0  0  0  0  0  0  0  0  0  0
  149.4242  137.7952  153.6917 H   0  0  0  0  0  0  0  0  0  0  0  0
  150.4865  142.4491  154.6978 H   0  0  0  0  0  0  0  0  0  0  0  0
  148.9341  143.1013  154.9909 H   0  0  0  0  0  0  0  0  0  0  0  0
  150.4337  143.8730  156.9036 H   0  0  0  0  0  0  0  0  0  0  0  0
  149.7330  143.6893  159.3078 H   0  0  0  0  0  0  0  0  0  0  0  0
  150.2532  142.0247  159.2332 H   0  0  0  0  0  0  0  0  0  0  0  0
  153.7326  142.5269  158.4047 H   0  0  0  0  0  0  0  0  0  0  0  0
  151.1663  140.7695  158.5418 H   0  0  0  0  0  0  0  0  0  0  0  0
  152.7561  140.3597  157.7137 H   0  0  0  0  0  0  0  0  0  0  0  0
  153.9676  140.6310  159.9070 H   0  0  0  0  0  0  0  0  0  0  0  0
  152.3831  141.0167  160.7407 H   0  0  0  0  0  0  0  0  0  0  0  0
  153.4433  144.8388  158.4388 H   0  0  0  0  0  0  0  0  0  0  0  0
  151.8420  145.0894  157.6586 H   0  0  0  0  0  0  0  0  0  0  0  0
  152.5676  146.2804  160.1932 H   0  0  0  0  0  0  0  0  0  0  0  0
  150.8628  145.8589  159.7656 H   0  0  0  0  0  0  0  0  0  0  0  0
  151.2153  143.9468  161.2483 H   0  0  0  0  0  0  0  0  0  0  0  0
  152.9910  144.0553  161.0309 H   0  0  0  0  0  0  0  0  0  0  0  0
  1  2  1  0  0  0  0
  1 22  1  0  0  0  0
  1 23  1  0  0  0  0
  1 24  1  0  0  0  0
  2  9  1  0  0  0  0
  2  3  2  0  0  0  0
  3  4  1  0  0  0  0
  3 25  1  0  0  0  0
  4  5  1  0  0  0  0
  4  6  2  0  0  0  0
  5 26  1  0  0  0  0
  6  7  1  0  0  0  0
  6 27  1  0  0  0  0
  7  8  2  0  0  0  0
  7  9  1  0  0  0  0
  9 10  1  0  0  0  0
 10 11  1  0  0  0  0
 10 28  1  0  0  0  0
 10 29  1  0  0  0  0
 11 12  2  0  0  0  0
 11 13  1  0  0  0  0
 13 14  1  0  0  0  0
 13 30  1  0  0  0  0
 14 15  1  0  0  0  0
 14 31  1  0  0  0  0
 14 32  1  0  0  0  0
 15 21  1  0  0  0  0
 15 16  1  0  0  0  0
 15 19  1  0  0  0  0
 16 18  1  0  0  0  0
 16 17  1  0  0  0  0
 16 33  1  0  0  0  0
 17 18  1  0  0  0  0
 17 34  1  0  0  0  0
 17 35  1  0  0  0  0
 18 36  1  0  0  0  0
 18 37  1  0  0  0  0
 19 20  1  0  0  0  0
 19 38  1  0  0  0  0
 19 39  1  0  0  0  0
 20 21  1  0  0  0  0
 20 40  1  0  0  0  0
 20 41  1  0  0  0  0
 21 42  1  0  0  0  0
 21 43  1  0  0  0  0
M  END
> <s_m_source_file>
AV-unprocessed.smi

> <i_m_source_file_index>
2699

> <i_lp_mmshare_version>
43012

> <i_f3d_flags>
0

> <s_epik_input>
W0NIM11jMVtjSF1jKFtPSF0pW2NIXWMoPU8pbjFbQ0gyXUMoPU8pW05IXVtDSDJdQzIoW0NIXTNbQ0gyXVtDSDJdMylbQ0gyXVtDSDJdW0NIMl0y

> <s_epik_cmdline>
J2VwaWtfcHl0aG9uJywgJy1waCcsICc3LjAnLCAnLXRuJywgJzgnLCAnLW1hJywgJzIwMCcsICctbWV0YWxfYmluZGluZycsICctaW1hZScsICc8aW5maWxlLm1hZT4nLCAnLW9tYWUnLCAnPG91dGZpbGUubWFlPic=

> <r_lp_tautomer_probability>
0.999984

> <r_epik_Ionization_Penalty>
0.783068

> <r_epik_Ionization_Penalty_Charging>
1.5268e-07

> <r_epik_Ionization_Penalty_Neutral>
0.783068

> <r_epik_State_Penalty>
0.823318

> <r_epik_Charging_Adjusted_Penalty>
0.823318

> <i_epik_Tot_Q>
0

> <i_epik_Tot_abs_Q>
0

> <r_epik_Metal_State_Penalty>
0.823318

> <b_epik_Metal_Only>
0

> <s_lp_Force_Field>
OPLS_2005

> <r_lp_Energy>
38.185

> <b_lp_Chiralities_Consistent>
1

> <s_lp_Variant>
AV-unprocessed.smi:2699-2

> <Gold.Version>
5.8.1

> <Gold.Id.Protein>
6NUR|6NUR_protein|mol2

> <Gold.PLP.Fitness>
50.9443

> <Gold.PLP.PLP>
-45.7943

> <Gold.PLP.part.hbond>
-3.0000

> <Gold.PLP.part.metal>
0.0000

> <Gold.PLP.part.buried>
2.9305

> <Gold.PLP.part.nonpolar>
-45.9142

> <Gold.PLP.part.repulsive>
0.1212

> <Gold.PLP.ligand.clash>
0.0000

> <Gold.PLP.ligand.torsion>
1.7262

> <Gold.PLP.Chemscore.Hbond>
2.2789

> <Gold.PLP.Chemscore.CHOScore>
0.0000

> <Gold.PLP.Chemscore.Metal>
0.0000

> <Gold.Chemscore.Hbonds>
donor molecule, donor type, donor heavy atom, donor atom, acceptor molecule, acceptor atom, score
      L1  H     5    26       P1  7948  1.00
      L1  H    13    30       P1  8028  0.26
      P1  H  7989  7998       L1     8  0.90

> <Gold.PLP.Chemscore.Internal.Correction>
1.7657

> <Gold.Rescore>
     Score         DG    S(hbond)    S(metal)    S(lipo)     H(rot)  DE(clash)    DE(int)     intcor
     16.71     -21.91       2.45        0.00     120.83       2.30       2.07       3.14       ----

> <Gold.Chemscore.Fitness>
16.7071

> <Gold.Chemscore.DG>
-21.9139

> <Gold.Chemscore.ZeroCoef>
-5.4800

> <Gold.Chemscore.Hbond>
2.4475

> <Gold.Chemscore.Metal>
0.0000

> <Gold.Chemscore.Lipo>
120.8330

> <Gold.Chemscore.Internal_Hbond>
0.0000

> <Gold.Chemscore.DEClash>
2.0680

> <Gold.Chemscore.DEInternal>
3.1388

> <Gold.Chemscore.Rot>
2.2962

> <Gold.Chemscore.Internal.Correction>
   9.000000E+99

> <Gold.Chemscore.Hbonds>
donor molecule, donor type, donor heavy atom, donor atom, acceptor molecule, acceptor atom, score
      L1  H     5    26       P1  7948  1.00
      L1  H    13    30       P1  8028  0.26
      P1  H  7989  7998       L1     8  0.18

> <Gold.Chemscore.Hbond.Weighted>
-8.1748

> <Gold.Chemscore.Metal.Weighted>
-0.0000

> <Gold.Chemscore.Lipo.Weighted>
-14.1375

> <Gold.Chemscore.Internal_Hbond.Weighted>
0.0000

> <Gold.Chemscore.DEClash.Weighted>
2.0680

> <Gold.Chemscore.DEInternal.Weighted>
3.1388

> <Gold.Chemscore.Rot.Weighted>
5.8783

> <Gold.Chemscore.Internal.Correction.Weighted>
   9.000000E+99

> <Gold.Protein.RotatedTorsions>
[ 6907 6896 6895 6894 ] final    3.33 input  -60.11 | X-H torsion
[ 7974 7965 7964 7962 ] final  167.61 input  175.53 | X-H torsion
[ 8008 7997 7996 7995 ] final  114.72 input   59.86 | X-H torsion
[ 10167 10162 10161 10158 ] final  129.25 input  -65.29 | X-H torsion
[ 10718 10713 10712 10709 ] final -168.25 input   66.30 | X-H torsion
[ 10763 10752 10751 10750 ] final  -84.23 input  -60.55 | X-H torsion
[ 11005 11000 10999 10996 ] final  -21.06 input  -57.11 | X-H torsion

> <Gold.Protein.ActiveResidues>
 VAL166  LYS551  ARG553  GLY616  TRP617  ASP618  TYR619  PRO620  LYS621  CYS622 
 ASP623  PHE694  ASN695  SER759  ASP760  ASP761  ALA762  ILE779  LEU786  VAL792 
 PHE793  MET794  SER795  GLU796  ALA797  LYS798  CYS799  TRP800  GLU811  SER814 

> <Gold.Protein.RotatedAtoms>
  151.6233  135.1030  160.0106 H   0  0  0  0  0  0  0  0  0  0  0  0  # atno 6907 bound_to 6896
  152.4146  133.7013  159.6436 H   0  0  0  0  0  0  0  0  0  0  0  0  # atno 6908 bound_to 6896
  150.8034  133.8480  159.3238 H   0  0  0  0  0  0  0  0  0  0  0  0  # atno 6909 bound_to 6896
  144.7418  139.8786  143.6394 H   0  0  0  0  0  0  0  0  0  0  0  0  # atno 7974 bound_to 7965
  156.2338  140.2953  156.0259 H   0  0  0  0  0  0  0  0  0  0  0  0  # atno 8008 bound_to 7997
  155.2149  140.0414  157.2956 H   0  0  0  0  0  0  0  0  0  0  0  0  # atno 8009 bound_to 7997
  154.6043  140.2435  155.7759 H   0  0  0  0  0  0  0  0  0  0  0  0  # atno 8010 bound_to 7997
  139.5487  144.6795  151.4393 H   0  0  0  0  0  0  0  0  0  0  0  0  # atno 10167 bound_to 10162
  156.6942  130.9171  151.3072 H   0  0  0  0  0  0  0  0  0  0  0  0  # atno 10718 bound_to 10713
  154.5971  135.5528  153.7336 H   0  0  0  0  0  0  0  0  0  0  0  0  # atno 10763 bound_to 10752
  153.0139  135.6357  154.1767 H   0  0  0  0  0  0  0  0  0  0  0  0  # atno 10764 bound_to 10752
  154.1708  135.2892  155.3061 H   0  0  0  0  0  0  0  0  0  0  0  0  # atno 10765 bound_to 10752
  140.8524  133.7847  155.9981 H   0  0  0  0  0  0  0  0  0  0  0  0  # atno 11005 bound_to 11000
  146.1228  139.4249  143.0218 LP  0  0  0  0  0  0  0  0  0  0  0  0  # atno 17320 bound_to 7965
  145.7279  141.0052  143.1367 LP  0  0  0  0  0  0  0  0  0  0  0  0  # atno 17321 bound_to 7965
  140.6743  143.8225  150.7038 LP  0  0  0  0  0  0  0  0  0  0  0  0  # atno 17342 bound_to 10162
  140.1659  143.4236  152.2035 LP  0  0  0  0  0  0  0  0  0  0  0  0  # atno 17343 bound_to 10162
  157.6997  130.9320  150.0750 LP  0  0  0  0  0  0  0  0  0  0  0  0  # atno 17370 bound_to 10713
  156.1775  130.3649  149.9080 LP  0  0  0  0  0  0  0  0  0  0  0  0  # atno 17371 bound_to 10713
  140.8775  134.2652  157.5161 LP  0  0  0  0  0  0  0  0  0  0  0  0  # atno 17394 bound_to 11000
  139.8704  134.9598  156.4344 LP  0  0  0  0  0  0  0  0  0  0  0  0  # atno 17395 bound_to 11000

$$$$
