#       Name:                AV-unprocessed.smi:1703
#       Creating user name   scv26
#       Creation time:       Fri Mar 27 08:04:00 2020


#       File generated by GOLD software.
#

@<TRIPOS>MOLECULE
AV-unprocessed.smi:1703
    56    58     1
SMALL
NO_CHARGES


@<TRIPOS>ATOM
      1 ****        -2.1212   3.5882  -2.7024 C.3            1 S1                 0.0000
      2 ****        -2.3078   2.9676  -1.3142 C.3            1 S1                 0.0000
      3 ****        -1.6723   1.5676  -1.2102 C.3            1 S1                 0.0000
      4 ****        -1.9210   0.9511   0.0914 N.3            1 S1                 0.0000
      5 ****        -1.3392  -0.3875   0.2086 C.3            1 S1                 0.0000
      6 ****         0.2012  -0.4418   0.2430 C.3            1 S1                 0.0000
      7 ****         0.6449   0.1914   1.4269 O.3            1 S1                 0.0000
      8 ****         0.7159  -1.8941   0.2209 C.3            1 S1                 0.0000
      9 ****         2.1712  -1.9772   0.2070 N.pl3          1 S1                 0.0000
     10 ****         3.0042  -1.9159  -0.8629 C.2            1 S1                 0.0000
     11 ****         2.4802  -1.7386  -2.2601 C.3            1 S1                 0.0000
     12 ****         3.4637  -1.8991  -3.2620 O.3            1 S1                 0.0000
     13 ****         4.3069  -2.0102  -0.5854 N.2            1 S1                 0.0000
     14 ****         4.3187  -2.1526   0.7880 C.ar           1 S1                 0.0000
     15 ****         5.3996  -2.3020   1.6863 C.ar           1 S1                 0.0000
     16 ****         5.1643  -2.4291   3.0709 C.ar           1 S1                 0.0000
     17 ****         3.8482  -2.4075   3.5761 C.ar           1 S1                 0.0000
     18 ****         2.7573  -2.2599   2.6979 C.ar           1 S1                 0.0000
     19 ****         2.9972  -2.1353   1.3162 C.ar           1 S1                 0.0000
     20 ****        -3.3602   0.9151   0.3265 C.3            1 S1                 0.0000
     21 ****        -3.9972   2.3144   0.2286 C.3            1 S1                 0.0000
     22 ****        -5.5195   2.2742   0.3979 C.3            1 S1                 0.0000
     23 ****        -3.7044   2.8677  -1.0512 O.3            1 S1                 0.0000
     24 ****        -1.0638   3.7059  -2.9403 H              1 S1                 0.0000
     25 ****        -2.5850   4.5736  -2.7541 H              1 S1                 0.0000
     26 ****        -2.5721   2.9668  -3.4768 H              1 S1                 0.0000
     27 ****        -1.8559   3.6286  -0.5725 H              1 S1                 0.0000
     28 ****        -2.0665   0.9285  -2.0022 H              1 S1                 0.0000
     29 ****        -0.6023   1.6622  -1.3889 H              1 S1                 0.0000
     30 ****        -1.7113  -0.8627   1.1178 H              1 S1                 0.0000
     31 ****        -1.7015  -1.0053  -0.6147 H              1 S1                 0.0000
     32 ****         0.6240   0.0883  -0.6085 H              1 S1                 0.0000
     33 ****         0.3060   1.0738   1.4365 H              1 S1                 0.0000
     34 ****         0.3456  -2.4376   1.0910 H              1 S1                 0.0000
     35 ****         0.3224  -2.4225  -0.6469 H              1 S1                 0.0000
     36 ****         1.6904  -2.4650  -2.4496 H              1 S1                 0.0000
     37 ****         2.0437  -0.7444  -2.3544 H              1 S1                 0.0000
     38 ****         4.1584  -1.2797  -3.0978 H              1 S1                 0.0000
     39 ****         6.4115  -2.3181   1.3091 H              1 S1                 0.0000
     40 ****         5.9977  -2.5421   3.7488 H              1 S1                 0.0000
     41 ****         3.6763  -2.5031   4.6381 H              1 S1                 0.0000
     42 ****         1.7484  -2.2382   3.0825 H              1 S1                 0.0000
     43 ****        -3.8349   0.2477  -0.3950 H              1 S1                 0.0000
     44 ****        -3.5608   0.4980   1.3141 H              1 S1                 0.0000
     45 ****        -3.5759   2.9622   0.9993 H              1 S1                 0.0000
     46 ****        -5.7961   1.8622   1.3685 H              1 S1                 0.0000
     47 ****        -5.9863   1.6601  -0.3726 H              1 S1                 0.0000
     48 ****        -5.9446   3.2757   0.3289 H              1 S1                 0.0000
     49 ****        -1.4702   1.5071   0.7898 LP             1 S1                 0.0000
     50 ****         1.6446   0.2129   1.4447 LP             1 S1                 0.0000
     51 ****         0.3081  -0.3089   2.2246 LP             1 S1                 0.0000
     52 ****         3.0619  -1.7260  -4.1611 LP             1 S1                 0.0000
     53 ****         3.8271  -2.8303  -3.2330 LP             1 S1                 0.0000
     54 ****         5.0824  -1.9842  -1.2163 LP             1 S1                 0.0000
     55 ****        -4.1186   2.2859  -1.7511 LP             1 S1                 0.0000
     56 ****        -4.1031   3.7834  -1.1001 LP             1 S1                 0.0000
@<TRIPOS>BOND
    1    1    2 1     
    2    1   24 1     
    3    1   25 1     
    4    1   26 1     
    5    2   23 1     
    6    2    3 1     
    7    2   27 1     
    8    3    4 1     
    9    3   28 1     
   10    3   29 1     
   11    4    5 1     
   12    4   20 1     
   13    5    6 1     
   14    5   30 1     
   15    5   31 1     
   16    6    7 1     
   17    6    8 1     
   18    6   32 1     
   19    7   33 1     
   20    8    9 1     
   21    8   34 1     
   22    8   35 1     
   23    9   19 1     
   24    9   10 1     
   25   10   11 1     
   26   10   13 2     
   27   11   12 1     
   28   11   36 1     
   29   11   37 1     
   30   12   38 1     
   31   13   14 1     
   32   14   19 ar    
   33   14   15 ar    
   34   15   16 ar    
   35   15   39 1     
   36   16   17 ar    
   37   16   40 1     
   38   17   18 ar    
   39   17   41 1     
   40   18   19 ar    
   41   18   42 1     
   42   20   21 1     
   43   20   43 1     
   44   20   44 1     
   45   21   22 1     
   46   21   23 1     
   47   21   45 1     
   48   22   46 1     
   49   22   47 1     
   50   22   48 1     
   51    4   49 1     
   52    7   50 1     
   53    7   51 1     
   54   12   52 1     
   55   12   53 1     
   56   13   54 1     
   57   23   55 1     
   58   23   56 1     
@<TRIPOS>SUBSTRUCTURE
      1 S1             1
@<TRIPOS>SET
LONE_PAIRS      STATIC     ATOMS    <user>   **** ""
8 49 50 51 52 53 54 55 56
DONOR_HYDROGENS      STATIC     ATOMS    <user>   **** ""
2 33 38
ATOM$BLUE        STATIC     ATOMS    COLORGROUP SYSTEM
8 49 50 51 52 53 54 55 56
ATOM$RED        STATIC     ATOMS    COLORGROUP SYSTEM
2 33 38
