#       Name:                AV-unprocessed.smi:2442
#       Creating user name   scv26
#       Creation time:       Fri Mar 27 13:25:55 2020


#       File generated by GOLD software.
#

@<TRIPOS>MOLECULE
AV-unprocessed.smi:2442
    51    52     1
SMALL
NO_CHARGES


@<TRIPOS>ATOM
      1 ****        -1.2406   0.5604   4.2146 C.3            1 S1                 0.0000
      2 ****        -1.1346   0.8471   2.8293 O.3            1 S1                 0.0000
      3 ****        -2.2023   0.3362   2.0390 C.3            1 S1                 0.0000
      4 ****        -3.4160   1.2866   2.1243 C.3            1 S1                 0.0000
      5 ****        -4.5408   0.8611   1.1690 C.3            1 S1                 0.0000
      6 ****        -4.0298   0.7681  -0.2750 C.3            1 S1                 0.0000
      7 ****        -2.8377  -0.1943  -0.3729 C.3            1 S1                 0.0000
      8 ****        -1.6981   0.2094   0.5828 C.3            1 S1                 0.0000
      9 ****        -0.6411  -0.7961   0.4997 N.am           1 S1                 0.0000
     10 ****         0.6741  -0.5415   0.4711 C.2            1 S1                 0.0000
     11 ****         1.1631   0.5870   0.5296 O.2            1 S1                 0.0000
     12 ****         1.3927  -1.6672   0.3506 N.am           1 S1                 0.0000
     13 ****         2.8468  -1.7308   0.2251 C.3            1 S1                 0.0000
     14 ****         3.3110  -1.8452  -1.2422 C.3            1 S1                 0.0000
     15 ****         2.7844  -0.7454  -2.1574 C.ar           1 S1                 0.0000
     16 ****         1.6535  -0.9983  -2.9636 C.ar           1 S1                 0.0000
     17 ****         1.1606   0.0327  -3.7859 C.ar           1 S1                 0.0000
     18 ****         1.7183   1.2589  -3.8503 N.ar           1 S1                 0.0000
     19 ****         2.8023   1.4979  -3.0828 C.ar           1 S1                 0.0000
     20 ****         3.3802   0.5390  -2.2224 C.ar           1 S1                 0.0000
     21 ****         4.5987   0.9099  -1.3966 C.3            1 S1                 0.0000
     22 ****        -0.3689   0.9594   4.7332 H              1 S1                 0.0000
     23 ****        -1.2708  -0.5151   4.3933 H              1 S1                 0.0000
     24 ****        -2.1262   1.0153   4.6578 H              1 S1                 0.0000
     25 ****        -2.4917  -0.6556   2.3924 H              1 S1                 0.0000
     26 ****        -3.8062   1.3207   3.1410 H              1 S1                 0.0000
     27 ****        -3.1003   2.3021   1.8812 H              1 S1                 0.0000
     28 ****        -4.9403  -0.1051   1.4799 H              1 S1                 0.0000
     29 ****        -5.3658   1.5714   1.2265 H              1 S1                 0.0000
     30 ****        -4.8320   0.4347  -0.9341 H              1 S1                 0.0000
     31 ****        -3.7323   1.7578  -0.6243 H              1 S1                 0.0000
     32 ****        -3.1749  -1.2058  -0.1408 H              1 S1                 0.0000
     33 ****        -2.4709  -0.2192  -1.4000 H              1 S1                 0.0000
     34 ****        -1.3192   1.1801   0.2562 H              1 S1                 0.0000
     35 ****        -0.9376  -1.7593   0.4471 H              1 S1                 0.0000
     36 ****         0.8953  -2.5448   0.3150 H              1 S1                 0.0000
     37 ****         3.3058  -0.8652   0.7034 H              1 S1                 0.0000
     38 ****         3.1976  -2.5984   0.7839 H              1 S1                 0.0000
     39 ****         4.3998  -1.8675  -1.2847 H              1 S1                 0.0000
     40 ****         2.9887  -2.8079  -1.6410 H              1 S1                 0.0000
     41 ****         1.1622  -1.9599  -2.9451 H              1 S1                 0.0000
     42 ****         0.2927  -0.1318  -4.4071 H              1 S1                 0.0000
     43 ****         3.2210   2.4905  -3.1596 H              1 S1                 0.0000
     44 ****         4.9605   1.9048  -1.6574 H              1 S1                 0.0000
     45 ****         5.4134   0.2070  -1.5685 H              1 S1                 0.0000
     46 ****         4.3559   0.9140  -0.3346 H              1 S1                 0.0000
     47 ****        -0.2798   0.4521   2.4928 LP             1 S1                 0.0000
     48 ****        -1.1098   1.8405   2.7166 LP             1 S1                 0.0000
     49 ****         0.5674   1.3869   0.6038 LP             1 S1                 0.0000
     50 ****         2.1559   0.7038   0.5030 LP             1 S1                 0.0000
     51 ****         1.3412   1.9674  -4.4468 LP             1 S1                 0.0000
@<TRIPOS>BOND
    1    1    2 1     
    2    1   22 1     
    3    1   23 1     
    4    1   24 1     
    5    2    3 1     
    6    3    8 1     
    7    3    4 1     
    8    3   25 1     
    9    4    5 1     
   10    4   26 1     
   11    4   27 1     
   12    5    6 1     
   13    5   28 1     
   14    5   29 1     
   15    6    7 1     
   16    6   30 1     
   17    6   31 1     
   18    7    8 1     
   19    7   32 1     
   20    7   33 1     
   21    8    9 1     
   22    8   34 1     
   23    9   10 am    
   24    9   35 1     
   25   10   11 2     
   26   10   12 am    
   27   12   13 1     
   28   12   36 1     
   29   13   14 1     
   30   13   37 1     
   31   13   38 1     
   32   14   15 1     
   33   14   39 1     
   34   14   40 1     
   35   15   20 ar    
   36   15   16 ar    
   37   16   17 ar    
   38   16   41 1     
   39   17   18 ar    
   40   17   42 1     
   41   18   19 ar    
   42   19   20 ar    
   43   19   43 1     
   44   20   21 1     
   45   21   44 1     
   46   21   45 1     
   47   21   46 1     
   48    2   47 1     
   49    2   48 1     
   50   11   49 1     
   51   11   50 1     
   52   18   51 1     
@<TRIPOS>SUBSTRUCTURE
      1 S1             1
@<TRIPOS>SET
LONE_PAIRS      STATIC     ATOMS    <user>   **** ""
5 47 48 49 50 51
DONOR_HYDROGENS      STATIC     ATOMS    <user>   **** ""
2 35 36
ATOM$BLUE        STATIC     ATOMS    COLORGROUP SYSTEM
5 47 48 49 50 51
ATOM$RED        STATIC     ATOMS    COLORGROUP SYSTEM
2 35 36
