AV-unprocessed.smi:1971|AV-procd|sdf|7963|dock2
  -GOLD-   2272010133D 1   1.00000     0.00000
 Structure written by MMmdl.
 44 45  0  0  0  0  0  0  0  0  2 V2000
  151.0020  142.3731  157.6366 C   0  0  0  0  0  0  0  0  0  0  0  0
  150.7490  141.7217  156.2695 C   0  0  0  0  0  0  0  0  0  0  0  0
  149.3311  141.8179  155.8418 N   0  3  0  0  0  0  0  0  0  0  0  0
  148.4384  140.9565  156.6554 C   0  0  0  0  0  0  0  0  0  0  0  0
  146.9703  141.1166  156.2066 C   0  0  0  0  0  0  0  0  0  0  0  0
  146.7893  140.7632  154.7910 N   0  0  0  0  0  0  0  0  0  0  0  0
  146.9628  139.3297  154.4608 C   0  0  1  0  0  0  0  0  0  0  0  0
  146.0670  138.4512  155.3672 C   0  0  0  0  0  0  0  0  0  0  0  0
  146.6562  139.0704  152.9604 C   0  0  0  0  0  0  0  0  0  0  0  0
  146.8222  137.6702  152.5778 N   0  0  0  0  0  0  0  0  0  0  0  0
  145.8250  136.8039  152.3434 C   0  0  0  0  0  0  0  0  0  0  0  0
  144.6336  137.0909  152.4569 O   0  0  0  0  0  0  0  0  0  0  0  0
  146.3014  135.6032  151.9764 N   0  0  0  0  0  0  0  0  0  0  0  0
  145.5614  134.4457  151.6288 C   0  0  0  0  0  0  0  0  0  0  0  0
  144.2286  134.5114  151.6184 N   0  0  0  0  0  0  0  0  0  0  0  0
  143.6455  133.2928  151.2592 C   0  0  0  0  0  0  0  0  0  0  0  0
  144.5577  132.3011  150.9958 C   0  0  0  0  0  0  0  0  0  0  0  0
  146.1978  132.8588  151.1885 S   0  0  0  0  0  0  0  0  0  0  0  0
  147.6306  141.6985  154.0300 C   0  0  0  0  0  0  0  0  0  0  0  0
  149.1237  141.5572  154.3946 C   0  0  0  0  0  0  0  0  0  0  0  0
  152.0263  142.1911  157.9623 H   0  0  0  0  0  0  0  0  0  0  0  0
  150.3369  141.9652  158.3982 H   0  0  0  0  0  0  0  0  0  0  0  0
  150.8615  143.4535  157.6080 H   0  0  0  0  0  0  0  0  0  0  0  0
  151.3995  142.1576  155.5097 H   0  0  0  0  0  0  0  0  0  0  0  0
  151.0238  140.6687  156.3451 H   0  0  0  0  0  0  0  0  0  0  0  0
  148.7582  139.9157  156.5944 H   0  0  0  0  0  0  0  0  0  0  0  0
  148.5215  141.2451  157.7038 H   0  0  0  0  0  0  0  0  0  0  0  0
  146.3055  140.5438  156.8504 H   0  0  0  0  0  0  0  0  0  0  0  0
  146.6644  142.1545  156.3468 H   0  0  0  0  0  0  0  0  0  0  0  0
  147.9965  139.0374  154.6413 H   0  0  0  0  0  0  0  0  0  0  0  0
  146.1297  137.3966  155.1018 H   0  0  0  0  0  0  0  0  0  0  0  0
  145.0191  138.7447  155.2954 H   0  0  0  0  0  0  0  0  0  0  0  0
  146.3634  138.4961  156.4140 H   0  0  0  0  0  0  0  0  0  0  0  0
  145.6582  139.4352  152.7106 H   0  0  0  0  0  0  0  0  0  0  0  0
  147.3511  139.6131  152.3221 H   0  0  0  0  0  0  0  0  0  0  0  0
  147.7697  137.3405  152.4657 H   0  0  0  0  0  0  0  0  0  0  0  0
  147.3048  135.5086  151.9255 H   0  0  0  0  0  0  0  0  0  0  0  0
  142.5688  133.2194  151.2159 H   0  0  0  0  0  0  0  0  0  0  0  0
  144.3647  131.2804  150.7009 H   0  0  0  0  0  0  0  0  0  0  0  0
  147.4824  141.5903  152.9575 H   0  0  0  0  0  0  0  0  0  0  0  0
  147.3043  142.7160  154.2510 H   0  0  0  0  0  0  0  0  0  0  0  0
  149.6909  142.2768  153.8055 H   0  0  0  0  0  0  0  0  0  0  0  0
  149.5038  140.5703  154.1279 H   0  0  0  0  0  0  0  0  0  0  0  0
  149.0371  142.7689  156.0124 H   0  0  0  0  0  0  0  0  0  0  0  0
  1  2  1  0  0  0  0
  1 21  1  0  0  0  0
  1 22  1  0  0  0  0
  1 23  1  0  0  0  0
  2  3  1  0  0  0  0
  2 24  1  0  0  0  0
  2 25  1  0  0  0  0
  3 20  1  0  0  0  0
  3  4  1  0  0  0  0
  3 44  1  0  0  0  0
  4  5  1  0  0  0  0
  4 26  1  0  0  0  0
  4 27  1  0  0  0  0
  5  6  1  0  0  0  0
  5 28  1  0  0  0  0
  5 29  1  0  0  0  0
  6  7  1  0  0  0  0
  6 19  1  0  0  0  0
  7  8  1  0  0  0  0
  7  9  1  0  0  0  0
  7 30  1  0  0  0  0
  8 31  1  0  0  0  0
  8 32  1  0  0  0  0
  8 33  1  0  0  0  0
  9 10  1  0  0  0  0
  9 34  1  0  0  0  0
  9 35  1  0  0  0  0
 10 11  1  0  0  0  0
 10 36  1  0  0  0  0
 11 12  2  0  0  0  0
 11 13  1  0  0  0  0
 13 14  1  0  0  0  0
 13 37  1  0  0  0  0
 14 18  1  0  0  0  0
 14 15  2  0  0  0  0
 15 16  1  0  0  0  0
 16 17  2  0  0  0  0
 16 38  1  0  0  0  0
 17 18  1  0  0  0  0
 17 39  1  0  0  0  0
 19 20  1  0  0  0  0
 19 40  1  0  0  0  0
 19 41  1  0  0  0  0
 20 42  1  0  0  0  0
 20 43  1  0  0  0  0
M  CHG  1   3   1
M  END
> <s_m_source_file>
AV-unprocessed.smi

> <i_m_source_file_index>
1971

> <i_lp_mmshare_version>
43012

> <i_f3d_flags>
0

> <s_epik_input>
W0NIM11bQ0gyXU4xW0NIMl1bQ0gyXU4oW0NIMl1bQ0gyXTEpW0NASF0oW0NIM10pW0NIMl1bTkhdQyg9TylbTkhdYzJuW2NIXVtjSF1zMg==

> <s_epik_cmdline>
J2VwaWtfcHl0aG9uJywgJy1waCcsICc3LjAnLCAnLXRuJywgJzgnLCAnLW1hJywgJzIwMCcsICctbWV0YWxfYmluZGluZycsICctaW1hZScsICc8aW5maWxlLm1hZT4nLCAnLW9tYWUnLCAnPG91dGZpbGUubWFlPic=

> <r_lp_tautomer_probability>
0.999

> <r_epik_Ionization_Penalty>
0.0459519

> <r_epik_Ionization_Penalty_Charging>
0.0451959

> <r_epik_Ionization_Penalty_Neutral>
0.000756076

> <r_epik_State_Penalty>
0.165541

> <r_epik_Charging_Adjusted_Penalty>
0.210737

> <i_epik_Tot_Q>
1

> <i_epik_Tot_abs_Q>
1

> <r_epik_Metal_State_Penalty>
0.198809

> <b_epik_Metal_Only>
0

> <s_lp_Force_Field>
OPLS_2005

> <r_lp_Energy>
20.1316

> <b_lp_Chiralities_Consistent>
1

> <s_lp_Variant>
AV-unprocessed.smi:1971-2

> <Gold.Version>
5.8.1

> <Gold.Id.Protein>
6NUR|6NUR_protein|mol2

> <Gold.PLP.Fitness>
45.7247

> <Gold.PLP.PLP>
-31.0767

> <Gold.PLP.part.hbond>
-3.0000

> <Gold.PLP.part.metal>
0.0000

> <Gold.PLP.part.buried>
-4.3222

> <Gold.PLP.part.nonpolar>
-25.0313

> <Gold.PLP.part.repulsive>
1.3532

> <Gold.PLP.ligand.clash>
0.0000

> <Gold.PLP.ligand.torsion>
0.2029

> <Gold.PLP.Chemscore.Hbond>
3.9920

> <Gold.PLP.Chemscore.CHOScore>
1.0000

> <Gold.PLP.Chemscore.Metal>
0.0000

> <Gold.Chemscore.Hbonds>
donor molecule, donor type, donor heavy atom, donor atom, acceptor molecule, acceptor atom, score
      L1  H     3    44       P1  8028  2.00
      L1  H    10    36       P1  7948  1.00
      L1  H    13    37       P1  7948  1.00
      L1  C    16    38       P1 10186  0.85

> <Gold.PLP.Chemscore.Internal.Correction>
0.0778

> <Gold.Rescore>
     Score         DG    S(hbond)    S(metal)    S(lipo)     H(rot)  DE(clash)    DE(int)     intcor
     16.83     -18.88       2.95        0.00      69.49       1.79       0.26       1.79       ----

> <Gold.Chemscore.Fitness>
16.8267

> <Gold.Chemscore.DG>
-18.8778

> <Gold.Chemscore.ZeroCoef>
-5.4800

> <Gold.Chemscore.Hbond>
2.9519

> <Gold.Chemscore.Metal>
0.0000

> <Gold.Chemscore.Lipo>
69.4905

> <Gold.Chemscore.Internal_Hbond>
0.0000

> <Gold.Chemscore.DEClash>
0.2566

> <Gold.Chemscore.DEInternal>
1.7945

> <Gold.Chemscore.Rot>
1.7937

> <Gold.Chemscore.Internal.Correction>
   9.000000E+99

> <Gold.Chemscore.Hbonds>
donor molecule, donor type, donor heavy atom, donor atom, acceptor molecule, acceptor atom, score
      L1  H     3    44       P1  8028  0.96
      L1  H    10    36       P1  7948  0.97
      L1  H    13    37       P1  7948  0.96

> <Gold.Chemscore.Hbond.Weighted>
-9.8594

> <Gold.Chemscore.Metal.Weighted>
-0.0000

> <Gold.Chemscore.Lipo.Weighted>
-8.1304

> <Gold.Chemscore.Internal_Hbond.Weighted>
0.0000

> <Gold.Chemscore.DEClash.Weighted>
0.2566

> <Gold.Chemscore.DEInternal.Weighted>
1.7945

> <Gold.Chemscore.Rot.Weighted>
4.5919

> <Gold.Chemscore.Internal.Correction.Weighted>
   9.000000E+99

> <Gold.Protein.RotatedTorsions>
[ 6907 6896 6895 6894 ] final   22.78 input  -60.11 | X-H torsion
[ 7974 7965 7964 7962 ] final   15.08 input  175.53 | X-H torsion
[ 8008 7997 7996 7995 ] final  177.54 input   59.86 | X-H torsion
[ 10167 10162 10161 10158 ] final  -22.56 input  -65.29 | X-H torsion
[ 10718 10713 10712 10709 ] final -150.49 input   66.30 | X-H torsion
[ 10763 10752 10751 10750 ] final   86.13 input  -60.55 | X-H torsion
[ 11005 11000 10999 10996 ] final   14.93 input  -57.11 | X-H torsion

> <Gold.Protein.ActiveResidues>
 VAL166  LYS551  ARG553  GLY616  TRP617  ASP618  TYR619  PRO620  LYS621  CYS622 
 ASP623  PHE694  ASN695  SER759  ASP760  ASP761  ALA762  ILE779  LEU786  VAL792 
 PHE793  MET794  SER795  GLU796  ALA797  LYS798  CYS799  TRP800  GLU811  SER814 

> <Gold.Protein.RotatedAtoms>
  151.9323  135.0251  160.0529 H   0  0  0  0  0  0  0  0  0  0  0  0  # atno 6907 bound_to 6896
  152.2107  133.4905  159.5117 H   0  0  0  0  0  0  0  0  0  0  0  0  # atno 6908 bound_to 6896
  150.6975  134.1387  159.4139 H   0  0  0  0  0  0  0  0  0  0  0  0  # atno 6909 bound_to 6896
  146.2288  139.8947  142.8549 H   0  0  0  0  0  0  0  0  0  0  0  0  # atno 7974 bound_to 7965
  156.0645  140.1356  156.9901 H   0  0  0  0  0  0  0  0  0  0  0  0  # atno 8008 bound_to 7997
  154.4499  140.0984  156.6638 H   0  0  0  0  0  0  0  0  0  0  0  0  # atno 8009 bound_to 7997
  155.5325  140.3459  155.4431 H   0  0  0  0  0  0  0  0  0  0  0  0  # atno 8010 bound_to 7997
  140.7286  143.4523  151.0498 H   0  0  0  0  0  0  0  0  0  0  0  0  # atno 10167 bound_to 10162
  156.4468  130.8149  151.2379 H   0  0  0  0  0  0  0  0  0  0  0  0  # atno 10718 bound_to 10713
  153.1541  135.4591  154.9679 H   0  0  0  0  0  0  0  0  0  0  0  0  # atno 10763 bound_to 10752
  154.7848  135.3200  154.7913 H   0  0  0  0  0  0  0  0  0  0  0  0  # atno 10764 bound_to 10752
  153.8414  135.6930  153.4857 H   0  0  0  0  0  0  0  0  0  0  0  0  # atno 10765 bound_to 10752
  140.4640  134.1098  155.7721 H   0  0  0  0  0  0  0  0  0  0  0  0  # atno 11005 bound_to 11000
  145.2382  140.9999  143.3951 LP  0  0  0  0  0  0  0  0  0  0  0  0  # atno 17320 bound_to 7965
  144.9473  139.4121  143.6419 LP  0  0  0  0  0  0  0  0  0  0  0  0  # atno 17321 bound_to 7965
  139.8200  143.7833  152.3176 LP  0  0  0  0  0  0  0  0  0  0  0  0  # atno 17342 bound_to 10162
  139.7912  144.7409  150.9952 LP  0  0  0  0  0  0  0  0  0  0  0  0  # atno 17343 bound_to 10162
  157.7504  131.0150  150.3488 LP  0  0  0  0  0  0  0  0  0  0  0  0  # atno 17370 bound_to 10713
  156.3858  130.3889  149.7067 LP  0  0  0  0  0  0  0  0  0  0  0  0  # atno 17371 bound_to 10713
  141.1608  133.8797  157.1853 LP  0  0  0  0  0  0  0  0  0  0  0  0  # atno 17394 bound_to 11000
  139.9927  135.0058  157.0012 LP  0  0  0  0  0  0  0  0  0  0  0  0  # atno 17395 bound_to 11000

$$$$
