AV-unprocessed.smi:2168|AV-procd|sdf|8820|dock4
  -GOLD-   2272012 13D 1   1.00000     0.00000
 Structure written by MMmdl.
 45 46  0  0  0  0  0  0  0  0  2 V2000
  151.9310  130.6854  155.5383 C   0  0  0  0  0  0  0  0  0  0  0  0
  151.5836  131.8451  156.4843 C   0  0  0  0  0  0  0  0  0  0  0  0
  150.8005  132.9071  155.8205 N   0  0  0  0  0  0  0  0  0  0  0  0
  150.5698  132.7697  154.3675 C   0  0  0  0  0  0  0  0  0  0  0  0
  149.3862  131.8499  154.0266 C   0  0  0  0  0  0  0  0  0  0  0  0
  149.9672  134.1244  156.7581 S   0  0  0  0  0  0  0  0  0  0  0  0
  148.9980  134.7310  155.8322 O   0  0  0  0  0  0  0  0  0  0  0  0
  149.4317  133.4407  157.9488 O   0  0  0  0  0  0  0  0  0  0  0  0
  151.2284  135.1157  157.0432 N   0  5  0  0  0  0  0  0  0  0  0  0
  151.6190  136.1593  156.1074 C   0  0  0  0  0  0  0  0  0  0  0  0
  151.6837  137.5169  156.7910 C   0  0  0  0  0  0  0  0  0  0  0  0
  150.8469  137.8214  157.8865 C   0  0  0  0  0  0  0  0  0  0  0  0
  150.9322  139.0965  158.4790 C   0  0  0  0  0  0  0  0  0  0  0  0
  151.8539  140.0392  157.9644 C   0  0  0  0  0  0  0  0  0  0  0  0
  151.9505  141.3273  158.5360 N   0  0  0  0  0  0  0  0  0  0  0  0
  151.7122  142.4829  157.6726 C   0  0  0  0  0  0  0  0  0  0  0  0
  151.5508  143.7586  158.5162 C   0  0  0  0  0  0  0  0  0  0  0  0
  152.6857  143.9236  159.3595 O   0  0  0  0  0  0  0  0  0  0  0  0
  152.8310  142.8382  160.2691 C   0  0  0  0  0  0  0  0  0  0  0  0
  153.0388  141.5283  159.4894 C   0  0  0  0  0  0  0  0  0  0  0  0
  152.6551  139.7438  156.9111 N   0  0  0  0  0  0  0  0  0  0  0  0
  152.5710  138.5207  156.3442 C   0  0  0  0  0  0  0  0  0  0  0  0
  152.5761  129.9630  156.0379 H   0  0  0  0  0  0  0  0  0  0  0  0
  152.4516  131.0308  154.6458 H   0  0  0  0  0  0  0  0  0  0  0  0
  151.0363  130.1521  155.2178 H   0  0  0  0  0  0  0  0  0  0  0  0
  151.0148  131.4653  157.3331 H   0  0  0  0  0  0  0  0  0  0  0  0
  152.4954  132.2695  156.9051 H   0  0  0  0  0  0  0  0  0  0  0  0
  150.3979  133.7526  153.9301 H   0  0  0  0  0  0  0  0  0  0  0  0
  151.4790  132.3862  153.9042 H   0  0  0  0  0  0  0  0  0  0  0  0
  149.2021  131.8481  152.9523 H   0  0  0  0  0  0  0  0  0  0  0  0
  148.4705  132.1787  154.5153 H   0  0  0  0  0  0  0  0  0  0  0  0
  149.5736  130.8185  154.3236 H   0  0  0  0  0  0  0  0  0  0  0  0
  152.5950  135.9580  155.6645 H   0  0  0  0  0  0  0  0  0  0  0  0
  150.9268  136.2311  155.2678 H   0  0  0  0  0  0  0  0  0  0  0  0
  150.1367  137.1037  158.2745 H   0  0  0  0  0  0  0  0  0  0  0  0
  150.2769  139.3380  159.3022 H   0  0  0  0  0  0  0  0  0  0  0  0
  152.5483  142.5951  156.9811 H   0  0  0  0  0  0  0  0  0  0  0  0
  150.8122  142.3315  157.0754 H   0  0  0  0  0  0  0  0  0  0  0  0
  151.4614  144.6290  157.8662 H   0  0  0  0  0  0  0  0  0  0  0  0
  150.6406  143.7150  159.1167 H   0  0  0  0  0  0  0  0  0  0  0  0
  153.6870  143.0295  160.9162 H   0  0  0  0  0  0  0  0  0  0  0  0
  151.9534  142.7708  160.9145 H   0  0  0  0  0  0  0  0  0  0  0  0
  153.1171  140.7055  160.1981 H   0  0  0  0  0  0  0  0  0  0  0  0
  153.9817  141.5656  158.9425 H   0  0  0  0  0  0  0  0  0  0  0  0
  153.2377  138.3585  155.5086 H   0  0  0  0  0  0  0  0  0  0  0  0
  1  2  1  0  0  0  0
  1 23  1  0  0  0  0
  1 24  1  0  0  0  0
  1 25  1  0  0  0  0
  2  3  1  0  0  0  0
  2 26  1  0  0  0  0
  2 27  1  0  0  0  0
  3  4  1  0  0  0  0
  3  6  1  0  0  0  0
  4  5  1  0  0  0  0
  4 28  1  0  0  0  0
  4 29  1  0  0  0  0
  5 30  1  0  0  0  0
  5 31  1  0  0  0  0
  5 32  1  0  0  0  0
  6  7  2  0  0  0  0
  6  8  2  0  0  0  0
  6  9  1  0  0  0  0
  9 10  1  0  0  0  0
 10 11  1  0  0  0  0
 10 33  1  0  0  0  0
 10 34  1  0  0  0  0
 11 22  1  0  0  0  0
 11 12  2  0  0  0  0
 12 13  1  0  0  0  0
 12 35  1  0  0  0  0
 13 14  2  0  0  0  0
 13 36  1  0  0  0  0
 14 15  1  0  0  0  0
 14 21  1  0  0  0  0
 15 20  1  0  0  0  0
 15 16  1  0  0  0  0
 16 17  1  0  0  0  0
 16 37  1  0  0  0  0
 16 38  1  0  0  0  0
 17 18  1  0  0  0  0
 17 39  1  0  0  0  0
 17 40  1  0  0  0  0
 18 19  1  0  0  0  0
 19 20  1  0  0  0  0
 19 41  1  0  0  0  0
 19 42  1  0  0  0  0
 20 43  1  0  0  0  0
 20 44  1  0  0  0  0
 21 22  2  0  0  0  0
 22 45  1  0  0  0  0
M  CHG  1   9  -1
M  END
> <s_m_source_file>
AV-unprocessed.smi

> <i_m_source_file_index>
2168

> <i_lp_mmshare_version>
43012

> <i_f3d_flags>
0

> <s_epik_input>
W0NIM11bQ0gyXU4oW0NIMl1bQ0gzXSlTKD1PKSg9TylbTkhdW0NIMl1jMVtjSF1bY0hdYyhuW2NIXTEpTjJbQ0gyXVtDSDJdT1tDSDJdW0NIMl0y

> <s_epik_cmdline>
J2VwaWtfcHl0aG9uJywgJy1waCcsICc3LjAnLCAnLXRuJywgJzgnLCAnLW1hJywgJzIwMCcsICctbWV0YWxfYmluZGluZycsICctaW1hZScsICc8aW5maWxlLm1hZT4nLCAnLW9tYWUnLCAnPG91dGZpbGUubWFlPic=

> <r_lp_tautomer_probability>
1

> <r_epik_Ionization_Penalty>
2.49252

> <r_epik_Ionization_Penalty_Charging>
2.41478

> <r_epik_Ionization_Penalty_Neutral>
0.0777351

> <r_epik_State_Penalty>
2.68884

> <r_epik_Charging_Adjusted_Penalty>
5.10362

> <i_epik_Tot_Q>
-1

> <i_epik_Tot_abs_Q>
1

> <r_epik_Metal_State_Penalty>
0.584574

> <b_epik_Metal_Only>
0

> <s_lp_Force_Field>
OPLS_2005

> <r_lp_Energy>
16.7

> <b_lp_Chiralities_Consistent>
1

> <s_lp_Variant>
AV-unprocessed.smi:2168-3

> <Gold.Version>
5.8.1

> <Gold.Id.Protein>
6NUR|6NUR_protein|mol2

> <Gold.PLP.Fitness>
38.3477

> <Gold.PLP.PLP>
-34.0575

> <Gold.PLP.part.hbond>
-2.6497

> <Gold.PLP.part.metal>
0.0000

> <Gold.PLP.part.buried>
-6.3810

> <Gold.PLP.part.nonpolar>
-25.4967

> <Gold.PLP.part.repulsive>
0.0258

> <Gold.PLP.ligand.clash>
0.0000

> <Gold.PLP.ligand.torsion>
2.7169

> <Gold.PLP.Chemscore.Hbond>
2.0000

> <Gold.PLP.Chemscore.CHOScore>
0.0000

> <Gold.PLP.Chemscore.Metal>
0.0000

> <Gold.Chemscore.Hbonds>
donor molecule, donor type, donor heavy atom, donor atom, acceptor molecule, acceptor atom, score
      P1  H  6896  6907       L1     8  1.00
      P1  H  7997  8008       L1    21  0.90

> <Gold.PLP.Chemscore.Internal.Correction>
3.7240

> <Gold.Rescore>
     Score         DG    S(hbond)    S(metal)    S(lipo)     H(rot)  DE(clash)    DE(int)     intcor
     12.09     -14.87       1.12        0.00      84.72       1.66       0.10       2.68       ----

> <Gold.Chemscore.Fitness>
12.0931

> <Gold.Chemscore.DG>
-14.8701

> <Gold.Chemscore.ZeroCoef>
-5.4800

> <Gold.Chemscore.Hbond>
1.1191

> <Gold.Chemscore.Metal>
0.0000

> <Gold.Chemscore.Lipo>
84.7227

> <Gold.Chemscore.Internal_Hbond>
0.0000

> <Gold.Chemscore.DEClash>
0.0998

> <Gold.Chemscore.DEInternal>
2.6772

> <Gold.Chemscore.Rot>
1.6642

> <Gold.Chemscore.Internal.Correction>
   9.000000E+99

> <Gold.Chemscore.Hbonds>
donor molecule, donor type, donor heavy atom, donor atom, acceptor molecule, acceptor atom, score
      P1  H  6896  6907       L1     8  0.35
      P1  H  7997  8008       L1    21  0.18

> <Gold.Chemscore.Hbond.Weighted>
-3.7380

> <Gold.Chemscore.Metal.Weighted>
-0.0000

> <Gold.Chemscore.Lipo.Weighted>
-9.9126

> <Gold.Chemscore.Internal_Hbond.Weighted>
0.0000

> <Gold.Chemscore.DEClash.Weighted>
0.0998

> <Gold.Chemscore.DEInternal.Weighted>
2.6772

> <Gold.Chemscore.Rot.Weighted>
4.2604

> <Gold.Chemscore.Internal.Correction.Weighted>
   9.000000E+99

> <Gold.Protein.RotatedTorsions>
[ 6907 6896 6895 6894 ] final -121.10 input  -60.11 | X-H torsion
[ 7974 7965 7964 7962 ] final  -29.88 input  175.53 | X-H torsion
[ 8008 7997 7996 7995 ] final  -50.36 input   59.86 | X-H torsion
[ 10167 10162 10161 10158 ] final  -94.18 input  -65.29 | X-H torsion
[ 10718 10713 10712 10709 ] final   23.11 input   66.30 | X-H torsion
[ 10763 10752 10751 10750 ] final -107.42 input  -60.55 | X-H torsion
[ 11005 11000 10999 10996 ] final  -18.45 input  -57.11 | X-H torsion

> <Gold.Protein.ActiveResidues>
 VAL166  LYS551  ARG553  GLY616  TRP617  ASP618  TYR619  PRO620  LYS621  CYS622 
 ASP623  PHE694  ASN695  SER759  ASP760  ASP761  ALA762  ILE779  LEU786  VAL792 
 PHE793  MET794  SER795  GLU796  ALA797  LYS798  CYS799  TRP800  GLU811  SER814 

> <Gold.Protein.RotatedAtoms>
  150.8452  133.7872  159.3045 H   0  0  0  0  0  0  0  0  0  0  0  0  # atno 6907 bound_to 6896
  151.5561  135.1065  159.9971 H   0  0  0  0  0  0  0  0  0  0  0  0  # atno 6908 bound_to 6896
  152.4508  133.7582  159.6788 H   0  0  0  0  0  0  0  0  0  0  0  0  # atno 6909 bound_to 6896
  146.1184  140.5469  142.8746 H   0  0  0  0  0  0  0  0  0  0  0  0  # atno 7974 bound_to 7965
  154.4060  140.1274  156.4653 H   0  0  0  0  0  0  0  0  0  0  0  0  # atno 8008 bound_to 7997
  155.7233  140.3492  155.5006 H   0  0  0  0  0  0  0  0  0  0  0  0  # atno 8009 bound_to 7997
  155.9195  140.1050  157.1208 H   0  0  0  0  0  0  0  0  0  0  0  0  # atno 8010 bound_to 7997
  140.3170  143.3071  152.0087 H   0  0  0  0  0  0  0  0  0  0  0  0  # atno 10167 bound_to 10162
  157.1616  130.6719  149.6046 H   0  0  0  0  0  0  0  0  0  0  0  0  # atno 10718 bound_to 10713
  154.8074  135.4676  154.0427 H   0  0  0  0  0  0  0  0  0  0  0  0  # atno 10763 bound_to 10752
  153.1885  135.6851  153.8390 H   0  0  0  0  0  0  0  0  0  0  0  0  # atno 10764 bound_to 10752
  153.7917  135.3242  155.3356 H   0  0  0  0  0  0  0  0  0  0  0  0  # atno 10765 bound_to 10752
  140.8270  133.8026  155.9718 H   0  0  0  0  0  0  0  0  0  0  0  0  # atno 11005 bound_to 11000
  144.7574  140.5341  143.6759 LP  0  0  0  0  0  0  0  0  0  0  0  0  # atno 17320 bound_to 7965
  145.5518  139.1477  143.3390 LP  0  0  0  0  0  0  0  0  0  0  0  0  # atno 17321 bound_to 7965
  139.4882  144.6340  151.7012 LP  0  0  0  0  0  0  0  0  0  0  0  0  # atno 17342 bound_to 10162
  140.5517  144.0414  150.6130 LP  0  0  0  0  0  0  0  0  0  0  0  0  # atno 17343 bound_to 10162
  155.9753  130.4709  150.6448 LP  0  0  0  0  0  0  0  0  0  0  0  0  # atno 17370 bound_to 10713
  157.4127  131.0826  151.1206 LP  0  0  0  0  0  0  0  0  0  0  0  0  # atno 17371 bound_to 10713
  140.9039  134.2344  157.5026 LP  0  0  0  0  0  0  0  0  0  0  0  0  # atno 17394 bound_to 11000
  139.8706  134.9719  156.4754 LP  0  0  0  0  0  0  0  0  0  0  0  0  # atno 17395 bound_to 11000

$$$$
