AV-unprocessed.smi:1447|AV-procd|sdf|5891|dock1
  -GOLD-   22720 5573D 1   1.00000     0.00000
 Structure written by MMmdl.
 48 50  0  0  0  0  0  0  0  0  2 V2000
  154.6920  140.3016  159.4469 C   0  0  0  0  0  0  0  0  0  0  0  0
  154.8825  139.4947  158.2985 O   0  0  0  0  0  0  0  0  0  0  0  0
  153.6659  138.9717  157.7912 C   0  0  0  0  0  0  0  0  0  0  0  0
  153.9537  138.0235  156.6154 C   0  0  0  0  0  0  0  0  0  0  0  0
  152.7556  137.7796  155.8041 N   0  0  0  0  0  0  0  0  0  0  0  0
  152.2121  136.5168  155.9726 N   0  0  0  0  0  0  0  0  0  0  0  0
  151.1465  136.1748  155.3233 C   0  0  0  0  0  0  0  0  0  0  0  0
  150.5334  134.8265  155.4770 C   0  0  0  0  0  0  0  0  0  0  0  0
  150.8060  134.0911  156.4273 O   0  0  0  0  0  0  0  0  0  0  0  0
  149.6649  134.4752  154.5111 N   0  0  0  0  0  0  0  0  0  0  0  0
  148.9457  133.2073  154.4438 C   0  0  2  0  0  0  0  0  0  0  0  0
  149.9480  132.0429  154.3823 C   0  0  0  0  0  0  0  0  0  0  0  0
  149.2256  130.6951  154.2175 C   0  0  0  0  0  0  0  0  0  0  0  0
  148.3528  130.7002  153.0174 N   0  3  1  0  0  0  0  0  0  0  0  0
  147.7344  129.3788  152.7741 C   0  0  0  0  0  0  0  0  0  0  0  0
  146.4829  129.4411  151.9297 C   0  0  0  0  0  0  0  0  0  0  0  0
  146.3794  129.2111  153.4211 C   0  0  0  0  0  0  0  0  0  0  0  0
  147.3454  131.7882  153.0753 C   0  0  0  0  0  0  0  0  0  0  0  0
  148.0234  133.1617  153.2106 C   0  0  0  0  0  0  0  0  0  0  0  0
  150.5018  137.1024  154.4098 C   0  0  0  0  0  0  0  0  0  0  0  0
  151.0428  138.3308  154.2560 C   0  0  0  0  0  0  0  0  0  0  0  0
  152.2473  138.7437  154.9780 C   0  0  0  0  0  0  0  0  0  0  0  0
  152.7559  139.8571  154.8531 O   0  0  0  0  0  0  0  0  0  0  0  0
  155.6551  140.6713  159.7985 H   0  0  0  0  0  0  0  0  0  0  0  0
  154.2338  139.7334  160.2574 H   0  0  0  0  0  0  0  0  0  0  0  0
  154.0620  141.1632  159.2222 H   0  0  0  0  0  0  0  0  0  0  0  0
  153.1543  138.4209  158.5820 H   0  0  0  0  0  0  0  0  0  0  0  0
  153.0017  139.7791  157.4776 H   0  0  0  0  0  0  0  0  0  0  0  0
  154.7768  138.4086  156.0115 H   0  0  0  0  0  0  0  0  0  0  0  0
  154.3122  137.0710  157.0096 H   0  0  0  0  0  0  0  0  0  0  0  0
  149.4982  135.1375  153.7668 H   0  0  0  0  0  0  0  0  0  0  0  0
  148.3424  133.0933  155.3465 H   0  0  0  0  0  0  0  0  0  0  0  0
  150.6364  132.1879  153.5481 H   0  0  0  0  0  0  0  0  0  0  0  0
  150.5571  132.0257  155.2869 H   0  0  0  0  0  0  0  0  0  0  0  0
  149.9627  129.8961  154.1298 H   0  0  0  0  0  0  0  0  0  0  0  0
  148.6272  130.4776  155.1038 H   0  0  0  0  0  0  0  0  0  0  0  0
  148.4154  128.5333  152.6913 H   0  0  0  0  0  0  0  0  0  0  0  0
  146.1641  130.4099  151.5490 H   0  0  0  0  0  0  0  0  0  0  0  0
  146.2740  128.5946  151.2787 H   0  0  0  0  0  0  0  0  0  0  0  0
  146.1021  128.2127  153.7532 H   0  0  0  0  0  0  0  0  0  0  0  0
  145.9909  130.0272  154.0278 H   0  0  0  0  0  0  0  0  0  0  0  0
  146.7356  131.7717  152.1712 H   0  0  0  0  0  0  0  0  0  0  0  0
  146.6702  131.6179  153.9156 H   0  0  0  0  0  0  0  0  0  0  0  0
  147.2609  133.9386  153.2784 H   0  0  0  0  0  0  0  0  0  0  0  0
  148.5986  133.3723  152.3078 H   0  0  0  0  0  0  0  0  0  0  0  0
  149.6125  136.8248  153.8628 H   0  0  0  0  0  0  0  0  0  0  0  0
  150.5737  139.0306  153.5800 H   0  0  0  0  0  0  0  0  0  0  0  0
  148.9464  130.8933  152.2234 H   0  0  0  0  0  0  0  0  0  0  0  0
  1  2  1  0  0  0  0
  1 24  1  0  0  0  0
  1 25  1  0  0  0  0
  1 26  1  0  0  0  0
  2  3  1  0  0  0  0
  3  4  1  0  0  0  0
  3 27  1  0  0  0  0
  3 28  1  0  0  0  0
  4  5  1  0  0  0  0
  4 29  1  0  0  0  0
  4 30  1  0  0  0  0
  5 22  1  0  0  0  0
  5  6  1  0  0  0  0
  6  7  2  0  0  0  0
  7  8  1  0  0  0  0
  7 20  1  0  0  0  0
  8  9  2  0  0  0  0
  8 10  1  0  0  0  0
 10 11  1  0  0  0  0
 10 31  1  0  0  0  0
 11 19  1  0  0  0  0
 11 12  1  0  0  0  0
 11 32  1  0  0  0  0
 12 13  1  0  0  0  0
 12 33  1  0  0  0  0
 12 34  1  0  0  0  0
 13 14  1  0  0  0  0
 13 35  1  0  0  0  0
 13 36  1  0  0  0  0
 14 15  1  0  0  0  0
 14 18  1  0  0  0  0
 14 48  1  0  0  0  0
 15 17  1  0  0  0  0
 15 16  1  0  0  0  0
 15 37  1  0  0  0  0
 16 17  1  0  0  0  0
 16 38  1  0  0  0  0
 16 39  1  0  0  0  0
 17 40  1  0  0  0  0
 17 41  1  0  0  0  0
 18 19  1  0  0  0  0
 18 42  1  0  0  0  0
 18 43  1  0  0  0  0
 19 44  1  0  0  0  0
 19 45  1  0  0  0  0
 20 21  2  0  0  0  0
 20 46  1  0  0  0  0
 21 22  1  0  0  0  0
 21 47  1  0  0  0  0
 22 23  2  0  0  0  0
M  CHG  1  14   1
M  END
> <s_m_source_file>
AV-unprocessed.smi

> <i_m_source_file_index>
1447

> <i_lp_mmshare_version>
43012

> <i_f3d_flags>
0

> <s_epik_input>
W0NIM11PW0NIMl1bQ0gyXW4xbmMoW2NIXVtjSF1jMT1PKUMoPU8pW05IXVtDSF0yW0NIMl1bQ0gyXU4oW0NIMl1bQ0gyXTIpW0NIXTNbQ0gyXVtDSDJdMw==

> <s_epik_cmdline>
J2VwaWtfcHl0aG9uJywgJy1waCcsICc3LjAnLCAnLXRuJywgJzgnLCAnLW1hJywgJzIwMCcsICctbWV0YWxfYmluZGluZycsICctaW1hZScsICc8aW5maWxlLm1hZT4nLCAnLW9tYWUnLCAnPG91dGZpbGUubWFlPic=

> <r_lp_tautomer_probability>
1

> <r_epik_Ionization_Penalty>
0.168623

> <r_epik_Ionization_Penalty_Charging>
0.16862

> <r_epik_Ionization_Penalty_Neutral>
2.93027e-06

> <r_epik_State_Penalty>
0.157986

> <r_epik_Charging_Adjusted_Penalty>
0.326605

> <i_epik_Tot_Q>
1

> <i_epik_Tot_abs_Q>
1

> <r_epik_Metal_State_Penalty>
0.157986

> <b_epik_Metal_Only>
0

> <s_lp_Force_Field>
OPLS_2005

> <r_lp_Energy>
46.6346

> <b_lp_Chiralities_Consistent>
1

> <s_lp_Variant>
AV-unprocessed.smi:1447-1

> <Gold.Version>
5.8.1

> <Gold.Id.Protein>
6NUR|6NUR_protein|mol2

> <Gold.PLP.Fitness>
49.9526

> <Gold.PLP.PLP>
-36.7135

> <Gold.PLP.part.hbond>
-5.5060

> <Gold.PLP.part.metal>
0.0000

> <Gold.PLP.part.buried>
2.7596

> <Gold.PLP.part.nonpolar>
-32.3754

> <Gold.PLP.part.repulsive>
0.0673

> <Gold.PLP.ligand.clash>
0.0000

> <Gold.PLP.ligand.torsion>
0.9825

> <Gold.PLP.Chemscore.Hbond>
4.5784

> <Gold.PLP.Chemscore.CHOScore>
0.0000

> <Gold.PLP.Chemscore.Metal>
0.0000

> <Gold.Chemscore.Hbonds>
donor molecule, donor type, donor heavy atom, donor atom, acceptor molecule, acceptor atom, score
      L1  H    10    31       P1  7948  0.42
      L1  H    14    48       P1 10747  0.86
      P1  H  7989  7998       L1    23  0.46
      P1  H  7997  8008       L1     2  0.03
      P1  H  7997  8009       L1    23  1.00
      P1  H 10752 10764       L1     6  0.85

> <Gold.PLP.Chemscore.Internal.Correction>
1.4689

> <Gold.Rescore>
     Score         DG    S(hbond)    S(metal)    S(lipo)     H(rot)  DE(clash)    DE(int)     intcor
     17.17     -19.43       2.35        0.00      90.51       1.76       0.44       1.82       ----

> <Gold.Chemscore.Fitness>
17.1692

> <Gold.Chemscore.DG>
-19.4272

> <Gold.Chemscore.ZeroCoef>
-5.4800

> <Gold.Chemscore.Hbond>
2.3549

> <Gold.Chemscore.Metal>
0.0000

> <Gold.Chemscore.Lipo>
90.5079

> <Gold.Chemscore.Internal_Hbond>
0.0000

> <Gold.Chemscore.DEClash>
0.4408

> <Gold.Chemscore.DEInternal>
1.8172

> <Gold.Chemscore.Rot>
1.7608

> <Gold.Chemscore.Internal.Correction>
   9.000000E+99

> <Gold.Chemscore.Hbonds>
donor molecule, donor type, donor heavy atom, donor atom, acceptor molecule, acceptor atom, score
      L1  H    10    31       P1  7948  0.06
      L1  H    14    48       P1 10747  0.43
      P1  H  7989  7998       L1    23  0.29
      P1  H  7997  8008       L1     2  0.02
      P1  H  7997  8009       L1    23  0.91
      P1  H 10752 10764       L1     6  0.08

> <Gold.Chemscore.Hbond.Weighted>
-7.8655

> <Gold.Chemscore.Metal.Weighted>
-0.0000

> <Gold.Chemscore.Lipo.Weighted>
-10.5894

> <Gold.Chemscore.Internal_Hbond.Weighted>
0.0000

> <Gold.Chemscore.DEClash.Weighted>
0.4408

> <Gold.Chemscore.DEInternal.Weighted>
1.8172

> <Gold.Chemscore.Rot.Weighted>
4.5077

> <Gold.Chemscore.Internal.Correction.Weighted>
   9.000000E+99

> <Gold.Protein.RotatedTorsions>
[ 6907 6896 6895 6894 ] final  117.17 input  -60.11 | X-H torsion
[ 7974 7965 7964 7962 ] final  104.65 input  175.53 | X-H torsion
[ 8008 7997 7996 7995 ] final -131.31 input   59.86 | X-H torsion
[ 10167 10162 10161 10158 ] final  104.29 input  -65.29 | X-H torsion
[ 10718 10713 10712 10709 ] final -107.19 input   66.30 | X-H torsion
[ 10763 10752 10751 10750 ] final  -14.24 input  -60.55 | X-H torsion
[ 11005 11000 10999 10996 ] final -132.29 input  -57.11 | X-H torsion

> <Gold.Protein.ActiveResidues>
 VAL166  LYS551  ARG553  GLY616  TRP617  ASP618  TYR619  PRO620  LYS621  CYS622 
 ASP623  PHE694  ASN695  SER759  ASP760  ASP761  ALA762  ILE779  LEU786  VAL792 
 PHE793  MET794  SER795  GLU796  ALA797  LYS798  CYS799  TRP800  GLU811  SER814 

> <Gold.Protein.RotatedAtoms>
  152.4630  133.7862  159.6877 H   0  0  0  0  0  0  0  0  0  0  0  0  # atno 6907 bound_to 6896
  150.8582  133.7674  159.3008 H   0  0  0  0  0  0  0  0  0  0  0  0  # atno 6908 bound_to 6896
  151.5248  135.1070  159.9939 H   0  0  0  0  0  0  0  0  0  0  0  0  # atno 6909 bound_to 6896
  145.3299  139.2489  143.3666 H   0  0  0  0  0  0  0  0  0  0  0  0  # atno 7974 bound_to 7965
  155.3102  140.0457  157.3034 H   0  0  0  0  0  0  0  0  0  0  0  0  # atno 8008 bound_to 7997
  154.5437  140.2296  155.8565 H   0  0  0  0  0  0  0  0  0  0  0  0  # atno 8009 bound_to 7997
  156.1904  140.3052  155.9329 H   0  0  0  0  0  0  0  0  0  0  0  0  # atno 8010 bound_to 7997
  139.7190  144.7062  151.0903 H   0  0  0  0  0  0  0  0  0  0  0  0  # atno 10167 bound_to 10162
  156.0425  130.5650  150.7787 H   0  0  0  0  0  0  0  0  0  0  0  0  # atno 10718 bound_to 10713
  153.5253  135.7015  153.5710 H   0  0  0  0  0  0  0  0  0  0  0  0  # atno 10763 bound_to 10752
  153.3741  135.3937  155.1810 H   0  0  0  0  0  0  0  0  0  0  0  0  # atno 10764 bound_to 10752
  154.8690  135.3819  154.4746 H   0  0  0  0  0  0  0  0  0  0  0  0  # atno 10765 bound_to 10752
  140.9184  134.1477  157.4334 H   0  0  0  0  0  0  0  0  0  0  0  0  # atno 11005 bound_to 11000
  146.3049  140.3875  142.8690 LP  0  0  0  0  0  0  0  0  0  0  0  0  # atno 17320 bound_to 7965
  144.8872  140.7477  143.5949 LP  0  0  0  0  0  0  0  0  0  0  0  0  # atno 17321 bound_to 7965
  140.7750  143.5191  150.9558 LP  0  0  0  0  0  0  0  0  0  0  0  0  # atno 17342 bound_to 10162
  139.8878  143.6991  152.3149 LP  0  0  0  0  0  0  0  0  0  0  0  0  # atno 17343 bound_to 10162
  157.5261  131.0934  151.0016 LP  0  0  0  0  0  0  0  0  0  0  0  0  # atno 17370 bound_to 10713
  157.0335  130.5720  149.5346 LP  0  0  0  0  0  0  0  0  0  0  0  0  # atno 17371 bound_to 10713
  139.8770  134.9962  156.5782 LP  0  0  0  0  0  0  0  0  0  0  0  0  # atno 17394 bound_to 11000
  140.8020  133.8497  155.8735 LP  0  0  0  0  0  0  0  0  0  0  0  0  # atno 17395 bound_to 11000

$$$$
