AV-unprocessed.smi:3257|AV-procd|sdf|12467|dock8
  -GOLD-   2272018363D 1   1.00000     0.00000
 Structure written by MMmdl.
 38 39  0  0  0  0  0  0  0  0  1 V2000
  152.1293  143.8772  161.3625 C   0  0  0  0  0  0  0  0  0  0  0  0
  152.6055  142.6934  160.6795 N   0  0  0  0  0  0  0  0  0  0  0  0
  153.4655  141.7213  161.1425 C   0  0  0  0  0  0  0  0  0  0  0  0
  153.6213  140.8016  160.1437 C   0  0  0  0  0  0  0  0  0  0  0  0
  154.4503  139.5481  160.1406 C   0  0  0  0  0  0  0  0  0  0  0  0
  153.5772  138.2946  159.9693 C   0  0  0  0  0  0  0  0  0  0  0  0
  153.2651  138.0465  158.5670 N   0  0  0  0  0  0  0  0  0  0  0  0
  152.1927  137.3742  158.1150 C   0  0  0  0  0  0  0  0  0  0  0  0
  151.3514  136.8982  158.8787 O   0  0  0  0  0  0  0  0  0  0  0  0
  152.1091  137.2788  156.7633 N   0  0  0  0  0  0  0  0  0  0  0  0
  151.0417  136.6077  155.9989 C   0  0  0  0  0  0  0  0  0  0  0  0
  150.1594  137.6784  155.3313 C   0  0  0  0  0  0  0  0  0  0  0  0
  151.0091  138.6035  154.4375 C   0  0  0  0  0  0  0  0  0  0  0  0
  150.2166  139.6702  153.9603 O   0  0  0  0  0  0  0  0  0  0  0  0
  152.2308  139.1579  155.1970 C   0  0  0  0  0  0  0  0  0  0  0  0
  153.0154  138.0189  155.8743 C   0  0  0  0  0  0  0  0  0  0  0  0
  152.8060  141.3130  159.0940 C   0  0  0  0  0  0  0  0  0  0  0  0
  152.2003  142.4443  159.4171 N   0  0  0  0  0  0  0  0  0  0  0  0
  152.3749  143.8198  162.4234 H   0  0  0  0  0  0  0  0  0  0  0  0
  151.0471  143.9600  161.2547 H   0  0  0  0  0  0  0  0  0  0  0  0
  152.6017  144.7620  160.9356 H   0  0  0  0  0  0  0  0  0  0  0  0
  153.8902  141.7617  162.1349 H   0  0  0  0  0  0  0  0  0  0  0  0
  155.1924  139.5863  159.3421 H   0  0  0  0  0  0  0  0  0  0  0  0
  155.0185  139.4671  161.0681 H   0  0  0  0  0  0  0  0  0  0  0  0
  154.1026  137.4196  160.3532 H   0  0  0  0  0  0  0  0  0  0  0  0
  152.6574  138.3843  160.5505 H   0  0  0  0  0  0  0  0  0  0  0  0
  153.9128  138.4132  157.8850 H   0  0  0  0  0  0  0  0  0  0  0  0
  151.4955  135.9735  155.2360 H   0  0  0  0  0  0  0  0  0  0  0  0
  150.4217  135.9383  156.5948 H   0  0  0  0  0  0  0  0  0  0  0  0
  149.3748  137.2028  154.7418 H   0  0  0  0  0  0  0  0  0  0  0  0
  149.6574  138.2637  156.1035 H   0  0  0  0  0  0  0  0  0  0  0  0
  151.3595  138.0359  153.5746 H   0  0  0  0  0  0  0  0  0  0  0  0
  149.8618  139.4286  153.1183 H   0  0  0  0  0  0  0  0  0  0  0  0
  152.8809  139.7061  154.5144 H   0  0  0  0  0  0  0  0  0  0  0  0
  151.9053  139.8711  155.9562 H   0  0  0  0  0  0  0  0  0  0  0  0
  153.8821  138.4254  156.3970 H   0  0  0  0  0  0  0  0  0  0  0  0
  153.4179  137.3404  155.1209 H   0  0  0  0  0  0  0  0  0  0  0  0
  152.6377  140.8969  158.1117 H   0  0  0  0  0  0  0  0  0  0  0  0
  1  2  1  0  0  0  0
  1 19  1  0  0  0  0
  1 20  1  0  0  0  0
  1 21  1  0  0  0  0
  2 18  1  0  0  0  0
  2  3  1  0  0  0  0
  3  4  2  0  0  0  0
  3 22  1  0  0  0  0
  4  5  1  0  0  0  0
  4 17  1  0  0  0  0
  5  6  1  0  0  0  0
  5 23  1  0  0  0  0
  5 24  1  0  0  0  0
  6  7  1  0  0  0  0
  6 25  1  0  0  0  0
  6 26  1  0  0  0  0
  7  8  1  0  0  0  0
  7 27  1  0  0  0  0
  8  9  2  0  0  0  0
  8 10  1  0  0  0  0
 10 16  1  0  0  0  0
 10 11  1  0  0  0  0
 11 12  1  0  0  0  0
 11 28  1  0  0  0  0
 11 29  1  0  0  0  0
 12 13  1  0  0  0  0
 12 30  1  0  0  0  0
 12 31  1  0  0  0  0
 13 14  1  0  0  0  0
 13 15  1  0  0  0  0
 13 32  1  0  0  0  0
 14 33  1  0  0  0  0
 15 16  1  0  0  0  0
 15 34  1  0  0  0  0
 15 35  1  0  0  0  0
 16 36  1  0  0  0  0
 16 37  1  0  0  0  0
 17 18  2  0  0  0  0
 17 38  1  0  0  0  0
M  END
> <s_m_source_file>
AV-unprocessed.smi

> <i_m_source_file_index>
3257

> <i_lp_mmshare_version>
43012

> <i_f3d_flags>
0

> <s_epik_input>
W0NIM11uMVtjSF1jKFtjSF1uMSlbQ0gyXVtDSDJdW05IXUMoPU8pTjJbQ0gyXVtDSDJdW0NIXShbT0hdKVtDSDJdW0NIMl0y

> <s_epik_cmdline>
J2VwaWtfcHl0aG9uJywgJy1waCcsICc3LjAnLCAnLXRuJywgJzgnLCAnLW1hJywgJzIwMCcsICctbWV0YWxfYmluZGluZycsICctaW1hZScsICc8aW5maWxlLm1hZT4nLCAnLW9tYWUnLCAnPG91dGZpbGUubWFlPic=

> <r_lp_tautomer_probability>
1

> <r_epik_Ionization_Penalty>
0.000563034

> <r_epik_Ionization_Penalty_Charging>
0

> <r_epik_Ionization_Penalty_Neutral>
0.000563034

> <r_epik_State_Penalty>
-0

> <r_epik_Charging_Adjusted_Penalty>
0

> <i_epik_Tot_Q>
0

> <i_epik_Tot_abs_Q>
0

> <r_epik_Metal_State_Penalty>
-0

> <b_epik_Metal_Only>
0

> <s_lp_Force_Field>
OPLS_2005

> <r_lp_Energy>
25.1646

> <b_lp_Chiralities_Consistent>
1

> <s_lp_Variant>
AV-unprocessed.smi:3257-1

> <Gold.Version>
5.8.1

> <Gold.Id.Protein>
6NUR|6NUR_protein|mol2

> <Gold.PLP.Fitness>
42.4653

> <Gold.PLP.PLP>
-36.3220

> <Gold.PLP.part.hbond>
-3.0000

> <Gold.PLP.part.metal>
0.0000

> <Gold.PLP.part.buried>
-5.3254

> <Gold.PLP.part.nonpolar>
-28.1570

> <Gold.PLP.part.repulsive>
0.0880

> <Gold.PLP.ligand.clash>
1.6470

> <Gold.PLP.ligand.torsion>
0.3186

> <Gold.PLP.Chemscore.Hbond>
2.7969

> <Gold.PLP.Chemscore.CHOScore>
0.0000

> <Gold.PLP.Chemscore.Metal>
0.0000

> <Gold.Chemscore.Hbonds>
donor molecule, donor type, donor heavy atom, donor atom, acceptor molecule, acceptor atom, score
      L1  H    14    33       P1  7957  0.83
      P1  H  6896  6909       L1     9  0.97
      P1  H  7989  7998       L1    14  0.95

> <Gold.PLP.Chemscore.Internal.Correction>
0.0367

> <Gold.Rescore>
     Score         DG    S(hbond)    S(metal)    S(lipo)     H(rot)  DE(clash)    DE(int)     intcor
     16.37     -16.65       1.79        0.00      86.80       1.95       0.02       0.26       ----

> <Gold.Chemscore.Fitness>
16.3663

> <Gold.Chemscore.DG>
-16.6467

> <Gold.Chemscore.ZeroCoef>
-5.4800

> <Gold.Chemscore.Hbond>
1.7938

> <Gold.Chemscore.Metal>
0.0000

> <Gold.Chemscore.Lipo>
86.7996

> <Gold.Chemscore.Internal_Hbond>
0.0000

> <Gold.Chemscore.DEClash>
0.0199

> <Gold.Chemscore.DEInternal>
0.2605

> <Gold.Chemscore.Rot>
1.9454

> <Gold.Chemscore.Internal.Correction>
   9.000000E+99

> <Gold.Chemscore.Hbonds>
donor molecule, donor type, donor heavy atom, donor atom, acceptor molecule, acceptor atom, score
      L1  H    14    33       P1  7957  0.78
      P1  H  6896  6909       L1     9  0.87
      P1  H  7989  7998       L1    14  0.07

> <Gold.Chemscore.Hbond.Weighted>
-5.9913

> <Gold.Chemscore.Metal.Weighted>
-0.0000

> <Gold.Chemscore.Lipo.Weighted>
-10.1556

> <Gold.Chemscore.Internal_Hbond.Weighted>
0.0000

> <Gold.Chemscore.DEClash.Weighted>
0.0199

> <Gold.Chemscore.DEInternal.Weighted>
0.2605

> <Gold.Chemscore.Rot.Weighted>
4.9802

> <Gold.Chemscore.Internal.Correction.Weighted>
   9.000000E+99

> <Gold.Protein.RotatedTorsions>
[ 6907 6896 6895 6894 ] final  106.00 input  -60.11 | X-H torsion
[ 7974 7965 7964 7962 ] final   -8.15 input  175.53 | X-H torsion
[ 8008 7997 7996 7995 ] final  174.47 input   59.86 | X-H torsion
[ 10167 10162 10161 10158 ] final   92.18 input  -65.29 | X-H torsion
[ 10718 10713 10712 10709 ] final  102.33 input   66.30 | X-H torsion
[ 10763 10752 10751 10750 ] final   80.57 input  -60.55 | X-H torsion
[ 11005 11000 10999 10996 ] final  -66.29 input  -57.11 | X-H torsion

> <Gold.Protein.ActiveResidues>
 VAL166  LYS551  ARG553  GLY616  TRP617  ASP618  TYR619  PRO620  LYS621  CYS622 
 ASP623  PHE694  ASN695  SER759  ASP760  ASP761  ALA762  ILE779  LEU786  VAL792 
 PHE793  MET794  SER795  GLU796  ALA797  LYS798  CYS799  TRP800  GLU811  SER814 

> <Gold.Protein.RotatedAtoms>
  152.5210  133.9445  159.7641 H   0  0  0  0  0  0  0  0  0  0  0  0  # atno 6907 bound_to 6896
  150.9768  133.6278  159.2736 H   0  0  0  0  0  0  0  0  0  0  0  0  # atno 6908 bound_to 6896
  151.3470  135.0882  159.9443 H   0  0  0  0  0  0  0  0  0  0  0  0  # atno 6909 bound_to 6896
  146.2288  140.2426  142.8344 H   0  0  0  0  0  0  0  0  0  0  0  0  # atno 7974 bound_to 7965
  156.0970  140.1433  156.9517 H   0  0  0  0  0  0  0  0  0  0  0  0  # atno 8008 bound_to 7997
  154.4678  140.0920  156.7111 H   0  0  0  0  0  0  0  0  0  0  0  0  # atno 8009 bound_to 7997
  155.4824  140.3445  155.4344 H   0  0  0  0  0  0  0  0  0  0  0  0  # atno 8010 bound_to 7997
  139.8301  144.6691  150.9410 H   0  0  0  0  0  0  0  0  0  0  0  0  # atno 10167 bound_to 10162
  157.6805  131.0750  150.5387 H   0  0  0  0  0  0  0  0  0  0  0  0  # atno 10718 bound_to 10713
  153.1044  135.4797  154.8925 H   0  0  0  0  0  0  0  0  0  0  0  0  # atno 10763 bound_to 10752
  154.7414  135.3083  154.8723 H   0  0  0  0  0  0  0  0  0  0  0  0  # atno 10764 bound_to 10752
  153.9330  135.6842  153.4798 H   0  0  0  0  0  0  0  0  0  0  0  0  # atno 10765 bound_to 10752
  141.1478  133.6697  156.6117 H   0  0  0  0  0  0  0  0  0  0  0  0  # atno 11005 bound_to 11000
  144.9473  140.8141  143.5594 LP  0  0  0  0  0  0  0  0  0  0  0  0  # atno 17320 bound_to 7965
  145.2383  139.2084  143.5006 LP  0  0  0  0  0  0  0  0  0  0  0  0  # atno 17321 bound_to 7965
  140.7807  143.4008  151.1151 LP  0  0  0  0  0  0  0  0  0  0  0  0  # atno 17342 bound_to 10162
  139.7663  143.8561  152.3111 LP  0  0  0  0  0  0  0  0  0  0  0  0  # atno 17343 bound_to 10162
  156.5695  130.4276  149.6026 LP  0  0  0  0  0  0  0  0  0  0  0  0  # atno 17370 bound_to 10713
  156.2753  130.7040  151.1849 LP  0  0  0  0  0  0  0  0  0  0  0  0  # atno 17371 bound_to 10713
  140.3609  134.7688  157.4533 LP  0  0  0  0  0  0  0  0  0  0  0  0  # atno 17394 bound_to 11000
  140.0786  134.5763  155.8565 LP  0  0  0  0  0  0  0  0  0  0  0  0  # atno 17395 bound_to 11000

$$$$
