AV-unprocessed.smi:3331|AV-procd|sdf|12817|dock2
  -GOLD-   2272019183D 1   1.00000     0.00000
 Structure written by MMmdl.
 47 48  0  0  0  0  0  0  0  0  2 V2000
  146.8918  130.0853  153.4524 C   0  0  0  0  0  0  0  0  0  0  0  0
  146.1689  131.2134  152.7033 C   0  0  2  0  0  0  0  0  0  0  0  0
  145.6093  130.7230  151.3482 C   0  0  0  0  0  0  0  0  0  0  0  0
  144.9965  131.8610  150.5009 C   0  0  1  0  0  0  0  0  0  0  0  0
  143.6010  132.2737  151.0026 C   0  0  0  0  0  0  0  0  0  0  0  0
  145.9819  133.0480  150.4257 C   0  0  0  0  0  0  0  0  0  0  0  0
  146.3392  133.4820  151.7844 N   0  0  0  0  0  0  0  0  0  0  0  0
  145.9642  134.6405  152.3850 C   0  0  0  0  0  0  0  0  0  0  0  0
  145.2594  135.4727  151.8105 O   0  0  0  0  0  0  0  0  0  0  0  0
  146.4195  134.9482  153.8258 C   0  0  2  0  0  0  0  0  0  0  0  0
  145.1999  135.1267  154.7491 C   0  0  0  0  0  0  0  0  0  0  0  0
  147.2794  136.1537  153.8455 N   0  3  0  0  0  0  0  0  0  0  0  0
  147.9873  136.4165  155.1168 C   0  0  0  0  0  0  0  0  0  0  0  0
  149.4902  136.1218  154.9902 C   0  0  0  0  0  0  0  0  0  0  0  0
  150.2756  137.3372  154.8656 N   0  0  0  0  0  0  0  0  0  0  0  0
  149.8315  138.6401  154.7813 C   0  0  0  0  0  0  0  0  0  0  0  0
  150.9344  139.4399  154.6911 C   0  0  0  0  0  0  0  0  0  0  0  0
  152.0220  138.5230  154.7274 C   0  0  0  0  0  0  0  0  0  0  0  0
  151.6243  137.2652  154.8345 N   0  0  0  0  0  0  0  0  0  0  0  0
  147.0884  132.4347  152.4925 C   0  0  0  0  0  0  0  0  0  0  0  0
  147.7522  129.7227  152.8892 H   0  0  0  0  0  0  0  0  0  0  0  0
  146.2259  129.2395  153.6252 H   0  0  0  0  0  0  0  0  0  0  0  0
  147.2501  130.4259  154.4243 H   0  0  0  0  0  0  0  0  0  0  0  0
  145.3291  131.5282  153.3247 H   0  0  0  0  0  0  0  0  0  0  0  0
  146.4227  130.2709  150.7787 H   0  0  0  0  0  0  0  0  0  0  0  0
  144.8769  129.9299  151.5040 H   0  0  0  0  0  0  0  0  0  0  0  0
  144.8617  131.4789  149.4883 H   0  0  0  0  0  0  0  0  0  0  0  0
  143.6314  132.6752  152.0155 H   0  0  0  0  0  0  0  0  0  0  0  0
  142.9208  131.4217  151.0076 H   0  0  0  0  0  0  0  0  0  0  0  0
  143.1637  133.0353  150.3570 H   0  0  0  0  0  0  0  0  0  0  0  0
  146.8920  132.7286  149.9152 H   0  0  0  0  0  0  0  0  0  0  0  0
  145.5816  133.8388  149.7947 H   0  0  0  0  0  0  0  0  0  0  0  0
  147.0418  134.1294  154.1824 H   0  0  0  0  0  0  0  0  0  0  0  0
  144.5355  134.2629  154.7101 H   0  0  0  0  0  0  0  0  0  0  0  0
  144.6145  136.0032  154.4681 H   0  0  0  0  0  0  0  0  0  0  0  0
  145.5009  135.2490  155.7894 H   0  0  0  0  0  0  0  0  0  0  0  0
  147.9871  136.0253  153.1353 H   0  0  0  0  0  0  0  0  0  0  0  0
  147.8417  137.4588  155.4002 H   0  0  0  0  0  0  0  0  0  0  0  0
  147.5615  135.8054  155.9141 H   0  0  0  0  0  0  0  0  0  0  0  0
  149.8476  135.5498  155.8480 H   0  0  0  0  0  0  0  0  0  0  0  0
  149.6734  135.5077  154.1077 H   0  0  0  0  0  0  0  0  0  0  0  0
  148.7801  138.8872  154.7940 H   0  0  0  0  0  0  0  0  0  0  0  0
  150.9609  140.5166  154.6102 H   0  0  0  0  0  0  0  0  0  0  0  0
  153.0806  138.7325  154.6814 H   0  0  0  0  0  0  0  0  0  0  0  0
  147.4810  132.7720  153.4527 H   0  0  0  0  0  0  0  0  0  0  0  0
  147.9623  132.1531  151.9033 H   0  0  0  0  0  0  0  0  0  0  0  0
  146.7261  136.9596  153.5914 H   0  0  0  0  0  0  0  0  0  0  0  0
  1  2  1  0  0  0  0
  1 21  1  0  0  0  0
  1 22  1  0  0  0  0
  1 23  1  0  0  0  0
  2 20  1  0  0  0  0
  2  3  1  0  0  0  0
  2 24  1  0  0  0  0
  3  4  1  0  0  0  0
  3 25  1  0  0  0  0
  3 26  1  0  0  0  0
  4  5  1  0  0  0  0
  4  6  1  0  0  0  0
  4 27  1  0  0  0  0
  5 28  1  0  0  0  0
  5 29  1  0  0  0  0
  5 30  1  0  0  0  0
  6  7  1  0  0  0  0
  6 31  1  0  0  0  0
  6 32  1  0  0  0  0
  7  8  1  0  0  0  0
  7 20  1  0  0  0  0
  8  9  2  0  0  0  0
  8 10  1  0  0  0  0
 10 11  1  0  0  0  0
 10 12  1  0  0  0  0
 10 33  1  0  0  0  0
 11 34  1  0  0  0  0
 11 35  1  0  0  0  0
 11 36  1  0  0  0  0
 12 13  1  0  0  0  0
 12 37  1  0  0  0  0
 12 47  1  0  0  0  0
 13 14  1  0  0  0  0
 13 38  1  0  0  0  0
 13 39  1  0  0  0  0
 14 15  1  0  0  0  0
 14 40  1  0  0  0  0
 14 41  1  0  0  0  0
 15 19  1  0  0  0  0
 15 16  1  0  0  0  0
 16 17  2  0  0  0  0
 16 42  1  0  0  0  0
 17 18  1  0  0  0  0
 17 43  1  0  0  0  0
 18 19  2  0  0  0  0
 18 44  1  0  0  0  0
 20 45  1  0  0  0  0
 20 46  1  0  0  0  0
M  CHG  1  12   1
M  END
> <s_m_source_file>
AV-unprocessed.smi

> <i_m_source_file_index>
3331

> <i_lp_mmshare_version>
43012

> <i_f3d_flags>
0

> <s_epik_input>
W0NIM11bQ0BASF0xW0NIMl1bQ0BASF0oW0NIM10pW0NIMl1OKFtDSDJdMSlDKD1PKVtDQEhdKFtDSDNdKVtOSF1bQ0gyXVtDSDJdbjJbY0hdW2NIXVtjSF1uMg==

> <s_epik_cmdline>
J2VwaWtfcHl0aG9uJywgJy1waCcsICc3LjAnLCAnLXRuJywgJzgnLCAnLW1hJywgJzIwMCcsICctbWV0YWxfYmluZGluZycsICctaW1hZScsICc8aW5maWxlLm1hZT4nLCAnLW9tYWUnLCAnPG91dGZpbGUubWFlPic=

> <r_lp_tautomer_probability>
1

> <r_epik_Ionization_Penalty>
0.189706

> <r_epik_Ionization_Penalty_Charging>
0.189703

> <r_epik_Ionization_Penalty_Neutral>
2.45875e-06

> <r_epik_State_Penalty>
0.179341

> <r_epik_Charging_Adjusted_Penalty>
0.369044

> <i_epik_Tot_Q>
1

> <i_epik_Tot_abs_Q>
1

> <r_epik_Metal_State_Penalty>
0.179578

> <b_epik_Metal_Only>
0

> <s_lp_Force_Field>
OPLS_2005

> <r_lp_Energy>
28.246

> <b_lp_Chiralities_Consistent>
1

> <s_lp_Variant>
AV-unprocessed.smi:3331-1

> <Gold.Version>
5.8.1

> <Gold.Id.Protein>
6NUR|6NUR_protein|mol2

> <Gold.PLP.Fitness>
43.2038

> <Gold.PLP.PLP>
-35.5450

> <Gold.PLP.part.hbond>
-1.9017

> <Gold.PLP.part.metal>
0.0000

> <Gold.PLP.part.buried>
-4.2804

> <Gold.PLP.part.nonpolar>
-30.1902

> <Gold.PLP.part.repulsive>
0.2802

> <Gold.PLP.ligand.clash>
0.0000

> <Gold.PLP.ligand.torsion>
0.7237

> <Gold.PLP.Chemscore.Hbond>
3.0000

> <Gold.PLP.Chemscore.CHOScore>
0.0000

> <Gold.PLP.Chemscore.Metal>
0.0000

> <Gold.Chemscore.Hbonds>
donor molecule, donor type, donor heavy atom, donor atom, acceptor molecule, acceptor atom, score
      L1  H    12    37       P1  7948  2.00
      P1  H 10752 10763       L1    19  0.76

> <Gold.PLP.Chemscore.Internal.Correction>
0.1063

> <Gold.Rescore>
     Score         DG    S(hbond)    S(metal)    S(lipo)     H(rot)  DE(clash)    DE(int)     intcor
     17.16     -17.96       1.97        0.00      88.33       1.73       0.20       0.61       ----

> <Gold.Chemscore.Fitness>
17.1573

> <Gold.Chemscore.DG>
-17.9622

> <Gold.Chemscore.ZeroCoef>
-5.4800

> <Gold.Chemscore.Hbond>
1.9655

> <Gold.Chemscore.Metal>
0.0000

> <Gold.Chemscore.Lipo>
88.3275

> <Gold.Chemscore.Internal_Hbond>
0.0000

> <Gold.Chemscore.DEClash>
0.1971

> <Gold.Chemscore.DEInternal>
0.6078

> <Gold.Chemscore.Rot>
1.7254

> <Gold.Chemscore.Internal.Correction>
   9.000000E+99

> <Gold.Chemscore.Hbonds>
donor molecule, donor type, donor heavy atom, donor atom, acceptor molecule, acceptor atom, score
      L1  H    12    37       P1  7948  0.99
      P1  H 10752 10763       L1    19  0.72

> <Gold.Chemscore.Hbond.Weighted>
-6.5649

> <Gold.Chemscore.Metal.Weighted>
-0.0000

> <Gold.Chemscore.Lipo.Weighted>
-10.3343

> <Gold.Chemscore.Internal_Hbond.Weighted>
0.0000

> <Gold.Chemscore.DEClash.Weighted>
0.1971

> <Gold.Chemscore.DEInternal.Weighted>
0.6078

> <Gold.Chemscore.Rot.Weighted>
4.4170

> <Gold.Chemscore.Internal.Correction.Weighted>
   9.000000E+99

> <Gold.Protein.RotatedTorsions>
[ 6907 6896 6895 6894 ] final    2.96 input  -60.11 | X-H torsion
[ 7974 7965 7964 7962 ] final  149.36 input  175.53 | X-H torsion
[ 8008 7997 7996 7995 ] final   -7.49 input   59.86 | X-H torsion
[ 10167 10162 10161 10158 ] final   68.93 input  -65.29 | X-H torsion
[ 10718 10713 10712 10709 ] final   23.85 input   66.30 | X-H torsion
[ 10763 10752 10751 10750 ] final   50.45 input  -60.55 | X-H torsion
[ 11005 11000 10999 10996 ] final -159.35 input  -57.11 | X-H torsion

> <Gold.Protein.ActiveResidues>
 VAL166  LYS551  ARG553  GLY616  TRP617  ASP618  TYR619  PRO620  LYS621  CYS622 
 ASP623  PHE694  ASN695  SER759  ASP760  ASP761  ALA762  ILE779  LEU786  VAL792 
 PHE793  MET794  SER795  GLU796  ALA797  LYS798  CYS799  TRP800  GLU811  SER814 

> <Gold.Protein.RotatedAtoms>
  151.6174  135.1035  160.0093 H   0  0  0  0  0  0  0  0  0  0  0  0  # atno 6907 bound_to 6896
  152.4176  133.7059  159.6461 H   0  0  0  0  0  0  0  0  0  0  0  0  # atno 6908 bound_to 6896
  150.8064  133.8429  159.3225 H   0  0  0  0  0  0  0  0  0  0  0  0  # atno 6909 bound_to 6896
  144.8444  139.6270  143.6002 H   0  0  0  0  0  0  0  0  0  0  0  0  # atno 7974 bound_to 7965
  154.5833  140.2406  155.8022 H   0  0  0  0  0  0  0  0  0  0  0  0  # atno 8008 bound_to 7997
  156.2195  140.3002  155.9875 H   0  0  0  0  0  0  0  0  0  0  0  0  # atno 8009 bound_to 7997
  155.2502  140.0410  157.2976 H   0  0  0  0  0  0  0  0  0  0  0  0  # atno 8010 bound_to 7997
  140.0733  144.5134  150.7212 H   0  0  0  0  0  0  0  0  0  0  0  0  # atno 10167 bound_to 10162
  157.1717  130.6763  149.6080 H   0  0  0  0  0  0  0  0  0  0  0  0  # atno 10718 bound_to 10713
  152.9785  135.5878  154.4254 H   0  0  0  0  0  0  0  0  0  0  0  0  # atno 10763 bound_to 10752
  154.3873  135.2767  155.2177 H   0  0  0  0  0  0  0  0  0  0  0  0  # atno 10764 bound_to 10752
  154.4065  135.6091  153.5982 H   0  0  0  0  0  0  0  0  0  0  0  0  # atno 10765 bound_to 10752
  140.6436  134.4525  157.5234 H   0  0  0  0  0  0  0  0  0  0  0  0  # atno 11005 bound_to 11000
  146.2731  139.6685  142.9282 LP  0  0  0  0  0  0  0  0  0  0  0  0  # atno 17320 bound_to 7965
  145.4627  141.0433  143.2742 LP  0  0  0  0  0  0  0  0  0  0  0  0  # atno 17321 bound_to 7965
  140.7114  143.2508  151.4568 LP  0  0  0  0  0  0  0  0  0  0  0  0  # atno 17342 bound_to 10162
  139.5823  144.1683  152.1984 LP  0  0  0  0  0  0  0  0  0  0  0  0  # atno 17343 bound_to 10162
  155.9737  130.4677  150.6333 LP  0  0  0  0  0  0  0  0  0  0  0  0  # atno 17370 bound_to 10713
  157.4037  131.0813  151.1285 LP  0  0  0  0  0  0  0  0  0  0  0  0  # atno 17371 bound_to 10713
  139.9071  134.8425  156.1665 LP  0  0  0  0  0  0  0  0  0  0  0  0  # atno 17394 bound_to 11000
  141.0589  133.6851  156.1913 LP  0  0  0  0  0  0  0  0  0  0  0  0  # atno 17395 bound_to 11000

$$$$
