#       Name:                AV-unprocessed.smi:3035
#       Creating user name   scv26
#       Creation time:       Fri Mar 27 16:55:11 2020


#       File generated by GOLD software.
#

@<TRIPOS>MOLECULE
AV-unprocessed.smi:3035
    47    48     1
SMALL
NO_CHARGES


@<TRIPOS>ATOM
      1 ****        -7.3953   2.2273  -1.5387 C.3            1 S1                 0.0000
      2 ****        -6.1589   1.5859  -1.7983 O.3            1 S1                 0.0000
      3 ****        -5.4134   1.3426  -0.6171 C.3            1 S1                 0.0000
      4 ****        -4.1240   0.6560  -0.9539 C.2            1 S1                 0.0000
      5 ****        -2.9411   1.1377  -0.8870 N.2            1 S1                 0.0000
      6 ****        -2.1694   0.1290  -1.2941 N.am           1 S1                 0.0000
      7 ****        -0.7176   0.2576  -1.3508 C.3            1 S1                 0.0000
      8 ****        -0.0548  -0.3712  -0.1161 C.3            1 S1                 0.0000
      9 ****         1.3920  -0.2199  -0.1772 N.am           1 S1                 0.0000
     10 ****         2.2382  -0.6548   0.7676 C.2            1 S1                 0.0000
     11 ****         1.8641  -1.2299   1.7904 O.2            1 S1                 0.0000
     12 ****         3.7339  -0.3976   0.5188 C.3            1 S1                 0.0000
     13 ****         4.5460  -1.7124   0.4528 C.3            1 S1                 0.0000
     14 ****         5.5716  -1.6654   1.5933 C.3            1 S1                 0.0000
     15 ****         5.0451  -0.6163   2.5685 C.3            1 S1                 0.0000
     16 ****         4.3685   0.4133   1.6651 C.3            1 S1                 0.0000
     17 ****        -2.9054  -0.9962  -1.6139 C.2            1 S1                 0.0000
     18 ****        -2.5136  -2.0919  -2.0120 O.2            1 S1                 0.0000
     19 ****        -4.1786  -0.6433  -1.3906 O.3            1 S1                 0.0000
     20 ****        -7.9283   2.3888  -2.4757 H              1 S1                 0.0000
     21 ****        -7.2440   3.1986  -1.0656 H              1 S1                 0.0000
     22 ****        -8.0279   1.6176  -0.8923 H              1 S1                 0.0000
     23 ****        -5.2111   2.2846  -0.1046 H              1 S1                 0.0000
     24 ****        -5.9909   0.7192   0.0673 H              1 S1                 0.0000
     25 ****        -0.3503  -0.2194  -2.2609 H              1 S1                 0.0000
     26 ****        -0.4489   1.3127  -1.4248 H              1 S1                 0.0000
     27 ****        -0.4300   0.1038   0.7919 H              1 S1                 0.0000
     28 ****        -0.3029  -1.4321  -0.0523 H              1 S1                 0.0000
     29 ****         1.7750   0.2434  -0.9885 H              1 S1                 0.0000
     30 ****         3.8462   0.1548  -0.4158 H              1 S1                 0.0000
     31 ****         3.9086  -2.5908   0.5674 H              1 S1                 0.0000
     32 ****         5.0474  -1.8181  -0.5097 H              1 S1                 0.0000
     33 ****         5.7165  -2.6375   2.0656 H              1 S1                 0.0000
     34 ****         6.5369  -1.3427   1.2012 H              1 S1                 0.0000
     35 ****         4.3096  -1.0671   3.2362 H              1 S1                 0.0000
     36 ****         5.8331  -0.1819   3.1843 H              1 S1                 0.0000
     37 ****         5.1199   1.0906   1.2568 H              1 S1                 0.0000
     38 ****         3.6521   1.0263   2.2144 H              1 S1                 0.0000
     39 ****        -5.6172   2.1677  -2.4050 LP             1 S1                 0.0000
     40 ****        -6.3397   0.7116  -2.2489 LP             1 S1                 0.0000
     41 ****        -2.6612   2.0532  -0.5981 LP             1 S1                 0.0000
     42 ****         0.8895  -1.3912   1.9452 LP             1 S1                 0.0000
     43 ****         2.5351  -1.5356   2.4660 LP             1 S1                 0.0000
     44 ****        -1.5359  -2.2558  -2.1435 LP             1 S1                 0.0000
     45 ****        -3.1727  -2.8190  -2.2043 LP             1 S1                 0.0000
     46 ****        -4.7125  -0.7072  -2.2337 LP             1 S1                 0.0000
     47 ****        -4.5872  -1.2306  -0.6920 LP             1 S1                 0.0000
@<TRIPOS>BOND
    1    1    2 1     
    2    1   20 1     
    3    1   21 1     
    4    1   22 1     
    5    2    3 1     
    6    3    4 1     
    7    3   23 1     
    8    3   24 1     
    9    4   19 1     
   10    4    5 2     
   11    5    6 1     
   12    6    7 1     
   13    6   17 am    
   14    7    8 1     
   15    7   25 1     
   16    7   26 1     
   17    8    9 1     
   18    8   27 1     
   19    8   28 1     
   20    9   10 am    
   21    9   29 1     
   22   10   11 2     
   23   10   12 1     
   24   12   16 1     
   25   12   13 1     
   26   12   30 1     
   27   13   14 1     
   28   13   31 1     
   29   13   32 1     
   30   14   15 1     
   31   14   33 1     
   32   14   34 1     
   33   15   16 1     
   34   15   35 1     
   35   15   36 1     
   36   16   37 1     
   37   16   38 1     
   38   17   18 2     
   39   17   19 1     
   40    2   39 1     
   41    2   40 1     
   42    5   41 1     
   43   11   42 1     
   44   11   43 1     
   45   18   44 1     
   46   18   45 1     
   47   19   46 1     
   48   19   47 1     
@<TRIPOS>SUBSTRUCTURE
      1 S1             1
@<TRIPOS>SET
LONE_PAIRS      STATIC     ATOMS    <user>   **** ""
9 39 40 41 42 43 44 45 46 47
DONOR_HYDROGENS      STATIC     ATOMS    <user>   **** ""
1 29
ATOM$BLUE        STATIC     ATOMS    COLORGROUP SYSTEM
9 39 40 41 42 43 44 45 46 47
ATOM$RED        STATIC     ATOMS    COLORGROUP SYSTEM
1 29
