AV-unprocessed.smi:87|AV-procd|sdf|822|dock5
  -GOLD-   2262017233D 1   1.00000     0.00000
 Structure written by MMmdl.
 58 60  0  0  0  0  0  0  0  0  1 V2000
  147.4567  135.0267  162.7556 C   0  0  0  0  0  0  0  0  0  0  0  0
  146.4106  134.1255  162.0825 C   0  0  0  0  0  0  0  0  0  0  0  0
  147.0087  133.0718  161.1226 C   0  0  0  0  0  0  0  0  0  0  0  0
  147.5539  131.8482  161.8961 C   0  0  0  0  0  0  0  0  0  0  0  0
  148.3819  130.8779  161.0410 C   0  0  0  0  0  0  0  0  0  0  0  0
  148.1195  133.6991  160.2403 C   0  0  0  0  0  0  0  0  0  0  0  0
  147.6358  134.2956  158.9936 N   0  0  0  0  0  0  0  0  0  0  0  0
  146.2142  134.6181  158.9089 C   0  0  0  0  0  0  0  0  0  0  0  0
  145.8534  135.9074  159.6617 C   0  0  0  0  0  0  0  0  0  0  0  0
  147.0413  136.6202  160.1540 C   0  0  0  0  0  0  0  0  0  0  0  0
  147.9760  137.1813  160.5415 N   0  0  0  0  0  0  0  0  0  0  0  0
  148.1734  133.8870  157.8177 C   0  0  0  0  0  0  0  0  0  0  0  0
  149.5247  133.9444  157.7058 N   0  0  0  0  0  0  0  0  0  0  0  0
  150.1253  133.5449  156.5812 C   0  0  0  0  0  0  0  0  0  0  0  0
  149.5726  133.0674  155.4646 N   0  0  0  0  0  0  0  0  0  0  0  0
  148.2136  133.0218  155.5652 C   0  0  0  0  0  0  0  0  0  0  0  0
  147.4365  133.4115  156.6932 C   0  0  0  0  0  0  0  0  0  0  0  0
  146.0858  133.2331  156.4144 N   0  0  0  0  0  0  0  0  0  0  0  0
  146.0667  132.7512  155.2024 C   0  0  0  0  0  0  0  0  0  0  0  0
  147.3016  132.5910  154.6182 N   0  0  0  0  0  0  0  0  0  0  0  0
  147.5693  132.0776  153.2861 C   0  0  0  0  0  0  0  0  0  0  0  0
  147.1342  133.0578  152.1789 C   0  0  2  0  0  0  0  0  0  0  0  0
  147.4376  134.3821  152.5772 O   0  0  0  0  0  0  0  0  0  0  0  0
  145.6323  132.9278  151.8519 C   0  0  1  0  0  0  0  0  0  0  0  0
  145.0592  133.9018  150.8059 C   0  0  0  0  0  0  0  0  0  0  0  0
  144.3669  132.9924  149.8040 C   0  0  0  0  0  0  0  0  0  0  0  0
  144.1662  131.7006  150.5872 C   0  0  0  0  0  0  0  0  0  0  0  0
  145.3414  131.6188  151.3762 O   0  0  0  0  0  0  0  0  0  0  0  0
  146.9706  135.8081  163.3398 H   0  0  0  0  0  0  0  0  0  0  0  0
  148.0909  135.5150  162.0151 H   0  0  0  0  0  0  0  0  0  0  0  0
  148.1005  134.4696  163.4354 H   0  0  0  0  0  0  0  0  0  0  0  0
  145.8049  133.6339  162.8447 H   0  0  0  0  0  0  0  0  0  0  0  0
  145.7305  134.7778  161.5368 H   0  0  0  0  0  0  0  0  0  0  0  0
  146.1976  132.7236  160.4833 H   0  0  0  0  0  0  0  0  0  0  0  0
  148.1976  132.1858  162.7087 H   0  0  0  0  0  0  0  0  0  0  0  0
  146.7321  131.3122  162.3722 H   0  0  0  0  0  0  0  0  0  0  0  0
  148.8091  130.0901  161.6619 H   0  0  0  0  0  0  0  0  0  0  0  0
  149.2076  131.3932  160.5493 H   0  0  0  0  0  0  0  0  0  0  0  0
  147.7814  130.3926  160.2727 H   0  0  0  0  0  0  0  0  0  0  0  0
  148.6744  134.4570  160.7889 H   0  0  0  0  0  0  0  0  0  0  0  0
  148.8492  132.9273  159.9926 H   0  0  0  0  0  0  0  0  0  0  0  0
  145.9452  134.7221  157.8574 H   0  0  0  0  0  0  0  0  0  0  0  0
  145.6182  133.7875  159.2895 H   0  0  0  0  0  0  0  0  0  0  0  0
  145.3019  136.5916  159.0163 H   0  0  0  0  0  0  0  0  0  0  0  0
  145.2200  135.6899  160.5216 H   0  0  0  0  0  0  0  0  0  0  0  0
  151.2029  133.6162  156.5762 H   0  0  0  0  0  0  0  0  0  0  0  0
  145.1455  132.4973  154.6982 H   0  0  0  0  0  0  0  0  0  0  0  0
  148.6384  131.8751  153.2114 H   0  0  0  0  0  0  0  0  0  0  0  0
  147.0640  131.1178  153.1711 H   0  0  0  0  0  0  0  0  0  0  0  0
  147.7074  132.8384  151.2770 H   0  0  0  0  0  0  0  0  0  0  0  0
  147.7348  134.8630  151.8201 H   0  0  0  0  0  0  0  0  0  0  0  0
  145.0618  133.0417  152.7756 H   0  0  0  0  0  0  0  0  0  0  0  0
  144.3415  134.5741  151.2779 H   0  0  0  0  0  0  0  0  0  0  0  0
  145.8140  134.5210  150.3211 H   0  0  0  0  0  0  0  0  0  0  0  0
  143.4335  133.4075  149.4226 H   0  0  0  0  0  0  0  0  0  0  0  0
  145.0278  132.8080  148.9559 H   0  0  0  0  0  0  0  0  0  0  0  0
  143.2919  131.7688  151.2368 H   0  0  0  0  0  0  0  0  0  0  0  0
  144.0517  130.8294  149.9418 H   0  0  0  0  0  0  0  0  0  0  0  0
  1  2  1  0  0  0  0
  1 29  1  0  0  0  0
  1 30  1  0  0  0  0
  1 31  1  0  0  0  0
  2  3  1  0  0  0  0
  2 32  1  0  0  0  0
  2 33  1  0  0  0  0
  3  4  1  0  0  0  0
  3  6  1  0  0  0  0
  3 34  1  0  0  0  0
  4  5  1  0  0  0  0
  4 35  1  0  0  0  0
  4 36  1  0  0  0  0
  5 37  1  0  0  0  0
  5 38  1  0  0  0  0
  5 39  1  0  0  0  0
  6  7  1  0  0  0  0
  6 40  1  0  0  0  0
  6 41  1  0  0  0  0
  7  8  1  0  0  0  0
  7 12  1  0  0  0  0
  8  9  1  0  0  0  0
  8 42  1  0  0  0  0
  8 43  1  0  0  0  0
  9 10  1  0  0  0  0
  9 44  1  0  0  0  0
  9 45  1  0  0  0  0
 10 11  3  0  0  0  0
 12 17  1  0  0  0  0
 12 13  2  0  0  0  0
 13 14  1  0  0  0  0
 14 15  2  0  0  0  0
 14 46  1  0  0  0  0
 15 16  1  0  0  0  0
 16 20  1  0  0  0  0
 16 17  2  0  0  0  0
 17 18  1  0  0  0  0
 18 19  2  0  0  0  0
 19 20  1  0  0  0  0
 19 47  1  0  0  0  0
 20 21  1  0  0  0  0
 21 22  1  0  0  0  0
 21 48  1  0  0  0  0
 21 49  1  0  0  0  0
 22 23  1  0  0  0  0
 22 24  1  0  0  0  0
 22 50  1  0  0  0  0
 23 51  1  0  0  0  0
 24 28  1  0  0  0  0
 24 25  1  0  0  0  0
 24 52  1  0  0  0  0
 25 26  1  0  0  0  0
 25 53  1  0  0  0  0
 25 54  1  0  0  0  0
 26 27  1  0  0  0  0
 26 55  1  0  0  0  0
 26 56  1  0  0  0  0
 27 28  1  0  0  0  0
 27 57  1  0  0  0  0
 27 58  1  0  0  0  0
M  END
> <s_m_source_file>
AV-unprocessed.smi

> <i_m_source_file_index>
87

> <i_lp_mmshare_version>
43012

> <i_f3d_flags>
0

> <s_epik_input>
W0NIM11bQ0gyXVtDSF0oW0NIMl1bQ0gzXSlbQ0gyXU4oW0NIMl1bQ0gyXUMjTiljKG5bY0hdbjEpYyhjMTIpbltjSF1uMltDSDJdW0NASF0oW09IXSlbQ0BASF0zW0NIMl1bQ0gyXVtDSDJdTzM=

> <s_epik_cmdline>
J2VwaWtfcHl0aG9uJywgJy1waCcsICc3LjAnLCAnLXRuJywgJzgnLCAnLW1hJywgJzIwMCcsICctbWV0YWxfYmluZGluZycsICctaW1hZScsICc8aW5maWxlLm1hZT4nLCAnLW9tYWUnLCAnPG91dGZpbGUubWFlPic=

> <r_lp_tautomer_probability>
1

> <r_epik_Ionization_Penalty>
0.000348566

> <r_epik_Ionization_Penalty_Charging>
0

> <r_epik_Ionization_Penalty_Neutral>
0.000348566

> <r_epik_State_Penalty>
-0

> <r_epik_Charging_Adjusted_Penalty>
0

> <i_epik_Tot_Q>
0

> <i_epik_Tot_abs_Q>
0

> <r_epik_Metal_State_Penalty>
-0

> <b_epik_Metal_Only>
0

> <s_lp_Force_Field>
OPLS_2005

> <r_lp_Energy>
36.8585

> <b_lp_Chiralities_Consistent>
1

> <s_lp_Variant>
AV-unprocessed.smi:87-3

> <Gold.Version>
5.8.1

> <Gold.Id.Protein>
6NUR|6NUR_protein|mol2

> <Gold.PLP.Fitness>
46.0379

> <Gold.PLP.PLP>
-36.5698

> <Gold.PLP.part.hbond>
-3.8160

> <Gold.PLP.part.metal>
0.0000

> <Gold.PLP.part.buried>
-5.9263

> <Gold.PLP.part.nonpolar>
-27.8284

> <Gold.PLP.part.repulsive>
0.1845

> <Gold.PLP.ligand.clash>
0.0000

> <Gold.PLP.ligand.torsion>
2.2540

> <Gold.PLP.Chemscore.Hbond>
3.1876

> <Gold.PLP.Chemscore.CHOScore>
0.9861

> <Gold.PLP.Chemscore.Metal>
0.0000

> <Gold.Chemscore.Hbonds>
donor molecule, donor type, donor heavy atom, donor atom, acceptor molecule, acceptor atom, score
      L1  H    23    51       P1  7948  0.53
      P1  H  6896  6907       L1    13  1.00
      P1  H  6931  6943       L1    11  0.78
      P1  H  6934  6947       L1    11  0.78
      L1  C    19    47       P1 10957  0.91

> <Gold.PLP.Chemscore.Internal.Correction>
1.4549

> <Gold.Rescore>
     Score         DG    S(hbond)    S(metal)    S(lipo)     H(rot)  DE(clash)    DE(int)     intcor
     12.41     -16.24       2.76        0.00      86.82       3.37       0.30       3.53       ----

> <Gold.Chemscore.Fitness>
12.4110

> <Gold.Chemscore.DG>
-16.2420

> <Gold.Chemscore.ZeroCoef>
-5.4800

> <Gold.Chemscore.Hbond>
2.7616

> <Gold.Chemscore.Metal>
0.0000

> <Gold.Chemscore.Lipo>
86.8231

> <Gold.Chemscore.Internal_Hbond>
0.0000

> <Gold.Chemscore.DEClash>
0.3047

> <Gold.Chemscore.DEInternal>
3.5263

> <Gold.Chemscore.Rot>
3.3672

> <Gold.Chemscore.Internal.Correction>
   9.000000E+99

> <Gold.Chemscore.Hbonds>
donor molecule, donor type, donor heavy atom, donor atom, acceptor molecule, acceptor atom, score
      L1  H    23    51       P1  7948  0.26
      P1  H  6896  6907       L1    13  0.74
      P1  H  6931  6943       L1    11  0.73
      P1  H  6934  6947       L1    11  0.22

> <Gold.Chemscore.Hbond.Weighted>
-9.2237

> <Gold.Chemscore.Metal.Weighted>
-0.0000

> <Gold.Chemscore.Lipo.Weighted>
-10.1583

> <Gold.Chemscore.Internal_Hbond.Weighted>
0.0000

> <Gold.Chemscore.DEClash.Weighted>
0.3047

> <Gold.Chemscore.DEInternal.Weighted>
3.5263

> <Gold.Chemscore.Rot.Weighted>
8.6201

> <Gold.Chemscore.Internal.Correction.Weighted>
   9.000000E+99

> <Gold.Protein.RotatedTorsions>
[ 6907 6896 6895 6894 ] final -119.12 input  -60.11 | X-H torsion
[ 7974 7965 7964 7962 ] final   97.33 input  175.53 | X-H torsion
[ 8008 7997 7996 7995 ] final  -22.25 input   59.86 | X-H torsion
[ 10167 10162 10161 10158 ] final  170.55 input  -65.29 | X-H torsion
[ 10718 10713 10712 10709 ] final -171.68 input   66.30 | X-H torsion
[ 10763 10752 10751 10750 ] final   51.19 input  -60.55 | X-H torsion
[ 11005 11000 10999 10996 ] final   77.99 input  -57.11 | X-H torsion

> <Gold.Protein.ActiveResidues>
 VAL166  LYS551  ARG553  GLY616  TRP617  ASP618  TYR619  PRO620  LYS621  CYS622 
 ASP623  PHE694  ASN695  SER759  ASP760  ASP761  ALA762  ILE779  LEU786  VAL792 
 PHE793  MET794  SER795  GLU796  ALA797  LYS798  CYS799  TRP800  GLU811  SER814 

> <Gold.Protein.RotatedAtoms>
  150.8278  133.8143  159.3111 H   0  0  0  0  0  0  0  0  0  0  0  0  # atno 6907 bound_to 6896
  151.5882  135.1053  160.0042 H   0  0  0  0  0  0  0  0  0  0  0  0  # atno 6908 bound_to 6896
  152.4361  133.7322  159.6650 H   0  0  0  0  0  0  0  0  0  0  0  0  # atno 6909 bound_to 6896
  145.4270  139.2315  143.3165 H   0  0  0  0  0  0  0  0  0  0  0  0  # atno 7974 bound_to 7965
  154.4655  140.2013  156.0130 H   0  0  0  0  0  0  0  0  0  0  0  0  # atno 8008 bound_to 7997
  156.0919  140.3257  155.7798 H   0  0  0  0  0  0  0  0  0  0  0  0  # atno 8009 bound_to 7997
  155.4942  140.0548  157.2940 H   0  0  0  0  0  0  0  0  0  0  0  0  # atno 8010 bound_to 7997
  139.5021  144.3584  151.9850 H   0  0  0  0  0  0  0  0  0  0  0  0  # atno 10167 bound_to 10162
  156.7444  130.9354  151.3112 H   0  0  0  0  0  0  0  0  0  0  0  0  # atno 10718 bound_to 10713
  152.9785  135.5854  154.4375 H   0  0  0  0  0  0  0  0  0  0  0  0  # atno 10763 bound_to 10752
  154.3981  135.2768  155.2115 H   0  0  0  0  0  0  0  0  0  0  0  0  # atno 10764 bound_to 10752
  154.3958  135.6115  153.5923 H   0  0  0  0  0  0  0  0  0  0  0  0  # atno 10765 bound_to 10752
  139.9231  134.7727  156.1592 H   0  0  0  0  0  0  0  0  0  0  0  0  # atno 11005 bound_to 11000
  146.2627  140.5002  142.8847 LP  0  0  0  0  0  0  0  0  0  0  0  0  # atno 17320 bound_to 7965
  144.8208  140.6546  143.6354 LP  0  0  0  0  0  0  0  0  0  0  0  0  # atno 17321 bound_to 7965
  140.3020  144.3635  150.6057 LP  0  0  0  0  0  0  0  0  0  0  0  0  # atno 17342 bound_to 10162
  140.5865  143.2170  151.7332 LP  0  0  0  0  0  0  0  0  0  0  0  0  # atno 17343 bound_to 10162
  157.6804  130.9135  150.0254 LP  0  0  0  0  0  0  0  0  0  0  0  0  # atno 17370 bound_to 10713
  156.1443  130.3642  149.9535 LP  0  0  0  0  0  0  0  0  0  0  0  0  # atno 17371 bound_to 10713
  141.0768  133.6772  156.2253 LP  0  0  0  0  0  0  0  0  0  0  0  0  # atno 17394 bound_to 11000
  140.6415  134.5161  157.5570 LP  0  0  0  0  0  0  0  0  0  0  0  0  # atno 17395 bound_to 11000

$$$$
