AV-unprocessed.smi:1925|AV-procd|sdf|7793|dock7
  -GOLD-   22720 9533D 1   1.00000     0.00000
 Structure written by MMmdl.
 31 32  0  0  0  0  0  0  0  0  1 V2000
  144.7562  136.8830  152.6106 O   0  0  0  0  0  0  0  0  0  0  0  0
  145.9485  136.6346  152.4300 C   0  0  0  0  0  0  0  0  0  0  0  0
  146.9382  137.4638  152.7913 N   0  0  0  0  0  0  0  0  0  0  0  0
  146.7510  138.7669  153.4200 C   0  0  0  0  0  0  0  0  0  0  0  0
  148.0277  139.6275  153.3582 C   0  0  1  0  0  0  0  0  0  0  0  0
  147.8238  141.0720  153.8018 C   0  0  0  0  0  0  0  0  0  0  0  0
  149.0850  141.4068  154.6050 C   0  0  0  0  0  0  0  0  0  0  0  0
  149.9638  140.3098  154.4020 O   0  0  0  0  0  0  0  0  0  0  0  0
  149.1613  139.1507  154.2654 C   0  0  0  0  0  0  0  0  0  0  0  0
  146.4333  135.5228  151.8493 N   0  0  0  0  0  0  0  0  0  0  0  0
  145.7097  134.4164  151.3299 C   0  0  0  0  0  0  0  0  0  0  0  0
  146.5052  133.3879  150.7760 C   0  0  0  0  0  0  0  0  0  0  0  0
  145.8834  132.2466  150.2338 C   0  0  0  0  0  0  0  0  0  0  0  0
  144.4800  132.1624  150.2604 C   0  0  0  0  0  0  0  0  0  0  0  0
  143.7625  133.2297  150.8311 C   0  0  0  0  0  0  0  0  0  0  0  0
  144.3565  134.3244  151.3511 N   0  0  0  0  0  0  0  0  0  0  0  0
  147.8894  137.1797  152.6085 H   0  0  0  0  0  0  0  0  0  0  0  0
  145.9180  139.2917  152.9491 H   0  0  0  0  0  0  0  0  0  0  0  0
  146.4618  138.6003  154.4581 H   0  0  0  0  0  0  0  0  0  0  0  0
  148.4034  139.6445  152.3337 H   0  0  0  0  0  0  0  0  0  0  0  0
  147.7087  141.7297  152.9395 H   0  0  0  0  0  0  0  0  0  0  0  0
  146.9380  141.1879  154.4273 H   0  0  0  0  0  0  0  0  0  0  0  0
  149.5472  142.3422  154.2888 H   0  0  0  0  0  0  0  0  0  0  0  0
  148.8512  141.4856  155.6676 H   0  0  0  0  0  0  0  0  0  0  0  0
  148.7879  138.8457  155.2445 H   0  0  0  0  0  0  0  0  0  0  0  0
  149.7246  138.3218  153.8362 H   0  0  0  0  0  0  0  0  0  0  0  0
  147.4369  135.4642  151.7613 H   0  0  0  0  0  0  0  0  0  0  0  0
  147.5825  133.4689  150.7631 H   0  0  0  0  0  0  0  0  0  0  0  0
  146.4737  131.4506  149.8047 H   0  0  0  0  0  0  0  0  0  0  0  0
  143.9669  131.3031  149.8544 H   0  0  0  0  0  0  0  0  0  0  0  0
  142.6836  133.2042  150.8713 H   0  0  0  0  0  0  0  0  0  0  0  0
  1  2  2  0  0  0  0
  2  3  1  0  0  0  0
  2 10  1  0  0  0  0
  3  4  1  0  0  0  0
  3 17  1  0  0  0  0
  4  5  1  0  0  0  0
  4 18  1  0  0  0  0
  4 19  1  0  0  0  0
  5  9  1  0  0  0  0
  5  6  1  0  0  0  0
  5 20  1  0  0  0  0
  6  7  1  0  0  0  0
  6 21  1  0  0  0  0
  6 22  1  0  0  0  0
  7  8  1  0  0  0  0
  7 23  1  0  0  0  0
  7 24  1  0  0  0  0
  8  9  1  0  0  0  0
  9 25  1  0  0  0  0
  9 26  1  0  0  0  0
 10 11  1  0  0  0  0
 10 27  1  0  0  0  0
 11 16  1  0  0  0  0
 11 12  2  0  0  0  0
 12 13  1  0  0  0  0
 12 28  1  0  0  0  0
 13 14  2  0  0  0  0
 13 29  1  0  0  0  0
 14 15  1  0  0  0  0
 14 30  1  0  0  0  0
 15 16  2  0  0  0  0
 15 31  1  0  0  0  0
M  END
> <s_m_source_file>
AV-unprocessed.smi

> <i_m_source_file_index>
1925

> <i_lp_mmshare_version>
43012

> <i_f3d_flags>
0

> <s_epik_input>
bjFbY0hdW2NIXVtjSF1bY0hdYzFbTkhdQyg9TylbTkhdW0NIMl1bQ0BASF0yW0NIMl1bQ0gyXU9bQ0gyXTI=

> <s_epik_cmdline>
J2VwaWtfcHl0aG9uJywgJy1waCcsICc3LjAnLCAnLXRuJywgJzgnLCAnLW1hJywgJzIwMCcsICctbWV0YWxfYmluZGluZycsICctaW1hZScsICc8aW5maWxlLm1hZT4nLCAnLW9tYWUnLCAnPG91dGZpbGUubWFlPic=

> <r_lp_tautomer_probability>
1

> <r_epik_Ionization_Penalty>
4.81143e-05

> <r_epik_Ionization_Penalty_Charging>
0

> <r_epik_Ionization_Penalty_Neutral>
4.81143e-05

> <r_epik_State_Penalty>
-0

> <r_epik_Charging_Adjusted_Penalty>
0

> <i_epik_Tot_Q>
0

> <i_epik_Tot_abs_Q>
0

> <r_epik_Metal_State_Penalty>
-0

> <b_epik_Metal_Only>
0

> <s_lp_Force_Field>
OPLS_2005

> <r_lp_Energy>
20.4602

> <b_lp_Chiralities_Consistent>
1

> <s_lp_Variant>
AV-unprocessed.smi:1925-2

> <Gold.Version>
5.8.1

> <Gold.Id.Protein>
6NUR|6NUR_protein|mol2

> <Gold.PLP.Fitness>
40.4307

> <Gold.PLP.PLP>
-28.9487

> <Gold.PLP.part.hbond>
-2.9929

> <Gold.PLP.part.metal>
0.0000

> <Gold.PLP.part.buried>
-1.5761

> <Gold.PLP.part.nonpolar>
-25.4999

> <Gold.PLP.part.repulsive>
0.5445

> <Gold.PLP.ligand.clash>
0.0000

> <Gold.PLP.ligand.torsion>
0.1518

> <Gold.PLP.Chemscore.Hbond>
2.9280

> <Gold.PLP.Chemscore.CHOScore>
1.0000

> <Gold.PLP.Chemscore.Metal>
0.0000

> <Gold.Chemscore.Hbonds>
donor molecule, donor type, donor heavy atom, donor atom, acceptor molecule, acceptor atom, score
      L1  H     3    17       P1  7948  1.00
      L1  H    10    27       P1  7948  1.00
      P1  H  7989  7998       L1     8  0.91
      L1  C    15    31       P1 10186  1.00

> <Gold.PLP.Chemscore.Internal.Correction>
0.0017

> <Gold.Rescore>
     Score         DG    S(hbond)    S(metal)    S(lipo)     H(rot)  DE(clash)    DE(int)     intcor
     16.83     -19.38       2.68        0.00      70.02       1.27       1.13       1.42       ----

> <Gold.Chemscore.Fitness>
16.8303

> <Gold.Chemscore.DG>
-19.3838

> <Gold.Chemscore.ZeroCoef>
-5.4800

> <Gold.Chemscore.Hbond>
2.6817

> <Gold.Chemscore.Metal>
0.0000

> <Gold.Chemscore.Lipo>
70.0215

> <Gold.Chemscore.Internal_Hbond>
0.0000

> <Gold.Chemscore.DEClash>
1.1349

> <Gold.Chemscore.DEInternal>
1.4186

> <Gold.Chemscore.Rot>
1.2678

> <Gold.Chemscore.Internal.Correction>
   9.000000E+99

> <Gold.Chemscore.Hbonds>
donor molecule, donor type, donor heavy atom, donor atom, acceptor molecule, acceptor atom, score
      L1  H     3    17       P1  7948  0.94
      L1  H    10    27       P1  7948  0.93
      P1  H  7989  7998       L1     8  0.69

> <Gold.Chemscore.Hbond.Weighted>
-8.9567

> <Gold.Chemscore.Metal.Weighted>
-0.0000

> <Gold.Chemscore.Lipo.Weighted>
-8.1925

> <Gold.Chemscore.Internal_Hbond.Weighted>
0.0000

> <Gold.Chemscore.DEClash.Weighted>
1.1349

> <Gold.Chemscore.DEInternal.Weighted>
1.4186

> <Gold.Chemscore.Rot.Weighted>
3.2455

> <Gold.Chemscore.Internal.Correction.Weighted>
   9.000000E+99

> <Gold.Protein.RotatedTorsions>
[ 6907 6896 6895 6894 ] final -141.35 input  -60.11 | X-H torsion
[ 7974 7965 7964 7962 ] final -175.51 input  175.53 | X-H torsion
[ 8008 7997 7996 7995 ] final  161.47 input   59.86 | X-H torsion
[ 10167 10162 10161 10158 ] final  173.80 input  -65.29 | X-H torsion
[ 10718 10713 10712 10709 ] final  124.15 input   66.30 | X-H torsion
[ 10763 10752 10751 10750 ] final  119.31 input  -60.55 | X-H torsion
[ 11005 11000 10999 10996 ] final   -4.29 input  -57.11 | X-H torsion

> <Gold.Protein.ActiveResidues>
 VAL166  LYS551  ARG553  GLY616  TRP617  ASP618  TYR619  PRO620  LYS621  CYS622 
 ASP623  PHE694  ASN695  SER759  ASP760  ASP761  ALA762  ILE779  LEU786  VAL792 
 PHE793  MET794  SER795  GLU796  ALA797  LYS798  CYS799  TRP800  GLU811  SER814 

> <Gold.Protein.RotatedAtoms>
  151.0727  133.5453  159.2625 H   0  0  0  0  0  0  0  0  0  0  0  0  # atno 6907 bound_to 6896
  151.2387  135.0580  159.9026 H   0  0  0  0  0  0  0  0  0  0  0  0  # atno 6908 bound_to 6896
  152.5413  134.0505  159.8161 H   0  0  0  0  0  0  0  0  0  0  0  0  # atno 6909 bound_to 6896
  144.7128  140.1310  143.6398 H   0  0  0  0  0  0  0  0  0  0  0  0  # atno 7974 bound_to 7965
  156.2100  140.1776  156.7715 H   0  0  0  0  0  0  0  0  0  0  0  0  # atno 8008 bound_to 7997
  154.5709  140.0682  156.8993 H   0  0  0  0  0  0  0  0  0  0  0  0  # atno 8009 bound_to 7997
  155.2674  140.3340  155.4270 H   0  0  0  0  0  0  0  0  0  0  0  0  # atno 8010 bound_to 7997
  139.5120  144.3220  152.0193 H   0  0  0  0  0  0  0  0  0  0  0  0  # atno 10167 bound_to 10162
  157.5608  131.1089  150.8541 H   0  0  0  0  0  0  0  0  0  0  0  0  # atno 10718 bound_to 10713
  153.5811  135.3484  155.2875 H   0  0  0  0  0  0  0  0  0  0  0  0  # atno 10763 bound_to 10752
  154.8667  135.4182  154.2619 H   0  0  0  0  0  0  0  0  0  0  0  0  # atno 10764 bound_to 10752
  153.3406  135.7049  153.6941 H   0  0  0  0  0  0  0  0  0  0  0  0  # atno 10765 bound_to 10752
  140.6786  133.9173  155.8541 H   0  0  0  0  0  0  0  0  0  0  0  0  # atno 11005 bound_to 11000
  145.9286  139.2592  143.1338 LP  0  0  0  0  0  0  0  0  0  0  0  0  # atno 17320 bound_to 7965
  145.9546  140.8883  143.0242 LP  0  0  0  0  0  0  0  0  0  0  0  0  # atno 17321 bound_to 7965
  140.2661  144.4014  150.6168 LP  0  0  0  0  0  0  0  0  0  0  0  0  # atno 17342 bound_to 10162
  140.6122  143.2170  151.6864 LP  0  0  0  0  0  0  0  0  0  0  0  0  # atno 17343 bound_to 10162
  156.9039  130.5256  149.5282 LP  0  0  0  0  0  0  0  0  0  0  0  0  # atno 17370 bound_to 10713
  156.0661  130.5704  150.9291 LP  0  0  0  0  0  0  0  0  0  0  0  0  # atno 17371 bound_to 10713
  141.0335  134.0722  157.3986 LP  0  0  0  0  0  0  0  0  0  0  0  0  # atno 17394 bound_to 11000
  139.8959  135.0143  156.7023 LP  0  0  0  0  0  0  0  0  0  0  0  0  # atno 17395 bound_to 11000

$$$$
