AV-unprocessed.smi:692|AV-procd|sdf|3371|dock10
  -GOLD-   22720 0353D 1   1.00000     0.00000
 Structure written by MMmdl.
 36 37  0  0  0  0  0  0  0  0  2 V2000
  151.7574  144.7994  159.5735 C   0  0  0  0  0  0  0  0  0  0  0  0
  151.7628  143.9619  160.8572 C   0  0  0  0  0  0  0  0  0  0  0  0
  152.5589  142.7008  160.7109 C   0  0  0  0  0  0  0  0  0  0  0  0
  153.3493  142.1098  161.6622 C   0  0  0  0  0  0  0  0  0  0  0  0
  154.1010  140.6590  161.0627 S   0  0  0  0  0  0  0  0  0  0  0  0
  153.2968  140.8973  159.5097 C   0  0  0  0  0  0  0  0  0  0  0  0
  153.4226  140.0887  158.4450 N   0  5  0  0  0  0  0  0  0  0  0  0
  152.3396  139.7893  157.6923 C   0  0  0  0  0  0  0  0  0  0  0  0
  151.3535  139.1432  158.0547 O   0  0  0  0  0  0  0  0  0  0  0  0
  152.4045  140.2658  156.4407 N   0  0  0  0  0  0  0  0  0  0  0  0
  151.3896  140.0969  155.4044 C   0  0  1  0  0  0  0  0  0  0  0  0
  151.0734  138.6110  155.2259 C   0  0  0  0  0  0  0  0  0  0  0  0
  150.0389  138.4148  154.1114 C   0  0  0  0  0  0  0  0  0  0  0  0
  148.8280  139.3540  154.2215 C   0  0  0  0  0  0  0  0  0  0  0  0
  147.8026  139.0522  153.6099 O   0  0  0  0  0  0  0  0  0  0  0  0
  148.9318  140.4901  154.9530 N   0  0  0  0  0  0  0  0  0  0  0  0
  147.8022  141.4168  155.0428 C   0  0  0  0  0  0  0  0  0  0  0  0
  150.1008  140.8614  155.7654 C   0  0  0  0  0  0  0  0  0  0  0  0
  152.5462  142.0043  159.4994 N   0  0  0  0  0  0  0  0  0  0  0  0
  151.1742  145.7107  159.7061 H   0  0  0  0  0  0  0  0  0  0  0  0
  151.3222  144.2437  158.7422 H   0  0  0  0  0  0  0  0  0  0  0  0
  152.7696  145.0887  159.2896 H   0  0  0  0  0  0  0  0  0  0  0  0
  152.1616  144.5624  161.6753 H   0  0  0  0  0  0  0  0  0  0  0  0
  150.7354  143.7233  161.1350 H   0  0  0  0  0  0  0  0  0  0  0  0
  153.5370  142.4385  162.6733 H   0  0  0  0  0  0  0  0  0  0  0  0
  153.2301  140.7896  156.1893 H   0  0  0  0  0  0  0  0  0  0  0  0
  151.7804  140.4764  154.4582 H   0  0  0  0  0  0  0  0  0  0  0  0
  151.9818  138.0589  154.9823 H   0  0  0  0  0  0  0  0  0  0  0  0
  150.6956  138.1917  156.1598 H   0  0  0  0  0  0  0  0  0  0  0  0
  150.5086  138.5956  153.1440 H   0  0  0  0  0  0  0  0  0  0  0  0
  149.6960  137.3798  154.1021 H   0  0  0  0  0  0  0  0  0  0  0  0
  147.5799  141.8430  154.0636 H   0  0  0  0  0  0  0  0  0  0  0  0
  148.0008  142.2436  155.7261 H   0  0  0  0  0  0  0  0  0  0  0  0
  146.9090  140.9053  155.4046 H   0  0  0  0  0  0  0  0  0  0  0  0
  149.8431  140.6736  156.8090 H   0  0  0  0  0  0  0  0  0  0  0  0
  150.2839  141.9336  155.6794 H   0  0  0  0  0  0  0  0  0  0  0  0
  1  2  1  0  0  0  0
  1 20  1  0  0  0  0
  1 21  1  0  0  0  0
  1 22  1  0  0  0  0
  2  3  1  0  0  0  0
  2 23  1  0  0  0  0
  2 24  1  0  0  0  0
  3 19  1  0  0  0  0
  3  4  2  0  0  0  0
  4  5  1  0  0  0  0
  4 25  1  0  0  0  0
  5  6  1  0  0  0  0
  6  7  1  0  0  0  0
  6 19  2  0  0  0  0
  7  8  1  0  0  0  0
  8  9  2  0  0  0  0
  8 10  1  0  0  0  0
 10 11  1  0  0  0  0
 10 26  1  0  0  0  0
 11 18  1  0  0  0  0
 11 12  1  0  0  0  0
 11 27  1  0  0  0  0
 12 13  1  0  0  0  0
 12 28  1  0  0  0  0
 12 29  1  0  0  0  0
 13 14  1  0  0  0  0
 13 30  1  0  0  0  0
 13 31  1  0  0  0  0
 14 15  2  0  0  0  0
 14 16  1  0  0  0  0
 16 17  1  0  0  0  0
 16 18  1  0  0  0  0
 17 32  1  0  0  0  0
 17 33  1  0  0  0  0
 17 34  1  0  0  0  0
 18 35  1  0  0  0  0
 18 36  1  0  0  0  0
M  CHG  1   7  -1
M  END
> <s_m_source_file>
AV-unprocessed.smi

> <i_m_source_file_index>
692

> <i_lp_mmshare_version>
43012

> <i_f3d_flags>
0

> <s_epik_input>
W0NIM11bQ0gyXWMxW2NIXXNjKG4xKVtOSF1DKD1PKVtOSF1bQ0BASF0yW0NIMl1bQ0gyXUMoPU8pTihbQ0gzXSlbQ0gyXTI=

> <s_epik_cmdline>
J2VwaWtfcHl0aG9uJywgJy1waCcsICc3LjAnLCAnLXRuJywgJzgnLCAnLW1hJywgJzIwMCcsICctbWV0YWxfYmluZGluZycsICctaW1hZScsICc8aW5maWxlLm1hZT4nLCAnLW9tYWUnLCAnPG91dGZpbGUubWFlPic=

> <r_lp_tautomer_probability>
1

> <r_epik_Ionization_Penalty>
7.06728

> <r_epik_Ionization_Penalty_Charging>
5.78908

> <r_epik_Ionization_Penalty_Neutral>
1.2782

> <r_epik_State_Penalty>
5.78905

> <r_epik_Charging_Adjusted_Penalty>
11.5781

> <i_epik_Tot_Q>
-1

> <i_epik_Tot_abs_Q>
1

> <r_epik_Metal_State_Penalty>
1.76044

> <b_epik_Metal_Only>
1

> <s_lp_Force_Field>
OPLS_2005

> <r_lp_Energy>
4.22105

> <b_lp_Chiralities_Consistent>
1

> <s_lp_Variant>
AV-unprocessed.smi:692-4

> <Gold.Version>
5.8.1

> <Gold.Id.Protein>
6NUR|6NUR_protein|mol2

> <Gold.PLP.Fitness>
43.8143

> <Gold.PLP.PLP>
-40.4885

> <Gold.PLP.part.hbond>
-1.0000

> <Gold.PLP.part.metal>
0.0000

> <Gold.PLP.part.buried>
-1.7095

> <Gold.PLP.part.nonpolar>
-38.0137

> <Gold.PLP.part.repulsive>
0.8796

> <Gold.PLP.ligand.clash>
0.0000

> <Gold.PLP.ligand.torsion>
1.3176

> <Gold.PLP.Chemscore.Hbond>
1.9840

> <Gold.PLP.Chemscore.CHOScore>
0.0000

> <Gold.PLP.Chemscore.Metal>
0.0000

> <Gold.Chemscore.Hbonds>
donor molecule, donor type, donor heavy atom, donor atom, acceptor molecule, acceptor atom, score
      P1  H  7997  8008       L1     7  1.60

> <Gold.PLP.Chemscore.Internal.Correction>
0.0091

> <Gold.Rescore>
     Score         DG    S(hbond)    S(metal)    S(lipo)     H(rot)  DE(clash)    DE(int)     intcor
     12.27     -15.04       0.71        0.00      88.17       1.23       0.23       2.54       ----

> <Gold.Chemscore.Fitness>
12.2717

> <Gold.Chemscore.DG>
-15.0437

> <Gold.Chemscore.ZeroCoef>
-5.4800

> <Gold.Chemscore.Hbond>
0.7137

> <Gold.Chemscore.Metal>
0.0000

> <Gold.Chemscore.Lipo>
88.1716

> <Gold.Chemscore.Internal_Hbond>
0.0000

> <Gold.Chemscore.DEClash>
0.2327

> <Gold.Chemscore.DEInternal>
2.5393

> <Gold.Chemscore.Rot>
1.2251

> <Gold.Chemscore.Internal.Correction>
   9.000000E+99

> <Gold.Chemscore.Hbonds>
donor molecule, donor type, donor heavy atom, donor atom, acceptor molecule, acceptor atom, score
      P1  H  7997  8008       L1     7  0.11

> <Gold.Chemscore.Hbond.Weighted>
-2.3839

> <Gold.Chemscore.Metal.Weighted>
-0.0000

> <Gold.Chemscore.Lipo.Weighted>
-10.3161

> <Gold.Chemscore.Internal_Hbond.Weighted>
0.0000

> <Gold.Chemscore.DEClash.Weighted>
0.2327

> <Gold.Chemscore.DEInternal.Weighted>
2.5393

> <Gold.Chemscore.Rot.Weighted>
3.1362

> <Gold.Chemscore.Internal.Correction.Weighted>
   9.000000E+99

> <Gold.Protein.RotatedTorsions>
[ 6907 6896 6895 6894 ] final   -3.18 input  -60.11 | X-H torsion
[ 7974 7965 7964 7962 ] final  -56.96 input  175.53 | X-H torsion
[ 8008 7997 7996 7995 ] final  -88.04 input   59.86 | X-H torsion
[ 10167 10162 10161 10158 ] final  -48.51 input  -65.29 | X-H torsion
[ 10718 10713 10712 10709 ] final  -89.07 input   66.30 | X-H torsion
[ 10763 10752 10751 10750 ] final   -0.86 input  -60.55 | X-H torsion
[ 11005 11000 10999 10996 ] final  -33.29 input  -57.11 | X-H torsion

> <Gold.Protein.ActiveResidues>
 VAL166  LYS551  ARG553  GLY616  TRP617  ASP618  TYR619  PRO620  LYS621  CYS622 
 ASP623  PHE694  ASN695  SER759  ASP760  ASP761  ALA762  ILE779  LEU786  VAL792 
 PHE793  MET794  SER795  GLU796  ALA797  LYS798  CYS799  TRP800  GLU811  SER814 

> <Gold.Protein.RotatedAtoms>
  151.5180  135.1066  159.9870 H   0  0  0  0  0  0  0  0  0  0  0  0  # atno 6907 bound_to 6896
  152.4633  133.7864  159.6889 H   0  0  0  0  0  0  0  0  0  0  0  0  # atno 6908 bound_to 6896
  150.8605  133.7587  159.3019 H   0  0  0  0  0  0  0  0  0  0  0  0  # atno 6909 bound_to 6896
  145.8566  140.8315  142.9958 H   0  0  0  0  0  0  0  0  0  0  0  0  # atno 7974 bound_to 7965
  154.6702  140.0558  157.0157 H   0  0  0  0  0  0  0  0  0  0  0  0  # atno 8008 bound_to 7997
  155.1100  140.3237  155.4505 H   0  0  0  0  0  0  0  0  0  0  0  0  # atno 8009 bound_to 7997
  156.2654  140.2016  156.6225 H   0  0  0  0  0  0  0  0  0  0  0  0  # atno 8010 bound_to 7997
  140.6727  143.2737  151.4081 H   0  0  0  0  0  0  0  0  0  0  0  0  # atno 10167 bound_to 10162
  155.9984  130.4859  150.5116 H   0  0  0  0  0  0  0  0  0  0  0  0  # atno 10718 bound_to 10713
  153.3374  135.6978  153.6896 H   0  0  0  0  0  0  0  0  0  0  0  0  # atno 10763 bound_to 10752
  153.5674  135.3523  155.2825 H   0  0  0  0  0  0  0  0  0  0  0  0  # atno 10764 bound_to 10752
  154.8630  135.4264  154.2578 H   0  0  0  0  0  0  0  0  0  0  0  0  # atno 10765 bound_to 10752
  140.9622  133.7157  156.1388 H   0  0  0  0  0  0  0  0  0  0  0  0  # atno 11005 bound_to 11000
  144.6727  140.1032  143.7459 LP  0  0  0  0  0  0  0  0  0  0  0  0  # atno 17320 bound_to 7965
  145.9297  139.2598  143.1333 LP  0  0  0  0  0  0  0  0  0  0  0  0  # atno 17321 bound_to 7965
  139.6004  144.1308  152.2191 LP  0  0  0  0  0  0  0  0  0  0  0  0  # atno 17342 bound_to 10162
  140.0690  144.5795  150.7206 LP  0  0  0  0  0  0  0  0  0  0  0  0  # atno 17343 bound_to 10162
  157.3088  131.0660  151.2016 LP  0  0  0  0  0  0  0  0  0  0  0  0  # atno 17370 bound_to 10713
  157.2969  130.6823  149.6143 LP  0  0  0  0  0  0  0  0  0  0  0  0  # atno 17371 bound_to 10713
  140.7450  134.4108  157.5549 LP  0  0  0  0  0  0  0  0  0  0  0  0  # atno 17394 bound_to 11000
  139.8882  134.8862  156.2486 LP  0  0  0  0  0  0  0  0  0  0  0  0  # atno 17395 bound_to 11000

$$$$
