AV-unprocessed.smi:2813|AV-procd|sdf|10837|dock3
  -GOLD-   2272015273D 1   1.00000     0.00000
 Structure written by MMmdl.
 41 42  0  0  0  0  0  0  0  0  1 V2000
  151.3439  134.3795  157.1721 C   0  0  0  0  0  0  0  0  0  0  0  0
  151.3391  135.7030  156.4281 C   0  0  0  0  0  0  0  0  0  0  0  0
  150.3051  135.8719  155.5026 N   0  0  0  0  0  0  0  0  0  0  0  0
  150.2263  136.9646  154.8159 C   0  0  0  0  0  0  0  0  0  0  0  0
  151.1613  138.0009  154.9694 N   0  0  0  0  0  0  0  0  0  0  0  0
  150.9635  139.1885  154.1228 C   0  0  0  0  0  0  0  0  0  0  0  0
  149.9076  140.1511  154.7129 C   0  0  2  0  0  0  0  0  0  0  0  0
  149.3739  140.9364  153.6657 O   0  0  0  0  0  0  0  0  0  0  0  0
  150.5098  141.1164  155.7454 C   0  0  0  0  0  0  0  0  0  0  0  0
  151.1199  140.3525  156.7775 O   0  0  0  0  0  0  0  0  0  0  0  0
  151.5853  141.0115  157.8943 C   0  0  0  0  0  0  0  0  0  0  0  0
  152.3896  140.2702  158.7828 C   0  0  0  0  0  0  0  0  0  0  0  0
  152.9102  140.8641  159.9473 C   0  0  0  0  0  0  0  0  0  0  0  0
  152.6281  142.2115  160.2378 C   0  0  0  0  0  0  0  0  0  0  0  0
  151.8205  142.9705  159.3634 C   0  0  0  0  0  0  0  0  0  0  0  0
  151.5021  144.4296  159.6541 C   0  0  0  0  0  0  0  0  0  0  0  0
  150.1809  144.6049  159.6811 F   0  0  0  0  0  0  0  0  0  0  0  0
  152.0024  144.8260  160.8250 F   0  0  0  0  0  0  0  0  0  0  0  0
  152.0165  145.1944  158.6916 F   0  0  0  0  0  0  0  0  0  0  0  0
  151.3052  142.3683  158.1954 C   0  0  0  0  0  0  0  0  0  0  0  0
  152.1886  137.9274  155.8646 C   0  0  0  0  0  0  0  0  0  0  0  0
  152.9874  138.8548  156.0100 O   0  0  0  0  0  0  0  0  0  0  0  0
  152.2701  136.6747  156.6334 C   0  0  0  0  0  0  0  0  0  0  0  0
  153.4166  136.5473  157.6288 C   0  0  0  0  0  0  0  0  0  0  0  0
  152.2615  133.8289  156.9634 H   0  0  0  0  0  0  0  0  0  0  0  0
  150.5027  133.7522  156.8739 H   0  0  0  0  0  0  0  0  0  0  0  0
  151.2723  134.5446  158.2474 H   0  0  0  0  0  0  0  0  0  0  0  0
  149.4364  137.1485  154.0856 H   0  0  0  0  0  0  0  0  0  0  0  0
  151.9219  139.7036  154.0336 H   0  0  0  0  0  0  0  0  0  0  0  0
  150.7141  138.9246  153.0928 H   0  0  0  0  0  0  0  0  0  0  0  0
  149.0910  139.6011  155.1829 H   0  0  0  0  0  0  0  0  0  0  0  0
  149.7371  140.6342  152.8472 H   0  0  0  0  0  0  0  0  0  0  0  0
  151.2376  141.7744  155.2669 H   0  0  0  0  0  0  0  0  0  0  0  0
  149.7207  141.7367  156.1745 H   0  0  0  0  0  0  0  0  0  0  0  0
  152.6118  139.2353  158.5673 H   0  0  0  0  0  0  0  0  0  0  0  0
  153.5274  140.2851  160.6185 H   0  0  0  0  0  0  0  0  0  0  0  0
  153.0370  142.6535  161.1343 H   0  0  0  0  0  0  0  0  0  0  0  0
  150.6931  142.9717  157.5428 H   0  0  0  0  0  0  0  0  0  0  0  0
  153.3381  137.3209  158.3933 H   0  0  0  0  0  0  0  0  0  0  0  0
  154.3728  136.6706  157.1191 H   0  0  0  0  0  0  0  0  0  0  0  0
  153.4398  135.5845  158.1368 H   0  0  0  0  0  0  0  0  0  0  0  0
  1  2  1  0  0  0  0
  1 25  1  0  0  0  0
  1 26  1  0  0  0  0
  1 27  1  0  0  0  0
  2 23  2  0  0  0  0
  2  3  1  0  0  0  0
  3  4  2  0  0  0  0
  4  5  1  0  0  0  0
  4 28  1  0  0  0  0
  5  6  1  0  0  0  0
  5 21  1  0  0  0  0
  6  7  1  0  0  0  0
  6 29  1  0  0  0  0
  6 30  1  0  0  0  0
  7  8  1  0  0  0  0
  7  9  1  0  0  0  0
  7 31  1  0  0  0  0
  8 32  1  0  0  0  0
  9 10  1  0  0  0  0
  9 33  1  0  0  0  0
  9 34  1  0  0  0  0
 10 11  1  0  0  0  0
 11 20  1  0  0  0  0
 11 12  2  0  0  0  0
 12 13  1  0  0  0  0
 12 35  1  0  0  0  0
 13 14  2  0  0  0  0
 13 36  1  0  0  0  0
 14 15  1  0  0  0  0
 14 37  1  0  0  0  0
 15 16  1  0  0  0  0
 15 20  2  0  0  0  0
 16 17  1  0  0  0  0
 16 18  1  0  0  0  0
 16 19  1  0  0  0  0
 20 38  1  0  0  0  0
 21 22  2  0  0  0  0
 21 23  1  0  0  0  0
 23 24  1  0  0  0  0
 24 39  1  0  0  0  0
 24 40  1  0  0  0  0
 24 41  1  0  0  0  0
M  END
> <s_m_source_file>
AV-unprocessed.smi

> <i_m_source_file_index>
2813

> <i_lp_mmshare_version>
43012

> <i_f3d_flags>
0

> <s_epik_input>
W0NIM11jMW5bY0hdbihjKD1PKWMxW0NIM10pW0NIMl1bQ0BIXShbT0hdKVtDSDJdT2MyW2NIXVtjSF1bY0hdYyhDKEYpKEYpRilbY0hdMg==

> <s_epik_cmdline>
J2VwaWtfcHl0aG9uJywgJy1waCcsICc3LjAnLCAnLXRuJywgJzgnLCAnLW1hJywgJzIwMCcsICctbWV0YWxfYmluZGluZycsICctaW1hZScsICc8aW5maWxlLm1hZT4nLCAnLW9tYWUnLCAnPG91dGZpbGUubWFlPic=

> <r_lp_tautomer_probability>
1

> <r_epik_Ionization_Penalty>
3.72236e-05

> <r_epik_Ionization_Penalty_Charging>
8.38864e-08

> <r_epik_Ionization_Penalty_Neutral>
3.71397e-05

> <r_epik_State_Penalty>
-0

> <r_epik_Charging_Adjusted_Penalty>
8.38864e-08

> <i_epik_Tot_Q>
0

> <i_epik_Tot_abs_Q>
0

> <r_epik_Metal_State_Penalty>
-0

> <b_epik_Metal_Only>
0

> <s_lp_Force_Field>
OPLS_2005

> <r_lp_Energy>
22.8491

> <b_lp_Chiralities_Consistent>
1

> <s_lp_Variant>
AV-unprocessed.smi:2813-1

> <Gold.Version>
5.8.1

> <Gold.Id.Protein>
6NUR|6NUR_protein|mol2

> <Gold.PLP.Fitness>
52.6016

> <Gold.PLP.PLP>
-44.9296

> <Gold.PLP.part.hbond>
-4.0000

> <Gold.PLP.part.metal>
0.0000

> <Gold.PLP.part.buried>
-0.6304

> <Gold.PLP.part.nonpolar>
-39.8437

> <Gold.PLP.part.repulsive>
0.0999

> <Gold.PLP.ligand.clash>
0.0000

> <Gold.PLP.ligand.torsion>
0.7463

> <Gold.PLP.Chemscore.Hbond>
2.0000

> <Gold.PLP.Chemscore.CHOScore>
0.9870

> <Gold.PLP.Chemscore.Metal>
0.0000

> <Gold.Chemscore.Hbonds>
donor molecule, donor type, donor heavy atom, donor atom, acceptor molecule, acceptor atom, score
      L1  H     8    32       P1  7957  1.00
      P1  H  7997  8008       L1    22  1.00
      L1  C     4    28       P1  7948  1.00

> <Gold.PLP.Chemscore.Internal.Correction>
0.2037

> <Gold.Rescore>
     Score         DG    S(hbond)    S(metal)    S(lipo)     H(rot)  DE(clash)    DE(int)     intcor
      9.92     -16.53       1.95        0.00      98.36       2.73       1.84       4.77       ----

> <Gold.Chemscore.Fitness>
9.9176

> <Gold.Chemscore.DG>
-16.5279

> <Gold.Chemscore.ZeroCoef>
-5.4800

> <Gold.Chemscore.Hbond>
1.9545

> <Gold.Chemscore.Metal>
0.0000

> <Gold.Chemscore.Lipo>
98.3638

> <Gold.Chemscore.Internal_Hbond>
0.0000

> <Gold.Chemscore.DEClash>
1.8406

> <Gold.Chemscore.DEInternal>
4.7697

> <Gold.Chemscore.Rot>
2.7300

> <Gold.Chemscore.Internal.Correction>
   9.000000E+99

> <Gold.Chemscore.Hbonds>
donor molecule, donor type, donor heavy atom, donor atom, acceptor molecule, acceptor atom, score
      L1  H     8    32       P1  7957  0.98
      P1  H  7997  8008       L1    22  0.99

> <Gold.Chemscore.Hbond.Weighted>
-6.5281

> <Gold.Chemscore.Metal.Weighted>
-0.0000

> <Gold.Chemscore.Lipo.Weighted>
-11.5086

> <Gold.Chemscore.Internal_Hbond.Weighted>
0.0000

> <Gold.Chemscore.DEClash.Weighted>
1.8406

> <Gold.Chemscore.DEInternal.Weighted>
4.7697

> <Gold.Chemscore.Rot.Weighted>
6.9888

> <Gold.Chemscore.Internal.Correction.Weighted>
   9.000000E+99

> <Gold.Protein.RotatedTorsions>
[ 6907 6896 6895 6894 ] final  133.79 input  -60.11 | X-H torsion
[ 7974 7965 7964 7962 ] final -119.22 input  175.53 | X-H torsion
[ 8008 7997 7996 7995 ] final  -46.25 input   59.86 | X-H torsion
[ 10167 10162 10161 10158 ] final -156.89 input  -65.29 | X-H torsion
[ 10718 10713 10712 10709 ] final   60.35 input   66.30 | X-H torsion
[ 10763 10752 10751 10750 ] final  136.96 input  -60.55 | X-H torsion
[ 11005 11000 10999 10996 ] final  123.42 input  -57.11 | X-H torsion

> <Gold.Protein.ActiveResidues>
 VAL166  LYS551  ARG553  GLY616  TRP617  ASP618  TYR619  PRO620  LYS621  CYS622 
 ASP623  PHE694  ASN695  SER759  ASP760  ASP761  ALA762  ILE779  LEU786  VAL792 
 PHE793  MET794  SER795  GLU796  ALA797  LYS798  CYS799  TRP800  GLU811  SER814 

> <Gold.Protein.RotatedAtoms>
  152.3182  133.5825  159.5726 H   0  0  0  0  0  0  0  0  0  0  0  0  # atno 6907 bound_to 6896
  150.7358  134.0050  159.3659 H   0  0  0  0  0  0  0  0  0  0  0  0  # atno 6908 bound_to 6896
  151.7937  135.0729  160.0441 H   0  0  0  0  0  0  0  0  0  0  0  0  # atno 6909 bound_to 6896
  145.0649  140.8317  143.4130 H   0  0  0  0  0  0  0  0  0  0  0  0  # atno 7974 bound_to 7965
  154.4006  140.1376  156.3981 H   0  0  0  0  0  0  0  0  0  0  0  0  # atno 8008 bound_to 7997
  155.7850  140.3480  155.5298 H   0  0  0  0  0  0  0  0  0  0  0  0  # atno 8009 bound_to 7997
  155.8636  140.0960  157.1587 H   0  0  0  0  0  0  0  0  0  0  0  0  # atno 8010 bound_to 7997
  139.6814  143.9575  152.2338 H   0  0  0  0  0  0  0  0  0  0  0  0  # atno 10167 bound_to 10162
  157.5746  130.8934  149.9325 H   0  0  0  0  0  0  0  0  0  0  0  0  # atno 10718 bound_to 10713
  153.8651  135.3062  155.3439 H   0  0  0  0  0  0  0  0  0  0  0  0  # atno 10763 bound_to 10752
  154.7831  135.4824  153.9890 H   0  0  0  0  0  0  0  0  0  0  0  0  # atno 10764 bound_to 10752
  153.1439  135.6829  153.9080 H   0  0  0  0  0  0  0  0  0  0  0  0  # atno 10765 bound_to 10752
  139.9312  134.9641  156.8257 H   0  0  0  0  0  0  0  0  0  0  0  0  # atno 11005 bound_to 11000
  145.1363  139.2600  143.5513 LP  0  0  0  0  0  0  0  0  0  0  0  0  # atno 17320 bound_to 7965
  146.3526  140.1027  142.8607 LP  0  0  0  0  0  0  0  0  0  0  0  0  # atno 17321 bound_to 7965
  139.9366  144.6708  150.8308 LP  0  0  0  0  0  0  0  0  0  0  0  0  # atno 17342 bound_to 10162
  140.7653  143.3272  151.2489 LP  0  0  0  0  0  0  0  0  0  0  0  0  # atno 17343 bound_to 10162
  156.0791  130.3675  150.0617 LP  0  0  0  0  0  0  0  0  0  0  0  0  # atno 17370 bound_to 10713
  156.8766  130.9542  151.3604 LP  0  0  0  0  0  0  0  0  0  0  0  0  # atno 17371 bound_to 10713
  140.6198  134.0005  155.7613 LP  0  0  0  0  0  0  0  0  0  0  0  0  # atno 17394 bound_to 11000
  141.0901  133.9930  157.3250 LP  0  0  0  0  0  0  0  0  0  0  0  0  # atno 17395 bound_to 11000

$$$$
