#       Name:                AV-unprocessed.smi:1076
#       Creating user name   scv26
#       Creation time:       Fri Mar 27 03:21:57 2020


#       File generated by GOLD software.
#

@<TRIPOS>MOLECULE
AV-unprocessed.smi:1076
    50    51     1
SMALL
NO_CHARGES


@<TRIPOS>ATOM
      1 ****        -2.7825   2.4216  -4.4045 C.3            1 S1                 0.0000
      2 ****        -2.5354   1.2601  -3.4856 C.2            1 S1                 0.0000
      3 ****        -1.4117   0.3858  -3.4662 C.2            1 S1                 0.0000
      4 ****        -1.4974  -0.5399  -2.5248 N.2            1 S1                 0.0000
      5 ****        -2.6760  -0.2916  -1.9142 N.pl3          1 S1                 0.0000
      6 ****        -3.1000  -1.1221  -0.8012 C.3            1 S1                 0.0000
      7 ****        -2.6861  -0.5438   0.5680 C.3            1 S1                 0.0000
      8 ****        -3.2380  -1.4030   1.7132 C.3            1 S1                 0.0000
      9 ****        -1.2133  -0.4582   0.6850 N.4            1 S1                 1.0000
     10 ****        -0.6536   0.9072   0.5669 C.3            1 S1                 0.0000
     11 ****         0.8877   0.9010   0.5403 C.3            1 S1                 0.0000
     12 ****         1.5573   0.3974   1.8331 C.2            1 S1                 0.0000
     13 ****         0.8503   0.1290   2.8059 O.2            1 S1                 0.0000
     14 ****         2.9038   0.2528   1.8594 N.am           1 S1                 0.0000
     15 ****         3.6254  -0.3401   2.9885 C.3            1 S1                 0.0000
     16 ****         4.2518  -1.6649   2.5154 C.3            1 S1                 0.0000
     17 ****         5.1075  -1.4232   1.4005 O.3            1 S1                 0.0000
     18 ****         4.4394  -0.8106   0.2997 C.3            1 S1                 0.0000
     19 ****         3.8242   0.5256   0.7514 C.3            1 S1                 0.0000
     20 ****        -3.3239   0.7884  -2.4745 C.2            1 S1                 0.0000
     21 ****        -2.2739   2.2963  -5.3606 H              1 S1                 0.0000
     22 ****        -2.4282   3.3575  -3.9721 H              1 S1                 0.0000
     23 ****        -3.8436   2.5475  -4.6203 H              1 S1                 0.0000
     24 ****        -0.5398   0.3980  -4.1038 H              1 S1                 0.0000
     25 ****        -4.1853  -1.2195  -0.8519 H              1 S1                 0.0000
     26 ****        -2.6941  -2.1265  -0.9337 H              1 S1                 0.0000
     27 ****        -3.1155   0.4541   0.6747 H              1 S1                 0.0000
     28 ****        -4.3254  -1.4703   1.6662 H              1 S1                 0.0000
     29 ****        -2.9777  -0.9777   2.6831 H              1 S1                 0.0000
     30 ****        -2.8404  -2.4180   1.6772 H              1 S1                 0.0000
     31 ****        -0.9450  -0.8192   1.5898 H              1 S1                 0.0000
     32 ****        -1.0194   1.3682  -0.3508 H              1 S1                 0.0000
     33 ****        -1.0200   1.5227   1.3901 H              1 S1                 0.0000
     34 ****         1.2181   0.2861  -0.2980 H              1 S1                 0.0000
     35 ****         1.2381   1.9160   0.3492 H              1 S1                 0.0000
     36 ****         4.4036   0.3466   3.3245 H              1 S1                 0.0000
     37 ****         2.9879  -0.5221   3.8546 H              1 S1                 0.0000
     38 ****         4.8363  -2.1150   3.3180 H              1 S1                 0.0000
     39 ****         3.4781  -2.3839   2.2409 H              1 S1                 0.0000
     40 ****         5.1588  -0.6439  -0.5021 H              1 S1                 0.0000
     41 ****         3.6720  -1.4802  -0.0918 H              1 S1                 0.0000
     42 ****         3.3607   1.0277  -0.0962 H              1 S1                 0.0000
     43 ****         4.6102   1.1990   1.0966 H              1 S1                 0.0000
     44 ****        -4.2812   1.1306  -2.1093 H              1 S1                 0.0000
     45 ****        -0.8044  -1.0449  -0.0286 H              1 S1                 0.0000
     46 ****        -0.8378  -1.2611  -2.3131 LP             1 S1                 0.0000
     47 ****        -0.1419   0.2392   2.7484 LP             1 S1                 0.0000
     48 ****         1.2688  -0.1991   3.6528 LP             1 S1                 0.0000
     49 ****         5.4862  -2.2971   1.0956 LP             1 S1                 0.0000
     50 ****         5.8507  -0.8225   1.6950 LP             1 S1                 0.0000
@<TRIPOS>BOND
    1    1    2 1     
    2    1   21 1     
    3    1   22 1     
    4    1   23 1     
    5    2   20 2     
    6    2    3 1     
    7    3    4 2     
    8    3   24 1     
    9    4    5 1     
   10    5    6 1     
   11    5   20 1     
   12    6    7 1     
   13    6   25 1     
   14    6   26 1     
   15    7    8 1     
   16    7    9 1     
   17    7   27 1     
   18    8   28 1     
   19    8   29 1     
   20    8   30 1     
   21    9   10 1     
   22    9   31 1     
   23    9   45 1     
   24   10   11 1     
   25   10   32 1     
   26   10   33 1     
   27   11   12 1     
   28   11   34 1     
   29   11   35 1     
   30   12   13 2     
   31   12   14 am    
   32   14   19 1     
   33   14   15 1     
   34   15   16 1     
   35   15   36 1     
   36   15   37 1     
   37   16   17 1     
   38   16   38 1     
   39   16   39 1     
   40   17   18 1     
   41   18   19 1     
   42   18   40 1     
   43   18   41 1     
   44   19   42 1     
   45   19   43 1     
   46   20   44 1     
   47    4   46 1     
   48   13   47 1     
   49   13   48 1     
   50   17   49 1     
   51   17   50 1     
@<TRIPOS>SUBSTRUCTURE
      1 S1             1
@<TRIPOS>SET
LONE_PAIRS      STATIC     ATOMS    <user>   **** ""
5 46 47 48 49 50
DONOR_HYDROGENS      STATIC     ATOMS    <user>   **** ""
2 31 45
ATOM$BLUE        STATIC     ATOMS    COLORGROUP SYSTEM
5 46 47 48 49 50
ATOM$RED        STATIC     ATOMS    COLORGROUP SYSTEM
2 31 45
