AV-unprocessed.smi:2575|AV-procd|sdf|10116|dock6
  -GOLD-   2272014133D 1   1.00000     0.00000
 Structure written by MMmdl.
 31 32  0  0  0  0  0  0  0  0  1 V2000
  146.8495  142.5707  154.1044 C   0  0  0  0  0  0  0  0  0  0  0  0
  147.0362  141.0578  153.9691 C   0  0  0  0  0  0  0  0  0  0  0  0
  147.9076  140.6086  154.9930 O   0  0  0  0  0  0  0  0  0  0  0  0
  149.2074  141.1665  154.8904 C   0  0  0  0  0  0  0  0  0  0  0  0
  149.8770  141.1519  156.2725 C   0  0  2  0  0  0  0  0  0  0  0  0
  149.4519  142.2972  156.9858 O   0  0  0  0  0  0  0  0  0  0  0  0
  151.4160  141.1294  156.1833 C   0  0  0  0  0  0  0  0  0  0  0  0
  152.0453  140.9133  157.4744 N   0  0  0  0  0  0  0  0  0  0  0  0
  152.6408  139.7154  157.7355 N   0  0  0  0  0  0  0  0  0  0  0  0
  153.1250  139.7451  158.9412 N   0  0  0  0  0  0  0  0  0  0  0  0
  152.8405  140.9859  159.4865 C   0  0  0  0  0  0  0  0  0  0  0  0
  153.1258  141.5468  160.7515 C   0  0  0  0  0  0  0  0  0  0  0  0
  152.7127  142.8618  161.0591 C   0  0  0  0  0  0  0  0  0  0  0  0
  153.0808  143.5130  162.6165 Cl  0  0  0  0  0  0  0  0  0  0  0  0
  152.0074  143.6314  160.1024 C   0  0  0  0  0  0  0  0  0  0  0  0
  151.4921  145.2405  160.4632 Cl  0  0  0  0  0  0  0  0  0  0  0  0
  151.7162  143.0846  158.8368 C   0  0  0  0  0  0  0  0  0  0  0  0
  152.1366  141.7746  158.5507 C   0  0  0  0  0  0  0  0  0  0  0  0
  146.1809  142.9511  153.3321 H   0  0  0  0  0  0  0  0  0  0  0  0
  147.8017  143.0928  154.0095 H   0  0  0  0  0  0  0  0  0  0  0  0
  146.4212  142.8268  155.0737 H   0  0  0  0  0  0  0  0  0  0  0  0
  146.0712  140.5555  154.0498 H   0  0  0  0  0  0  0  0  0  0  0  0
  147.4515  140.8205  152.9884 H   0  0  0  0  0  0  0  0  0  0  0  0
  149.8075  140.6096  154.1686 H   0  0  0  0  0  0  0  0  0  0  0  0
  149.1273  142.1925  154.5267 H   0  0  0  0  0  0  0  0  0  0  0  0
  149.5307  140.2766  156.8238 H   0  0  0  0  0  0  0  0  0  0  0  0
  149.1848  142.9569  156.3641 H   0  0  0  0  0  0  0  0  0  0  0  0
  151.7447  140.3411  155.5041 H   0  0  0  0  0  0  0  0  0  0  0  0
  151.7877  142.0678  155.7694 H   0  0  0  0  0  0  0  0  0  0  0  0
  153.6622  140.9643  161.4858 H   0  0  0  0  0  0  0  0  0  0  0  0
  151.1772  143.6604  158.0990 H   0  0  0  0  0  0  0  0  0  0  0  0
  1  2  1  0  0  0  0
  1 19  1  0  0  0  0
  1 20  1  0  0  0  0
  1 21  1  0  0  0  0
  2  3  1  0  0  0  0
  2 22  1  0  0  0  0
  2 23  1  0  0  0  0
  3  4  1  0  0  0  0
  4  5  1  0  0  0  0
  4 24  1  0  0  0  0
  4 25  1  0  0  0  0
  5  6  1  0  0  0  0
  5  7  1  0  0  0  0
  5 26  1  0  0  0  0
  6 27  1  0  0  0  0
  7  8  1  0  0  0  0
  7 28  1  0  0  0  0
  7 29  1  0  0  0  0
  8 18  1  0  0  0  0
  8  9  1  0  0  0  0
  9 10  2  0  0  0  0
 10 11  1  0  0  0  0
 11 18  2  0  0  0  0
 11 12  1  0  0  0  0
 12 13  2  0  0  0  0
 12 30  1  0  0  0  0
 13 14  1  0  0  0  0
 13 15  1  0  0  0  0
 15 16  1  0  0  0  0
 15 17  2  0  0  0  0
 17 18  1  0  0  0  0
 17 31  1  0  0  0  0
M  END
> <s_m_source_file>
AV-unprocessed.smi

> <i_m_source_file_index>
2575

> <i_lp_mmshare_version>
43012

> <i_f3d_flags>
0

> <s_epik_input>
W0NIM11bQ0gyXU9bQ0gyXVtDQEhdKFtPSF0pW0NIMl1uKG5uMSljKGMxMilbY0hdYyhDbCljKENsKVtjSF0y

> <s_epik_cmdline>
J2VwaWtfcHl0aG9uJywgJy1waCcsICc3LjAnLCAnLXRuJywgJzgnLCAnLW1hJywgJzIwMCcsICctbWV0YWxfYmluZGluZycsICctaW1hZScsICc8aW5maWxlLm1hZT4nLCAnLW9tYWUnLCAnPG91dGZpbGUubWFlPic=

> <r_lp_tautomer_probability>
1

> <r_epik_Ionization_Penalty>
2.39516e-06

> <r_epik_Ionization_Penalty_Charging>
0

> <r_epik_Ionization_Penalty_Neutral>
2.39516e-06

> <r_epik_State_Penalty>
-0

> <r_epik_Charging_Adjusted_Penalty>
0

> <i_epik_Tot_Q>
0

> <i_epik_Tot_abs_Q>
0

> <r_epik_Metal_State_Penalty>
-0

> <b_epik_Metal_Only>
0

> <s_lp_Force_Field>
OPLS_2005

> <r_lp_Energy>
6.35742

> <b_lp_Chiralities_Consistent>
1

> <s_lp_Variant>
AV-unprocessed.smi:2575-1

> <Gold.Version>
5.8.1

> <Gold.Id.Protein>
6NUR|6NUR_protein|mol2

> <Gold.PLP.Fitness>
45.0686

> <Gold.PLP.PLP>
-40.1657

> <Gold.PLP.part.hbond>
-2.1695

> <Gold.PLP.part.metal>
0.0000

> <Gold.PLP.part.buried>
-6.0338

> <Gold.PLP.part.nonpolar>
-31.5420

> <Gold.PLP.part.repulsive>
0.0799

> <Gold.PLP.ligand.clash>
0.0000

> <Gold.PLP.ligand.torsion>
0.5619

> <Gold.PLP.Chemscore.Hbond>
2.0000

> <Gold.PLP.Chemscore.CHOScore>
0.0000

> <Gold.PLP.Chemscore.Metal>
0.0000

> <Gold.Chemscore.Hbonds>
donor molecule, donor type, donor heavy atom, donor atom, acceptor molecule, acceptor atom, score
      L1  H     6    27       P1  8028  1.00
      P1  H  7997  8009       L1     9  0.62

> <Gold.PLP.Chemscore.Internal.Correction>
0.0267

> <Gold.Rescore>
     Score         DG    S(hbond)    S(metal)    S(lipo)     H(rot)  DE(clash)    DE(int)     intcor
     16.01     -16.93       1.02        0.00     116.78       2.19       0.18       0.74       ----

> <Gold.Chemscore.Fitness>
16.0114

> <Gold.Chemscore.DG>
-16.9325

> <Gold.Chemscore.ZeroCoef>
-5.4800

> <Gold.Chemscore.Hbond>
1.0168

> <Gold.Chemscore.Metal>
0.0000

> <Gold.Chemscore.Lipo>
116.7763

> <Gold.Chemscore.Internal_Hbond>
0.0000

> <Gold.Chemscore.DEClash>
0.1785

> <Gold.Chemscore.DEInternal>
0.7425

> <Gold.Chemscore.Rot>
2.1901

> <Gold.Chemscore.Internal.Correction>
   9.000000E+99

> <Gold.Chemscore.Hbonds>
donor molecule, donor type, donor heavy atom, donor atom, acceptor molecule, acceptor atom, score
      L1  H     6    27       P1  8028  0.99
      P1  H  7997  8009       L1     9  0.02

> <Gold.Chemscore.Hbond.Weighted>
-3.3962

> <Gold.Chemscore.Metal.Weighted>
-0.0000

> <Gold.Chemscore.Lipo.Weighted>
-13.6628

> <Gold.Chemscore.Internal_Hbond.Weighted>
0.0000

> <Gold.Chemscore.DEClash.Weighted>
0.1785

> <Gold.Chemscore.DEInternal.Weighted>
0.7425

> <Gold.Chemscore.Rot.Weighted>
5.6066

> <Gold.Chemscore.Internal.Correction.Weighted>
   9.000000E+99

> <Gold.Protein.RotatedTorsions>
[ 6907 6896 6895 6894 ] final -106.69 input  -60.11 | X-H torsion
[ 7974 7965 7964 7962 ] final  -87.14 input  175.53 | X-H torsion
[ 8008 7997 7996 7995 ] final -176.42 input   59.86 | X-H torsion
[ 10167 10162 10161 10158 ] final   13.33 input  -65.29 | X-H torsion
[ 10718 10713 10712 10709 ] final  155.83 input   66.30 | X-H torsion
[ 10763 10752 10751 10750 ] final   17.96 input  -60.55 | X-H torsion
[ 11005 11000 10999 10996 ] final  110.48 input  -57.11 | X-H torsion

> <Gold.Protein.ActiveResidues>
 VAL166  LYS551  ARG553  GLY616  TRP617  ASP618  TYR619  PRO620  LYS621  CYS622 
 ASP623  PHE694  ASN695  SER759  ASP760  ASP761  ALA762  ILE779  LEU786  VAL792 
 PHE793  MET794  SER795  GLU796  ALA797  LYS798  CYS799  TRP800  GLU811  SER814 

> <Gold.Protein.RotatedAtoms>
  150.7403  133.9938  159.3615 H   0  0  0  0  0  0  0  0  0  0  0  0  # atno 6907 bound_to 6896
  151.7887  135.0739  160.0393 H   0  0  0  0  0  0  0  0  0  0  0  0  # atno 6908 bound_to 6896
  152.3223  133.5830  159.5789 H   0  0  0  0  0  0  0  0  0  0  0  0  # atno 6909 bound_to 6896
  145.4705  140.9559  143.1919 H   0  0  0  0  0  0  0  0  0  0  0  0  # atno 7974 bound_to 7965
  155.9946  140.1208  157.0606 H   0  0  0  0  0  0  0  0  0  0  0  0  # atno 8008 bound_to 7997
  154.4222  140.1119  156.5681 H   0  0  0  0  0  0  0  0  0  0  0  0  # atno 8009 bound_to 7997
  155.6296  140.3473  155.4681 H   0  0  0  0  0  0  0  0  0  0  0  0  # atno 8010 bound_to 7997
  140.6009  143.8605  150.6965 H   0  0  0  0  0  0  0  0  0  0  0  0  # atno 10167 bound_to 10162
  157.2131  131.0702  151.1958 H   0  0  0  0  0  0  0  0  0  0  0  0  # atno 10718 bound_to 10713
  153.1292  135.6736  153.9206 H   0  0  0  0  0  0  0  0  0  0  0  0  # atno 10763 bound_to 10752
  153.8698  135.3071  155.3443 H   0  0  0  0  0  0  0  0  0  0  0  0  # atno 10764 bound_to 10752
  154.7692  135.4948  153.9696 H   0  0  0  0  0  0  0  0  0  0  0  0  # atno 10765 bound_to 10752
  139.8883  134.9485  156.6286 H   0  0  0  0  0  0  0  0  0  0  0  0  # atno 11005 bound_to 11000
  144.7948  139.6256  143.7097 LP  0  0  0  0  0  0  0  0  0  0  0  0  # atno 17320 bound_to 7965
  146.2399  139.5980  142.9498 LP  0  0  0  0  0  0  0  0  0  0  0  0  # atno 17321 bound_to 7965
  140.2151  143.3852  152.1687 LP  0  0  0  0  0  0  0  0  0  0  0  0  # atno 17342 bound_to 10162
  139.5291  144.7138  151.5122 LP  0  0  0  0  0  0  0  0  0  0  0  0  # atno 17343 bound_to 10162
  157.3652  130.7152  149.6528 LP  0  0  0  0  0  0  0  0  0  0  0  0  # atno 17370 bound_to 10713
  155.9689  130.4214  150.4468 LP  0  0  0  0  0  0  0  0  0  0  0  0  # atno 17371 bound_to 10713
  140.7684  133.8759  155.8472 LP  0  0  0  0  0  0  0  0  0  0  0  0  # atno 17394 bound_to 11000
  140.9863  134.1339  157.4449 LP  0  0  0  0  0  0  0  0  0  0  0  0  # atno 17395 bound_to 11000

$$$$
