AV-unprocessed.smi:2792|AV-procd|sdf|10773|dock6
  -GOLD-   2272015213D 1   1.00000     0.00000
 Structure written by MMmdl.
 44 46  0  0  0  0  0  0  0  0  1 V2000
  145.9424  136.1144  151.3052 C   0  0  0  0  0  0  0  0  0  0  0  0
  145.0856  136.7949  152.3856 C   0  0  0  0  0  0  0  0  0  0  0  0
  145.8472  137.7507  153.3404 C   0  0  2  0  0  0  0  0  0  0  0  0
  146.8783  137.0079  154.2108 C   0  0  0  0  0  0  0  0  0  0  0  0
  144.9000  138.3329  154.2160 O   0  0  0  0  0  0  0  0  0  0  0  0
  146.5588  138.8947  152.5716 C   0  0  0  0  0  0  0  0  0  0  0  0
  147.2794  139.8326  153.4195 N   0  0  0  0  0  0  0  0  0  0  0  0
  146.8171  141.0413  153.8917 C   0  0  0  0  0  0  0  0  0  0  0  0
  147.6544  141.7051  154.6416 N   0  0  0  0  0  0  0  0  0  0  0  0
  148.7836  140.8973  154.6779 C   0  0  0  0  0  0  0  0  0  0  0  0
  150.0517  141.0077  155.3039 C   0  0  0  0  0  0  0  0  0  0  0  0
  150.3660  142.0808  156.0625 N   0  0  0  0  0  0  0  0  0  0  0  0
  151.3023  141.9470  157.1739 C   0  0  0  0  0  0  0  0  0  0  0  0
  151.5180  143.2141  157.9867 C   0  0  0  0  0  0  0  0  0  0  0  0
  151.9358  144.4064  157.3568 C   0  0  0  0  0  0  0  0  0  0  0  0
  152.1301  145.5775  158.1145 C   0  0  0  0  0  0  0  0  0  0  0  0
  151.9096  145.5615  159.5052 C   0  0  0  0  0  0  0  0  0  0  0  0
  151.4959  144.3733  160.1380 C   0  0  0  0  0  0  0  0  0  0  0  0
  151.3023  143.2015  159.3806 C   0  0  0  0  0  0  0  0  0  0  0  0
  150.9440  140.0014  155.1079 N   0  0  0  0  0  0  0  0  0  0  0  0
  150.6115  138.9489  154.3541 C   0  0  0  0  0  0  0  0  0  0  0  0
  149.4642  138.7085  153.7148 N   0  0  0  0  0  0  0  0  0  0  0  0
  148.5689  139.7195  153.9091 C   0  0  0  0  0  0  0  0  0  0  0  0
  145.3437  135.4037  150.7355 H   0  0  0  0  0  0  0  0  0  0  0  0
  146.7758  135.5638  151.7420 H   0  0  0  0  0  0  0  0  0  0  0  0
  146.3466  136.8362  150.5958 H   0  0  0  0  0  0  0  0  0  0  0  0
  144.2817  137.3440  151.8939 H   0  0  0  0  0  0  0  0  0  0  0  0
  144.5998  136.0086  152.9644 H   0  0  0  0  0  0  0  0  0  0  0  0
  147.6056  136.4802  153.5932 H   0  0  0  0  0  0  0  0  0  0  0  0
  146.4085  136.2765  154.8688 H   0  0  0  0  0  0  0  0  0  0  0  0
  147.4302  137.6996  154.8482 H   0  0  0  0  0  0  0  0  0  0  0  0
  144.4832  139.0556  153.7721 H   0  0  0  0  0  0  0  0  0  0  0  0
  147.2635  138.4849  151.8462 H   0  0  0  0  0  0  0  0  0  0  0  0
  145.8279  139.4615  151.9929 H   0  0  0  0  0  0  0  0  0  0  0  0
  145.8279  141.4133  153.6680 H   0  0  0  0  0  0  0  0  0  0  0  0
  149.8242  142.9329  156.0483 H   0  0  0  0  0  0  0  0  0  0  0  0
  150.9740  141.1369  157.8263 H   0  0  0  0  0  0  0  0  0  0  0  0
  152.2656  141.6385  156.7674 H   0  0  0  0  0  0  0  0  0  0  0  0
  152.1058  144.4269  156.2903 H   0  0  0  0  0  0  0  0  0  0  0  0
  152.4469  146.4884  157.6284 H   0  0  0  0  0  0  0  0  0  0  0  0
  152.0571  146.4600  160.0862 H   0  0  0  0  0  0  0  0  0  0  0  0
  151.3257  144.3603  161.2044 H   0  0  0  0  0  0  0  0  0  0  0  0
  150.9820  142.2948  159.8726 H   0  0  0  0  0  0  0  0  0  0  0  0
  151.3737  138.1912  154.2481 H   0  0  0  0  0  0  0  0  0  0  0  0
  1  2  1  0  0  0  0
  1 24  1  0  0  0  0
  1 25  1  0  0  0  0
  1 26  1  0  0  0  0
  2  3  1  0  0  0  0
  2 27  1  0  0  0  0
  2 28  1  0  0  0  0
  3  4  1  0  0  0  0
  3  5  1  0  0  0  0
  3  6  1  0  0  0  0
  4 29  1  0  0  0  0
  4 30  1  0  0  0  0
  4 31  1  0  0  0  0
  5 32  1  0  0  0  0
  6  7  1  0  0  0  0
  6 33  1  0  0  0  0
  6 34  1  0  0  0  0
  7 23  1  0  0  0  0
  7  8  1  0  0  0  0
  8  9  2  0  0  0  0
  8 35  1  0  0  0  0
  9 10  1  0  0  0  0
 10 23  2  0  0  0  0
 10 11  1  0  0  0  0
 11 12  1  0  0  0  0
 11 20  2  0  0  0  0
 12 13  1  0  0  0  0
 12 36  1  0  0  0  0
 13 14  1  0  0  0  0
 13 37  1  0  0  0  0
 13 38  1  0  0  0  0
 14 19  1  0  0  0  0
 14 15  2  0  0  0  0
 15 16  1  0  0  0  0
 15 39  1  0  0  0  0
 16 17  2  0  0  0  0
 16 40  1  0  0  0  0
 17 18  1  0  0  0  0
 17 41  1  0  0  0  0
 18 19  2  0  0  0  0
 18 42  1  0  0  0  0
 19 43  1  0  0  0  0
 20 21  1  0  0  0  0
 21 22  2  0  0  0  0
 21 44  1  0  0  0  0
 22 23  1  0  0  0  0
M  END
> <s_m_source_file>
AV-unprocessed.smi

> <i_m_source_file_index>
2792

> <i_lp_mmshare_version>
43012

> <i_f3d_flags>
0

> <s_epik_input>
W0NIM11bQ0gyXVtDQEBdKFtDSDNdKShbT0hdKVtDSDJdbihbY0hdbjEpYyhjMTIpbltjSF1uYzJbTkhdW0NIMl1jM1tjSF1bY0hdW2NIXVtjSF1bY0hdMw==

> <s_epik_cmdline>
J2VwaWtfcHl0aG9uJywgJy1waCcsICc3LjAnLCAnLXRuJywgJzgnLCAnLW1hJywgJzIwMCcsICctbWV0YWxfYmluZGluZycsICctaW1hZScsICc8aW5maWxlLm1hZT4nLCAnLW9tYWUnLCAnPG91dGZpbGUubWFlPic=

> <r_lp_tautomer_probability>
1

> <r_epik_Ionization_Penalty>
0.00163025

> <r_epik_Ionization_Penalty_Charging>
0

> <r_epik_Ionization_Penalty_Neutral>
0.00163025

> <r_epik_State_Penalty>
-0

> <r_epik_Charging_Adjusted_Penalty>
0

> <i_epik_Tot_Q>
0

> <i_epik_Tot_abs_Q>
0

> <r_epik_Metal_State_Penalty>
-0

> <b_epik_Metal_Only>
0

> <s_lp_Force_Field>
OPLS_2005

> <r_lp_Energy>
12.9035

> <b_lp_Chiralities_Consistent>
1

> <s_lp_Variant>
AV-unprocessed.smi:2792-2

> <Gold.Version>
5.8.1

> <Gold.Id.Protein>
6NUR|6NUR_protein|mol2

> <Gold.PLP.Fitness>
50.9575

> <Gold.PLP.PLP>
-42.8834

> <Gold.PLP.part.hbond>
-2.9610

> <Gold.PLP.part.metal>
0.0000

> <Gold.PLP.part.buried>
-3.0343

> <Gold.PLP.part.nonpolar>
-38.4409

> <Gold.PLP.part.repulsive>
2.1531

> <Gold.PLP.ligand.clash>
0.0000

> <Gold.PLP.ligand.torsion>
0.5711

> <Gold.PLP.Chemscore.Hbond>
2.2288

> <Gold.PLP.Chemscore.CHOScore>
0.7917

> <Gold.PLP.Chemscore.Metal>
0.0000

> <Gold.Chemscore.Hbonds>
donor molecule, donor type, donor heavy atom, donor atom, acceptor molecule, acceptor atom, score
      L1  H     5    32       P1 10175  0.89
      L1  H    12    36       P1  8028  0.94
      P1  H  7989  7998       L1    20  0.25
      L1  C     8    35       P1 10175  0.80

> <Gold.PLP.Chemscore.Internal.Correction>
0.1550

> <Gold.Rescore>
     Score         DG    S(hbond)    S(metal)    S(lipo)     H(rot)  DE(clash)    DE(int)     intcor
     15.24     -18.54       1.90        0.00     112.61       2.52       2.77       0.53       ----

> <Gold.Chemscore.Fitness>
15.2374

> <Gold.Chemscore.DG>
-18.5367

> <Gold.Chemscore.ZeroCoef>
-5.4800

> <Gold.Chemscore.Hbond>
1.8997

> <Gold.Chemscore.Metal>
0.0000

> <Gold.Chemscore.Lipo>
112.6117

> <Gold.Chemscore.Internal_Hbond>
0.0000

> <Gold.Chemscore.DEClash>
2.7718

> <Gold.Chemscore.DEInternal>
0.5274

> <Gold.Chemscore.Rot>
2.5250

> <Gold.Chemscore.Internal.Correction>
   9.000000E+99

> <Gold.Chemscore.Hbonds>
donor molecule, donor type, donor heavy atom, donor atom, acceptor molecule, acceptor atom, score
      L1  H     5    32       P1 10175  0.86
      L1  H    12    36       P1  8028  0.90

> <Gold.Chemscore.Hbond.Weighted>
-6.3450

> <Gold.Chemscore.Metal.Weighted>
-0.0000

> <Gold.Chemscore.Lipo.Weighted>
-13.1756

> <Gold.Chemscore.Internal_Hbond.Weighted>
0.0000

> <Gold.Chemscore.DEClash.Weighted>
2.7718

> <Gold.Chemscore.DEInternal.Weighted>
0.5274

> <Gold.Chemscore.Rot.Weighted>
6.4639

> <Gold.Chemscore.Internal.Correction.Weighted>
   9.000000E+99

> <Gold.Protein.RotatedTorsions>
[ 6907 6896 6895 6894 ] final  -32.66 input  -60.11 | X-H torsion
[ 7974 7965 7964 7962 ] final  -36.90 input  175.53 | X-H torsion
[ 8008 7997 7996 7995 ] final   62.67 input   59.86 | X-H torsion
[ 10167 10162 10161 10158 ] final -178.52 input  -65.29 | X-H torsion
[ 10718 10713 10712 10709 ] final  116.70 input   66.30 | X-H torsion
[ 10763 10752 10751 10750 ] final  144.92 input  -60.55 | X-H torsion
[ 11005 11000 10999 10996 ] final   93.72 input  -57.11 | X-H torsion

> <Gold.Protein.ActiveResidues>
 VAL166  LYS551  ARG553  GLY616  TRP617  ASP618  TYR619  PRO620  LYS621  CYS622 
 ASP623  PHE694  ASN695  SER759  ASP760  ASP761  ALA762  ILE779  LEU786  VAL792 
 PHE793  MET794  SER795  GLU796  ALA797  LYS798  CYS799  TRP800  GLU811  SER814 

> <Gold.Protein.RotatedAtoms>
  151.0758  134.9827  159.8331 H   0  0  0  0  0  0  0  0  0  0  0  0  # atno 6907 bound_to 6896
  152.5414  134.2243  159.8810 H   0  0  0  0  0  0  0  0  0  0  0  0  # atno 6908 bound_to 6896
  151.2270  133.4427  159.2636 H   0  0  0  0  0  0  0  0  0  0  0  0  # atno 6909 bound_to 6896
  146.0622  140.6333  142.8992 H   0  0  0  0  0  0  0  0  0  0  0  0  # atno 7974 bound_to 7965
  155.6180  140.3495  155.4643 H   0  0  0  0  0  0  0  0  0  0  0  0  # atno 8008 bound_to 7997
  156.0102  140.1231  157.0485 H   0  0  0  0  0  0  0  0  0  0  0  0  # atno 8009 bound_to 7997
  154.4278  140.1083  156.5805 H   0  0  0  0  0  0  0  0  0  0  0  0  # atno 8010 bound_to 7997
  139.5428  144.2315  152.0930 H   0  0  0  0  0  0  0  0  0  0  0  0  # atno 10167 bound_to 10162
  157.6143  131.1028  150.7511 H   0  0  0  0  0  0  0  0  0  0  0  0  # atno 10718 bound_to 10713
  153.9969  135.2927  155.3406 H   0  0  0  0  0  0  0  0  0  0  0  0  # atno 10763 bound_to 10752
  154.7182  135.5120  153.8774 H   0  0  0  0  0  0  0  0  0  0  0  0  # atno 10764 bound_to 10752
  153.0784  135.6671  154.0215 H   0  0  0  0  0  0  0  0  0  0  0  0  # atno 10765 bound_to 10752
  139.8806  134.8806  156.3759 H   0  0  0  0  0  0  0  0  0  0  0  0  # atno 11005 bound_to 11000
  144.7181  140.4280  143.7029 LP  0  0  0  0  0  0  0  0  0  0  0  0  # atno 17320 bound_to 7965
  145.6541  139.1570  143.2845 LP  0  0  0  0  0  0  0  0  0  0  0  0  # atno 17321 bound_to 7965
  140.1797  144.4856  150.6535 LP  0  0  0  0  0  0  0  0  0  0  0  0  # atno 17342 bound_to 10162
  140.6665  143.2270  151.5729 LP  0  0  0  0  0  0  0  0  0  0  0  0  # atno 17343 bound_to 10162
  156.7881  130.4881  149.5389 LP  0  0  0  0  0  0  0  0  0  0  0  0  # atno 17370 bound_to 10713
  156.1259  130.6143  151.0262 LP  0  0  0  0  0  0  0  0  0  0  0  0  # atno 17371 bound_to 10713
  140.9432  133.7500  156.0174 LP  0  0  0  0  0  0  0  0  0  0  0  0  # atno 17394 bound_to 11000
  140.8194  134.3306  157.5386 LP  0  0  0  0  0  0  0  0  0  0  0  0  # atno 17395 bound_to 11000

$$$$
