#       Name:                AV-unprocessed.smi:1657
#       Creating user name   scv26
#       Creation time:       Fri Mar 27 07:35:09 2020


#       File generated by GOLD software.
#

@<TRIPOS>MOLECULE
AV-unprocessed.smi:1657
    58    60     1
SMALL
NO_CHARGES


@<TRIPOS>ATOM
      1 ****         0.9790   0.6170  -0.0913 O.2            1 S1                 0.0000
      2 ****         0.8377  -0.0626   0.9254 C.2            1 S1                 0.0000
      3 ****         1.7728  -0.9080   1.3814 N.am           1 S1                 0.0000
      4 ****         3.0694  -1.1334   0.7530 C.3            1 S1                 0.0000
      5 ****         2.9499  -2.0683  -0.4657 C.3            1 S1                 0.0000
      6 ****         4.2645  -2.3414  -1.0991 N.4            1 S1                 1.0000
      7 ****         4.2698  -3.6231  -1.8523 C.3            1 S1                 0.0000
      8 ****         5.6758  -3.9526  -2.3815 C.3            1 S1                 0.0000
      9 ****         6.2177  -2.8103  -3.2501 C.3            1 S1                 0.0000
     10 ****         6.1707  -1.4905  -2.4696 C.3            1 S1                 0.0000
     11 ****         4.7539  -1.2140  -1.9381 C.3            1 S1                 0.0000
     12 ****        -0.2582  -0.0814   1.7029 N.am           1 S1                 0.0000
     13 ****        -1.4527   0.6737   1.5571 C.ar           1 S1                 0.0000
     14 ****        -1.5301   1.9164   0.8877 C.ar           1 S1                 0.0000
     15 ****        -2.7692   2.5820   0.8261 C.ar           1 S1                 0.0000
     16 ****        -3.9038   1.9960   1.4366 C.ar           1 S1                 0.0000
     17 ****        -5.1587   2.6431   1.3827 N.3            1 S1                 0.0000
     18 ****        -6.2439   2.1051   2.2020 C.3            1 S1                 0.0000
     19 ****        -7.4247   3.0896   2.2462 C.3            1 S1                 0.0000
     20 ****        -7.8394   3.4018   0.9208 O.3            1 S1                 0.0000
     21 ****        -6.8008   4.0295   0.1767 C.3            1 S1                 0.0000
     22 ****        -5.5960   3.0801   0.0585 C.3            1 S1                 0.0000
     23 ****        -3.8188   0.8140   2.0958 N.ar           1 S1                 0.0000
     24 ****        -2.6291   0.1803   2.1544 C.ar           1 S1                 0.0000
     25 ****         1.5745  -1.4289   2.2235 H              1 S1                 0.0000
     26 ****         3.5071  -0.1725   0.4808 H              1 S1                 0.0000
     27 ****         3.7329  -1.5760   1.4964 H              1 S1                 0.0000
     28 ****         2.5106  -3.0071  -0.1248 H              1 S1                 0.0000
     29 ****         2.2634  -1.6620  -1.2103 H              1 S1                 0.0000
     30 ****         3.9352  -4.4345  -1.2048 H              1 S1                 0.0000
     31 ****         3.5601  -3.5632  -2.6790 H              1 S1                 0.0000
     32 ****         6.3511  -4.1296  -1.5432 H              1 S1                 0.0000
     33 ****         5.6496  -4.8777  -2.9581 H              1 S1                 0.0000
     34 ****         7.2388  -3.0268  -3.5658 H              1 S1                 0.0000
     35 ****         5.6205  -2.7231  -4.1589 H              1 S1                 0.0000
     36 ****         6.8741  -1.5303  -1.6366 H              1 S1                 0.0000
     37 ****         6.4954  -0.6690  -3.1091 H              1 S1                 0.0000
     38 ****         4.0673  -1.0546  -2.7713 H              1 S1                 0.0000
     39 ****         4.7680  -0.2890  -1.3631 H              1 S1                 0.0000
     40 ****        -0.2631  -0.7580   2.4523 H              1 S1                 0.0000
     41 ****        -0.6649   2.3791   0.4386 H              1 S1                 0.0000
     42 ****        -2.8272   3.5392   0.3302 H              1 S1                 0.0000
     43 ****        -6.5695   1.1502   1.7870 H              1 S1                 0.0000
     44 ****        -5.8952   1.9179   3.2184 H              1 S1                 0.0000
     45 ****        -8.2620   2.6465   2.7853 H              1 S1                 0.0000
     46 ****        -7.1506   4.0021   2.7783 H              1 S1                 0.0000
     47 ****        -7.1777   4.2816  -0.8146 H              1 S1                 0.0000
     48 ****        -6.5116   4.9671   0.6545 H              1 S1                 0.0000
     49 ****        -4.8012   3.5880  -0.4853 H              1 S1                 0.0000
     50 ****        -5.8698   2.2022  -0.5282 H              1 S1                 0.0000
     51 ****        -2.6202  -0.7567   2.6919 H              1 S1                 0.0000
     52 ****         4.9266  -2.4582  -0.3454 H              1 S1                 0.0000
     53 ****         1.8245   0.5536  -0.6216 LP             1 S1                 0.0000
     54 ****         0.2484   1.2324  -0.3869 LP             1 S1                 0.0000
     55 ****        -4.9151   3.4806   1.8719 LP             1 S1                 0.0000
     56 ****        -8.6250   4.0189   0.9643 LP             1 S1                 0.0000
     57 ****        -8.1046   2.5565   0.4570 LP             1 S1                 0.0000
     58 ****        -4.6264   0.4176   2.5323 LP             1 S1                 0.0000
@<TRIPOS>BOND
    1    1    2 2     
    2    2    3 am    
    3    2   12 am    
    4    3    4 1     
    5    3   25 1     
    6    4    5 1     
    7    4   26 1     
    8    4   27 1     
    9    5    6 1     
   10    5   28 1     
   11    5   29 1     
   12    6   11 1     
   13    6    7 1     
   14    6   52 1     
   15    7    8 1     
   16    7   30 1     
   17    7   31 1     
   18    8    9 1     
   19    8   32 1     
   20    8   33 1     
   21    9   10 1     
   22    9   34 1     
   23    9   35 1     
   24   10   11 1     
   25   10   36 1     
   26   10   37 1     
   27   11   38 1     
   28   11   39 1     
   29   12   13 1     
   30   12   40 1     
   31   13   24 ar    
   32   13   14 ar    
   33   14   15 ar    
   34   14   41 1     
   35   15   16 ar    
   36   15   42 1     
   37   16   17 1     
   38   16   23 ar    
   39   17   22 1     
   40   17   18 1     
   41   18   19 1     
   42   18   43 1     
   43   18   44 1     
   44   19   20 1     
   45   19   45 1     
   46   19   46 1     
   47   20   21 1     
   48   21   22 1     
   49   21   47 1     
   50   21   48 1     
   51   22   49 1     
   52   22   50 1     
   53   23   24 ar    
   54   24   51 1     
   55    1   53 1     
   56    1   54 1     
   57   17   55 1     
   58   20   56 1     
   59   20   57 1     
   60   23   58 1     
@<TRIPOS>SUBSTRUCTURE
      1 S1             1
@<TRIPOS>SET
LONE_PAIRS      STATIC     ATOMS    <user>   **** ""
6 53 54 55 56 57 58
DONOR_HYDROGENS      STATIC     ATOMS    <user>   **** ""
3 25 52 40
ATOM$BLUE        STATIC     ATOMS    COLORGROUP SYSTEM
6 53 54 55 56 57 58
ATOM$RED        STATIC     ATOMS    COLORGROUP SYSTEM
3 25 52 40
