AV-unprocessed.smi:35|AV-procd|sdf|270|dock5
  -GOLD-   2262016 33D 1   1.00000     0.00000
 Structure written by MMmdl.
 28 29  0  0  0  0  0  0  0  0  2 V2000
  152.1774  136.9471  159.7259 O   0  0  0  0  0  0  0  0  0  0  0  0
  151.8528  137.5097  158.6817 C   0  0  0  0  0  0  0  0  0  0  0  0
  152.7622  138.0155  157.7993 N   0  5  0  0  0  0  0  0  0  0  0  0
  152.3966  138.6394  156.6412 C   0  0  0  0  0  0  0  0  0  0  0  0
  153.2084  139.1124  155.8455 O   0  0  0  0  0  0  0  0  0  0  0  0
  151.0140  138.7664  156.3327 N   0  0  0  0  0  0  0  0  0  0  0  0
  150.6148  139.4518  155.0383 C   0  0  1  0  0  0  0  0  0  0  0  0
  149.5367  138.7740  154.4575 O   0  0  0  0  0  0  0  0  0  0  0  0
  148.3510  139.5508  154.5837 C   0  0  2  0  0  0  0  0  0  0  0  0
  147.2840  139.1106  153.5657 C   0  0  0  0  0  0  0  0  0  0  0  0
  147.8872  138.7776  152.3333 O   0  0  0  0  0  0  0  0  0  0  0  0
  148.8619  140.9930  154.4812 C   0  0  2  0  0  0  0  0  0  0  0  0
  149.0815  141.3651  153.1326 O   0  0  0  0  0  0  0  0  0  0  0  0
  150.1846  140.9285  155.2339 C   0  0  1  0  0  0  0  0  0  0  0  0
  149.9781  141.2924  156.5880 O   0  0  0  0  0  0  0  0  0  0  0  0
  150.0677  138.2641  157.2114 C   0  0  0  0  0  0  0  0  0  0  0  0
  150.4367  137.6525  158.3550 C   0  0  0  0  0  0  0  0  0  0  0  0
  148.9776  136.9842  159.5175 Br  0  0  0  0  0  0  0  0  0  0  0  0
  151.4709  139.3361  154.3713 H   0  0  0  0  0  0  0  0  0  0  0  0
  147.9624  139.3923  155.5911 H   0  0  0  0  0  0  0  0  0  0  0  0
  146.6996  138.2659  153.9310 H   0  0  0  0  0  0  0  0  0  0  0  0
  146.5829  139.9269  153.3906 H   0  0  0  0  0  0  0  0  0  0  0  0
  148.1960  137.8858  152.3813 H   0  0  0  0  0  0  0  0  0  0  0  0
  148.1615  141.7062  154.9180 H   0  0  0  0  0  0  0  0  0  0  0  0
  149.2669  140.5833  152.6352 H   0  0  0  0  0  0  0  0  0  0  0  0
  150.9406  141.5925  154.8121 H   0  0  0  0  0  0  0  0  0  0  0  0
  150.6385  141.9253  156.8280 H   0  0  0  0  0  0  0  0  0  0  0  0
  149.0153  138.3553  156.9932 H   0  0  0  0  0  0  0  0  0  0  0  0
  1  2  2  0  0  0  0
  2 17  1  0  0  0  0
  2  3  1  0  0  0  0
  3  4  1  0  0  0  0
  4  5  2  0  0  0  0
  4  6  1  0  0  0  0
  6  7  1  0  0  0  0
  6 16  1  0  0  0  0
  7 14  1  0  0  0  0
  7  8  1  0  0  0  0
  7 19  1  0  0  0  0
  8  9  1  0  0  0  0
  9 10  1  0  0  0  0
  9 12  1  0  0  0  0
  9 20  1  0  0  0  0
 10 11  1  0  0  0  0
 10 21  1  0  0  0  0
 10 22  1  0  0  0  0
 11 23  1  0  0  0  0
 12 13  1  0  0  0  0
 12 14  1  0  0  0  0
 12 24  1  0  0  0  0
 13 25  1  0  0  0  0
 14 15  1  0  0  0  0
 14 26  1  0  0  0  0
 15 27  1  0  0  0  0
 16 17  2  0  0  0  0
 16 28  1  0  0  0  0
 17 18  1  0  0  0  0
M  CHG  1   3  -1
M  END
> <s_m_source_file>
AV-unprocessed.smi

> <i_m_source_file_index>
35

> <i_lp_mmshare_version>
43012

> <i_f3d_flags>
0

> <s_epik_input>
Tz1jMVtuSF1jKD1PKW4oW2NIXWMxQnIpW0NAQEhdMk9bQ0BASF0oW0NIMl1bT0hdKVtDQEBIXShbT0hdKVtDQEhdMltPSF0=

> <s_epik_cmdline>
J2VwaWtfcHl0aG9uJywgJy1waCcsICc3LjAnLCAnLXRuJywgJzgnLCAnLW1hJywgJzIwMCcsICctbWV0YWxfYmluZGluZycsICctaW1hZScsICc8aW5maWxlLm1hZT4nLCAnLW9tYWUnLCAnPG91dGZpbGUubWFlPic=

> <r_epik_Ionization_Penalty>
1.06112

> <r_epik_Ionization_Penalty_Charging>
2.1796e-09

> <r_epik_Ionization_Penalty_Neutral>
1.06112

> <r_epik_State_Penalty>
1.11484

> <r_epik_Charging_Adjusted_Penalty>
1.11484

> <i_epik_Tot_Q>
-1

> <i_epik_Tot_abs_Q>
1

> <r_epik_Metal_State_Penalty>
0.0032876

> <b_epik_Metal_Only>
0

> <s_epik_Chemistry_Notes>
This compound contains an acetal/aminal-like group ( X-CH(R)-Y where X, Y are N, S, or O) that may be acid/base labile, releasing an aldehyde.

> <s_lp_Force_Field>
OPLS_2005

> <r_lp_Energy>
42.6041

> <b_lp_Chiralities_Consistent>
1

> <s_lp_Variant>
AV-unprocessed.smi:35-24

> <Gold.Version>
5.8.1

> <Gold.Id.Protein>
6NUR|6NUR_protein|mol2

> <Gold.PLP.Fitness>
38.5941

> <Gold.PLP.PLP>
-25.5184

> <Gold.PLP.part.hbond>
-6.0487

> <Gold.PLP.part.metal>
0.0000

> <Gold.PLP.part.buried>
-3.5546

> <Gold.PLP.part.nonpolar>
-15.6918

> <Gold.PLP.part.repulsive>
0.1791

> <Gold.PLP.ligand.clash>
0.0000

> <Gold.PLP.ligand.torsion>
0.7787

> <Gold.PLP.Chemscore.Hbond>
4.8640

> <Gold.PLP.Chemscore.CHOScore>
0.0000

> <Gold.PLP.Chemscore.Metal>
0.0000

> <Gold.Chemscore.Hbonds>
donor molecule, donor type, donor heavy atom, donor atom, acceptor molecule, acceptor atom, score
      L1  H    11    23       P1  7948  1.00
      L1  H    13    25       P1  7957  0.85
      P1  H  6896  6909       L1     1  1.00
      P1  H  7997  8008       L1     5  1.00
      P1  H  8011  8017       L1    13  0.93

> <Gold.PLP.Chemscore.Internal.Correction>
0.0411

> <Gold.Rescore>
     Score         DG    S(hbond)    S(metal)    S(lipo)     H(rot)  DE(clash)    DE(int)     intcor
     14.06     -14.85       4.37        0.00      34.83       3.63       0.09       0.71       ----

> <Gold.Chemscore.Fitness>
14.0550

> <Gold.Chemscore.DG>
-14.8543

> <Gold.Chemscore.ZeroCoef>
-5.4800

> <Gold.Chemscore.Hbond>
4.3657

> <Gold.Chemscore.Metal>
0.0000

> <Gold.Chemscore.Lipo>
34.8344

> <Gold.Chemscore.Internal_Hbond>
0.0000

> <Gold.Chemscore.DEClash>
0.0916

> <Gold.Chemscore.DEInternal>
0.7077

> <Gold.Chemscore.Rot>
3.6261

> <Gold.Chemscore.Internal.Correction>
   9.000000E+99

> <Gold.Chemscore.Hbonds>
donor molecule, donor type, donor heavy atom, donor atom, acceptor molecule, acceptor atom, score
      L1  H    11    23       P1  7948  0.99
      L1  H    13    25       P1  7957  0.84
      P1  H  6896  6909       L1     1  0.99
      P1  H  7997  8008       L1     5  0.97
      P1  H  8011  8017       L1    13  0.30

> <Gold.Chemscore.Hbond.Weighted>
-14.5815

> <Gold.Chemscore.Metal.Weighted>
-0.0000

> <Gold.Chemscore.Lipo.Weighted>
-4.0756

> <Gold.Chemscore.Internal_Hbond.Weighted>
0.0000

> <Gold.Chemscore.DEClash.Weighted>
0.0916

> <Gold.Chemscore.DEInternal.Weighted>
0.7077

> <Gold.Chemscore.Rot.Weighted>
9.2828

> <Gold.Chemscore.Internal.Correction.Weighted>
   9.000000E+99

> <Gold.Protein.RotatedTorsions>
[ 6907 6896 6895 6894 ] final  137.33 input  -60.11 | X-H torsion
[ 7974 7965 7964 7962 ] final  -54.22 input  175.53 | X-H torsion
[ 8008 7997 7996 7995 ] final  -29.83 input   59.86 | X-H torsion
[ 10167 10162 10161 10158 ] final  -78.96 input  -65.29 | X-H torsion
[ 10718 10713 10712 10709 ] final  108.80 input   66.30 | X-H torsion
[ 10763 10752 10751 10750 ] final  -50.58 input  -60.55 | X-H torsion
[ 11005 11000 10999 10996 ] final -115.77 input  -57.11 | X-H torsion

> <Gold.Protein.ActiveResidues>
 VAL166  LYS551  ARG553  GLY616  TRP617  ASP618  TYR619  PRO620  LYS621  CYS622 
 ASP623  PHE694  ASN695  SER759  ASP760  ASP761  ALA762  ILE779  LEU786  VAL792 
 PHE793  MET794  SER795  GLU796  ALA797  LYS798  CYS799  TRP800  GLU811  SER814 

> <Gold.Protein.RotatedAtoms>
  152.2793  133.5455  159.5487 H   0  0  0  0  0  0  0  0  0  0  0  0  # atno 6907 bound_to 6896
  150.7189  134.0587  159.3832 H   0  0  0  0  0  0  0  0  0  0  0  0  # atno 6908 bound_to 6896
  151.8498  135.0562  160.0508 H   0  0  0  0  0  0  0  0  0  0  0  0  # atno 6909 bound_to 6896
  145.8880  140.8093  142.9806 H   0  0  0  0  0  0  0  0  0  0  0  0  # atno 7974 bound_to 7965
  154.4274  140.1807  156.1310 H   0  0  0  0  0  0  0  0  0  0  0  0  # atno 8008 bound_to 7997
  156.0067  140.3354  155.6875 H   0  0  0  0  0  0  0  0  0  0  0  0  # atno 8009 bound_to 7997
  155.6167  140.0655  157.2681 H   0  0  0  0  0  0  0  0  0  0  0  0  # atno 8010 bound_to 7997
  140.4636  143.2446  151.8311 H   0  0  0  0  0  0  0  0  0  0  0  0  # atno 10167 bound_to 10162
  157.6570  131.0901  150.6359 H   0  0  0  0  0  0  0  0  0  0  0  0  # atno 10718 bound_to 10713
  154.1127  135.6546  153.4888 H   0  0  0  0  0  0  0  0  0  0  0  0  # atno 10763 bound_to 10752
  153.0251  135.5251  154.7175 H   0  0  0  0  0  0  0  0  0  0  0  0  # atno 10764 bound_to 10752
  154.6360  135.2982  155.0130 H   0  0  0  0  0  0  0  0  0  0  0  0  # atno 10765 bound_to 10752
  141.0466  133.9753  157.2907 H   0  0  0  0  0  0  0  0  0  0  0  0  # atno 11005 bound_to 11000
  144.6729  140.1486  143.7431 LP  0  0  0  0  0  0  0  0  0  0  0  0  # atno 17320 bound_to 7965
  145.8943  139.2393  143.1531 LP  0  0  0  0  0  0  0  0  0  0  0  0  # atno 17321 bound_to 7965
  139.4809  144.4978  151.9101 LP  0  0  0  0  0  0  0  0  0  0  0  0  # atno 17342 bound_to 10162
  140.4063  144.2427  150.5890 LP  0  0  0  0  0  0  0  0  0  0  0  0  # atno 17343 bound_to 10162
  156.6665  130.4527  149.5671 LP  0  0  0  0  0  0  0  0  0  0  0  0  # atno 17370 bound_to 10713
  156.2029  130.6631  151.1186 LP  0  0  0  0  0  0  0  0  0  0  0  0  # atno 17371 bound_to 10713
  139.9317  135.0199  156.8421 LP  0  0  0  0  0  0  0  0  0  0  0  0  # atno 17394 bound_to 11000
  140.6135  134.0060  155.7587 LP  0  0  0  0  0  0  0  0  0  0  0  0  # atno 17395 bound_to 11000

$$$$
