AV-unprocessed.smi:3304|AV-procd|sdf|12697|dock7
  -GOLD-   2272019 33D 1   1.00000     0.00000
 Structure written by MMmdl.
 46 47  0  0  0  0  0  0  0  0  2 V2000
  147.9457  141.7130  156.1220 C   0  0  0  0  0  0  0  0  0  0  0  0
  148.6962  140.7899  155.2174 C   0  0  0  0  0  0  0  0  0  0  0  0
  148.2797  140.0647  154.1332 C   0  0  0  0  0  0  0  0  0  0  0  0
  146.9095  139.9794  153.5183 C   0  0  0  0  0  0  0  0  0  0  0  0
  146.8658  138.9489  152.3823 C   0  0  0  0  0  0  0  0  0  0  0  0
  145.4822  138.5105  152.1172 N   0  3  0  0  0  0  0  0  0  0  0  0
  145.0551  137.3483  152.9218 C   0  0  0  0  0  0  0  0  0  0  0  0
  144.5128  136.2123  152.0350 C   0  0  2  0  0  0  0  0  0  0  0  0
  143.9009  135.0876  152.8934 C   0  0  0  0  0  0  0  0  0  0  0  0
  143.3509  133.9437  152.0257 C   0  0  0  0  0  0  0  0  0  0  0  0
  144.4345  133.3658  151.0967 C   0  0  1  0  0  0  0  0  0  0  0  0
  143.8801  132.2306  150.2243 C   0  0  0  0  0  0  0  0  0  0  0  0
  145.0543  134.4848  150.2394 C   0  0  0  0  0  0  0  0  0  0  0  0
  145.6017  135.6279  151.1097 C   0  0  0  0  0  0  0  0  0  0  0  0
  149.4582  139.3895  153.7070 C   0  0  0  0  0  0  0  0  0  0  0  0
  150.5088  139.6664  154.4582 N   0  0  0  0  0  0  0  0  0  0  0  0
  150.0425  140.5269  155.3866 N   0  0  0  0  0  0  0  0  0  0  0  0
  150.9473  141.0451  156.3943 C   0  0  0  0  0  0  0  0  0  0  0  0
  146.9023  141.8025  155.8198 H   0  0  0  0  0  0  0  0  0  0  0  0
  148.3841  142.7110  156.1075 H   0  0  0  0  0  0  0  0  0  0  0  0
  147.9654  141.3492  157.1495 H   0  0  0  0  0  0  0  0  0  0  0  0
  146.1669  139.7194  154.2736 H   0  0  0  0  0  0  0  0  0  0  0  0
  146.6067  140.9530  153.1309 H   0  0  0  0  0  0  0  0  0  0  0  0
  147.2857  139.3796  151.4723 H   0  0  0  0  0  0  0  0  0  0  0  0
  147.4736  138.0802  152.6393 H   0  0  0  0  0  0  0  0  0  0  0  0
  144.8571  139.2807  152.3078 H   0  0  0  0  0  0  0  0  0  0  0  0
  145.8913  136.9910  153.5249 H   0  0  0  0  0  0  0  0  0  0  0  0
  144.2806  137.6788  153.6157 H   0  0  0  0  0  0  0  0  0  0  0  0
  143.7156  136.6214  151.4116 H   0  0  0  0  0  0  0  0  0  0  0  0
  144.6527  134.6936  153.5785 H   0  0  0  0  0  0  0  0  0  0  0  0
  143.0984  135.4864  153.5148 H   0  0  0  0  0  0  0  0  0  0  0  0
  142.9533  133.1576  152.6686 H   0  0  0  0  0  0  0  0  0  0  0  0
  142.5119  134.3092  151.4321 H   0  0  0  0  0  0  0  0  0  0  0  0
  145.2238  132.9442  151.7211 H   0  0  0  0  0  0  0  0  0  0  0  0
  143.0821  132.5850  149.5711 H   0  0  0  0  0  0  0  0  0  0  0  0
  143.4751  131.4257  150.8383 H   0  0  0  0  0  0  0  0  0  0  0  0
  144.6603  131.8028  149.5941 H   0  0  0  0  0  0  0  0  0  0  0  0
  145.8573  134.0795  149.6227 H   0  0  0  0  0  0  0  0  0  0  0  0
  144.3063  134.8793  149.5500 H   0  0  0  0  0  0  0  0  0  0  0  0
  146.0081  136.4056  150.4625 H   0  0  0  0  0  0  0  0  0  0  0  0
  146.4362  135.2594  151.7080 H   0  0  0  0  0  0  0  0  0  0  0  0
  149.5794  138.7072  152.8786 H   0  0  0  0  0  0  0  0  0  0  0  0
  150.9864  142.1323  156.3274 H   0  0  0  0  0  0  0  0  0  0  0  0
  151.9530  140.6474  156.2525 H   0  0  0  0  0  0  0  0  0  0  0  0
  150.5928  140.7611  157.3853 H   0  0  0  0  0  0  0  0  0  0  0  0
  145.4056  138.2666  151.1400 H   0  0  0  0  0  0  0  0  0  0  0  0
  1  2  1  0  0  0  0
  1 19  1  0  0  0  0
  1 20  1  0  0  0  0
  1 21  1  0  0  0  0
  2 17  1  0  0  0  0
  2  3  2  0  0  0  0
  3  4  1  0  0  0  0
  3 15  1  0  0  0  0
  4  5  1  0  0  0  0
  4 22  1  0  0  0  0
  4 23  1  0  0  0  0
  5  6  1  0  0  0  0
  5 24  1  0  0  0  0
  5 25  1  0  0  0  0
  6  7  1  0  0  0  0
  6 26  1  0  0  0  0
  6 46  1  0  0  0  0
  7  8  1  0  0  0  0
  7 27  1  0  0  0  0
  7 28  1  0  0  0  0
  8 14  1  0  0  0  0
  8  9  1  0  0  0  0
  8 29  1  0  0  0  0
  9 10  1  0  0  0  0
  9 30  1  0  0  0  0
  9 31  1  0  0  0  0
 10 11  1  0  0  0  0
 10 32  1  0  0  0  0
 10 33  1  0  0  0  0
 11 12  1  0  0  0  0
 11 13  1  0  0  0  0
 11 34  1  0  0  0  0
 12 35  1  0  0  0  0
 12 36  1  0  0  0  0
 12 37  1  0  0  0  0
 13 14  1  0  0  0  0
 13 38  1  0  0  0  0
 13 39  1  0  0  0  0
 14 40  1  0  0  0  0
 14 41  1  0  0  0  0
 15 16  2  0  0  0  0
 15 42  1  0  0  0  0
 16 17  1  0  0  0  0
 17 18  1  0  0  0  0
 18 43  1  0  0  0  0
 18 44  1  0  0  0  0
 18 45  1  0  0  0  0
M  CHG  1   6   1
M  END
> <s_m_source_file>
AV-unprocessed.smi

> <i_m_source_file_index>
3304

> <i_lp_mmshare_version>
43012

> <i_f3d_flags>
0

> <s_epik_input>
W0NIM11uMW5bY0hdYyhjMVtDSDNdKVtDSDJdW0NIMl1bTkhdW0NIMl1bQ0BASF0yW0NIMl1bQ0gyXVtDQEBIXShbQ0gzXSlbQ0gyXVtDSDJdMg==

> <s_epik_cmdline>
J2VwaWtfcHl0aG9uJywgJy1waCcsICc3LjAnLCAnLXRuJywgJzgnLCAnLW1hJywgJzIwMCcsICctbWV0YWxfYmluZGluZycsICctaW1hZScsICc8aW5maWxlLm1hZT4nLCAnLW9tYWUnLCAnPG91dGZpbGUubWFlPic=

> <r_lp_tautomer_probability>
1

> <r_epik_Ionization_Penalty>
0.000505313

> <r_epik_Ionization_Penalty_Charging>
0.000421171

> <r_epik_Ionization_Penalty_Neutral>
8.41424e-05

> <r_epik_State_Penalty>
-0

> <r_epik_Charging_Adjusted_Penalty>
0.000421171

> <i_epik_Tot_Q>
1

> <i_epik_Tot_abs_Q>
1

> <r_epik_Metal_State_Penalty>
-0

> <b_epik_Metal_Only>
0

> <s_lp_Force_Field>
OPLS_2005

> <r_lp_Energy>
10.3881

> <b_lp_Chiralities_Consistent>
1

> <s_lp_Variant>
AV-unprocessed.smi:3304-1

> <Gold.Version>
5.8.1

> <Gold.Id.Protein>
6NUR|6NUR_protein|mol2

> <Gold.PLP.Fitness>
48.1351

> <Gold.PLP.PLP>
-35.5189

> <Gold.PLP.part.hbond>
-3.0000

> <Gold.PLP.part.metal>
0.0000

> <Gold.PLP.part.buried>
2.6007

> <Gold.PLP.part.nonpolar>
-34.9329

> <Gold.PLP.part.repulsive>
0.1622

> <Gold.PLP.ligand.clash>
0.0000

> <Gold.PLP.ligand.torsion>
0.6842

> <Gold.PLP.Chemscore.Hbond>
3.4720

> <Gold.PLP.Chemscore.CHOScore>
1.1810

> <Gold.PLP.Chemscore.Metal>
0.0000

> <Gold.Chemscore.Hbonds>
donor molecule, donor type, donor heavy atom, donor atom, acceptor molecule, acceptor atom, score
      L1  H     6    26       P1 10175  2.00
      L1  H     6    46       P1 10171  0.58
      P1  H  7989  7998       L1    16  0.95
      L1  C    15    42       P1  7948  0.57
      L1  C    15    42       P1  7957  0.48

> <Gold.PLP.Chemscore.Internal.Correction>
0.0255

> <Gold.Rescore>
     Score         DG    S(hbond)    S(metal)    S(lipo)     H(rot)  DE(clash)    DE(int)     intcor
     17.18     -21.04       2.51        0.00      92.61       1.43       3.16       0.70       ----

> <Gold.Chemscore.Fitness>
17.1789

> <Gold.Chemscore.DG>
-21.0393

> <Gold.Chemscore.ZeroCoef>
-5.4800

> <Gold.Chemscore.Hbond>
2.5129

> <Gold.Chemscore.Metal>
0.0000

> <Gold.Chemscore.Lipo>
92.6070

> <Gold.Chemscore.Internal_Hbond>
0.0000

> <Gold.Chemscore.DEClash>
3.1589

> <Gold.Chemscore.DEInternal>
0.7015

> <Gold.Chemscore.Rot>
1.4331

> <Gold.Chemscore.Internal.Correction>
   9.000000E+99

> <Gold.Chemscore.Hbonds>
donor molecule, donor type, donor heavy atom, donor atom, acceptor molecule, acceptor atom, score
      L1  H     6    26       P1 10175  1.00
      L1  H     6    46       P1 10171  0.54
      P1  H  7989  7998       L1    16  0.14

> <Gold.Chemscore.Hbond.Weighted>
-8.3930

> <Gold.Chemscore.Metal.Weighted>
-0.0000

> <Gold.Chemscore.Lipo.Weighted>
-10.8350

> <Gold.Chemscore.Internal_Hbond.Weighted>
0.0000

> <Gold.Chemscore.DEClash.Weighted>
3.1589

> <Gold.Chemscore.DEInternal.Weighted>
0.7015

> <Gold.Chemscore.Rot.Weighted>
3.6688

> <Gold.Chemscore.Internal.Correction.Weighted>
   9.000000E+99

> <Gold.Protein.RotatedTorsions>
[ 6907 6896 6895 6894 ] final   90.96 input  -60.11 | X-H torsion
[ 7974 7965 7964 7962 ] final  -62.10 input  175.53 | X-H torsion
[ 8008 7997 7996 7995 ] final  -98.58 input   59.86 | X-H torsion
[ 10167 10162 10161 10158 ] final  121.84 input  -65.29 | X-H torsion
[ 10718 10713 10712 10709 ] final -169.98 input   66.30 | X-H torsion
[ 10763 10752 10751 10750 ] final  -92.01 input  -60.55 | X-H torsion
[ 11005 11000 10999 10996 ] final  -86.51 input  -57.11 | X-H torsion

> <Gold.Protein.ActiveResidues>
 VAL166  LYS551  ARG553  GLY616  TRP617  ASP618  TYR619  PRO620  LYS621  CYS622 
 ASP623  PHE694  ASN695  SER759  ASP760  ASP761  ALA762  ILE779  LEU786  VAL792 
 PHE793  MET794  SER795  GLU796  ALA797  LYS798  CYS799  TRP800  GLU811  SER814 

> <Gold.Protein.RotatedAtoms>
  152.5447  134.1730  159.8604 H   0  0  0  0  0  0  0  0  0  0  0  0  # atno 6907 bound_to 6896
  151.1739  133.4760  159.2601 H   0  0  0  0  0  0  0  0  0  0  0  0  # atno 6908 bound_to 6896
  151.1247  135.0109  159.8610 H   0  0  0  0  0  0  0  0  0  0  0  0  # atno 6909 bound_to 6896
  145.7954  140.8686  143.0259 H   0  0  0  0  0  0  0  0  0  0  0  0  # atno 7974 bound_to 7965
  154.8032  140.0454  157.1288 H   0  0  0  0  0  0  0  0  0  0  0  0  # atno 8008 bound_to 7997
  154.9454  140.3058  155.5080 H   0  0  0  0  0  0  0  0  0  0  0  0  # atno 8009 bound_to 7997
  156.2964  140.2298  156.4527 H   0  0  0  0  0  0  0  0  0  0  0  0  # atno 8010 bound_to 7997
  139.5895  144.7019  151.3326 H   0  0  0  0  0  0  0  0  0  0  0  0  # atno 10167 bound_to 10162
  156.7195  130.9264  151.3096 H   0  0  0  0  0  0  0  0  0  0  0  0  # atno 10718 bound_to 10713
  154.6818  135.5247  153.8273 H   0  0  0  0  0  0  0  0  0  0  0  0  # atno 10763 bound_to 10752
  153.0570  135.6554  154.0564 H   0  0  0  0  0  0  0  0  0  0  0  0  # atno 10764 bound_to 10752
  154.0450  135.2974  155.3329 H   0  0  0  0  0  0  0  0  0  0  0  0  # atno 10765 bound_to 10752
  141.1629  133.7458  156.9171 H   0  0  0  0  0  0  0  0  0  0  0  0  # atno 11005 bound_to 11000
  144.6776  140.0183  143.7484 LP  0  0  0  0  0  0  0  0  0  0  0  0  # atno 17320 bound_to 7965
  145.9933  139.3032  143.0971 LP  0  0  0  0  0  0  0  0  0  0  0  0  # atno 17321 bound_to 7965
  140.7160  143.7264  150.7657 LP  0  0  0  0  0  0  0  0  0  0  0  0  # atno 17342 bound_to 10162
  140.0816  143.4963  152.2527 LP  0  0  0  0  0  0  0  0  0  0  0  0  # atno 17343 bound_to 10162
  157.6904  130.9227  150.0497 LP  0  0  0  0  0  0  0  0  0  0  0  0  # atno 17370 bound_to 10713
  156.1604  130.3644  149.9307 LP  0  0  0  0  0  0  0  0  0  0  0  0  # atno 17371 bound_to 10713
  140.1477  134.9251  157.2551 LP  0  0  0  0  0  0  0  0  0  0  0  0  # atno 17394 bound_to 11000
  140.2760  134.3405  155.7358 LP  0  0  0  0  0  0  0  0  0  0  0  0  # atno 17395 bound_to 11000

$$$$
