AV-unprocessed.smi:276|AV-procd|sdf|2081|dock6
  -GOLD-   2262021353D 1   1.00000     0.00000
 Structure written by MMmdl.
 57 61  0  0  0  0  0  0  0  0  1 V2000
  152.1135  144.9733  158.8231 C   0  0  0  0  0  0  0  0  0  0  0  0
  151.4152  143.8260  158.3726 O   0  0  0  0  0  0  0  0  0  0  0  0
  152.1811  142.6382  158.4986 C   0  0  1  0  0  0  0  0  0  0  0  0
  152.1905  142.0328  159.9076 C   0  0  0  0  0  0  0  0  0  0  0  0
  152.0561  140.6389  159.2628 C   0  0  2  0  0  0  0  0  0  0  0  0
  153.3699  140.0154  159.0467 N   0  0  0  0  0  0  0  0  0  0  0  0
  154.2367  139.9208  160.2175 C   0  0  0  0  0  0  0  0  0  0  0  0
  153.3660  138.8384  158.3819 C   0  0  0  0  0  0  0  0  0  0  0  0
  154.5711  138.3397  158.0100 N   0  0  0  0  0  0  0  0  0  0  0  0
  154.6398  137.1825  157.3453 C   0  0  0  0  0  0  0  0  0  0  0  0
  153.6457  136.3764  156.9666 N   0  0  0  0  0  0  0  0  0  0  0  0
  152.4338  136.8696  157.3516 C   0  0  0  0  0  0  0  0  0  0  0  0
  152.2023  138.0813  158.0614 C   0  0  0  0  0  0  0  0  0  0  0  0
  150.8396  138.2454  158.2824 N   0  0  0  0  0  0  0  0  0  0  0  0
  150.2967  137.1971  157.7260 C   0  0  0  0  0  0  0  0  0  0  0  0
  151.1822  136.3196  157.1433 N   0  0  0  0  0  0  0  0  0  0  0  0
  150.8616  135.0775  156.4629 C   0  0  0  0  0  0  0  0  0  0  0  0
  149.4933  134.5083  156.8869 C   0  0  2  0  0  0  0  0  0  0  0  0
  149.4650  134.3709  158.2952 O   0  0  0  0  0  0  0  0  0  0  0  0
  149.2088  133.1378  156.2444 C   0  0  1  0  0  0  0  0  0  0  0  0
  149.2683  133.1298  154.7157 C   0  0  0  0  0  0  0  0  0  0  0  0
  149.5580  131.6746  154.4292 C   0  0  0  0  0  0  0  0  0  0  0  0
  150.5266  131.3250  155.5542 C   0  0  0  0  0  0  0  0  0  0  0  0
  150.1941  132.1855  156.6410 O   0  0  0  0  0  0  0  0  0  0  0  0
  151.4472  141.3674  158.0336 C   0  0  0  0  0  0  0  0  0  0  0  0
  149.9185  141.3874  157.8509 C   0  0  0  0  0  0  0  0  0  0  0  0
  150.1532  141.5194  156.3438 C   0  0  0  0  0  0  0  0  0  0  0  0
  151.5311  140.8925  156.5702 C   0  0  0  0  0  0  0  0  0  0  0  0
  151.4859  145.8555  158.6988 H   0  0  0  0  0  0  0  0  0  0  0  0
  153.0282  145.1268  158.2488 H   0  0  0  0  0  0  0  0  0  0  0  0
  152.3730  144.8918  159.8794 H   0  0  0  0  0  0  0  0  0  0  0  0
  153.1790  142.7126  158.0606 H   0  0  0  0  0  0  0  0  0  0  0  0
  153.1023  142.2265  160.4716 H   0  0  0  0  0  0  0  0  0  0  0  0
  151.3071  142.3073  160.4866 H   0  0  0  0  0  0  0  0  0  0  0  0
  151.3450  140.0081  159.7959 H   0  0  0  0  0  0  0  0  0  0  0  0
  155.0276  139.1791  160.0911 H   0  0  0  0  0  0  0  0  0  0  0  0
  153.6594  139.6490  161.1018 H   0  0  0  0  0  0  0  0  0  0  0  0
  154.7214  140.8779  160.4074 H   0  0  0  0  0  0  0  0  0  0  0  0
  155.6340  136.8558  157.0784 H   0  0  0  0  0  0  0  0  0  0  0  0
  149.2287  137.0353  157.7253 H   0  0  0  0  0  0  0  0  0  0  0  0
  150.8764  135.2702  155.3897 H   0  0  0  0  0  0  0  0  0  0  0  0
  151.6545  134.3547  156.6605 H   0  0  0  0  0  0  0  0  0  0  0  0
  148.7067  135.2082  156.6014 H   0  0  0  0  0  0  0  0  0  0  0  0
  148.8588  133.6811  158.5170 H   0  0  0  0  0  0  0  0  0  0  0  0
  148.2362  132.7616  156.5668 H   0  0  0  0  0  0  0  0  0  0  0  0
  148.3463  133.4805  154.2514 H   0  0  0  0  0  0  0  0  0  0  0  0
  150.0904  133.7513  154.3575 H   0  0  0  0  0  0  0  0  0  0  0  0
  148.6442  131.0860  154.5225 H   0  0  0  0  0  0  0  0  0  0  0  0
  149.9760  131.5052  153.4365 H   0  0  0  0  0  0  0  0  0  0  0  0
  150.4644  130.2758  155.8434 H   0  0  0  0  0  0  0  0  0  0  0  0
  151.5538  131.5324  155.2521 H   0  0  0  0  0  0  0  0  0  0  0  0
  149.4523  140.4378  158.1187 H   0  0  0  0  0  0  0  0  0  0  0  0
  149.3987  142.2282  158.3107 H   0  0  0  0  0  0  0  0  0  0  0  0
  149.4786  140.9305  155.7219 H   0  0  0  0  0  0  0  0  0  0  0  0
  150.2096  142.5580  156.0135 H   0  0  0  0  0  0  0  0  0  0  0  0
  152.3379  141.3375  155.9873 H   0  0  0  0  0  0  0  0  0  0  0  0
  151.4951  139.8102  156.4489 H   0  0  0  0  0  0  0  0  0  0  0  0
  1  2  1  0  0  0  0
  1 29  1  0  0  0  0
  1 30  1  0  0  0  0
  1 31  1  0  0  0  0
  2  3  1  0  0  0  0
  3 25  1  0  0  0  0
  3  4  1  0  0  0  0
  3 32  1  0  0  0  0
  4  5  1  0  0  0  0
  4 33  1  0  0  0  0
  4 34  1  0  0  0  0
  5  6  1  0  0  0  0
  5 25  1  0  0  0  0
  5 35  1  0  0  0  0
  6  7  1  0  0  0  0
  6  8  1  0  0  0  0
  7 36  1  0  0  0  0
  7 37  1  0  0  0  0
  7 38  1  0  0  0  0
  8 13  1  0  0  0  0
  8  9  2  0  0  0  0
  9 10  1  0  0  0  0
 10 11  2  0  0  0  0
 10 39  1  0  0  0  0
 11 12  1  0  0  0  0
 12 16  1  0  0  0  0
 12 13  2  0  0  0  0
 13 14  1  0  0  0  0
 14 15  2  0  0  0  0
 15 16  1  0  0  0  0
 15 40  1  0  0  0  0
 16 17  1  0  0  0  0
 17 18  1  0  0  0  0
 17 41  1  0  0  0  0
 17 42  1  0  0  0  0
 18 19  1  0  0  0  0
 18 20  1  0  0  0  0
 18 43  1  0  0  0  0
 19 44  1  0  0  0  0
 20 24  1  0  0  0  0
 20 21  1  0  0  0  0
 20 45  1  0  0  0  0
 21 22  1  0  0  0  0
 21 46  1  0  0  0  0
 21 47  1  0  0  0  0
 22 23  1  0  0  0  0
 22 48  1  0  0  0  0
 22 49  1  0  0  0  0
 23 24  1  0  0  0  0
 23 50  1  0  0  0  0
 23 51  1  0  0  0  0
 25 28  1  0  0  0  0
 25 26  1  0  0  0  0
 26 27  1  0  0  0  0
 26 52  1  0  0  0  0
 26 53  1  0  0  0  0
 27 28  1  0  0  0  0
 27 54  1  0  0  0  0
 27 55  1  0  0  0  0
 28 56  1  0  0  0  0
 28 57  1  0  0  0  0
M  END
> <s_m_source_file>
AV-unprocessed.smi

> <i_m_source_file_index>
276

> <i_lp_mmshare_version>
43012

> <i_f3d_flags>
0

> <s_epik_input>
W0NIMl0xW0NIMl1bQ0gyXUMxMltDQEhdKE9bQ0gzXSlbQ0gyXVtDQEhdMk4oW0NIM10pYyhuW2NIXW4zKWMoYzM0KW5bY0hdbjRbQ0gyXVtDQEhdKFtPSF0pW0NAQEhdNVtDSDJdW0NIMl1bQ0gyXU81

> <s_epik_cmdline>
J2VwaWtfcHl0aG9uJywgJy1waCcsICc3LjAnLCAnLXRuJywgJzgnLCAnLW1hJywgJzIwMCcsICctbWV0YWxfYmluZGluZycsICctaW1hZScsICc8aW5maWxlLm1hZT4nLCAnLW9tYWUnLCAnPG91dGZpbGUubWFlPic=

> <r_lp_tautomer_probability>
1

> <r_epik_Ionization_Penalty>
0.00204117

> <r_epik_Ionization_Penalty_Charging>
0

> <r_epik_Ionization_Penalty_Neutral>
0.00204117

> <r_epik_State_Penalty>
0.00127401

> <r_epik_Charging_Adjusted_Penalty>
0.00127401

> <i_epik_Tot_Q>
0

> <i_epik_Tot_abs_Q>
0

> <r_epik_Metal_State_Penalty>
-0

> <b_epik_Metal_Only>
0

> <s_lp_Force_Field>
OPLS_2005

> <r_lp_Energy>
57.2167

> <b_lp_Chiralities_Consistent>
1

> <s_lp_Variant>
AV-unprocessed.smi:276-12

> <Gold.Version>
5.8.1

> <Gold.Id.Protein>
6NUR|6NUR_protein|mol2

> <Gold.PLP.Fitness>
47.1074

> <Gold.PLP.PLP>
-40.7264

> <Gold.PLP.part.hbond>
-3.0000

> <Gold.PLP.part.metal>
0.0000

> <Gold.PLP.part.buried>
-7.0937

> <Gold.PLP.part.nonpolar>
-30.8408

> <Gold.PLP.part.repulsive>
0.0903

> <Gold.PLP.ligand.clash>
0.0000

> <Gold.PLP.ligand.torsion>
0.8127

> <Gold.PLP.Chemscore.Hbond>
2.3892

> <Gold.PLP.Chemscore.CHOScore>
0.0000

> <Gold.PLP.Chemscore.Metal>
0.0000

> <Gold.Chemscore.Hbonds>
donor molecule, donor type, donor heavy atom, donor atom, acceptor molecule, acceptor atom, score
      P1  H  6896  6908       L1    19  0.90
      P1  H  7997  8008       L1     9  0.37
      P1  H 10752 10765       L1    11  1.00

> <Gold.PLP.Chemscore.Internal.Correction>
0.8387

> <Gold.Rescore>
     Score         DG    S(hbond)    S(metal)    S(lipo)     H(rot)  DE(clash)    DE(int)     intcor
     13.87     -16.05       1.68        0.00     101.97       2.72       0.01       2.17       ----

> <Gold.Chemscore.Fitness>
13.8720

> <Gold.Chemscore.DG>
-16.0527

> <Gold.Chemscore.ZeroCoef>
-5.4800

> <Gold.Chemscore.Hbond>
1.6760

> <Gold.Chemscore.Metal>
0.0000

> <Gold.Chemscore.Lipo>
101.9735

> <Gold.Chemscore.Internal_Hbond>
0.0000

> <Gold.Chemscore.DEClash>
0.0126

> <Gold.Chemscore.DEInternal>
2.1681

> <Gold.Chemscore.Rot>
2.7172

> <Gold.Chemscore.Internal.Correction>
   9.000000E+99

> <Gold.Chemscore.Hbonds>
donor molecule, donor type, donor heavy atom, donor atom, acceptor molecule, acceptor atom, score
      P1  H  6896  6908       L1    19  0.17
      P1  H  7997  8008       L1     9  0.01
      P1  H 10752 10765       L1    11  0.93

> <Gold.Chemscore.Hbond.Weighted>
-5.5978

> <Gold.Chemscore.Metal.Weighted>
-0.0000

> <Gold.Chemscore.Lipo.Weighted>
-11.9309

> <Gold.Chemscore.Internal_Hbond.Weighted>
0.0000

> <Gold.Chemscore.DEClash.Weighted>
0.0126

> <Gold.Chemscore.DEInternal.Weighted>
2.1681

> <Gold.Chemscore.Rot.Weighted>
6.9560

> <Gold.Chemscore.Internal.Correction.Weighted>
   9.000000E+99

> <Gold.Protein.RotatedTorsions>
[ 6907 6896 6895 6894 ] final  126.16 input  -60.11 | X-H torsion
[ 7974 7965 7964 7962 ] final    2.73 input  175.53 | X-H torsion
[ 8008 7997 7996 7995 ] final -110.53 input   59.86 | X-H torsion
[ 10167 10162 10161 10158 ] final   85.02 input  -65.29 | X-H torsion
[ 10718 10713 10712 10709 ] final    1.09 input   66.30 | X-H torsion
[ 10763 10752 10751 10750 ] final -111.31 input  -60.55 | X-H torsion
[ 11005 11000 10999 10996 ] final   84.14 input  -57.11 | X-H torsion

> <Gold.Protein.ActiveResidues>
 VAL166  LYS551  ARG553  GLY616  TRP617  ASP618  TYR619  PRO620  LYS621  CYS622 
 ASP623  PHE694  ASN695  SER759  ASP760  ASP761  ALA762  ILE779  LEU786  VAL792 
 PHE793  MET794  SER795  GLU796  ALA797  LYS798  CYS799  TRP800  GLU811  SER814 

> <Gold.Protein.RotatedAtoms>
  152.3928  133.6703  159.6251 H   0  0  0  0  0  0  0  0  0  0  0  0  # atno 6907 bound_to 6896
  150.7833  133.8925  159.3326 H   0  0  0  0  0  0  0  0  0  0  0  0  # atno 6908 bound_to 6896
  151.6708  135.0978  160.0249 H   0  0  0  0  0  0  0  0  0  0  0  0  # atno 6909 bound_to 6896
  146.2444  140.0792  142.8358 H   0  0  0  0  0  0  0  0  0  0  0  0  # atno 7974 bound_to 7965
  154.9760  140.0397  157.2256 H   0  0  0  0  0  0  0  0  0  0  0  0  # atno 8008 bound_to 7997
  154.7758  140.2810  155.6080 H   0  0  0  0  0  0  0  0  0  0  0  0  # atno 8009 bound_to 7997
  156.2928  140.2601  156.2571 H   0  0  0  0  0  0  0  0  0  0  0  0  # atno 8010 bound_to 7997
  139.9021  144.6323  150.8626 H   0  0  0  0  0  0  0  0  0  0  0  0  # atno 10167 bound_to 10162
  156.8430  130.5527  149.5676 H   0  0  0  0  0  0  0  0  0  0  0  0  # atno 10718 bound_to 10713
  154.8293  135.4532  154.1019 H   0  0  0  0  0  0  0  0  0  0  0  0  # atno 10763 bound_to 10752
  153.2305  135.6905  153.7901 H   0  0  0  0  0  0  0  0  0  0  0  0  # atno 10764 bound_to 10752
  153.7285  135.3330  155.3257 H   0  0  0  0  0  0  0  0  0  0  0  0  # atno 10765 bound_to 10752
  139.9009  134.8195  156.2404 H   0  0  0  0  0  0  0  0  0  0  0  0  # atno 11005 bound_to 11000
  145.0748  140.9180  143.4860 LP  0  0  0  0  0  0  0  0  0  0  0  0  # atno 17320 bound_to 7965
  145.0933  139.2874  143.5724 LP  0  0  0  0  0  0  0  0  0  0  0  0  # atno 17321 bound_to 7965
  140.7704  143.3429  151.2170 LP  0  0  0  0  0  0  0  0  0  0  0  0  # atno 17342 bound_to 10162
  139.7016  143.9523  152.2908 LP  0  0  0  0  0  0  0  0  0  0  0  0  # atno 17343 bound_to 10162
  156.0870  130.5866  150.9665 LP  0  0  0  0  0  0  0  0  0  0  0  0  # atno 17370 bound_to 10713
  157.6345  131.0917  150.8376 LP  0  0  0  0  0  0  0  0  0  0  0  0  # atno 17371 bound_to 10713
  141.0288  133.7000  156.1394 LP  0  0  0  0  0  0  0  0  0  0  0  0  # atno 17394 bound_to 11000
  140.7126  134.4445  157.5580 LP  0  0  0  0  0  0  0  0  0  0  0  0  # atno 17395 bound_to 11000

$$$$
