AV-unprocessed.smi:12|AV-procd|sdf|65|dock6
  -GOLD-   2262015183D 1   1.00000     0.00000
 Structure written by MMmdl.
 41 44  0  0  0  0  0  0  0  0  1 V2000
  146.1646  137.0028  151.2222 C   0  0  0  0  0  0  0  0  0  0  0  0
  146.1084  137.9219  152.4294 C   0  0  0  0  0  0  0  0  0  0  0  0
  146.8866  139.0261  152.5196 C   0  0  0  0  0  0  0  0  0  0  0  0
  146.8022  139.8176  153.6307 N   0  0  0  0  0  0  0  0  0  0  0  0
  145.8897  139.4878  154.6586 C   0  0  0  0  0  0  0  0  0  0  0  0
  145.1113  138.4507  154.6450 N   0  0  0  0  0  0  0  0  0  0  0  0
  145.1726  137.5890  153.5328 C   0  0  0  0  0  0  0  0  0  0  0  0
  144.4616  136.5864  153.4803 O   0  0  0  0  0  0  0  0  0  0  0  0
  145.9597  140.4350  155.6356 O   0  0  0  0  0  0  0  0  0  0  0  0
  146.9531  141.4096  155.2859 C   0  0  1  0  0  0  0  0  0  0  0  0
  148.1740  141.3953  156.2102 C   0  0  1  0  0  0  0  0  0  0  0  0
  148.2453  140.2112  156.9857 O   0  0  0  0  0  0  0  0  0  0  0  0
  149.3476  141.4672  155.2216 C   0  0  1  0  0  0  0  0  0  0  0  0
  150.7010  140.9235  155.7060 C   0  0  0  0  0  0  0  0  0  0  0  0
  151.0992  141.6145  156.8792 O   0  0  0  0  0  0  0  0  0  0  0  0
  152.0029  141.0604  157.7114 C   0  0  0  0  0  0  0  0  0  0  0  0
  152.5542  139.9789  157.4970 O   0  0  0  0  0  0  0  0  0  0  0  0
  152.2695  141.8933  158.9196 C   0  0  0  0  0  0  0  0  0  0  0  0
  152.8866  141.3005  160.0460 C   0  0  0  0  0  0  0  0  0  0  0  0
  153.1556  142.0611  161.2004 C   0  0  0  0  0  0  0  0  0  0  0  0
  152.8099  143.4243  161.2429 C   0  0  0  0  0  0  0  0  0  0  0  0
  152.1945  144.0256  160.1296 C   0  0  0  0  0  0  0  0  0  0  0  0
  151.9246  143.2665  158.9740 C   0  0  0  0  0  0  0  0  0  0  0  0
  148.8820  140.7418  154.0930 O   0  0  0  0  0  0  0  0  0  0  0  0
  147.5380  141.0509  153.9078 C   0  0  1  0  0  0  0  0  0  0  0  0
  146.8861  137.3589  150.4863 H   0  0  0  0  0  0  0  0  0  0  0  0
  145.1892  136.9474  150.7379 H   0  0  0  0  0  0  0  0  0  0  0  0
  146.4587  135.9964  151.5221 H   0  0  0  0  0  0  0  0  0  0  0  0
  147.5760  139.2882  151.7302 H   0  0  0  0  0  0  0  0  0  0  0  0
  146.5116  142.4051  155.2266 H   0  0  0  0  0  0  0  0  0  0  0  0
  148.1729  142.2472  156.8908 H   0  0  0  0  0  0  0  0  0  0  0  0
  147.4029  139.7834  156.9610 H   0  0  0  0  0  0  0  0  0  0  0  0
  149.4762  142.5038  154.9037 H   0  0  0  0  0  0  0  0  0  0  0  0
  150.6463  139.8504  155.8931 H   0  0  0  0  0  0  0  0  0  0  0  0
  151.4536  141.0755  154.9311 H   0  0  0  0  0  0  0  0  0  0  0  0
  153.1616  140.2556  160.0365 H   0  0  0  0  0  0  0  0  0  0  0  0
  153.6286  141.5979  162.0537 H   0  0  0  0  0  0  0  0  0  0  0  0
  153.0169  144.0078  162.1279 H   0  0  0  0  0  0  0  0  0  0  0  0
  151.9296  145.0721  160.1613 H   0  0  0  0  0  0  0  0  0  0  0  0
  151.4513  143.7592  158.1371 H   0  0  0  0  0  0  0  0  0  0  0  0
  147.3147  141.7443  153.0963 H   0  0  0  0  0  0  0  0  0  0  0  0
  1  2  1  0  0  0  0
  1 26  1  0  0  0  0
  1 27  1  0  0  0  0
  1 28  1  0  0  0  0
  2  7  1  0  0  0  0
  2  3  2  0  0  0  0
  3  4  1  0  0  0  0
  3 29  1  0  0  0  0
  4 25  1  0  0  0  0
  4  5  1  0  0  0  0
  5  6  2  0  0  0  0
  5  9  1  0  0  0  0
  6  7  1  0  0  0  0
  7  8  2  0  0  0  0
  9 10  1  0  0  0  0
 10 25  1  0  0  0  0
 10 11  1  0  0  0  0
 10 30  1  0  0  0  0
 11 12  1  0  0  0  0
 11 13  1  0  0  0  0
 11 31  1  0  0  0  0
 12 32  1  0  0  0  0
 13 14  1  0  0  0  0
 13 24  1  0  0  0  0
 13 33  1  0  0  0  0
 14 15  1  0  0  0  0
 14 34  1  0  0  0  0
 14 35  1  0  0  0  0
 15 16  1  0  0  0  0
 16 17  2  0  0  0  0
 16 18  1  0  0  0  0
 18 23  1  0  0  0  0
 18 19  2  0  0  0  0
 19 20  1  0  0  0  0
 19 36  1  0  0  0  0
 20 21  2  0  0  0  0
 20 37  1  0  0  0  0
 21 22  1  0  0  0  0
 21 38  1  0  0  0  0
 22 23  2  0  0  0  0
 22 39  1  0  0  0  0
 23 40  1  0  0  0  0
 24 25  1  0  0  0  0
 25 41  1  0  0  0  0
M  END
> <s_m_source_file>
AV-unprocessed.smi

> <i_m_source_file_index>
12

> <i_lp_mmshare_version>
43012

> <i_f3d_flags>
0

> <s_epik_input>
W0NIM11jKFtjSF0xKWMoPU8pbmMobjEyKU9bQ0BIXTNbQ0BASF0yT1tDQEBIXShbQ0BASF0zW09IXSlbQ0gyXU9DKD1PKWM0W2NIXVtjSF1bY0hdW2NIXVtjSF00

> <s_epik_cmdline>
J2VwaWtfcHl0aG9uJywgJy1waCcsICc3LjAnLCAnLXRuJywgJzgnLCAnLW1hJywgJzIwMCcsICctbWV0YWxfYmluZGluZycsICctaW1hZScsICc8aW5maWxlLm1hZT4nLCAnLW9tYWUnLCAnPG91dGZpbGUubWFlPic=

> <r_lp_tautomer_probability>
0.933681

> <r_epik_Ionization_Penalty>
0.00399549

> <r_epik_Ionization_Penalty_Charging>
3.09373e-09

> <r_epik_Ionization_Penalty_Neutral>
0.00399549

> <r_epik_State_Penalty>
0.00284953

> <r_epik_Charging_Adjusted_Penalty>
0.00284953

> <i_epik_Tot_Q>
0

> <i_epik_Tot_abs_Q>
0

> <r_epik_Metal_State_Penalty>
-0

> <b_epik_Metal_Only>
0

> <s_epik_Chemistry_Notes>
This compound has an ester and may undergo hydrolysis at high or low pH. This compound contains an acetal/aminal-like group ( X-CH(R)-Y where X, Y are N, S, or O) that may be acid/base labile, releasing an aldehyde.

> <s_lp_Force_Field>
OPLS_2005

> <r_lp_Energy>
52.4365

> <b_lp_Chiralities_Consistent>
1

> <s_lp_Variant>
AV-unprocessed.smi:12-5

> <Gold.Version>
5.8.1

> <Gold.Id.Protein>
6NUR|6NUR_protein|mol2

> <Gold.PLP.Fitness>
46.1471

> <Gold.PLP.PLP>
-40.6411

> <Gold.PLP.part.hbond>
-1.0000

> <Gold.PLP.part.metal>
0.0000

> <Gold.PLP.part.buried>
-2.1378

> <Gold.PLP.part.nonpolar>
-39.1877

> <Gold.PLP.part.repulsive>
0.6374

> <Gold.PLP.ligand.clash>
0.0000

> <Gold.PLP.ligand.torsion>
0.2491

> <Gold.PLP.Chemscore.Hbond>
1.0000

> <Gold.PLP.Chemscore.CHOScore>
1.0000

> <Gold.PLP.Chemscore.Metal>
0.0000

> <Gold.Chemscore.Hbonds>
donor molecule, donor type, donor heavy atom, donor atom, acceptor molecule, acceptor atom, score
      P1  H  7997  8010       L1    17  1.00
      L1  C     3    29       P1  7957  1.00

> <Gold.PLP.Chemscore.Internal.Correction>
0.0042

> <Gold.Rescore>
     Score         DG    S(hbond)    S(metal)    S(lipo)     H(rot)  DE(clash)    DE(int)     intcor
     14.98     -15.93       0.95        0.00     110.00       2.18       0.82       0.13       ----

> <Gold.Chemscore.Fitness>
14.9755

> <Gold.Chemscore.DG>
-15.9340

> <Gold.Chemscore.ZeroCoef>
-5.4800

> <Gold.Chemscore.Hbond>
0.9474

> <Gold.Chemscore.Metal>
0.0000

> <Gold.Chemscore.Lipo>
110.0022

> <Gold.Chemscore.Internal_Hbond>
0.0000

> <Gold.Chemscore.DEClash>
0.8236

> <Gold.Chemscore.DEInternal>
0.1349

> <Gold.Chemscore.Rot>
2.1800

> <Gold.Chemscore.Internal.Correction>
   9.000000E+99

> <Gold.Chemscore.Hbonds>
donor molecule, donor type, donor heavy atom, donor atom, acceptor molecule, acceptor atom, score
      P1  H  7997  8010       L1    17  0.88

> <Gold.Chemscore.Hbond.Weighted>
-3.1645

> <Gold.Chemscore.Metal.Weighted>
-0.0000

> <Gold.Chemscore.Lipo.Weighted>
-12.8703

> <Gold.Chemscore.Internal_Hbond.Weighted>
0.0000

> <Gold.Chemscore.DEClash.Weighted>
0.8236

> <Gold.Chemscore.DEInternal.Weighted>
0.1349

> <Gold.Chemscore.Rot.Weighted>
5.5807

> <Gold.Chemscore.Internal.Correction.Weighted>
   9.000000E+99

> <Gold.Protein.RotatedTorsions>
[ 6907 6896 6895 6894 ] final -164.54 input  -60.11 | X-H torsion
[ 7974 7965 7964 7962 ] final  151.94 input  175.53 | X-H torsion
[ 8008 7997 7996 7995 ] final   53.48 input   59.86 | X-H torsion
[ 10167 10162 10161 10158 ] final   67.30 input  -65.29 | X-H torsion
[ 10718 10713 10712 10709 ] final  133.89 input   66.30 | X-H torsion
[ 10763 10752 10751 10750 ] final -148.01 input  -60.55 | X-H torsion
[ 11005 11000 10999 10996 ] final  169.60 input  -57.11 | X-H torsion

> <Gold.Protein.ActiveResidues>
 VAL166  LYS551  ARG553  GLY616  TRP617  ASP618  TYR619  PRO620  LYS621  CYS622 
 ASP623  PHE694  ASN695  SER759  ASP760  ASP761  ALA762  ILE779  LEU786  VAL792 
 PHE793  MET794  SER795  GLU796  ALA797  LYS798  CYS799  TRP800  GLU811  SER814 

> <Gold.Protein.RotatedAtoms>
  151.4134  133.3720  159.2746 H   0  0  0  0  0  0  0  0  0  0  0  0  # atno 6907 bound_to 6896
  150.9346  134.8760  159.7584 H   0  0  0  0  0  0  0  0  0  0  0  0  # atno 6908 bound_to 6896
  152.5044  134.4081  159.9491 H   0  0  0  0  0  0  0  0  0  0  0  0  # atno 6909 bound_to 6896
  144.8257  139.6604  143.6081 H   0  0  0  0  0  0  0  0  0  0  0  0  # atno 7974 bound_to 7965
  155.4690  140.3464  155.4323 H   0  0  0  0  0  0  0  0  0  0  0  0  # atno 8008 bound_to 7997
  156.1112  140.1461  156.9364 H   0  0  0  0  0  0  0  0  0  0  0  0  # atno 8009 bound_to 7997
  154.4758  140.0885  156.7236 H   0  0  0  0  0  0  0  0  0  0  0  0  # atno 8010 bound_to 7997
  140.0910  144.4988  150.7098 H   0  0  0  0  0  0  0  0  0  0  0  0  # atno 10167 bound_to 10162
  157.4727  131.1081  150.9782 H   0  0  0  0  0  0  0  0  0  0  0  0  # atno 10718 bound_to 10713
  154.8256  135.3345  154.6907 H   0  0  0  0  0  0  0  0  0  0  0  0  # atno 10763 bound_to 10752
  153.7534  135.6937  153.4945 H   0  0  0  0  0  0  0  0  0  0  0  0  # atno 10764 bound_to 10752
  153.2161  135.4465  155.0385 H   0  0  0  0  0  0  0  0  0  0  0  0  # atno 10765 bound_to 10752
  140.2995  134.7607  157.3904 H   0  0  0  0  0  0  0  0  0  0  0  0  # atno 11005 bound_to 11000
  146.2562  139.6307  142.9393 LP  0  0  0  0  0  0  0  0  0  0  0  0  # atno 17320 bound_to 7965
  145.5006  141.0437  143.2542 LP  0  0  0  0  0  0  0  0  0  0  0  0  # atno 17321 bound_to 7965
  140.7028  143.2447  151.4814 LP  0  0  0  0  0  0  0  0  0  0  0  0  # atno 17342 bound_to 10162
  139.5724  144.1896  152.1856 LP  0  0  0  0  0  0  0  0  0  0  0  0  # atno 17343 bound_to 10162
  157.0541  130.5799  149.5375 LP  0  0  0  0  0  0  0  0  0  0  0  0  # atno 17370 bound_to 10713
  156.0081  130.5170  150.7899 LP  0  0  0  0  0  0  0  0  0  0  0  0  # atno 17371 bound_to 10713
  140.1122  134.5330  155.8256 LP  0  0  0  0  0  0  0  0  0  0  0  0  # atno 17394 bound_to 11000
  141.2131  133.6728  156.6711 LP  0  0  0  0  0  0  0  0  0  0  0  0  # atno 17395 bound_to 11000

$$$$
