AV-unprocessed.smi:1464|AV-procd|sdf|5948|dock7
  -GOLD-   22720 6 33D 1   1.00000     0.00000
 Structure written by MMmdl.
 41 42  0  0  0  0  0  0  0  0  1 V2000
  152.7559  144.4236  159.3714 C   0  0  0  0  0  0  0  0  0  0  0  0
  152.5263  143.0817  158.6510 C   0  0  1  0  0  0  0  0  0  0  0  0
  152.0381  142.0299  159.6669 C   0  0  0  0  0  0  0  0  0  0  0  0
  151.8249  140.6606  159.0130 C   0  0  0  0  0  0  0  0  0  0  0  0
  150.8293  140.7660  157.8545 C   0  0  0  0  0  0  0  0  0  0  0  0
  151.2889  141.8009  156.8090 C   0  0  1  0  0  0  0  0  0  0  0  0
  150.2793  141.8972  155.7559 N   0  0  0  0  0  0  0  0  0  0  0  0
  149.9576  140.9227  154.8915 C   0  0  0  0  0  0  0  0  0  0  0  0
  150.5026  139.8180  154.8848 O   0  0  0  0  0  0  0  0  0  0  0  0
  148.8621  141.2678  153.8721 C   0  0  0  0  0  0  0  0  0  0  0  0
  147.7752  140.2791  153.8213 N   0  0  0  0  0  0  0  0  0  0  0  0
  147.6848  139.5977  152.6169 N   0  0  0  0  0  0  0  0  0  0  0  0
  146.7757  138.6972  152.4523 C   0  0  0  0  0  0  0  0  0  0  0  0
  146.7230  138.0459  151.2445 O   0  0  0  0  0  0  0  0  0  0  0  0
  145.8369  138.3796  153.5059 C   0  0  0  0  0  0  0  0  0  0  0  0
  145.9296  139.0523  154.6739 C   0  0  0  0  0  0  0  0  0  0  0  0
  146.9476  140.0815  154.8935 C   0  0  0  0  0  0  0  0  0  0  0  0
  147.0520  140.7131  155.9448 O   0  0  0  0  0  0  0  0  0  0  0  0
  151.5489  143.1936  157.4461 C   0  0  2  0  0  0  0  0  0  0  0  0
  152.0505  144.2011  156.3878 C   0  0  0  0  0  0  0  0  0  0  0  0
  145.9229  138.3391  150.8363 H   0  0  0  0  0  0  0  0  0  0  0  0
  151.8140  144.8646  159.6989 H   0  0  0  0  0  0  0  0  0  0  0  0
  153.2636  145.1466  158.7338 H   0  0  0  0  0  0  0  0  0  0  0  0
  153.3827  144.2914  160.2538 H   0  0  0  0  0  0  0  0  0  0  0  0
  153.4925  142.7462  158.2707 H   0  0  0  0  0  0  0  0  0  0  0  0
  152.7599  141.9308  160.4785 H   0  0  0  0  0  0  0  0  0  0  0  0
  151.1056  142.3637  160.1244 H   0  0  0  0  0  0  0  0  0  0  0  0
  152.7766  140.2707  158.6493 H   0  0  0  0  0  0  0  0  0  0  0  0
  151.4594  139.9479  159.7530 H   0  0  0  0  0  0  0  0  0  0  0  0
  150.7111  139.7868  157.3886 H   0  0  0  0  0  0  0  0  0  0  0  0
  149.8485  141.0425  158.2441 H   0  0  0  0  0  0  0  0  0  0  0  0
  152.2281  141.4551  156.3723 H   0  0  0  0  0  0  0  0  0  0  0  0
  149.7834  142.7739  155.6843 H   0  0  0  0  0  0  0  0  0  0  0  0
  148.4535  142.2551  154.0963 H   0  0  0  0  0  0  0  0  0  0  0  0
  149.3331  141.3622  152.8919 H   0  0  0  0  0  0  0  0  0  0  0  0
  145.0832  137.6214  153.3525 H   0  0  0  0  0  0  0  0  0  0  0  0
  145.2351  138.8256  155.4694 H   0  0  0  0  0  0  0  0  0  0  0  0
  150.5965  143.5667  157.8268 H   0  0  0  0  0  0  0  0  0  0  0  0
  153.0291  143.9135  156.0027 H   0  0  0  0  0  0  0  0  0  0  0  0
  152.1331  145.2085  156.7937 H   0  0  0  0  0  0  0  0  0  0  0  0
  151.3711  144.2721  155.5387 H   0  0  0  0  0  0  0  0  0  0  0  0
  1  2  1  0  0  0  0
  1 22  1  0  0  0  0
  1 23  1  0  0  0  0
  1 24  1  0  0  0  0
  2 19  1  0  0  0  0
  2  3  1  0  0  0  0
  2 25  1  0  0  0  0
  3  4  1  0  0  0  0
  3 26  1  0  0  0  0
  3 27  1  0  0  0  0
  4  5  1  0  0  0  0
  4 28  1  0  0  0  0
  4 29  1  0  0  0  0
  5  6  1  0  0  0  0
  5 30  1  0  0  0  0
  5 31  1  0  0  0  0
  6  7  1  0  0  0  0
  6 19  1  0  0  0  0
  6 32  1  0  0  0  0
  7  8  1  0  0  0  0
  7 33  1  0  0  0  0
  8  9  2  0  0  0  0
  8 10  1  0  0  0  0
 10 34  1  0  0  0  0
 10 35  1  0  0  0  0
 10 11  1  0  0  0  0
 11 12  1  0  0  0  0
 11 17  1  0  0  0  0
 12 13  2  0  0  0  0
 13 14  1  0  0  0  0
 13 15  1  0  0  0  0
 14 21  1  0  0  0  0
 15 36  1  0  0  0  0
 15 16  2  0  0  0  0
 16 37  1  0  0  0  0
 16 17  1  0  0  0  0
 17 18  2  0  0  0  0
 19 20  1  0  0  0  0
 19 38  1  0  0  0  0
 20 39  1  0  0  0  0
 20 40  1  0  0  0  0
 20 41  1  0  0  0  0
M  END
> <s_m_source_file>
AV-unprocessed.smi

> <i_m_source_file_index>
1464

> <i_lp_mmshare_version>
43012

> <i_f3d_flags>
0

> <s_epik_input>
W0NIM11bQ0BASF0xW0NIMl1bQ0gyXVtDSDJdW0NASF0oW0NASF0xW0NIM10pW05IXUMoPU8pW0NIMl1uMltuSF1jKD1PKVtjSF1bY0hdYzI9Tw==

> <s_epik_cmdline>
J2VwaWtfcHl0aG9uJywgJy1waCcsICc3LjAnLCAnLXRuJywgJzgnLCAnLW1hJywgJzIwMCcsICctbWV0YWxfYmluZGluZycsICctaW1hZScsICc8aW5maWxlLm1hZT4nLCAnLW9tYWUnLCAnPG91dGZpbGUubWFlPic=

> <r_lp_tautomer_probability>
0.9996

> <r_epik_Ionization_Penalty>
2.10335

> <r_epik_Ionization_Penalty_Charging>
3.98079e-08

> <r_epik_Ionization_Penalty_Neutral>
2.10335

> <r_epik_State_Penalty>
1.67957

> <r_epik_Charging_Adjusted_Penalty>
1.67957

> <i_epik_Tot_Q>
0

> <i_epik_Tot_abs_Q>
0

> <r_epik_Metal_State_Penalty>
1.67957

> <b_epik_Metal_Only>
0

> <s_lp_Force_Field>
OPLS_2005

> <r_lp_Energy>
24.139

> <b_lp_Chiralities_Consistent>
1

> <s_lp_Variant>
AV-unprocessed.smi:1464-14

> <Gold.Version>
5.8.1

> <Gold.Id.Protein>
6NUR|6NUR_protein|mol2

> <Gold.PLP.Fitness>
46.5341

> <Gold.PLP.PLP>
-35.3819

> <Gold.PLP.part.hbond>
-4.1003

> <Gold.PLP.part.metal>
0.0000

> <Gold.PLP.part.buried>
-2.8519

> <Gold.PLP.part.nonpolar>
-32.0435

> <Gold.PLP.part.repulsive>
3.9541

> <Gold.PLP.ligand.clash>
0.0000

> <Gold.PLP.ligand.torsion>
0.1529

> <Gold.PLP.Chemscore.Hbond>
3.8169

> <Gold.PLP.Chemscore.CHOScore>
0.0000

> <Gold.PLP.Chemscore.Metal>
0.0000

> <Gold.Chemscore.Hbonds>
donor molecule, donor type, donor heavy atom, donor atom, acceptor molecule, acceptor atom, score
      L1  H     7    33       P1  8028  0.71
      L1  H    14    21       P1 10171  0.34
      P1  H  7954  7966       L1    14  1.00

> <Gold.PLP.Chemscore.Internal.Correction>
0.0073

> <Gold.Rescore>
     Score         DG    S(hbond)    S(metal)    S(lipo)     H(rot)  DE(clash)    DE(int)     intcor
     17.90     -21.67       3.36        0.00      91.16       2.22       3.40       0.38       ----

> <Gold.Chemscore.Fitness>
17.8968

> <Gold.Chemscore.DG>
-21.6737

> <Gold.Chemscore.ZeroCoef>
-5.4800

> <Gold.Chemscore.Hbond>
3.3586

> <Gold.Chemscore.Metal>
0.0000

> <Gold.Chemscore.Lipo>
91.1570

> <Gold.Chemscore.Internal_Hbond>
0.0000

> <Gold.Chemscore.DEClash>
3.3950

> <Gold.Chemscore.DEInternal>
0.3819

> <Gold.Chemscore.Rot>
2.2224

> <Gold.Chemscore.Internal.Correction>
   9.000000E+99

> <Gold.Chemscore.Hbonds>
donor molecule, donor type, donor heavy atom, donor atom, acceptor molecule, acceptor atom, score
      L1  H     7    33       P1  8028  0.73
      L1  H    14    21       P1 10171  0.35
      P1  H  7954  7966       L1    14  0.72

> <Gold.Chemscore.Hbond.Weighted>
-11.2177

> <Gold.Chemscore.Metal.Weighted>
-0.0000

> <Gold.Chemscore.Lipo.Weighted>
-10.6654

> <Gold.Chemscore.Internal_Hbond.Weighted>
0.0000

> <Gold.Chemscore.DEClash.Weighted>
3.3950

> <Gold.Chemscore.DEInternal.Weighted>
0.3819

> <Gold.Chemscore.Rot.Weighted>
5.6893

> <Gold.Chemscore.Internal.Correction.Weighted>
   9.000000E+99

> <Gold.Protein.RotatedTorsions>
[ 6907 6896 6895 6894 ] final   55.16 input  -60.11 | X-H torsion
[ 7974 7965 7964 7962 ] final  121.36 input  175.53 | X-H torsion
[ 8008 7997 7996 7995 ] final -138.42 input   59.86 | X-H torsion
[ 10167 10162 10161 10158 ] final -166.70 input  -65.29 | X-H torsion
[ 10718 10713 10712 10709 ] final  -90.27 input   66.30 | X-H torsion
[ 10763 10752 10751 10750 ] final  -48.14 input  -60.55 | X-H torsion
[ 11005 11000 10999 10996 ] final    9.62 input  -57.11 | X-H torsion

> <Gold.Protein.ActiveResidues>
 VAL166  LYS551  ARG553  GLY616  TRP617  ASP618  TYR619  PRO620  LYS621  CYS622 
 ASP623  PHE694  ASN695  SER759  ASP760  ASP761  ALA762  ILE779  LEU786  VAL792 
 PHE793  MET794  SER795  GLU796  ALA797  LYS798  CYS799  TRP800  GLU811  SER814 

> <Gold.Protein.RotatedAtoms>
  152.3511  134.7005  160.0235 H   0  0  0  0  0  0  0  0  0  0  0  0  # atno 6907 bound_to 6896
  151.7358  133.3314  159.3360 H   0  0  0  0  0  0  0  0  0  0  0  0  # atno 6908 bound_to 6896
  150.7540  134.6255  159.6203 H   0  0  0  0  0  0  0  0  0  0  0  0  # atno 6909 bound_to 6896
  145.1202  139.3394  143.4718 H   0  0  0  0  0  0  0  0  0  0  0  0  # atno 7974 bound_to 7965
  155.4281  140.0523  157.3020 H   0  0  0  0  0  0  0  0  0  0  0  0  # atno 8008 bound_to 7997
  154.4872  140.2105  155.9586 H   0  0  0  0  0  0  0  0  0  0  0  0  # atno 8009 bound_to 7997
  156.1292  140.3175  155.8328 H   0  0  0  0  0  0  0  0  0  0  0  0  # atno 8010 bound_to 7997
  139.6098  144.0839  152.1830 H   0  0  0  0  0  0  0  0  0  0  0  0  # atno 10167 bound_to 10162
  155.9987  130.4903  150.5298 H   0  0  0  0  0  0  0  0  0  0  0  0  # atno 10718 bound_to 10713
  154.0729  135.6602  153.4827 H   0  0  0  0  0  0  0  0  0  0  0  0  # atno 10763 bound_to 10752
  153.0384  135.5161  154.7549 H   0  0  0  0  0  0  0  0  0  0  0  0  # atno 10764 bound_to 10752
  154.6621  135.3016  154.9821 H   0  0  0  0  0  0  0  0  0  0  0  0  # atno 10765 bound_to 10752
  140.5237  134.0534  155.7852 H   0  0  0  0  0  0  0  0  0  0  0  0  # atno 11005 bound_to 11000
  146.3521  140.1158  142.8602 LP  0  0  0  0  0  0  0  0  0  0  0  0  # atno 17320 bound_to 7965
  145.0749  140.9181  143.4860 LP  0  0  0  0  0  0  0  0  0  0  0  0  # atno 17321 bound_to 7965
  140.0455  144.5974  150.7377 LP  0  0  0  0  0  0  0  0  0  0  0  0  # atno 17342 bound_to 10162
  140.7311  143.2690  151.3950 LP  0  0  0  0  0  0  0  0  0  0  0  0  # atno 17343 bound_to 10162
  157.3248  131.0688  151.1905 LP  0  0  0  0  0  0  0  0  0  0  0  0  # atno 17370 bound_to 10713
  157.2805  130.6748  149.6064 LP  0  0  0  0  0  0  0  0  0  0  0  0  # atno 17371 bound_to 10713
  141.1320  133.9286  157.2515 LP  0  0  0  0  0  0  0  0  0  0  0  0  # atno 17394 bound_to 11000
  139.9592  135.0158  156.9213 LP  0  0  0  0  0  0  0  0  0  0  0  0  # atno 17395 bound_to 11000

$$$$
