AV-unprocessed.smi:215|AV-procd|sdf|1653|dock1
  -GOLD-   2262020 43D 1   1.00000     0.00000
 Structure written by MMmdl.
 59 62  0  0  0  0  0  0  0  0  2 V2000
  147.9018  138.3462  154.9053 C   0  0  0  0  0  0  0  0  0  0  0  0
  148.4946  139.5610  154.1522 C   0  0  1  0  0  0  0  0  0  0  0  0
  147.4302  140.5099  153.5606 C   0  0  1  0  0  0  0  0  0  0  0  0
  146.3111  139.8267  152.8448 N   0  3  2  0  0  0  0  0  0  0  0  0
  145.2870  139.3064  153.7877 C   0  0  0  0  0  0  0  0  0  0  0  0
  146.7552  138.7754  151.8864 C   0  0  0  0  0  0  0  0  0  0  0  0
  145.6161  137.8175  151.4955 C   0  0  0  0  0  0  0  0  0  0  0  0
  145.8945  137.2163  150.2482 O   0  0  0  0  0  0  0  0  0  0  0  0
  147.0321  141.3478  154.7889 C   0  0  0  0  0  0  0  0  0  0  0  0
  148.3254  141.4487  155.6085 C   0  0  0  0  0  0  0  0  0  0  0  0
  149.2213  140.4344  155.0631 N   0  0  0  0  0  0  0  0  0  0  0  0
  150.3888  140.1002  155.6780 C   0  0  0  0  0  0  0  0  0  0  0  0
  151.2907  139.3617  154.9785 N   0  0  0  0  0  0  0  0  0  0  0  0
  152.4540  139.0046  155.5282 C   0  0  0  0  0  0  0  0  0  0  0  0
  152.9132  139.2709  156.7508 N   0  0  0  0  0  0  0  0  0  0  0  0
  152.0139  140.0023  157.4688 C   0  0  0  0  0  0  0  0  0  0  0  0
  150.7382  140.4524  157.0171 C   0  0  0  0  0  0  0  0  0  0  0  0
  150.1078  141.1532  158.0400 N   0  0  0  0  0  0  0  0  0  0  0  0
  150.9576  141.1243  159.0288 C   0  0  0  0  0  0  0  0  0  0  0  0
  152.1346  140.4607  158.7701 N   0  0  0  0  0  0  0  0  0  0  0  0
  153.2301  140.2711  159.6784 C   0  0  0  0  0  0  0  0  0  0  0  0
  154.2786  141.3654  159.8787 C   0  0  0  0  0  0  0  0  0  0  0  0
  155.3535  140.2807  160.1167 C   0  0  0  0  0  0  0  0  0  0  0  0
  156.7131  140.5513  159.4515 C   0  0  0  0  0  0  0  0  0  0  0  0
  157.0914  139.4828  158.6074 O   0  0  0  0  0  0  0  0  0  0  0  0
  155.5801  139.8955  161.5926 C   0  0  0  0  0  0  0  0  0  0  0  0
  155.9701  141.0132  162.3650 O   0  0  0  0  0  0  0  0  0  0  0  0
  154.4010  139.3489  159.3319 C   0  0  0  0  0  0  0  0  0  0  0  0
  149.1487  139.2227  153.3500 H   0  0  0  0  0  0  0  0  0  0  0  0
  147.9231  141.1781  152.8509 H   0  0  0  0  0  0  0  0  0  0  0  0
  147.3406  137.6912  154.2401 H   0  0  0  0  0  0  0  0  0  0  0  0
  147.2314  138.6513  155.7088 H   0  0  0  0  0  0  0  0  0  0  0  0
  148.6871  137.7384  155.3550 H   0  0  0  0  0  0  0  0  0  0  0  0
  145.7112  138.5382  154.4354 H   0  0  0  0  0  0  0  0  0  0  0  0
  144.4385  138.8713  153.2621 H   0  0  0  0  0  0  0  0  0  0  0  0
  144.8844  140.0929  154.4246 H   0  0  0  0  0  0  0  0  0  0  0  0
  147.1424  139.2048  150.9643 H   0  0  0  0  0  0  0  0  0  0  0  0
  147.5850  138.2171  152.3226 H   0  0  0  0  0  0  0  0  0  0  0  0
  145.5251  137.0267  152.2407 H   0  0  0  0  0  0  0  0  0  0  0  0
  144.6492  138.3171  151.4532 H   0  0  0  0  0  0  0  0  0  0  0  0
  145.4034  137.6662  149.5772 H   0  0  0  0  0  0  0  0  0  0  0  0
  146.6502  142.3350  154.5278 H   0  0  0  0  0  0  0  0  0  0  0  0
  146.2657  140.8343  155.3712 H   0  0  0  0  0  0  0  0  0  0  0  0
  148.7826  142.4314  155.4879 H   0  0  0  0  0  0  0  0  0  0  0  0
  148.1304  141.2885  156.6698 H   0  0  0  0  0  0  0  0  0  0  0  0
  153.1110  138.4231  154.8980 H   0  0  0  0  0  0  0  0  0  0  0  0
  150.7448  141.5879  159.9812 H   0  0  0  0  0  0  0  0  0  0  0  0
  152.8006  139.9796  160.6382 H   0  0  0  0  0  0  0  0  0  0  0  0
  154.4561  141.9484  158.9729 H   0  0  0  0  0  0  0  0  0  0  0  0
  154.0906  142.0193  160.7310 H   0  0  0  0  0  0  0  0  0  0  0  0
  156.7016  141.4751  158.8724 H   0  0  0  0  0  0  0  0  0  0  0  0
  157.4941  140.6727  160.2028 H   0  0  0  0  0  0  0  0  0  0  0  0
  156.8245  138.6716  159.0121 H   0  0  0  0  0  0  0  0  0  0  0  0
  154.6833  139.4601  162.0341 H   0  0  0  0  0  0  0  0  0  0  0  0
  156.3593  139.1390  161.6872 H   0  0  0  0  0  0  0  0  0  0  0  0
  155.3756  141.0952  163.0951 H   0  0  0  0  0  0  0  0  0  0  0  0
  154.3081  138.3390  159.7324 H   0  0  0  0  0  0  0  0  0  0  0  0
  154.6200  139.3213  158.2633 H   0  0  0  0  0  0  0  0  0  0  0  0
  145.8652  140.5408  152.2859 H   0  0  0  0  0  0  0  0  0  0  0  0
  1  2  1  0  0  0  0
  1 31  1  0  0  0  0
  1 32  1  0  0  0  0
  1 33  1  0  0  0  0
  2 29  1  0  0  0  0
  2 11  1  0  0  0  0
  2  3  1  0  0  0  0
  3 30  1  0  0  0  0
  3  4  1  0  0  0  0
  3  9  1  0  0  0  0
  4  5  1  0  0  0  0
  4  6  1  0  0  0  0
  4 59  1  0  0  0  0
  5 34  1  0  0  0  0
  5 35  1  0  0  0  0
  5 36  1  0  0  0  0
  6  7  1  0  0  0  0
  6 37  1  0  0  0  0
  6 38  1  0  0  0  0
  7  8  1  0  0  0  0
  7 39  1  0  0  0  0
  7 40  1  0  0  0  0
  8 41  1  0  0  0  0
  9 10  1  0  0  0  0
  9 42  1  0  0  0  0
  9 43  1  0  0  0  0
 10 11  1  0  0  0  0
 10 44  1  0  0  0  0
 10 45  1  0  0  0  0
 11 12  1  0  0  0  0
 12 17  1  0  0  0  0
 12 13  2  0  0  0  0
 13 14  1  0  0  0  0
 14 15  2  0  0  0  0
 14 46  1  0  0  0  0
 15 16  1  0  0  0  0
 16 20  1  0  0  0  0
 16 17  2  0  0  0  0
 17 18  1  0  0  0  0
 18 19  2  0  0  0  0
 19 20  1  0  0  0  0
 19 47  1  0  0  0  0
 20 21  1  0  0  0  0
 21 28  1  0  0  0  0
 21 22  1  0  0  0  0
 21 48  1  0  0  0  0
 22 23  1  0  0  0  0
 22 49  1  0  0  0  0
 22 50  1  0  0  0  0
 23 24  1  0  0  0  0
 23 26  1  0  0  0  0
 23 28  1  0  0  0  0
 24 25  1  0  0  0  0
 24 51  1  0  0  0  0
 24 52  1  0  0  0  0
 25 53  1  0  0  0  0
 26 27  1  0  0  0  0
 26 54  1  0  0  0  0
 26 55  1  0  0  0  0
 27 56  1  0  0  0  0
 28 57  1  0  0  0  0
 28 58  1  0  0  0  0
M  CHG  1   4   1
M  END
> <s_m_source_file>
AV-unprocessed.smi

> <i_m_source_file_index>
215

> <i_lp_mmshare_version>
43012

> <i_f3d_flags>
0

> <s_epik_input>
W09IXVtDSDJdW0NIMl1OKFtDSDNdKVtDQEBIXShbQ0BIXTFbQ0gzXSlbQ0gyXVtDSDJdTjFjKG5bY0hdbjIpYyhjMjMpbltjSF1uM1tDSF0oW0NIMl00KVtDSDJdQzQoW0NIMl1bT0hdKVtDSDJdW09IXQ==

> <s_epik_cmdline>
J2VwaWtfcHl0aG9uJywgJy1waCcsICc3LjAnLCAnLXRuJywgJzgnLCAnLW1hJywgJzIwMCcsICctbWV0YWxfYmluZGluZycsICctaW1hZScsICc8aW5maWxlLm1hZT4nLCAnLW9tYWUnLCAnPG91dGZpbGUubWFlPic=

> <r_lp_tautomer_probability>
1

> <r_epik_Ionization_Penalty>
0.0036237

> <r_epik_Ionization_Penalty_Charging>
0.0032725

> <r_epik_Ionization_Penalty_Neutral>
0.000351196

> <r_epik_State_Penalty>
-0

> <r_epik_Charging_Adjusted_Penalty>
0.0032725

> <i_epik_Tot_Q>
1

> <i_epik_Tot_abs_Q>
1

> <r_epik_Metal_State_Penalty>
-0

> <b_epik_Metal_Only>
0

> <s_lp_Force_Field>
OPLS_2005

> <r_lp_Energy>
66.6502

> <b_lp_Chiralities_Consistent>
1

> <s_lp_Variant>
AV-unprocessed.smi:215-4

> <Gold.Version>
5.8.1

> <Gold.Id.Protein>
6NUR|6NUR_protein|mol2

> <Gold.PLP.Fitness>
47.1954

> <Gold.PLP.PLP>
-38.4197

> <Gold.PLP.part.hbond>
-6.1248

> <Gold.PLP.part.metal>
0.0000

> <Gold.PLP.part.buried>
8.5192

> <Gold.PLP.part.nonpolar>
-42.0437

> <Gold.PLP.part.repulsive>
0.0775

> <Gold.PLP.ligand.clash>
0.0000

> <Gold.PLP.ligand.torsion>
2.4096

> <Gold.PLP.Chemscore.Hbond>
4.2669

> <Gold.PLP.Chemscore.CHOScore>
0.0000

> <Gold.PLP.Chemscore.Metal>
0.0000

> <Gold.Chemscore.Hbonds>
donor molecule, donor type, donor heavy atom, donor atom, acceptor molecule, acceptor atom, score
      L1  H     4    59       P1 10175  0.32
      L1  H     8    41       P1 10171  0.56
      P1  H  7954  7966       L1     8  0.11
      P1  H  7989  7998       L1    13  0.55
      P1  H  7997  8008       L1    25  0.75
      P1  H  7997  8009       L1    15  1.00

> <Gold.PLP.Chemscore.Internal.Correction>
0.7943

> <Gold.Rescore>
     Score         DG    S(hbond)    S(metal)    S(lipo)     H(rot)  DE(clash)    DE(int)     intcor
      6.04     -13.69       2.88        0.00      85.97       4.48       3.45       4.19       ----

> <Gold.Chemscore.Fitness>
6.0447

> <Gold.Chemscore.DG>
-13.6929

> <Gold.Chemscore.ZeroCoef>
-5.4800

> <Gold.Chemscore.Hbond>
2.8801

> <Gold.Chemscore.Metal>
0.0000

> <Gold.Chemscore.Lipo>
85.9747

> <Gold.Chemscore.Internal_Hbond>
0.0000

> <Gold.Chemscore.DEClash>
3.4534

> <Gold.Chemscore.DEInternal>
4.1948

> <Gold.Chemscore.Rot>
4.4787

> <Gold.Chemscore.Internal.Correction>
   9.000000E+99

> <Gold.Chemscore.Hbonds>
donor molecule, donor type, donor heavy atom, donor atom, acceptor molecule, acceptor atom, score
      L1  H     4    59       P1 10175  0.05
      L1  H     8    41       P1 10171  0.56
      P1  H  7954  7966       L1     8  0.02
      P1  H  7989  7998       L1    13  0.05
      P1  H  7997  8008       L1    25  0.09
      P1  H  7997  8009       L1    15  0.58

> <Gold.Chemscore.Hbond.Weighted>
-9.6194

> <Gold.Chemscore.Metal.Weighted>
-0.0000

> <Gold.Chemscore.Lipo.Weighted>
-10.0590

> <Gold.Chemscore.Internal_Hbond.Weighted>
0.0000

> <Gold.Chemscore.DEClash.Weighted>
3.4534

> <Gold.Chemscore.DEInternal.Weighted>
4.1948

> <Gold.Chemscore.Rot.Weighted>
11.4655

> <Gold.Chemscore.Internal.Correction.Weighted>
   9.000000E+99

> <Gold.Protein.RotatedTorsions>
[ 6907 6896 6895 6894 ] final -130.62 input  -60.11 | X-H torsion
[ 7974 7965 7964 7962 ] final  -24.82 input  175.53 | X-H torsion
[ 8008 7997 7996 7995 ] final  178.41 input   59.86 | X-H torsion
[ 10167 10162 10161 10158 ] final  132.32 input  -65.29 | X-H torsion
[ 10718 10713 10712 10709 ] final  126.11 input   66.30 | X-H torsion
[ 10763 10752 10751 10750 ] final   17.29 input  -60.55 | X-H torsion
[ 11005 11000 10999 10996 ] final -102.12 input  -57.11 | X-H torsion

> <Gold.Protein.ActiveResidues>
 VAL166  LYS551  ARG553  GLY616  TRP617  ASP618  TYR619  PRO620  LYS621  CYS622 
 ASP623  PHE694  ASN695  SER759  ASP760  ASP761  ALA762  ILE779  LEU786  VAL792 
 PHE793  MET794  SER795  GLU796  ALA797  LYS798  CYS799  TRP800  GLU811  SER814 

> <Gold.Protein.RotatedAtoms>
  150.9418  133.6648  159.2789 H   0  0  0  0  0  0  0  0  0  0  0  0  # atno 6907 bound_to 6896
  151.4035  135.0973  159.9573 H   0  0  0  0  0  0  0  0  0  0  0  0  # atno 6908 bound_to 6896
  152.5072  133.8906  159.7447 H   0  0  0  0  0  0  0  0  0  0  0  0  # atno 6909 bound_to 6896
  146.1531  140.4803  142.8603 H   0  0  0  0  0  0  0  0  0  0  0  0  # atno 7974 bound_to 7965
  156.0549  140.1334  157.0008 H   0  0  0  0  0  0  0  0  0  0  0  0  # atno 8008 bound_to 7997
  154.4453  140.1003  156.6502 H   0  0  0  0  0  0  0  0  0  0  0  0  # atno 8009 bound_to 7997
  155.5466  140.3462  155.4461 H   0  0  0  0  0  0  0  0  0  0  0  0  # atno 8010 bound_to 7997
  139.5344  144.6667  151.4835 H   0  0  0  0  0  0  0  0  0  0  0  0  # atno 10167 bound_to 10162
  157.5447  131.1096  150.8802 H   0  0  0  0  0  0  0  0  0  0  0  0  # atno 10718 bound_to 10713
  153.1352  135.6748  153.9114 H   0  0  0  0  0  0  0  0  0  0  0  0  # atno 10763 bound_to 10752
  153.8588  135.3084  155.3438 H   0  0  0  0  0  0  0  0  0  0  0  0  # atno 10764 bound_to 10752
  154.7741  135.4923  153.9792 H   0  0  0  0  0  0  0  0  0  0  0  0  # atno 10765 bound_to 10752
  141.1202  133.8533  157.1319 H   0  0  0  0  0  0  0  0  0  0  0  0  # atno 11005 bound_to 11000
  144.7928  140.6066  143.6530 LP  0  0  0  0  0  0  0  0  0  0  0  0  # atno 17320 bound_to 7965
  145.4775  139.1498  143.3780 LP  0  0  0  0  0  0  0  0  0  0  0  0  # atno 17321 bound_to 7965
  140.6543  143.8632  150.6818 LP  0  0  0  0  0  0  0  0  0  0  0  0  # atno 17342 bound_to 10162
  140.2007  143.3962  152.1794 LP  0  0  0  0  0  0  0  0  0  0  0  0  # atno 17343 bound_to 10162
  156.9344  130.5361  149.5279 LP  0  0  0  0  0  0  0  0  0  0  0  0  # atno 17370 bound_to 10713
  156.0525  130.5592  150.9021 LP  0  0  0  0  0  0  0  0  0  0  0  0  # atno 17371 bound_to 10713
  140.0154  134.9970  157.0482 LP  0  0  0  0  0  0  0  0  0  0  0  0  # atno 17394 bound_to 11000
  140.4529  134.1564  155.7183 LP  0  0  0  0  0  0  0  0  0  0  0  0  # atno 17395 bound_to 11000

$$$$
