AV-unprocessed.smi:2338|AV-procd|sdf|9335|dock4
  -GOLD-   2272012553D 1   1.00000     0.00000
 Structure written by MMmdl.
 31 32  0  0  0  0  0  0  0  0  1 V2000
  149.4003  137.8654  158.4003 N   0  0  0  0  0  0  0  0  0  0  0  0
  150.6912  137.5253  158.3672 C   0  0  0  0  0  0  0  0  0  0  0  0
  151.2812  137.1018  159.3600 O   0  0  0  0  0  0  0  0  0  0  0  0
  151.4270  137.7015  157.0263 C   0  0  1  0  0  0  0  0  0  0  0  0
  151.0760  136.5043  156.1126 C   0  0  0  0  0  0  0  0  0  0  0  0
  151.7331  136.6283  154.8562 O   0  0  0  0  0  0  0  0  0  0  0  0
  151.3188  137.7971  154.1606 C   0  0  0  0  0  0  0  0  0  0  0  0
  151.7016  139.0353  154.9844 C   0  0  0  0  0  0  0  0  0  0  0  0
  151.1239  138.9563  156.3227 N   0  0  0  0  0  0  0  0  0  0  0  0
  151.3193  140.1575  157.0334 C   0  0  0  0  0  0  0  0  0  0  0  0
  152.0659  140.1131  158.1644 N   0  0  0  0  0  0  0  0  0  0  0  0
  152.2628  141.2556  158.8554 C   0  0  0  0  0  0  0  0  0  0  0  0
  151.7396  142.5040  158.4576 C   0  0  0  0  0  0  0  0  0  0  0  0
  151.9773  143.7612  159.2779 C   0  0  0  0  0  0  0  0  0  0  0  0
  152.5019  144.7193  158.5136 F   0  0  0  0  0  0  0  0  0  0  0  0
  150.8158  144.1904  159.7696 F   0  0  0  0  0  0  0  0  0  0  0  0
  152.8126  143.5278  160.2906 F   0  0  0  0  0  0  0  0  0  0  0  0
  150.9675  142.5489  157.2789 C   0  0  0  0  0  0  0  0  0  0  0  0
  150.7544  141.3624  156.5508 C   0  0  0  0  0  0  0  0  0  0  0  0
  149.8007  141.4045  155.1091 Cl  0  0  0  0  0  0  0  0  0  0  0  0
  148.8764  137.7586  159.2568 H   0  0  0  0  0  0  0  0  0  0  0  0
  148.9505  138.2199  157.5688 H   0  0  0  0  0  0  0  0  0  0  0  0
  152.5022  137.6719  157.2141 H   0  0  0  0  0  0  0  0  0  0  0  0
  151.3941  135.5682  156.5729 H   0  0  0  0  0  0  0  0  0  0  0  0
  149.9981  136.4274  155.9555 H   0  0  0  0  0  0  0  0  0  0  0  0
  151.8097  137.8250  153.1877 H   0  0  0  0  0  0  0  0  0  0  0  0
  150.2437  137.7668  153.9756 H   0  0  0  0  0  0  0  0  0  0  0  0
  152.7878  139.1091  155.0596 H   0  0  0  0  0  0  0  0  0  0  0  0
  151.3551  139.9342  154.4722 H   0  0  0  0  0  0  0  0  0  0  0  0
  152.8533  141.1626  159.7549 H   0  0  0  0  0  0  0  0  0  0  0  0
  150.5385  143.4802  156.9391 H   0  0  0  0  0  0  0  0  0  0  0  0
  1  2  1  0  0  0  0
  1 21  1  0  0  0  0
  1 22  1  0  0  0  0
  2  3  2  0  0  0  0
  2  4  1  0  0  0  0
  4  9  1  0  0  0  0
  4  5  1  0  0  0  0
  4 23  1  0  0  0  0
  5  6  1  0  0  0  0
  5 24  1  0  0  0  0
  5 25  1  0  0  0  0
  6  7  1  0  0  0  0
  7  8  1  0  0  0  0
  7 26  1  0  0  0  0
  7 27  1  0  0  0  0
  8  9  1  0  0  0  0
  8 28  1  0  0  0  0
  8 29  1  0  0  0  0
  9 10  1  0  0  0  0
 10 19  1  0  0  0  0
 10 11  2  0  0  0  0
 11 12  1  0  0  0  0
 12 13  2  0  0  0  0
 12 30  1  0  0  0  0
 13 14  1  0  0  0  0
 13 18  1  0  0  0  0
 14 15  1  0  0  0  0
 14 16  1  0  0  0  0
 14 17  1  0  0  0  0
 18 19  2  0  0  0  0
 18 31  1  0  0  0  0
 19 20  1  0  0  0  0
M  END
> <s_m_source_file>
AV-unprocessed.smi

> <i_m_source_file_index>
2338

> <i_lp_mmshare_version>
43012

> <i_f3d_flags>
0

> <s_epik_input>
W05IMl1DKD1PKVtDQEBIXTFbQ0gyXU9bQ0gyXVtDSDJdTjFjMm5bY0hdYyhDKEYpKEYpRilbY0hdYzJDbA==

> <s_epik_cmdline>
J2VwaWtfcHl0aG9uJywgJy1waCcsICc3LjAnLCAnLXRuJywgJzgnLCAnLW1hJywgJzIwMCcsICctbWV0YWxfYmluZGluZycsICctaW1hZScsICc8aW5maWxlLm1hZT4nLCAnLW9tYWUnLCAnPG91dGZpbGUubWFlPic=

> <r_lp_tautomer_probability>
1

> <r_epik_Ionization_Penalty>
1.71167e-07

> <r_epik_Ionization_Penalty_Charging>
0

> <r_epik_Ionization_Penalty_Neutral>
1.71167e-07

> <r_epik_State_Penalty>
-0

> <r_epik_Charging_Adjusted_Penalty>
0

> <i_epik_Tot_Q>
0

> <i_epik_Tot_abs_Q>
0

> <r_epik_Metal_State_Penalty>
-0

> <b_epik_Metal_Only>
0

> <s_lp_Force_Field>
OPLS_2005

> <r_lp_Energy>
18.2769

> <b_lp_Chiralities_Consistent>
1

> <s_lp_Variant>
AV-unprocessed.smi:2338-2

> <Gold.Version>
5.8.1

> <Gold.Id.Protein>
6NUR|6NUR_protein|mol2

> <Gold.PLP.Fitness>
45.5438

> <Gold.PLP.PLP>
-40.8335

> <Gold.PLP.part.hbond>
-2.0000

> <Gold.PLP.part.metal>
0.0000

> <Gold.PLP.part.buried>
-5.2858

> <Gold.PLP.part.nonpolar>
-34.2056

> <Gold.PLP.part.repulsive>
0.2747

> <Gold.PLP.ligand.clash>
0.2472

> <Gold.PLP.ligand.torsion>
0.7738

> <Gold.PLP.Chemscore.Hbond>
1.9913

> <Gold.PLP.Chemscore.CHOScore>
0.0000

> <Gold.PLP.Chemscore.Metal>
0.0000

> <Gold.Chemscore.Hbonds>
donor molecule, donor type, donor heavy atom, donor atom, acceptor molecule, acceptor atom, score
      P1  H  6896  6908       L1     3  0.99
      P1  H 10752 10764       L1     6  1.00

> <Gold.PLP.Chemscore.Internal.Correction>
0.5315

> <Gold.Rescore>
     Score         DG    S(hbond)    S(metal)    S(lipo)     H(rot)  DE(clash)    DE(int)     intcor
     15.16     -17.06       1.92        0.00      77.18       1.51       0.00       1.90       ----

> <Gold.Chemscore.Fitness>
15.1618

> <Gold.Chemscore.DG>
-17.0629

> <Gold.Chemscore.ZeroCoef>
-5.4800

> <Gold.Chemscore.Hbond>
1.9223

> <Gold.Chemscore.Metal>
0.0000

> <Gold.Chemscore.Lipo>
77.1780

> <Gold.Chemscore.Internal_Hbond>
0.0000

> <Gold.Chemscore.DEClash>
0.0031

> <Gold.Chemscore.DEInternal>
1.8980

> <Gold.Chemscore.Rot>
1.5107

> <Gold.Chemscore.Internal.Correction>
   9.000000E+99

> <Gold.Chemscore.Hbonds>
donor molecule, donor type, donor heavy atom, donor atom, acceptor molecule, acceptor atom, score
      P1  H  6896  6908       L1     3  0.91
      P1  H 10752 10764       L1     6  0.97

> <Gold.Chemscore.Hbond.Weighted>
-6.4204

> <Gold.Chemscore.Metal.Weighted>
-0.0000

> <Gold.Chemscore.Lipo.Weighted>
-9.0298

> <Gold.Chemscore.Internal_Hbond.Weighted>
0.0000

> <Gold.Chemscore.DEClash.Weighted>
0.0031

> <Gold.Chemscore.DEInternal.Weighted>
1.8980

> <Gold.Chemscore.Rot.Weighted>
3.8674

> <Gold.Chemscore.Internal.Correction.Weighted>
   9.000000E+99

> <Gold.Protein.RotatedTorsions>
[ 6907 6896 6895 6894 ] final -138.44 input  -60.11 | X-H torsion
[ 7974 7965 7964 7962 ] final -148.54 input  175.53 | X-H torsion
[ 8008 7997 7996 7995 ] final   45.57 input   59.86 | X-H torsion
[ 10167 10162 10161 10158 ] final -142.76 input  -65.29 | X-H torsion
[ 10718 10713 10712 10709 ] final   72.68 input   66.30 | X-H torsion
[ 10763 10752 10751 10750 ] final  -70.79 input  -60.55 | X-H torsion
[ 11005 11000 10999 10996 ] final  -53.54 input  -57.11 | X-H torsion

> <Gold.Protein.ActiveResidues>
 VAL166  LYS551  ARG553  GLY616  TRP617  ASP618  TYR619  PRO620  LYS621  CYS622 
 ASP623  PHE694  ASN695  SER759  ASP760  ASP761  ALA762  ILE779  LEU786  VAL792 
 PHE793  MET794  SER795  GLU796  ALA797  LYS798  CYS799  TRP800  GLU811  SER814 

> <Gold.Protein.RotatedAtoms>
  151.0351  133.5756  159.2656 H   0  0  0  0  0  0  0  0  0  0  0  0  # atno 6907 bound_to 6896
  151.2823  135.0716  159.9184 H   0  0  0  0  0  0  0  0  0  0  0  0  # atno 6908 bound_to 6896
  152.5353  134.0063  159.7972 H   0  0  0  0  0  0  0  0  0  0  0  0  # atno 6909 bound_to 6896
  144.8023  140.5183  143.5699 H   0  0  0  0  0  0  0  0  0  0  0  0  # atno 7974 bound_to 7965
  155.3382  140.3406  155.4239 H   0  0  0  0  0  0  0  0  0  0  0  0  # atno 8008 bound_to 7997
  156.1827  140.1669  156.8280 H   0  0  0  0  0  0  0  0  0  0  0  0  # atno 8009 bound_to 7997
  154.5351  140.0737  156.8397 H   0  0  0  0  0  0  0  0  0  0  0  0  # atno 8010 bound_to 7997
  139.8058  143.7770  152.2661 H   0  0  0  0  0  0  0  0  0  0  0  0  # atno 10167 bound_to 10162
  157.6512  130.9591  150.0963 H   0  0  0  0  0  0  0  0  0  0  0  0  # atno 10718 bound_to 10713
  154.4227  135.5983  153.6019 H   0  0  0  0  0  0  0  0  0  0  0  0  # atno 10763 bound_to 10752
  152.9794  135.5956  154.3935 H   0  0  0  0  0  0  0  0  0  0  0  0  # atno 10764 bound_to 10752
  154.3763  135.2841  155.2216 H   0  0  0  0  0  0  0  0  0  0  0  0  # atno 10765 bound_to 10752
  141.0981  133.6621  156.4187 H   0  0  0  0  0  0  0  0  0  0  0  0  # atno 11005 bound_to 11000
  145.5523  139.1477  143.3387 LP  0  0  0  0  0  0  0  0  0  0  0  0  # atno 17320 bound_to 7965
  146.2307  140.5660  142.8976 LP  0  0  0  0  0  0  0  0  0  0  0  0  # atno 17321 bound_to 7965
  139.7904  144.7412  150.9963 LP  0  0  0  0  0  0  0  0  0  0  0  0  # atno 17342 bound_to 10162
  140.7819  143.4448  151.0499 LP  0  0  0  0  0  0  0  0  0  0  0  0  # atno 17343 bound_to 10162
  156.1898  130.3654  149.8924 LP  0  0  0  0  0  0  0  0  0  0  0  0  # atno 17370 bound_to 10713
  156.6856  130.8875  151.3581 LP  0  0  0  0  0  0  0  0  0  0  0  0  # atno 17371 bound_to 10713
  140.5090  134.6413  157.5277 LP  0  0  0  0  0  0  0  0  0  0  0  0  # atno 17394 bound_to 11000
  139.9824  134.7116  155.9836 LP  0  0  0  0  0  0  0  0  0  0  0  0  # atno 17395 bound_to 11000

$$$$
