#       Name:                AV-unprocessed.smi:3303
#       Creating user name   scv26
#       Creation time:       Fri Mar 27 19:02:52 2020


#       File generated by GOLD software.
#

@<TRIPOS>MOLECULE
AV-unprocessed.smi:3303
    46    47     1
SMALL
NO_CHARGES


@<TRIPOS>ATOM
      1 ****        -1.2153   0.3135   3.3777 C.3            1 S1                 0.0000
      2 ****        -1.7668  -0.0766   1.9950 C.3            1 S1                 0.0000
      3 ****        -1.3551  -1.5035   1.5817 C.3            1 S1                 0.0000
      4 ****        -1.9896  -1.8948   0.2981 N.4            1 S1                 1.0000
      5 ****        -1.8124  -3.3314  -0.0143 C.3            1 S1                 0.0000
      6 ****        -1.6606  -0.9793  -0.8314 C.3            1 S1                 0.0000
      7 ****        -0.2192  -1.1439  -1.3615 C.3            1 S1                 0.0000
      8 ****        -2.0125   0.4824  -0.4682 C.3            1 S1                 0.0000
      9 ****        -1.4419   0.9553   0.8908 C.3            1 S1                 0.0000
     10 ****        -0.0070   1.2170   0.8313 N.3            1 S1                 0.0000
     11 ****         0.3183   2.4664   0.1560 C.3            1 S1                 0.0000
     12 ****         1.8425   2.6396   0.0415 C.3            1 S1                 0.0000
     13 ****         2.4999   1.5738  -0.8203 C.ar           1 S1                 0.0000
     14 ****         2.5546   1.7208  -2.2227 C.ar           1 S1                 0.0000
     15 ****         3.1420   0.6914  -2.9835 C.ar           1 S1                 0.0000
     16 ****         3.6494  -0.4401  -2.3167 C.ar           1 S1                 0.0000
     17 ****         3.5486  -0.4912  -0.9124 C.ar           1 S1                 0.0000
     18 ****         2.9840   0.4883  -0.1737 N.ar           1 S1                 0.0000
     19 ****        -0.1256   0.2835   3.4034 H              1 S1                 0.0000
     20 ****        -1.5784  -0.3674   4.1480 H              1 S1                 0.0000
     21 ****        -1.5291   1.3199   3.6562 H              1 S1                 0.0000
     22 ****        -2.8532  -0.0847   2.0975 H              1 S1                 0.0000
     23 ****        -0.2703  -1.5888   1.5103 H              1 S1                 0.0000
     24 ****        -1.6687  -2.2039   2.3570 H              1 S1                 0.0000
     25 ****        -0.7575  -3.5960  -0.0942 H              1 S1                 0.0000
     26 ****        -2.3058  -3.5889  -0.9520 H              1 S1                 0.0000
     27 ****        -2.2527  -3.9470   0.7707 H              1 S1                 0.0000
     28 ****        -2.3197  -1.2559  -1.6555 H              1 S1                 0.0000
     29 ****        -0.0040  -0.4073  -2.1362 H              1 S1                 0.0000
     30 ****        -0.0652  -2.1253  -1.8093 H              1 S1                 0.0000
     31 ****         0.5288  -1.0214  -0.5805 H              1 S1                 0.0000
     32 ****        -1.7371   1.1515  -1.2824 H              1 S1                 0.0000
     33 ****        -3.0992   0.5544  -0.4058 H              1 S1                 0.0000
     34 ****        -1.9280   1.8928   1.1656 H              1 S1                 0.0000
     35 ****         0.3710   1.2487   1.7679 H              1 S1                 0.0000
     36 ****        -0.1199   2.4985  -0.8404 H              1 S1                 0.0000
     37 ****        -0.1054   3.2971   0.7215 H              1 S1                 0.0000
     38 ****         2.0635   3.6176  -0.3878 H              1 S1                 0.0000
     39 ****         2.2959   2.6383   1.0341 H              1 S1                 0.0000
     40 ****         2.1501   2.5980  -2.7059 H              1 S1                 0.0000
     41 ****         3.1994   0.7674  -4.0593 H              1 S1                 0.0000
     42 ****         4.1061  -1.2487  -2.8678 H              1 S1                 0.0000
     43 ****         3.9269  -1.3436  -0.3682 H              1 S1                 0.0000
     44 ****        -2.9817  -1.7783   0.4477 H              1 S1                 0.0000
     45 ****         0.3981   0.4717   0.3017 LP             1 S1                 0.0000
     46 ****         2.9255   0.4136   0.8217 LP             1 S1                 0.0000
@<TRIPOS>BOND
    1    1    2 1     
    2    1   19 1     
    3    1   20 1     
    4    1   21 1     
    5    2    9 1     
    6    2    3 1     
    7    2   22 1     
    8    3    4 1     
    9    3   23 1     
   10    3   24 1     
   11    4    5 1     
   12    4    6 1     
   13    4   44 1     
   14    5   25 1     
   15    5   26 1     
   16    5   27 1     
   17    6    7 1     
   18    6    8 1     
   19    6   28 1     
   20    7   29 1     
   21    7   30 1     
   22    7   31 1     
   23    8    9 1     
   24    8   32 1     
   25    8   33 1     
   26    9   10 1     
   27    9   34 1     
   28   10   11 1     
   29   10   35 1     
   30   11   12 1     
   31   11   36 1     
   32   11   37 1     
   33   12   13 1     
   34   12   38 1     
   35   12   39 1     
   36   13   18 ar    
   37   13   14 ar    
   38   14   15 ar    
   39   14   40 1     
   40   15   16 ar    
   41   15   41 1     
   42   16   17 ar    
   43   16   42 1     
   44   17   18 ar    
   45   17   43 1     
   46   10   45 1     
   47   18   46 1     
@<TRIPOS>SUBSTRUCTURE
      1 S1             1
@<TRIPOS>SET
LONE_PAIRS      STATIC     ATOMS    <user>   **** ""
2 45 46
DONOR_HYDROGENS      STATIC     ATOMS    <user>   **** ""
2 44 35
ATOM$BLUE        STATIC     ATOMS    COLORGROUP SYSTEM
2 45 46
ATOM$RED        STATIC     ATOMS    COLORGROUP SYSTEM
2 44 35
