AV-unprocessed.smi:1996|AV-procd|sdf|8085|dock2
  -GOLD-   2272010303D 1   1.00000     0.00000
 Structure written by MMmdl.
 32 33  0  0  0  0  0  0  0  0  2 V2000
  153.3864  139.8728  158.4558 O   0  0  0  0  0  0  0  0  0  0  0  0
  153.2425  139.2279  159.4970 C   0  0  0  0  0  0  0  0  0  0  0  0
  153.7331  139.7043  160.6491 N   0  0  0  0  0  0  0  0  0  0  0  0
  154.4491  140.9644  160.7981 C   0  0  0  0  0  0  0  0  0  0  0  0
  153.6024  141.9760  161.5848 C   0  0  0  0  0  0  0  0  0  0  0  0
  152.9261  143.0018  160.6901 C   0  0  0  0  0  0  0  0  0  0  0  0
  152.1362  143.9729  161.1889 C   0  0  0  0  0  0  0  0  0  0  0  0
  151.4476  145.0310  160.3450 C   0  0  0  0  0  0  0  0  0  0  0  0
  152.0074  145.0960  158.9140 C   0  0  0  0  0  0  0  0  0  0  0  0
  152.2135  143.6906  158.3357 C   0  0  0  0  0  0  0  0  0  0  0  0
  153.1918  142.8694  159.1945 C   0  0  0  0  0  0  0  0  0  0  0  0
  152.6142  138.0365  159.6218 N   0  5  0  0  0  0  0  0  0  0  0  0
  151.4238  137.8408  159.0315 C   0  0  0  0  0  0  0  0  0  0  0  0
  150.7422  136.6899  159.1512 N   0  0  0  0  0  0  0  0  0  0  0  0
  149.5348  136.6963  158.4657 N   0  0  0  0  0  0  0  0  0  0  0  0
  149.3316  137.8612  157.8508 C   0  0  0  0  0  0  0  0  0  0  0  0
  150.5939  139.0570  158.0564 S   0  0  0  0  0  0  0  0  0  0  0  0
  153.5973  139.1491  161.4811 H   0  0  0  0  0  0  0  0  0  0  0  0
  155.3927  140.7827  161.3151 H   0  0  0  0  0  0  0  0  0  0  0  0
  154.6903  141.3565  159.8091 H   0  0  0  0  0  0  0  0  0  0  0  0
  152.8359  141.4565  162.1609 H   0  0  0  0  0  0  0  0  0  0  0  0
  154.2345  142.4911  162.3097 H   0  0  0  0  0  0  0  0  0  0  0  0
  151.9547  144.0243  162.2527 H   0  0  0  0  0  0  0  0  0  0  0  0
  150.3816  144.8022  160.3228 H   0  0  0  0  0  0  0  0  0  0  0  0
  151.5542  146.0022  160.8289 H   0  0  0  0  0  0  0  0  0  0  0  0
  151.3385  145.6757  158.2773 H   0  0  0  0  0  0  0  0  0  0  0  0
  152.9624  145.6233  158.9200 H   0  0  0  0  0  0  0  0  0  0  0  0
  151.2517  143.1780  158.2894 H   0  0  0  0  0  0  0  0  0  0  0  0
  152.5801  143.7517  157.3106 H   0  0  0  0  0  0  0  0  0  0  0  0
  154.2136  143.1968  159.0001 H   0  0  0  0  0  0  0  0  0  0  0  0
  153.1363  141.8195  158.9051 H   0  0  0  0  0  0  0  0  0  0  0  0
  148.4320  138.0189  157.2753 H   0  0  0  0  0  0  0  0  0  0  0  0
  1  2  2  0  0  0  0
  2  3  1  0  0  0  0
  2 12  1  0  0  0  0
  3  4  1  0  0  0  0
  3 18  1  0  0  0  0
  4  5  1  0  0  0  0
  4 19  1  0  0  0  0
  4 20  1  0  0  0  0
  5  6  1  0  0  0  0
  5 21  1  0  0  0  0
  5 22  1  0  0  0  0
  6 11  1  0  0  0  0
  6  7  2  0  0  0  0
  7  8  1  0  0  0  0
  7 23  1  0  0  0  0
  8  9  1  0  0  0  0
  8 24  1  0  0  0  0
  8 25  1  0  0  0  0
  9 10  1  0  0  0  0
  9 26  1  0  0  0  0
  9 27  1  0  0  0  0
 10 11  1  0  0  0  0
 10 28  1  0  0  0  0
 10 29  1  0  0  0  0
 11 30  1  0  0  0  0
 11 31  1  0  0  0  0
 12 13  1  0  0  0  0
 13 17  1  0  0  0  0
 13 14  2  0  0  0  0
 14 15  1  0  0  0  0
 15 16  2  0  0  0  0
 16 17  1  0  0  0  0
 16 32  1  0  0  0  0
M  CHG  1  12  -1
M  END
> <s_m_source_file>
AV-unprocessed.smi

> <i_m_source_file_index>
1996

> <i_lp_mmshare_version>
43012

> <i_f3d_flags>
0

> <s_epik_input>
czFbY0hdbm5jMVtOSF1DKD1PKVtOSF1bQ0gyXVtDSDJdQzI9W0NIXVtDSDJdW0NIMl1bQ0gyXVtDSDJdMg==

> <s_epik_cmdline>
J2VwaWtfcHl0aG9uJywgJy1waCcsICc3LjAnLCAnLXRuJywgJzgnLCAnLW1hJywgJzIwMCcsICctbWV0YWxfYmluZGluZycsICctaW1hZScsICc8aW5maWxlLm1hZT4nLCAnLW9tYWUnLCAnPG91dGZpbGUubWFlPic=

> <r_lp_tautomer_probability>
1

> <r_epik_Ionization_Penalty>
3.56684

> <r_epik_Ionization_Penalty_Charging>
3.52481

> <r_epik_Ionization_Penalty_Neutral>
0.0420339

> <r_epik_State_Penalty>
3.52326

> <r_epik_Charging_Adjusted_Penalty>
7.04807

> <i_epik_Tot_Q>
-1

> <i_epik_Tot_abs_Q>
1

> <r_epik_Metal_State_Penalty>
0.513455

> <b_epik_Metal_Only>
1

> <s_lp_Force_Field>
OPLS_2005

> <r_lp_Energy>
5.58763

> <b_lp_Chiralities_Consistent>
1

> <s_lp_Variant>
AV-unprocessed.smi:1996-2

> <Gold.Version>
5.8.1

> <Gold.Id.Protein>
6NUR|6NUR_protein|mol2

> <Gold.PLP.Fitness>
44.5495

> <Gold.PLP.PLP>
-39.9413

> <Gold.PLP.part.hbond>
-2.0000

> <Gold.PLP.part.metal>
0.0000

> <Gold.PLP.part.buried>
-5.3834

> <Gold.PLP.part.nonpolar>
-32.4254

> <Gold.PLP.part.repulsive>
0.0502

> <Gold.PLP.ligand.clash>
0.0000

> <Gold.PLP.ligand.torsion>
0.7176

> <Gold.PLP.Chemscore.Hbond>
2.0000

> <Gold.PLP.Chemscore.CHOScore>
0.0000

> <Gold.PLP.Chemscore.Metal>
0.0000

> <Gold.Chemscore.Hbonds>
donor molecule, donor type, donor heavy atom, donor atom, acceptor molecule, acceptor atom, score
      P1  H  6896  6908       L1    14  1.00
      P1  H  7997  8009       L1     1  1.00

> <Gold.PLP.Chemscore.Internal.Correction>
0.0434

> <Gold.Rescore>
     Score         DG    S(hbond)    S(metal)    S(lipo)     H(rot)  DE(clash)    DE(int)     intcor
     17.79     -19.70       1.87        0.00     103.04       1.59       0.00       1.91       ----

> <Gold.Chemscore.Fitness>
17.7881

> <Gold.Chemscore.DG>
-19.7018

> <Gold.Chemscore.ZeroCoef>
-5.4800

> <Gold.Chemscore.Hbond>
1.8670

> <Gold.Chemscore.Metal>
0.0000

> <Gold.Chemscore.Lipo>
103.0401

> <Gold.Chemscore.Internal_Hbond>
0.0000

> <Gold.Chemscore.DEClash>
0.0000

> <Gold.Chemscore.DEInternal>
1.9137

> <Gold.Chemscore.Rot>
1.5898

> <Gold.Chemscore.Internal.Correction>
   9.000000E+99

> <Gold.Chemscore.Hbonds>
donor molecule, donor type, donor heavy atom, donor atom, acceptor molecule, acceptor atom, score
      P1  H  6896  6908       L1    14  0.53
      P1  H  7997  8009       L1     1  0.96

> <Gold.Chemscore.Hbond.Weighted>
-6.2359

> <Gold.Chemscore.Metal.Weighted>
-0.0000

> <Gold.Chemscore.Lipo.Weighted>
-12.0557

> <Gold.Chemscore.Internal_Hbond.Weighted>
0.0000

> <Gold.Chemscore.DEClash.Weighted>
0.0000

> <Gold.Chemscore.DEInternal.Weighted>
1.9137

> <Gold.Chemscore.Rot.Weighted>
4.0698

> <Gold.Chemscore.Internal.Correction.Weighted>
   9.000000E+99

> <Gold.Protein.RotatedTorsions>
[ 6907 6896 6895 6894 ] final -161.21 input  -60.11 | X-H torsion
[ 7974 7965 7964 7962 ] final  154.50 input  175.53 | X-H torsion
[ 8008 7997 7996 7995 ] final  137.85 input   59.86 | X-H torsion
[ 10167 10162 10161 10158 ] final  -74.03 input  -65.29 | X-H torsion
[ 10718 10713 10712 10709 ] final   23.93 input   66.30 | X-H torsion
[ 10763 10752 10751 10750 ] final  -28.25 input  -60.55 | X-H torsion
[ 11005 11000 10999 10996 ] final  128.09 input  -57.11 | X-H torsion

> <Gold.Protein.ActiveResidues>
 VAL166  LYS551  ARG553  GLY616  TRP617  ASP618  TYR619  PRO620  LYS621  CYS622 
 ASP623  PHE694  ASN695  SER759  ASP760  ASP761  ALA762  ILE779  LEU786  VAL792 
 PHE793  MET794  SER795  GLU796  ALA797  LYS798  CYS799  TRP800  GLU811  SER814 

> <Gold.Protein.RotatedAtoms>
  151.3610  133.3889  159.2689 H   0  0  0  0  0  0  0  0  0  0  0  0  # atno 6907 bound_to 6896
  150.9725  134.9096  159.7807 H   0  0  0  0  0  0  0  0  0  0  0  0  # atno 6908 bound_to 6896
  152.5189  134.3573  159.9324 H   0  0  0  0  0  0  0  0  0  0  0  0  # atno 6909 bound_to 6896
  144.8085  139.6942  143.6152 H   0  0  0  0  0  0  0  0  0  0  0  0  # atno 7974 bound_to 7965
  156.3000  140.2409  156.3977 H   0  0  0  0  0  0  0  0  0  0  0  0  # atno 8008 bound_to 7997
  154.8555  140.0422  157.1652 H   0  0  0  0  0  0  0  0  0  0  0  0  # atno 8009 bound_to 7997
  154.8952  140.2969  155.5352 H   0  0  0  0  0  0  0  0  0  0  0  0  # atno 8010 bound_to 7997
  140.5061  143.2352  151.7672 H   0  0  0  0  0  0  0  0  0  0  0  0  # atno 10167 bound_to 10162
  157.1729  130.6768  149.6084 H   0  0  0  0  0  0  0  0  0  0  0  0  # atno 10718 bound_to 10713
  153.7453  135.6929  153.4957 H   0  0  0  0  0  0  0  0  0  0  0  0  # atno 10763 bound_to 10752
  153.2041  135.4426  155.0300 H   0  0  0  0  0  0  0  0  0  0  0  0  # atno 10764 bound_to 10752
  154.8206  135.3420  154.6977 H   0  0  0  0  0  0  0  0  0  0  0  0  # atno 10765 bound_to 10752
  139.9542  134.9616  156.8950 H   0  0  0  0  0  0  0  0  0  0  0  0  # atno 11005 bound_to 11000
  146.2380  139.5944  142.9511 LP  0  0  0  0  0  0  0  0  0  0  0  0  # atno 17320 bound_to 7965
  145.5381  141.0423  143.2346 LP  0  0  0  0  0  0  0  0  0  0  0  0  # atno 17321 bound_to 7965
  139.4884  144.4456  151.9714 LP  0  0  0  0  0  0  0  0  0  0  0  0  # atno 17342 bound_to 10162
  140.3546  144.3047  150.5943 LP  0  0  0  0  0  0  0  0  0  0  0  0  # atno 17343 bound_to 10162
  155.9735  130.4673  150.6319 LP  0  0  0  0  0  0  0  0  0  0  0  0  # atno 17370 bound_to 10713
  157.4026  131.0812  151.1295 LP  0  0  0  0  0  0  0  0  0  0  0  0  # atno 17371 bound_to 10713
  140.5649  134.0499  155.7411 LP  0  0  0  0  0  0  0  0  0  0  0  0  # atno 17394 bound_to 11000
  141.1210  133.9461  157.2729 LP  0  0  0  0  0  0  0  0  0  0  0  0  # atno 17395 bound_to 11000

$$$$
