AV-unprocessed.smi:1795|AV-procd|sdf|7244|dock7
  -GOLD-   22720 8493D 1   1.00000     0.00000
 Structure written by MMmdl.
 48 49  0  0  0  0  0  0  0  0  2 V2000
  147.7679  130.9905  153.4822 C   0  0  0  0  0  0  0  0  0  0  0  0
  146.8702  132.1180  152.9611 C   0  0  1  0  0  0  0  0  0  0  0  0
  147.6507  133.4394  152.7748 C   0  0  0  0  0  0  0  0  0  0  0  0
  146.8016  134.5007  152.1657 N   0  3  2  0  0  0  0  0  0  0  0  0
  145.8443  135.1520  153.1224 C   0  0  2  0  0  0  0  0  0  0  0  0
  144.8812  136.1524  152.4375 C   0  0  0  0  0  0  0  0  0  0  0  0
  146.6182  135.8632  154.2662 C   0  0  0  0  0  0  0  0  0  0  0  0
  147.4769  136.9392  153.7841 N   0  0  0  0  0  0  0  0  0  0  0  0
  147.7821  138.0485  154.4757 C   0  0  0  0  0  0  0  0  0  0  0  0
  147.3889  138.2568  155.6232 O   0  0  0  0  0  0  0  0  0  0  0  0
  148.6410  139.0952  153.7584 C   0  0  0  0  0  0  0  0  0  0  0  0
  149.9936  139.1838  154.3323 N   0  0  0  0  0  0  0  0  0  0  0  0
  150.8877  138.1442  154.0077 C   0  0  0  0  0  0  0  0  0  0  0  0
  152.1448  138.1145  154.4779 C   0  0  0  0  0  0  0  0  0  0  0  0
  152.5770  139.1905  155.3376 C   0  0  0  0  0  0  0  0  0  0  0  0
  151.7284  140.1864  155.6604 C   0  0  0  0  0  0  0  0  0  0  0  0
  150.3502  140.2167  155.1574 C   0  0  0  0  0  0  0  0  0  0  0  0
  149.5628  141.1115  155.4662 O   0  0  0  0  0  0  0  0  0  0  0  0
  146.2286  133.9724  150.8976 C   0  0  0  0  0  0  0  0  0  0  0  0
  145.4438  132.6676  151.1430 C   0  0  1  0  0  0  0  0  0  0  0  0
  144.8768  132.0824  149.8450 C   0  0  0  0  0  0  0  0  0  0  0  0
  146.3294  131.7076  151.7094 O   0  0  0  0  0  0  0  0  0  0  0  0
  148.2022  131.2489  154.4485 H   0  0  0  0  0  0  0  0  0  0  0  0
  148.5861  130.7845  152.7917 H   0  0  0  0  0  0  0  0  0  0  0  0
  147.2003  130.0683  153.6100 H   0  0  0  0  0  0  0  0  0  0  0  0
  146.0555  132.2533  153.6731 H   0  0  0  0  0  0  0  0  0  0  0  0
  148.0888  133.7543  153.7190 H   0  0  0  0  0  0  0  0  0  0  0  0
  148.4957  133.2640  152.1074 H   0  0  0  0  0  0  0  0  0  0  0  0
  145.2196  134.3736  153.5583 H   0  0  0  0  0  0  0  0  0  0  0  0
  144.2304  136.6479  153.1580 H   0  0  0  0  0  0  0  0  0  0  0  0
  144.2106  135.6599  151.7339 H   0  0  0  0  0  0  0  0  0  0  0  0
  145.4279  136.9303  151.9038 H   0  0  0  0  0  0  0  0  0  0  0  0
  145.9550  136.2850  155.0198 H   0  0  0  0  0  0  0  0  0  0  0  0
  147.2473  135.1419  154.7887 H   0  0  0  0  0  0  0  0  0  0  0  0
  147.8454  136.8482  152.8476 H   0  0  0  0  0  0  0  0  0  0  0  0
  148.7029  138.8412  152.6988 H   0  0  0  0  0  0  0  0  0  0  0  0
  148.1295  140.0589  153.7874 H   0  0  0  0  0  0  0  0  0  0  0  0
  150.4835  137.3767  153.3632 H   0  0  0  0  0  0  0  0  0  0  0  0
  152.8144  137.3066  154.2215 H   0  0  0  0  0  0  0  0  0  0  0  0
  153.5860  139.1979  155.7228 H   0  0  0  0  0  0  0  0  0  0  0  0
  152.0699  140.9839  156.3040 H   0  0  0  0  0  0  0  0  0  0  0  0
  145.6275  134.7128  150.3722 H   0  0  0  0  0  0  0  0  0  0  0  0
  147.0576  133.7618  150.2200 H   0  0  0  0  0  0  0  0  0  0  0  0
  144.6158  132.8470  151.8306 H   0  0  0  0  0  0  0  0  0  0  0  0
  144.1828  132.7773  149.3715 H   0  0  0  0  0  0  0  0  0  0  0  0
  144.3367  131.1553  150.0389 H   0  0  0  0  0  0  0  0  0  0  0  0
  145.6703  131.8618  149.1304 H   0  0  0  0  0  0  0  0  0  0  0  0
  147.4278  135.2422  151.8857 H   0  0  0  0  0  0  0  0  0  0  0  0
  1  2  1  0  0  0  0
  1 23  1  0  0  0  0
  1 24  1  0  0  0  0
  1 25  1  0  0  0  0
  2 22  1  0  0  0  0
  2  3  1  0  0  0  0
  2 26  1  0  0  0  0
  3  4  1  0  0  0  0
  3 27  1  0  0  0  0
  3 28  1  0  0  0  0
  4  5  1  0  0  0  0
  4 19  1  0  0  0  0
  4 48  1  0  0  0  0
  5  6  1  0  0  0  0
  5  7  1  0  0  0  0
  5 29  1  0  0  0  0
  6 30  1  0  0  0  0
  6 31  1  0  0  0  0
  6 32  1  0  0  0  0
  7  8  1  0  0  0  0
  7 33  1  0  0  0  0
  7 34  1  0  0  0  0
  8  9  1  0  0  0  0
  8 35  1  0  0  0  0
  9 10  2  0  0  0  0
  9 11  1  0  0  0  0
 11 12  1  0  0  0  0
 11 36  1  0  0  0  0
 11 37  1  0  0  0  0
 12 17  1  0  0  0  0
 12 13  1  0  0  0  0
 13 14  2  0  0  0  0
 13 38  1  0  0  0  0
 14 15  1  0  0  0  0
 14 39  1  0  0  0  0
 15 16  2  0  0  0  0
 15 40  1  0  0  0  0
 16 17  1  0  0  0  0
 16 41  1  0  0  0  0
 17 18  2  0  0  0  0
 19 20  1  0  0  0  0
 19 42  1  0  0  0  0
 19 43  1  0  0  0  0
 20 21  1  0  0  0  0
 20 22  1  0  0  0  0
 20 44  1  0  0  0  0
 21 45  1  0  0  0  0
 21 46  1  0  0  0  0
 21 47  1  0  0  0  0
M  CHG  1   4   1
M  END
> <s_m_source_file>
AV-unprocessed.smi

> <i_m_source_file_index>
1795

> <i_lp_mmshare_version>
43012

> <i_f3d_flags>
0

> <s_epik_input>
W0NIM11bQ0BASF0xW0NIMl1OKFtDSDJdW0NASF0oTzEpW0NIM10pW0NASF0oW0NIM10pW0NIMl1bTkhdQyg9TylbQ0gyXW4yW2NIXVtjSF1bY0hdW2NIXWMyPU8=

> <s_epik_cmdline>
J2VwaWtfcHl0aG9uJywgJy1waCcsICc3LjAnLCAnLXRuJywgJzgnLCAnLW1hJywgJzIwMCcsICctbWV0YWxfYmluZGluZycsICctaW1hZScsICc8aW5maWxlLm1hZT4nLCAnLW9tYWUnLCAnPG91dGZpbGUubWFlPic=

> <r_lp_tautomer_probability>
1

> <r_epik_Ionization_Penalty>
0.656654

> <r_epik_Ionization_Penalty_Charging>
0.656654

> <r_epik_Ionization_Penalty_Neutral>
8.90321e-08

> <r_epik_State_Penalty>
0.675641

> <r_epik_Charging_Adjusted_Penalty>
1.33229

> <i_epik_Tot_Q>
1

> <i_epik_Tot_abs_Q>
1

> <r_epik_Metal_State_Penalty>
0.675691

> <b_epik_Metal_Only>
0

> <s_lp_Force_Field>
OPLS_2005

> <r_lp_Energy>
32.228

> <b_lp_Chiralities_Consistent>
1

> <s_lp_Variant>
AV-unprocessed.smi:1795-8

> <Gold.Version>
5.8.1

> <Gold.Id.Protein>
6NUR|6NUR_protein|mol2

> <Gold.PLP.Fitness>
48.9303

> <Gold.PLP.PLP>
-37.6400

> <Gold.PLP.part.hbond>
-2.0000

> <Gold.PLP.part.metal>
0.0000

> <Gold.PLP.part.buried>
-2.5435

> <Gold.PLP.part.nonpolar>
-33.4443

> <Gold.PLP.part.repulsive>
0.2509

> <Gold.PLP.ligand.clash>
0.0000

> <Gold.PLP.ligand.torsion>
0.5690

> <Gold.PLP.Chemscore.Hbond>
2.9920

> <Gold.PLP.Chemscore.CHOScore>
1.1312

> <Gold.PLP.Chemscore.Metal>
0.0000

> <Gold.Chemscore.Hbonds>
donor molecule, donor type, donor heavy atom, donor atom, acceptor molecule, acceptor atom, score
      L1  H     4    48       P1  7948  2.00
      L1  H     8    35       P1  7948  0.99
      L1  C    13    38       P1  7948  0.59
      L1  C    13    38       P1  7949  0.47

> <Gold.PLP.Chemscore.Internal.Correction>
0.0585

> <Gold.Rescore>
     Score         DG    S(hbond)    S(metal)    S(lipo)     H(rot)  DE(clash)    DE(int)     intcor
     16.41     -17.21       1.94        0.00      86.07       1.89       0.07       0.73       ----

> <Gold.Chemscore.Fitness>
16.4130

> <Gold.Chemscore.DG>
-17.2097

> <Gold.Chemscore.ZeroCoef>
-5.4800

> <Gold.Chemscore.Hbond>
1.9433

> <Gold.Chemscore.Metal>
0.0000

> <Gold.Chemscore.Lipo>
86.0668

> <Gold.Chemscore.Internal_Hbond>
0.0000

> <Gold.Chemscore.DEClash>
0.0694

> <Gold.Chemscore.DEInternal>
0.7273

> <Gold.Chemscore.Rot>
1.8870

> <Gold.Chemscore.Internal.Correction>
   9.000000E+99

> <Gold.Chemscore.Hbonds>
donor molecule, donor type, donor heavy atom, donor atom, acceptor molecule, acceptor atom, score
      L1  H     4    48       P1  7948  0.96
      L1  H     8    35       P1  7948  0.92

> <Gold.Chemscore.Hbond.Weighted>
-6.4906

> <Gold.Chemscore.Metal.Weighted>
-0.0000

> <Gold.Chemscore.Lipo.Weighted>
-10.0698

> <Gold.Chemscore.Internal_Hbond.Weighted>
0.0000

> <Gold.Chemscore.DEClash.Weighted>
0.0694

> <Gold.Chemscore.DEInternal.Weighted>
0.7273

> <Gold.Chemscore.Rot.Weighted>
4.8308

> <Gold.Chemscore.Internal.Correction.Weighted>
   9.000000E+99

> <Gold.Protein.RotatedTorsions>
[ 6907 6896 6895 6894 ] final  138.08 input  -60.11 | X-H torsion
[ 7974 7965 7964 7962 ] final  127.40 input  175.53 | X-H torsion
[ 8008 7997 7996 7995 ] final -132.81 input   59.86 | X-H torsion
[ 10167 10162 10161 10158 ] final  -55.15 input  -65.29 | X-H torsion
[ 10718 10713 10712 10709 ] final  153.04 input   66.30 | X-H torsion
[ 10763 10752 10751 10750 ] final   44.57 input  -60.55 | X-H torsion
[ 11005 11000 10999 10996 ] final  -10.23 input  -57.11 | X-H torsion

> <Gold.Protein.ActiveResidues>
 VAL166  LYS551  ARG553  GLY616  TRP617  ASP618  TYR619  PRO620  LYS621  CYS622 
 ASP623  PHE694  ASN695  SER759  ASP760  ASP761  ALA762  ILE779  LEU786  VAL792 
 PHE793  MET794  SER795  GLU796  ALA797  LYS798  CYS799  TRP800  GLU811  SER814 

> <Gold.Protein.RotatedAtoms>
  152.2708  133.5380  159.5437 H   0  0  0  0  0  0  0  0  0  0  0  0  # atno 6907 bound_to 6896
  150.7158  134.0701  159.3870 H   0  0  0  0  0  0  0  0  0  0  0  0  # atno 6908 bound_to 6896
  151.8615  135.0522  160.0520 H   0  0  0  0  0  0  0  0  0  0  0  0  # atno 6909 bound_to 6896
  145.0510  139.3883  143.5054 H   0  0  0  0  0  0  0  0  0  0  0  0  # atno 7974 bound_to 7965
  155.3351  140.0469  157.3043 H   0  0  0  0  0  0  0  0  0  0  0  0  # atno 8008 bound_to 7997
  154.5307  140.2256  155.8775 H   0  0  0  0  0  0  0  0  0  0  0  0  # atno 8009 bound_to 7997
  156.1785  140.3079  155.9111 H   0  0  0  0  0  0  0  0  0  0  0  0  # atno 8010 bound_to 7997
  140.6391  143.2498  151.5038 H   0  0  0  0  0  0  0  0  0  0  0  0  # atno 10167 bound_to 10162
  157.2500  131.0777  151.1736 H   0  0  0  0  0  0  0  0  0  0  0  0  # atno 10718 bound_to 10713
  152.9839  135.6066  154.3296 H   0  0  0  0  0  0  0  0  0  0  0  0  # atno 10763 bound_to 10752
  154.3000  135.2773  155.2617 H   0  0  0  0  0  0  0  0  0  0  0  0  # atno 10764 bound_to 10752
  154.4874  135.5901  153.6490 H   0  0  0  0  0  0  0  0  0  0  0  0  # atno 10765 bound_to 10752
  140.7425  133.8658  155.8979 H   0  0  0  0  0  0  0  0  0  0  0  0  # atno 11005 bound_to 11000
  146.3518  140.0160  142.8663 LP  0  0  0  0  0  0  0  0  0  0  0  0  # atno 17320 bound_to 7965
  145.1527  140.9632  143.4423 LP  0  0  0  0  0  0  0  0  0  0  0  0  # atno 17321 bound_to 7965
  139.5600  144.2179  152.1676 LP  0  0  0  0  0  0  0  0  0  0  0  0  # atno 17342 bound_to 10162
  140.1444  144.5172  150.6724 LP  0  0  0  0  0  0  0  0  0  0  0  0  # atno 17343 bound_to 10162
  157.3288  130.6974  149.6312 LP  0  0  0  0  0  0  0  0  0  0  0  0  # atno 17370 bound_to 10713
  155.9666  130.4313  150.4916 LP  0  0  0  0  0  0  0  0  0  0  0  0  # atno 17371 bound_to 10713
  140.9824  134.1388  157.4483 LP  0  0  0  0  0  0  0  0  0  0  0  0  # atno 17394 bound_to 11000
  139.8803  135.0014  156.6069 LP  0  0  0  0  0  0  0  0  0  0  0  0  # atno 17395 bound_to 11000

$$$$
