AV-unprocessed.smi:1885|AV-procd|sdf|7651|dock5
  -GOLD-   22720 9383D 1   1.00000     0.00000
 Structure written by MMmdl.
 43 45  0  0  0  0  0  0  0  0  1 V2000
  143.2512  146.1585  155.4195 C   0  0  0  0  0  0  0  0  0  0  0  0
  143.8526  145.2082  156.2865 O   0  0  0  0  0  0  0  0  0  0  0  0
  144.7800  144.3396  155.7520 C   0  0  0  0  0  0  0  0  0  0  0  0
  145.0660  144.2327  154.3674 C   0  0  0  0  0  0  0  0  0  0  0  0
  146.0263  143.3113  153.9063 C   0  0  0  0  0  0  0  0  0  0  0  0
  146.7096  142.4805  154.8171 C   0  0  0  0  0  0  0  0  0  0  0  0
  147.7332  141.4789  154.3210 C   0  0  0  0  0  0  0  0  0  0  0  0
  148.4153  140.8617  155.3999 O   0  0  0  0  0  0  0  0  0  0  0  0
  149.7718  141.2616  155.5051 C   0  0  0  0  0  0  0  0  0  0  0  0
  149.9502  142.2040  156.7111 C   0  0  1  0  0  0  0  0  0  0  0  0
  149.3331  141.6347  157.8462 O   0  0  0  0  0  0  0  0  0  0  0  0
  151.4089  142.5889  157.0423 C   0  0  0  0  0  0  0  0  0  0  0  0
  151.5350  143.3091  158.2980 N   0  0  0  0  0  0  0  0  0  0  0  0
  151.0102  144.5130  158.5976 C   0  0  0  0  0  0  0  0  0  0  0  0
  151.2603  145.0023  159.8087 N   0  0  0  0  0  0  0  0  0  0  0  0
  152.0282  143.9937  160.3652 C   0  0  0  0  0  0  0  0  0  0  0  0
  152.6231  143.8936  161.6433 C   0  0  0  0  0  0  0  0  0  0  0  0
  153.3703  142.7510  161.9975 C   0  0  0  0  0  0  0  0  0  0  0  0
  153.9341  142.6718  163.2262 F   0  0  0  0  0  0  0  0  0  0  0  0
  153.5325  141.6915  161.0808 C   0  0  0  0  0  0  0  0  0  0  0  0
  154.2499  140.5972  161.4294 F   0  0  0  0  0  0  0  0  0  0  0  0
  152.9530  141.7707  159.8002 C   0  0  0  0  0  0  0  0  0  0  0  0
  152.2105  142.9140  159.4492 C   0  0  0  0  0  0  0  0  0  0  0  0
  146.4378  142.5904  156.1952 C   0  0  0  0  0  0  0  0  0  0  0  0
  145.4786  143.5124  156.6553 C   0  0  0  0  0  0  0  0  0  0  0  0
  142.5336  146.7551  155.9826 H   0  0  0  0  0  0  0  0  0  0  0  0
  142.7097  145.6704  154.6077 H   0  0  0  0  0  0  0  0  0  0  0  0
  143.9917  146.8417  155.0016 H   0  0  0  0  0  0  0  0  0  0  0  0
  144.5595  144.8447  153.6367 H   0  0  0  0  0  0  0  0  0  0  0  0
  146.2275  143.2393  152.8474 H   0  0  0  0  0  0  0  0  0  0  0  0
  147.2291  140.7218  153.7178 H   0  0  0  0  0  0  0  0  0  0  0  0
  148.4475  141.9895  153.6738 H   0  0  0  0  0  0  0  0  0  0  0  0
  150.3921  140.3766  155.6570 H   0  0  0  0  0  0  0  0  0  0  0  0
  150.1118  141.7315  154.5807 H   0  0  0  0  0  0  0  0  0  0  0  0
  149.3960  143.1183  156.4955 H   0  0  0  0  0  0  0  0  0  0  0  0
  149.8312  140.8745  158.1063 H   0  0  0  0  0  0  0  0  0  0  0  0
  152.0357  141.6977  157.0892 H   0  0  0  0  0  0  0  0  0  0  0  0
  151.8195  143.2129  156.2477 H   0  0  0  0  0  0  0  0  0  0  0  0
  150.4196  145.0657  157.8813 H   0  0  0  0  0  0  0  0  0  0  0  0
  152.5039  144.6975  162.3543 H   0  0  0  0  0  0  0  0  0  0  0  0
  153.0864  140.9640  159.0951 H   0  0  0  0  0  0  0  0  0  0  0  0
  146.9595  141.9628  156.9029 H   0  0  0  0  0  0  0  0  0  0  0  0
  145.2738  143.5832  157.7135 H   0  0  0  0  0  0  0  0  0  0  0  0
  1  2  1  0  0  0  0
  1 26  1  0  0  0  0
  1 27  1  0  0  0  0
  1 28  1  0  0  0  0
  2  3  1  0  0  0  0
  3 25  1  0  0  0  0
  3  4  2  0  0  0  0
  4  5  1  0  0  0  0
  4 29  1  0  0  0  0
  5  6  2  0  0  0  0
  5 30  1  0  0  0  0
  6  7  1  0  0  0  0
  6 24  1  0  0  0  0
  7  8  1  0  0  0  0
  7 31  1  0  0  0  0
  7 32  1  0  0  0  0
  8  9  1  0  0  0  0
  9 10  1  0  0  0  0
  9 33  1  0  0  0  0
  9 34  1  0  0  0  0
 10 11  1  0  0  0  0
 10 12  1  0  0  0  0
 10 35  1  0  0  0  0
 11 36  1  0  0  0  0
 12 13  1  0  0  0  0
 12 37  1  0  0  0  0
 12 38  1  0  0  0  0
 13 23  1  0  0  0  0
 13 14  1  0  0  0  0
 14 15  2  0  0  0  0
 14 39  1  0  0  0  0
 15 16  1  0  0  0  0
 16 23  2  0  0  0  0
 16 17  1  0  0  0  0
 17 18  2  0  0  0  0
 17 40  1  0  0  0  0
 18 19  1  0  0  0  0
 18 20  1  0  0  0  0
 20 21  1  0  0  0  0
 20 22  2  0  0  0  0
 22 23  1  0  0  0  0
 22 41  1  0  0  0  0
 24 25  2  0  0  0  0
 24 42  1  0  0  0  0
 25 43  1  0  0  0  0
M  END
> <s_m_source_file>
AV-unprocessed.smi

> <i_m_source_file_index>
1885

> <i_lp_mmshare_version>
43012

> <i_f3d_flags>
0

> <s_epik_input>
W0NIM11PYzFbY0hdW2NIXWMoW2NIXVtjSF0xKVtDSDJdT1tDSDJdW0NASF0oW09IXSlbQ0gyXW4oW2NIXW4yKWMoYzIzKVtjSF1jKEYpYyhGKVtjSF0z

> <s_epik_cmdline>
J2VwaWtfcHl0aG9uJywgJy1waCcsICc3LjAnLCAnLXRuJywgJzgnLCAnLW1hJywgJzIwMCcsICctbWV0YWxfYmluZGluZycsICctaW1hZScsICc8aW5maWxlLm1hZT4nLCAnLW9tYWUnLCAnPG91dGZpbGUubWFlPic=

> <r_lp_tautomer_probability>
1

> <r_epik_Ionization_Penalty>
0.0160256

> <r_epik_Ionization_Penalty_Charging>
0

> <r_epik_Ionization_Penalty_Neutral>
0.0160256

> <r_epik_State_Penalty>
0.0126263

> <r_epik_Charging_Adjusted_Penalty>
0.0126263

> <i_epik_Tot_Q>
0

> <i_epik_Tot_abs_Q>
0

> <r_epik_Metal_State_Penalty>
1.27616e-05

> <b_epik_Metal_Only>
0

> <s_lp_Force_Field>
OPLS_2005

> <r_lp_Energy>
16.1037

> <b_lp_Chiralities_Consistent>
1

> <s_lp_Variant>
AV-unprocessed.smi:1885-2

> <Gold.Version>
5.8.1

> <Gold.Id.Protein>
6NUR|6NUR_protein|mol2

> <Gold.PLP.Fitness>
60.1871

> <Gold.PLP.PLP>
-58.8057

> <Gold.PLP.part.hbond>
0.0000

> <Gold.PLP.part.metal>
0.0000

> <Gold.PLP.part.buried>
-7.6017

> <Gold.PLP.part.nonpolar>
-51.6301

> <Gold.PLP.part.repulsive>
0.2820

> <Gold.PLP.ligand.clash>
0.0000

> <Gold.PLP.ligand.torsion>
0.8952

> <Gold.PLP.Chemscore.Hbond>
0.0000

> <Gold.PLP.Chemscore.CHOScore>
0.9853

> <Gold.PLP.Chemscore.Metal>
0.0000

> <Gold.Chemscore.Hbonds>
donor molecule, donor type, donor heavy atom, donor atom, acceptor molecule, acceptor atom, score
      L1  C    14    39       P1  8028  0.40
      L1  C    14    39       P1  8029  0.27

> <Gold.PLP.Chemscore.Internal.Correction>
0.2161

> <Gold.Rescore>
     Score         DG    S(hbond)    S(metal)    S(lipo)     H(rot)  DE(clash)    DE(int)     intcor
     10.82     -12.46       0.00        0.00     123.82       2.93       0.77       0.86       ----

> <Gold.Chemscore.Fitness>
10.8192

> <Gold.Chemscore.DG>
-12.4571

> <Gold.Chemscore.ZeroCoef>
-5.4800

> <Gold.Chemscore.Hbond>
0.0000

> <Gold.Chemscore.Metal>
0.0000

> <Gold.Chemscore.Lipo>
123.8190

> <Gold.Chemscore.Internal_Hbond>
0.0000

> <Gold.Chemscore.DEClash>
0.7740

> <Gold.Chemscore.DEInternal>
0.8639

> <Gold.Chemscore.Rot>
2.9335

> <Gold.Chemscore.Internal.Correction>
   9.000000E+99

> <Gold.Chemscore.Hbond.Weighted>
-0.0000

> <Gold.Chemscore.Metal.Weighted>
-0.0000

> <Gold.Chemscore.Lipo.Weighted>
-14.4868

> <Gold.Chemscore.Internal_Hbond.Weighted>
0.0000

> <Gold.Chemscore.DEClash.Weighted>
0.7740

> <Gold.Chemscore.DEInternal.Weighted>
0.8639

> <Gold.Chemscore.Rot.Weighted>
7.5097

> <Gold.Chemscore.Internal.Correction.Weighted>
   9.000000E+99

> <Gold.Protein.RotatedTorsions>
[ 6907 6896 6895 6894 ] final   -7.54 input  -60.11 | X-H torsion
[ 7974 7965 7964 7962 ] final  173.44 input  175.53 | X-H torsion
[ 8008 7997 7996 7995 ] final  -86.51 input   59.86 | X-H torsion
[ 10167 10162 10161 10158 ] final   51.74 input  -65.29 | X-H torsion
[ 10718 10713 10712 10709 ] final   44.99 input   66.30 | X-H torsion
[ 10763 10752 10751 10750 ] final  -39.88 input  -60.55 | X-H torsion
[ 11005 11000 10999 10996 ] final  -59.27 input  -57.11 | X-H torsion

> <Gold.Protein.ActiveResidues>
 VAL166  LYS551  ARG553  GLY616  TRP617  ASP618  TYR619  PRO620  LYS621  CYS622 
 ASP623  PHE694  ASN695  SER759  ASP760  ASP761  ALA762  ILE779  LEU786  VAL792 
 PHE793  MET794  SER795  GLU796  ALA797  LYS798  CYS799  TRP800  GLU811  SER814 

> <Gold.Protein.RotatedAtoms>
  151.4479  135.1027  159.9689 H   0  0  0  0  0  0  0  0  0  0  0  0  # atno 6907 bound_to 6896
  152.4899  133.8467  159.7191 H   0  0  0  0  0  0  0  0  0  0  0  0  # atno 6908 bound_to 6896
  150.9042  133.7020  159.2898 H   0  0  0  0  0  0  0  0  0  0  0  0  # atno 6909 bound_to 6896
  144.7244  139.9648  143.6435 H   0  0  0  0  0  0  0  0  0  0  0  0  # atno 7974 bound_to 7965
  154.6527  140.0577  156.9973 H   0  0  0  0  0  0  0  0  0  0  0  0  # atno 8008 bound_to 7997
  155.1347  140.3260  155.4447 H   0  0  0  0  0  0  0  0  0  0  0  0  # atno 8009 bound_to 7997
  156.2583  140.1974  156.6465 H   0  0  0  0  0  0  0  0  0  0  0  0  # atno 8010 bound_to 7997
  140.2587  144.3397  150.6325 H   0  0  0  0  0  0  0  0  0  0  0  0  # atno 10167 bound_to 10162
  157.4328  130.8035  149.7619 H   0  0  0  0  0  0  0  0  0  0  0  0  # atno 10718 bound_to 10713
  153.9366  135.6766  153.4745 H   0  0  0  0  0  0  0  0  0  0  0  0  # atno 10763 bound_to 10752
  153.0952  135.4855  154.8763 H   0  0  0  0  0  0  0  0  0  0  0  0  # atno 10764 bound_to 10752
  154.7399  135.3158  154.8704 H   0  0  0  0  0  0  0  0  0  0  0  0  # atno 10765 bound_to 10752
  141.1241  133.6615  156.5045 H   0  0  0  0  0  0  0  0  0  0  0  0  # atno 11005 bound_to 11000
  146.0609  139.3602  143.0582 LP  0  0  0  0  0  0  0  0  0  0  0  0  # atno 17320 bound_to 7965
  145.8094  140.9733  143.0957 LP  0  0  0  0  0  0  0  0  0  0  0  0  # atno 17321 bound_to 7965
  140.5983  143.2167  151.7121 LP  0  0  0  0  0  0  0  0  0  0  0  0  # atno 17342 bound_to 10162
  139.5023  144.3832  152.0354 LP  0  0  0  0  0  0  0  0  0  0  0  0  # atno 17343 bound_to 10162
  155.9919  130.3934  150.2963 LP  0  0  0  0  0  0  0  0  0  0  0  0  # atno 17370 bound_to 10713
  157.1122  131.0224  151.3043 LP  0  0  0  0  0  0  0  0  0  0  0  0  # atno 17371 bound_to 10713
  140.4418  134.7008  157.4996 LP  0  0  0  0  0  0  0  0  0  0  0  0  # atno 17394 bound_to 11000
  140.0224  134.6528  155.9221 LP  0  0  0  0  0  0  0  0  0  0  0  0  # atno 17395 bound_to 11000

$$$$
