#       Name:                AV-unprocessed.smi:1246
#       Creating user name   scv26
#       Creation time:       Fri Mar 27 04:35:07 2020


#       File generated by GOLD software.
#

@<TRIPOS>MOLECULE
AV-unprocessed.smi:1246
    40    41     1
SMALL
NO_CHARGES


@<TRIPOS>ATOM
      1 ****        -5.8154   0.1159   0.2955 C.3            1 S1                 0.0000
      2 ****        -4.4368   0.7068   0.3296 C.2            1 S1                 0.0000
      3 ****        -3.1994   0.0358   0.5536 C.2            1 S1                 0.0000
      4 ****        -2.2876   1.0530   0.4761 C.2            1 S1                 0.0000
      5 ****        -0.9363   1.0034   0.6168 N.am           1 S1                 0.0000
      6 ****        -0.1511  -0.0679   0.8244 C.2            1 S1                 0.0000
      7 ****        -0.5399  -1.2323   0.9188 O.2            1 S1                 0.0000
      8 ****         1.1377   0.2891   0.9136 N.am           1 S1                 0.0000
      9 ****         2.2503  -0.6319   1.1147 C.3            1 S1                 0.0000
     10 ****         2.6678  -1.3094  -0.2008 C.3            1 S1                 0.0000
     11 ****         3.8115  -2.3070  -0.0432 C.3            1 S1                 0.0000
     12 ****         4.3384  -2.3854  -1.4586 C.3            1 S1                 0.0000
     13 ****         4.1679  -0.9496  -1.9544 C.3            1 S1                 0.0000
     14 ****         3.1753  -0.3511  -1.1233 O.3            1 S1                 0.0000
     15 ****        -2.9550   2.2309   0.2245 N.pl3          1 S1                 0.0000
     16 ****        -2.4270   3.5714   0.0618 C.3            1 S1                 0.0000
     17 ****        -4.2846   2.0119   0.1347 N.2            1 S1                 0.0000
     18 ****        -5.7884  -0.9583   0.4792 H              1 S1                 0.0000
     19 ****        -6.2863   0.2748  -0.6748 H              1 S1                 0.0000
     20 ****        -6.4547   0.5661   1.0552 H              1 S1                 0.0000
     21 ****        -3.0325  -1.0144   0.7394 H              1 S1                 0.0000
     22 ****        -0.4644   1.8932   0.5503 H              1 S1                 0.0000
     23 ****         1.3705   1.2667   0.8198 H              1 S1                 0.0000
     24 ****         3.0885  -0.0729   1.5313 H              1 S1                 0.0000
     25 ****         1.9793  -1.3836   1.8579 H              1 S1                 0.0000
     26 ****         1.8167  -1.8139  -0.6620 H              1 S1                 0.0000
     27 ****         4.5807  -1.9099   0.6209 H              1 S1                 0.0000
     28 ****         3.4850  -3.2717   0.3459 H              1 S1                 0.0000
     29 ****         5.3692  -2.7360  -1.5140 H              1 S1                 0.0000
     30 ****         3.7167  -3.0608  -2.0480 H              1 S1                 0.0000
     31 ****         5.0963  -0.3879  -1.8463 H              1 S1                 0.0000
     32 ****         3.8726  -0.9164  -3.0034 H              1 S1                 0.0000
     33 ****        -1.6565   3.5714  -0.7091 H              1 S1                 0.0000
     34 ****        -1.9909   3.9081   1.0023 H              1 S1                 0.0000
     35 ****        -3.2179   4.2636  -0.2301 H              1 S1                 0.0000
     36 ****        -1.5145  -1.4420   0.8403 LP             1 S1                 0.0000
     37 ****         0.1189  -1.9684   1.0741 LP             1 S1                 0.0000
     38 ****         3.5816   0.4108  -0.6189 LP             1 S1                 0.0000
     39 ****         2.4270  -0.0121  -1.6934 LP             1 S1                 0.0000
     40 ****        -5.0008   2.6873  -0.0408 LP             1 S1                 0.0000
@<TRIPOS>BOND
    1    1    2 1     
    2    1   18 1     
    3    1   19 1     
    4    1   20 1     
    5    2   17 2     
    6    2    3 1     
    7    3    4 2     
    8    3   21 1     
    9    4    5 1     
   10    4   15 1     
   11    5    6 am    
   12    5   22 1     
   13    6    7 2     
   14    6    8 am    
   15    8    9 1     
   16    8   23 1     
   17    9   10 1     
   18    9   24 1     
   19    9   25 1     
   20   10   14 1     
   21   10   11 1     
   22   10   26 1     
   23   11   12 1     
   24   11   27 1     
   25   11   28 1     
   26   12   13 1     
   27   12   29 1     
   28   12   30 1     
   29   13   14 1     
   30   13   31 1     
   31   13   32 1     
   32   15   16 1     
   33   15   17 1     
   34   16   33 1     
   35   16   34 1     
   36   16   35 1     
   37    7   36 1     
   38    7   37 1     
   39   14   38 1     
   40   14   39 1     
   41   17   40 1     
@<TRIPOS>SUBSTRUCTURE
      1 S1             1
@<TRIPOS>SET
LONE_PAIRS      STATIC     ATOMS    <user>   **** ""
5 36 37 38 39 40
DONOR_HYDROGENS      STATIC     ATOMS    <user>   **** ""
2 22 23
ATOM$BLUE        STATIC     ATOMS    COLORGROUP SYSTEM
5 36 37 38 39 40
ATOM$RED        STATIC     ATOMS    COLORGROUP SYSTEM
2 22 23
