AV-unprocessed.smi:2868|AV-procd|sdf|11027|dock3
  -GOLD-   2272015493D 1   1.00000     0.00000
 Structure written by MMmdl.
 49 50  0  0  0  0  0  0  0  0  1 V2000
  149.7823  136.0187  159.4158 C   0  0  0  0  0  0  0  0  0  0  0  0
  148.8747  136.0917  158.1755 C   0  0  0  0  0  0  0  0  0  0  0  0
  147.4704  135.5739  158.5519 C   0  0  0  0  0  0  0  0  0  0  0  0
  148.8042  137.5558  157.6925 C   0  0  0  0  0  0  0  0  0  0  0  0
  149.4848  135.2357  157.1511 N   0  0  0  0  0  0  0  0  0  0  0  0
  149.7495  133.9156  157.2025 C   0  0  0  0  0  0  0  0  0  0  0  0
  149.4778  133.2215  158.1829 O   0  0  0  0  0  0  0  0  0  0  0  0
  150.3256  133.4131  156.0804 N   0  0  0  0  0  0  0  0  0  0  0  0
  150.8324  132.0427  155.8950 C   0  0  0  0  0  0  0  0  0  0  0  0
  149.8447  131.2662  155.0059 C   0  0  0  0  0  0  0  0  0  0  0  0
  149.6207  131.9831  153.6565 C   0  0  0  0  0  0  0  0  0  0  0  0
  148.5452  131.3216  152.9245 N   0  0  0  0  0  0  0  0  0  0  0  0
  147.2626  131.2621  153.3152 C   0  0  0  0  0  0  0  0  0  0  0  0
  146.8453  131.7629  154.3591 O   0  0  0  0  0  0  0  0  0  0  0  0
  146.2994  130.5291  152.3816 C   0  0  0  0  0  0  0  0  0  0  0  0
  145.5202  131.5261  151.5431 C   0  0  0  0  0  0  0  0  0  0  0  0
  145.6290  131.5336  150.1369 C   0  0  0  0  0  0  0  0  0  0  0  0
  144.8872  132.4798  149.4040 C   0  0  0  0  0  0  0  0  0  0  0  0
  144.0650  133.3803  150.1104 C   0  0  0  0  0  0  0  0  0  0  0  0
  143.9523  133.3821  151.4561 N   0  0  0  0  0  0  0  0  0  0  0  0
  144.6679  132.4722  152.1516 C   0  0  0  0  0  0  0  0  0  0  0  0
  149.3040  133.4835  153.8590 C   0  0  0  0  0  0  0  0  0  0  0  0
  150.3187  134.1460  154.8085 C   0  0  0  0  0  0  0  0  0  0  0  0
  149.3986  136.6397  160.2261 H   0  0  0  0  0  0  0  0  0  0  0  0
  150.7928  136.3624  159.1909 H   0  0  0  0  0  0  0  0  0  0  0  0
  149.8589  134.9984  159.7942 H   0  0  0  0  0  0  0  0  0  0  0  0
  147.5019  134.5281  158.8596 H   0  0  0  0  0  0  0  0  0  0  0  0
  146.7675  135.6527  157.7226 H   0  0  0  0  0  0  0  0  0  0  0  0
  147.0504  136.1460  159.3799 H   0  0  0  0  0  0  0  0  0  0  0  0
  148.4505  138.2145  158.4866 H   0  0  0  0  0  0  0  0  0  0  0  0
  148.1226  137.6783  156.8509 H   0  0  0  0  0  0  0  0  0  0  0  0
  149.7840  137.9179  157.3791 H   0  0  0  0  0  0  0  0  0  0  0  0
  149.7430  135.7062  156.2959 H   0  0  0  0  0  0  0  0  0  0  0  0
  151.8098  132.0856  155.4120 H   0  0  0  0  0  0  0  0  0  0  0  0
  150.9984  131.5008  156.8259 H   0  0  0  0  0  0  0  0  0  0  0  0
  150.2144  130.2546  154.8342 H   0  0  0  0  0  0  0  0  0  0  0  0
  148.8956  131.1628  155.5344 H   0  0  0  0  0  0  0  0  0  0  0  0
  150.5454  131.9009  153.0819 H   0  0  0  0  0  0  0  0  0  0  0  0
  148.7938  130.8806  152.0510 H   0  0  0  0  0  0  0  0  0  0  0  0
  146.8457  129.8429  151.7327 H   0  0  0  0  0  0  0  0  0  0  0  0
  145.6108  129.9228  152.9715 H   0  0  0  0  0  0  0  0  0  0  0  0
  146.2713  130.8296  149.6282 H   0  0  0  0  0  0  0  0  0  0  0  0
  144.9471  132.5152  148.3262 H   0  0  0  0  0  0  0  0  0  0  0  0
  143.4821  134.1190  149.5804 H   0  0  0  0  0  0  0  0  0  0  0  0
  144.5578  132.5015  153.2257 H   0  0  0  0  0  0  0  0  0  0  0  0
  149.3030  134.0027  152.9000 H   0  0  0  0  0  0  0  0  0  0  0  0
  148.3007  133.5978  154.2728 H   0  0  0  0  0  0  0  0  0  0  0  0
  150.0796  135.2033  154.9305 H   0  0  0  0  0  0  0  0  0  0  0  0
  151.3163  134.1202  154.3677 H   0  0  0  0  0  0  0  0  0  0  0  0
  1  2  1  0  0  0  0
  1 24  1  0  0  0  0
  1 25  1  0  0  0  0
  1 26  1  0  0  0  0
  2  3  1  0  0  0  0
  2  4  1  0  0  0  0
  2  5  1  0  0  0  0
  3 27  1  0  0  0  0
  3 28  1  0  0  0  0
  3 29  1  0  0  0  0
  4 30  1  0  0  0  0
  4 31  1  0  0  0  0
  4 32  1  0  0  0  0
  5  6  1  0  0  0  0
  5 33  1  0  0  0  0
  6  7  2  0  0  0  0
  6  8  1  0  0  0  0
  8 23  1  0  0  0  0
  8  9  1  0  0  0  0
  9 10  1  0  0  0  0
  9 34  1  0  0  0  0
  9 35  1  0  0  0  0
 10 11  1  0  0  0  0
 10 36  1  0  0  0  0
 10 37  1  0  0  0  0
 11 12  1  0  0  0  0
 11 22  1  0  0  0  0
 11 38  1  0  0  0  0
 12 13  1  0  0  0  0
 12 39  1  0  0  0  0
 13 14  2  0  0  0  0
 13 15  1  0  0  0  0
 15 16  1  0  0  0  0
 15 40  1  0  0  0  0
 15 41  1  0  0  0  0
 16 21  1  0  0  0  0
 16 17  2  0  0  0  0
 17 18  1  0  0  0  0
 17 42  1  0  0  0  0
 18 19  2  0  0  0  0
 18 43  1  0  0  0  0
 19 20  1  0  0  0  0
 19 44  1  0  0  0  0
 20 21  2  0  0  0  0
 21 45  1  0  0  0  0
 22 23  1  0  0  0  0
 22 46  1  0  0  0  0
 22 47  1  0  0  0  0
 23 48  1  0  0  0  0
 23 49  1  0  0  0  0
M  END
> <s_m_source_file>
AV-unprocessed.smi

> <i_m_source_file_index>
2868

> <i_lp_mmshare_version>
43012

> <i_f3d_flags>
0

> <s_epik_input>
W0NIM11DKFtDSDNdKShbQ0gzXSlbTkhdQyg9TylOMVtDSDJdW0NIMl1bQ0hdKFtDSDJdW0NIMl0xKVtOSF1DKD1PKVtDSDJdYzJbY0hdW2NIXVtjSF1uW2NIXTI=

> <s_epik_cmdline>
J2VwaWtfcHl0aG9uJywgJy1waCcsICc3LjAnLCAnLXRuJywgJzgnLCAnLW1hJywgJzIwMCcsICctbWV0YWxfYmluZGluZycsICctaW1hZScsICc8aW5maWxlLm1hZT4nLCAnLW9tYWUnLCAnPG91dGZpbGUubWFlPic=

> <r_epik_Ionization_Penalty>
0.00419782

> <r_epik_Ionization_Penalty_Charging>
0

> <r_epik_Ionization_Penalty_Neutral>
0.00419782

> <r_epik_State_Penalty>
0.0029617

> <r_epik_Charging_Adjusted_Penalty>
0.0029617

> <i_epik_Tot_Q>
0

> <i_epik_Tot_abs_Q>
0

> <r_epik_Metal_State_Penalty>
-0

> <b_epik_Metal_Only>
0

> <s_lp_Force_Field>
OPLS_2005

> <r_lp_Energy>
29.348

> <b_lp_Chiralities_Consistent>
1

> <s_lp_Variant>
AV-unprocessed.smi:2868-1

> <Gold.Version>
5.8.1

> <Gold.Id.Protein>
6NUR|6NUR_protein|mol2

> <Gold.PLP.Fitness>
42.9613

> <Gold.PLP.PLP>
-33.4007

> <Gold.PLP.part.hbond>
-2.0000

> <Gold.PLP.part.metal>
0.0000

> <Gold.PLP.part.buried>
-4.5190

> <Gold.PLP.part.nonpolar>
-27.6207

> <Gold.PLP.part.repulsive>
0.3129

> <Gold.PLP.ligand.clash>
1.2703

> <Gold.PLP.ligand.torsion>
0.3623

> <Gold.PLP.Chemscore.Hbond>
2.0000

> <Gold.PLP.Chemscore.CHOScore>
1.8273

> <Gold.PLP.Chemscore.Metal>
0.0000

> <Gold.Chemscore.Hbonds>
donor molecule, donor type, donor heavy atom, donor atom, acceptor molecule, acceptor atom, score
      L1  H    12    39       P1 10747  1.00
      P1  H  6896  6908       L1     7  0.90
      L1  C    19    44       P1 10186  0.98
      L1  C    21    45       P1 10957  0.83

> <Gold.PLP.Chemscore.Internal.Correction>
0.0736

> <Gold.Rescore>
     Score         DG    S(hbond)    S(metal)    S(lipo)     H(rot)  DE(clash)    DE(int)     intcor
     16.58     -18.70       1.94        0.00      91.02       1.52       0.39       1.73       ----

> <Gold.Chemscore.Fitness>
16.5805

> <Gold.Chemscore.DG>
-18.7023

> <Gold.Chemscore.ZeroCoef>
-5.4800

> <Gold.Chemscore.Hbond>
1.9350

> <Gold.Chemscore.Metal>
0.0000

> <Gold.Chemscore.Lipo>
91.0236

> <Gold.Chemscore.Internal_Hbond>
0.0000

> <Gold.Chemscore.DEClash>
0.3877

> <Gold.Chemscore.DEInternal>
1.7342

> <Gold.Chemscore.Rot>
1.5197

> <Gold.Chemscore.Internal.Correction>
   9.000000E+99

> <Gold.Chemscore.Hbonds>
donor molecule, donor type, donor heavy atom, donor atom, acceptor molecule, acceptor atom, score
      L1  H    12    39       P1 10747  0.68
      P1  H  6896  6908       L1     7  0.18

> <Gold.Chemscore.Hbond.Weighted>
-6.4630

> <Gold.Chemscore.Metal.Weighted>
-0.0000

> <Gold.Chemscore.Lipo.Weighted>
-10.6498

> <Gold.Chemscore.Internal_Hbond.Weighted>
0.0000

> <Gold.Chemscore.DEClash.Weighted>
0.3877

> <Gold.Chemscore.DEInternal.Weighted>
1.7342

> <Gold.Chemscore.Rot.Weighted>
3.8904

> <Gold.Chemscore.Internal.Correction.Weighted>
   9.000000E+99

> <Gold.Protein.RotatedTorsions>
[ 6907 6896 6895 6894 ] final  118.82 input  -60.11 | X-H torsion
[ 7974 7965 7964 7962 ] final   -8.49 input  175.53 | X-H torsion
[ 8008 7997 7996 7995 ] final   17.08 input   59.86 | X-H torsion
[ 10167 10162 10161 10158 ] final  131.63 input  -65.29 | X-H torsion
[ 10718 10713 10712 10709 ] final -132.75 input   66.30 | X-H torsion
[ 10763 10752 10751 10750 ] final    6.40 input  -60.55 | X-H torsion
[ 11005 11000 10999 10996 ] final   76.75 input  -57.11 | X-H torsion

> <Gold.Protein.ActiveResidues>
 VAL166  LYS551  ARG553  GLY616  TRP617  ASP618  TYR619  PRO620  LYS621  CYS622 
 ASP623  PHE694  ASN695  SER759  ASP760  ASP761  ALA762  ILE779  LEU786  VAL792 
 PHE793  MET794  SER795  GLU796  ALA797  LYS798  CYS799  TRP800  GLU811  SER814 

> <Gold.Protein.RotatedAtoms>
  152.4516  133.7641  159.6762 H   0  0  0  0  0  0  0  0  0  0  0  0  # atno 6907 bound_to 6896
  150.8430  133.7896  159.3060 H   0  0  0  0  0  0  0  0  0  0  0  0  # atno 6908 bound_to 6896
  151.5515  135.1070  160.0002 H   0  0  0  0  0  0  0  0  0  0  0  0  # atno 6909 bound_to 6896
  146.2279  140.2475  142.8346 H   0  0  0  0  0  0  0  0  0  0  0  0  # atno 7974 bound_to 7965
  154.8862  140.2980  155.5396 H   0  0  0  0  0  0  0  0  0  0  0  0  # atno 8008 bound_to 7997
  156.3021  140.2433  156.3806 H   0  0  0  0  0  0  0  0  0  0  0  0  # atno 8009 bound_to 7997
  154.8665  140.0403  157.1687 H   0  0  0  0  0  0  0  0  0  0  0  0  # atno 8010 bound_to 7997
  139.5375  144.6698  151.4735 H   0  0  0  0  0  0  0  0  0  0  0  0  # atno 10167 bound_to 10162
  156.2378  130.7077  151.0925 H   0  0  0  0  0  0  0  0  0  0  0  0  # atno 10718 bound_to 10713
  153.2482  135.6911  153.7708 H   0  0  0  0  0  0  0  0  0  0  0  0  # atno 10763 bound_to 10752
  153.6812  135.3328  155.3179 H   0  0  0  0  0  0  0  0  0  0  0  0  # atno 10764 bound_to 10752
  154.8383  135.4523  154.1429 H   0  0  0  0  0  0  0  0  0  0  0  0  # atno 10765 bound_to 10752
  139.9284  134.7627  156.1435 H   0  0  0  0  0  0  0  0  0  0  0  0  # atno 11005 bound_to 11000
  144.9437  140.8105  143.5615 LP  0  0  0  0  0  0  0  0  0  0  0  0  # atno 17320 bound_to 7965
  145.2429  139.2064  143.4983 LP  0  0  0  0  0  0  0  0  0  0  0  0  # atno 17321 bound_to 7965
  140.6589  143.8540  150.6866 LP  0  0  0  0  0  0  0  0  0  0  0  0  # atno 17342 bound_to 10162
  140.1928  143.4022  152.1850 LP  0  0  0  0  0  0  0  0  0  0  0  0  # atno 17343 bound_to 10162
  157.7162  131.0708  150.6318 LP  0  0  0  0  0  0  0  0  0  0  0  0  # atno 17370 bound_to 10713
  156.6389  130.4453  149.5759 LP  0  0  0  0  0  0  0  0  0  0  0  0  # atno 17371 bound_to 10713
  141.0857  133.6735  156.2432 LP  0  0  0  0  0  0  0  0  0  0  0  0  # atno 17394 bound_to 11000
  140.6270  134.5303  157.5555 LP  0  0  0  0  0  0  0  0  0  0  0  0  # atno 17395 bound_to 11000

$$$$
