AV-unprocessed.smi:3277|AV-procd|sdf|12536|dock7
  -GOLD-   2272018453D 1   1.00000     0.00000
 Structure written by MMmdl.
 35 37  0  0  0  0  0  0  0  0  1 V2000
  153.6101  138.1285  160.4186 C   0  0  0  0  0  0  0  0  0  0  0  0
  153.0578  138.3092  159.0852 N   0  0  0  0  0  0  0  0  0  0  0  0
  151.9417  137.7113  158.6423 C   0  0  0  0  0  0  0  0  0  0  0  0
  151.2655  136.9472  159.3307 O   0  0  0  0  0  0  0  0  0  0  0  0
  151.5182  138.0257  157.2064 C   0  0  0  0  0  0  0  0  0  0  0  0
  151.2328  139.4905  157.1161 C   0  0  0  0  0  0  0  0  0  0  0  0
  151.3607  140.3325  158.1451 N   0  0  0  0  0  0  0  0  0  0  0  0
  151.0386  141.6535  157.8129 C   0  0  0  0  0  0  0  0  0  0  0  0
  151.1147  142.7525  158.8403 C   0  0  2  0  0  0  0  0  0  0  0  0
  150.7399  144.1584  158.3235 C   0  0  0  0  0  0  0  0  0  0  0  0
  151.9088  145.0240  158.8333 C   0  0  1  0  0  0  0  0  0  0  0  0
  151.8727  145.1048  160.3726 C   0  0  0  0  0  0  0  0  0  0  0  0
  152.3466  143.7010  160.8020 C   0  0  0  0  0  0  0  0  0  0  0  0
  152.5177  142.9775  159.4520 C   0  0  2  0  0  0  0  0  0  0  0  0
  153.0983  144.1022  158.5970 C   0  0  0  0  0  0  0  0  0  0  0  0
  150.6676  141.7977  156.4989 C   0  0  0  0  0  0  0  0  0  0  0  0
  150.7103  140.2857  155.6353 S   0  0  0  0  0  0  0  0  0  0  0  0
  154.5477  138.6766  160.5103 H   0  0  0  0  0  0  0  0  0  0  0  0
  153.8101  137.0753  160.6186 H   0  0  0  0  0  0  0  0  0  0  0  0
  152.9209  138.5030  161.1760 H   0  0  0  0  0  0  0  0  0  0  0  0
  153.5559  138.9237  158.4578 H   0  0  0  0  0  0  0  0  0  0  0  0
  152.3126  137.7578  156.5085 H   0  0  0  0  0  0  0  0  0  0  0  0
  150.6287  137.4581  156.9311 H   0  0  0  0  0  0  0  0  0  0  0  0
  150.4265  142.4927  159.6464 H   0  0  0  0  0  0  0  0  0  0  0  0
  150.7069  144.1881  157.2334 H   0  0  0  0  0  0  0  0  0  0  0  0
  149.7704  144.4949  158.6922 H   0  0  0  0  0  0  0  0  0  0  0  0
  151.9765  145.9962  158.3445 H   0  0  0  0  0  0  0  0  0  0  0  0
  152.5579  145.8693  160.7408 H   0  0  0  0  0  0  0  0  0  0  0  0
  150.8756  145.3395  160.7468 H   0  0  0  0  0  0  0  0  0  0  0  0
  153.3002  143.7640  161.3277 H   0  0  0  0  0  0  0  0  0  0  0  0
  151.6371  143.2028  161.4637 H   0  0  0  0  0  0  0  0  0  0  0  0
  153.1259  142.0751  159.5236 H   0  0  0  0  0  0  0  0  0  0  0  0
  153.2360  143.8344  157.5489 H   0  0  0  0  0  0  0  0  0  0  0  0
  154.0378  144.5002  158.9847 H   0  0  0  0  0  0  0  0  0  0  0  0
  150.3729  142.7019  155.9869 H   0  0  0  0  0  0  0  0  0  0  0  0
  1  2  1  0  0  0  0
  1 18  1  0  0  0  0
  1 19  1  0  0  0  0
  1 20  1  0  0  0  0
  2  3  1  0  0  0  0
  2 21  1  0  0  0  0
  3  4  2  0  0  0  0
  3  5  1  0  0  0  0
  5  6  1  0  0  0  0
  5 22  1  0  0  0  0
  5 23  1  0  0  0  0
  6 17  1  0  0  0  0
  6  7  2  0  0  0  0
  7  8  1  0  0  0  0
  8  9  1  0  0  0  0
  8 16  2  0  0  0  0
  9 14  1  0  0  0  0
  9 10  1  0  0  0  0
  9 24  1  0  0  0  0
 10 11  1  0  0  0  0
 10 25  1  0  0  0  0
 10 26  1  0  0  0  0
 11 15  1  0  0  0  0
 11 12  1  0  0  0  0
 11 27  1  0  0  0  0
 12 13  1  0  0  0  0
 12 28  1  0  0  0  0
 12 29  1  0  0  0  0
 13 14  1  0  0  0  0
 13 30  1  0  0  0  0
 13 31  1  0  0  0  0
 14 15  1  0  0  0  0
 14 32  1  0  0  0  0
 15 33  1  0  0  0  0
 15 34  1  0  0  0  0
 16 17  1  0  0  0  0
 16 35  1  0  0  0  0
M  END
> <s_m_source_file>
AV-unprocessed.smi

> <i_m_source_file_index>
3277

> <i_lp_mmshare_version>
43012

> <i_f3d_flags>
0

> <s_epik_input>
W0NIM11bTkhdQyg9TylbQ0gyXWMxbmMoW2NIXXMxKVtDQEhdKFtDSDJdW0NAQEhdMjMpW0NAQEhdKFtDSDJdMylbQ0gyXVtDSDJdMg==

> <s_epik_cmdline>
J2VwaWtfcHl0aG9uJywgJy1waCcsICc3LjAnLCAnLXRuJywgJzgnLCAnLW1hJywgJzIwMCcsICctbWV0YWxfYmluZGluZycsICctaW1hZScsICc8aW5maWxlLm1hZT4nLCAnLW9tYWUnLCAnPG91dGZpbGUubWFlPic=

> <r_lp_tautomer_probability>
1

> <r_epik_Ionization_Penalty>
8.50008e-05

> <r_epik_Ionization_Penalty_Charging>
0

> <r_epik_Ionization_Penalty_Neutral>
8.50008e-05

> <r_epik_State_Penalty>
-0

> <r_epik_Charging_Adjusted_Penalty>
0

> <i_epik_Tot_Q>
0

> <i_epik_Tot_abs_Q>
0

> <r_epik_Metal_State_Penalty>
-0

> <b_epik_Metal_Only>
0

> <s_lp_Force_Field>
OPLS_2005

> <r_lp_Energy>
44.9061

> <b_lp_Chiralities_Consistent>
1

> <s_lp_Variant>
AV-unprocessed.smi:3277-1

> <Gold.Version>
5.8.1

> <Gold.Id.Protein>
6NUR|6NUR_protein|mol2

> <Gold.PLP.Fitness>
44.4072

> <Gold.PLP.PLP>
-38.4169

> <Gold.PLP.part.hbond>
-1.0000

> <Gold.PLP.part.metal>
0.0000

> <Gold.PLP.part.buried>
-5.3875

> <Gold.PLP.part.nonpolar>
-32.3898

> <Gold.PLP.part.repulsive>
0.0866

> <Gold.PLP.ligand.clash>
0.0000

> <Gold.PLP.ligand.torsion>
0.0057

> <Gold.PLP.Chemscore.Hbond>
1.0000

> <Gold.PLP.Chemscore.CHOScore>
1.0000

> <Gold.PLP.Chemscore.Metal>
0.0000

> <Gold.Chemscore.Hbonds>
donor molecule, donor type, donor heavy atom, donor atom, acceptor molecule, acceptor atom, score
      P1  H  6896  6908       L1     4  1.00
      L1  C    16    35       P1  8028  1.00

> <Gold.PLP.Chemscore.Internal.Correction>
0.0017

> <Gold.Rescore>
     Score         DG    S(hbond)    S(metal)    S(lipo)     H(rot)  DE(clash)    DE(int)     intcor
     17.89     -19.25       0.99        0.00     120.20       1.41       0.01       1.35       ----

> <Gold.Chemscore.Fitness>
17.8901

> <Gold.Chemscore.DG>
-19.2502

> <Gold.Chemscore.ZeroCoef>
-5.4800

> <Gold.Chemscore.Hbond>
0.9945

> <Gold.Chemscore.Metal>
0.0000

> <Gold.Chemscore.Lipo>
120.2013

> <Gold.Chemscore.Internal_Hbond>
0.0000

> <Gold.Chemscore.DEClash>
0.0069

> <Gold.Chemscore.DEInternal>
1.3532

> <Gold.Chemscore.Rot>
1.4122

> <Gold.Chemscore.Internal.Correction>
   9.000000E+99

> <Gold.Chemscore.Hbonds>
donor molecule, donor type, donor heavy atom, donor atom, acceptor molecule, acceptor atom, score
      P1  H  6896  6908       L1     4  0.99

> <Gold.Chemscore.Hbond.Weighted>
-3.3218

> <Gold.Chemscore.Metal.Weighted>
-0.0000

> <Gold.Chemscore.Lipo.Weighted>
-14.0636

> <Gold.Chemscore.Internal_Hbond.Weighted>
0.0000

> <Gold.Chemscore.DEClash.Weighted>
0.0069

> <Gold.Chemscore.DEInternal.Weighted>
1.3532

> <Gold.Chemscore.Rot.Weighted>
3.6151

> <Gold.Chemscore.Internal.Correction.Weighted>
   9.000000E+99

> <Gold.Protein.RotatedTorsions>
[ 6907 6896 6895 6894 ] final -124.67 input  -60.11 | X-H torsion
[ 7974 7965 7964 7962 ] final   39.37 input  175.53 | X-H torsion
[ 8008 7997 7996 7995 ] final  -28.53 input   59.86 | X-H torsion
[ 10167 10162 10161 10158 ] final -160.43 input  -65.29 | X-H torsion
[ 10718 10713 10712 10709 ] final -109.73 input   66.30 | X-H torsion
[ 10763 10752 10751 10750 ] final  174.22 input  -60.55 | X-H torsion
[ 11005 11000 10999 10996 ] final  -35.78 input  -57.11 | X-H torsion

> <Gold.Protein.ActiveResidues>
 VAL166  LYS551  ARG553  GLY616  TRP617  ASP618  TYR619  PRO620  LYS621  CYS622 
 ASP623  PHE694  ASN695  SER759  ASP760  ASP761  ALA762  ILE779  LEU786  VAL792 
 PHE793  MET794  SER795  GLU796  ALA797  LYS798  CYS799  TRP800  GLU811  SER814 

> <Gold.Protein.RotatedAtoms>
  150.8791  133.7396  159.2937 H   0  0  0  0  0  0  0  0  0  0  0  0  # atno 6907 bound_to 6896
  151.4983  135.1059  159.9832 H   0  0  0  0  0  0  0  0  0  0  0  0  # atno 6908 bound_to 6896
  152.4748  133.8067  159.7037 H   0  0  0  0  0  0  0  0  0  0  0  0  # atno 6909 bound_to 6896
  146.0989  139.5660  142.9427 H   0  0  0  0  0  0  0  0  0  0  0  0  # atno 7974 bound_to 7965
  154.4328  140.1843  156.1105 H   0  0  0  0  0  0  0  0  0  0  0  0  # atno 8008 bound_to 7997
  156.0222  140.3339  155.7025 H   0  0  0  0  0  0  0  0  0  0  0  0  # atno 8009 bound_to 7997
  155.5960  140.0635  157.2736 H   0  0  0  0  0  0  0  0  0  0  0  0  # atno 8010 bound_to 7997
  139.6540  144.0032  152.2181 H   0  0  0  0  0  0  0  0  0  0  0  0  # atno 10167 bound_to 10162
  156.0553  130.5779  150.8140 H   0  0  0  0  0  0  0  0  0  0  0  0  # atno 10718 bound_to 10713
  154.4509  135.2764  155.1782 H   0  0  0  0  0  0  0  0  0  0  0  0  # atno 10763 bound_to 10752
  154.3609  135.6129  153.5694 H   0  0  0  0  0  0  0  0  0  0  0  0  # atno 10764 bound_to 10752
  152.9847  135.5834  154.4853 H   0  0  0  0  0  0  0  0  0  0  0  0  # atno 10765 bound_to 10752
  140.9823  133.7049  156.1705 H   0  0  0  0  0  0  0  0  0  0  0  0  # atno 11005 bound_to 11000
  145.5893  141.0372  143.2079 LP  0  0  0  0  0  0  0  0  0  0  0  0  # atno 17320 bound_to 7965
  144.7417  139.7430  143.7308 LP  0  0  0  0  0  0  0  0  0  0  0  0  # atno 17321 bound_to 7965
  139.9754  144.6465  150.7950 LP  0  0  0  0  0  0  0  0  0  0  0  0  # atno 17342 bound_to 10162
  140.7551  143.3039  151.3011 LP  0  0  0  0  0  0  0  0  0  0  0  0  # atno 17343 bound_to 10162
  157.5516  131.0944  150.9687 LP  0  0  0  0  0  0  0  0  0  0  0  0  # atno 17370 bound_to 10713
  156.9945  130.5576  149.5306 LP  0  0  0  0  0  0  0  0  0  0  0  0  # atno 17371 bound_to 10713
  140.7167  134.4402  157.5578 LP  0  0  0  0  0  0  0  0  0  0  0  0  # atno 17394 bound_to 11000
  139.8955  134.8680  156.2127 LP  0  0  0  0  0  0  0  0  0  0  0  0  # atno 17395 bound_to 11000

$$$$
