AV-unprocessed.smi:47|AV-procd|sdf|445|dock3
  -GOLD-   2262016313D 1   1.00000     0.00000
 Structure written by MMmdl.
 30 32  0  0  0  0  0  0  0  0  2 V2000
  145.8912  139.9927  154.4795 O   0  0  0  0  0  0  0  0  0  0  0  0
  147.1980  139.9252  153.9491 C   0  0  1  0  0  0  0  0  0  0  0  0
  147.7485  141.2992  153.5783 C   0  0  0  0  0  0  0  0  0  0  0  0
  149.2031  141.1612  153.5941 N   0  0  0  0  0  0  0  0  0  0  0  0
  149.5421  139.9672  154.3785 C   0  0  1  0  0  0  0  0  0  0  0  0
  150.5869  140.2122  155.4512 C   0  0  0  0  0  0  0  0  0  0  0  0
  151.7661  139.5651  155.5488 N   0  0  0  0  0  0  0  0  0  0  0  0
  152.3951  140.1003  156.5781 N   0  5  0  0  0  0  0  0  0  0  0  0
  151.6066  141.0617  157.0823 C   0  0  0  0  0  0  0  0  0  0  0  0
  152.0070  141.8817  158.2443 C   0  0  0  0  0  0  0  0  0  0  0  0
  151.6572  143.2504  158.3097 C   0  0  0  0  0  0  0  0  0  0  0  0
  152.0354  144.0461  159.4087 C   0  0  0  0  0  0  0  0  0  0  0  0
  152.7740  143.4821  160.4649 C   0  0  0  0  0  0  0  0  0  0  0  0
  153.1308  142.1222  160.4173 C   0  0  0  0  0  0  0  0  0  0  0  0
  152.7487  141.3308  159.3165 C   0  0  0  0  0  0  0  0  0  0  0  0
  150.4752  141.1569  156.3978 N   0  0  0  0  0  0  0  0  0  0  0  0
  148.2255  139.4345  154.9579 C   0  0  0  0  0  0  0  0  0  0  0  0
  147.1998  139.2749  153.0732 H   0  0  0  0  0  0  0  0  0  0  0  0
  149.9406  139.2157  153.6959 H   0  0  0  0  0  0  0  0  0  0  0  0
  145.2888  140.1597  153.7707 H   0  0  0  0  0  0  0  0  0  0  0  0
  147.3824  141.6525  152.6143 H   0  0  0  0  0  0  0  0  0  0  0  0
  147.4508  142.0292  154.3324 H   0  0  0  0  0  0  0  0  0  0  0  0
  149.5262  141.0192  152.6429 H   0  0  0  0  0  0  0  0  0  0  0  0
  151.0914  143.7022  157.5082 H   0  0  0  0  0  0  0  0  0  0  0  0
  151.7589  145.0896  159.4392 H   0  0  0  0  0  0  0  0  0  0  0  0
  153.0661  144.0904  161.3080 H   0  0  0  0  0  0  0  0  0  0  0  0
  153.6988  141.6841  161.2248 H   0  0  0  0  0  0  0  0  0  0  0  0
  153.0348  140.2895  159.3011 H   0  0  0  0  0  0  0  0  0  0  0  0
  148.0319  139.8959  155.9284 H   0  0  0  0  0  0  0  0  0  0  0  0
  148.2254  138.3527  155.0945 H   0  0  0  0  0  0  0  0  0  0  0  0
  1  2  1  0  0  0  0
  1 20  1  0  0  0  0
  2 18  1  0  0  0  0
  2 17  1  0  0  0  0
  2  3  1  0  0  0  0
  3  4  1  0  0  0  0
  3 21  1  0  0  0  0
  3 22  1  0  0  0  0
  4  5  1  0  0  0  0
  4 23  1  0  0  0  0
  5 19  1  0  0  0  0
  5  6  1  0  0  0  0
  5 17  1  0  0  0  0
  6 16  1  0  0  0  0
  6  7  2  0  0  0  0
  7  8  1  0  0  0  0
  8  9  1  0  0  0  0
  9 10  1  0  0  0  0
  9 16  2  0  0  0  0
 10 15  1  0  0  0  0
 10 11  2  0  0  0  0
 11 12  1  0  0  0  0
 11 24  1  0  0  0  0
 12 13  2  0  0  0  0
 12 25  1  0  0  0  0
 13 14  1  0  0  0  0
 13 26  1  0  0  0  0
 14 15  2  0  0  0  0
 14 27  1  0  0  0  0
 15 28  1  0  0  0  0
 17 29  1  0  0  0  0
 17 30  1  0  0  0  0
M  CHG  1   8  -1
M  END
> <s_m_source_file>
AV-unprocessed.smi

> <i_m_source_file_index>
47

> <i_lp_mmshare_version>
43012

> <i_f3d_flags>
0

> <s_epik_input>
W09IXVtDQEhdMVtDSDJdW05IXVtDQEBIXShbQ0gyXTEpYzJuW25IXWMobjIpLWMzW2NIXVtjSF1bY0hdW2NIXVtjSF0z

> <s_epik_cmdline>
J2VwaWtfcHl0aG9uJywgJy1waCcsICc3LjAnLCAnLXRuJywgJzgnLCAnLW1hJywgJzIwMCcsICctbWV0YWxfYmluZGluZycsICctaW1hZScsICc8aW5maWxlLm1hZT4nLCAnLW9tYWUnLCAnPG91dGZpbGUubWFlPic=

> <r_epik_Ionization_Penalty>
16.1968

> <r_epik_Ionization_Penalty_Charging>
13.1522

> <r_epik_Ionization_Penalty_Neutral>
3.04463

> <r_epik_State_Penalty>
6.32428

> <r_epik_Charging_Adjusted_Penalty>
19.4764

> <i_epik_Tot_Q>
-1

> <i_epik_Tot_abs_Q>
1

> <r_epik_Metal_State_Penalty>
2.82187

> <b_epik_Metal_Only>
1

> <s_lp_Force_Field>
OPLS_2005

> <r_lp_Energy>
30.8256

> <b_lp_Chiralities_Consistent>
1

> <s_lp_Variant>
AV-unprocessed.smi:47-23

> <Gold.Version>
5.8.1

> <Gold.Id.Protein>
6NUR|6NUR_protein|mol2

> <Gold.PLP.Fitness>
47.6957

> <Gold.PLP.PLP>
-36.8199

> <Gold.PLP.part.hbond>
-5.0000

> <Gold.PLP.part.metal>
0.0000

> <Gold.PLP.part.buried>
-4.7771

> <Gold.PLP.part.nonpolar>
-26.4785

> <Gold.PLP.part.repulsive>
0.0539

> <Gold.PLP.ligand.clash>
0.0000

> <Gold.PLP.ligand.torsion>
0.5684

> <Gold.PLP.Chemscore.Hbond>
4.0000

> <Gold.PLP.Chemscore.CHOScore>
0.0000

> <Gold.PLP.Chemscore.Metal>
0.0000

> <Gold.Chemscore.Hbonds>
donor molecule, donor type, donor heavy atom, donor atom, acceptor molecule, acceptor atom, score
      L1  H     1    20       P1 10175  0.86
      L1  H     4    23       P1  7957  1.00
      P1  H  7997  8010       L1     8  2.00

> <Gold.PLP.Chemscore.Internal.Correction>
0.0127

> <Gold.Rescore>
     Score         DG    S(hbond)    S(metal)    S(lipo)     H(rot)  DE(clash)    DE(int)     intcor
     21.29     -21.46       2.84        0.00      87.60       1.46       0.01       0.16       ----

> <Gold.Chemscore.Fitness>
21.2876

> <Gold.Chemscore.DG>
-21.4553

> <Gold.Chemscore.ZeroCoef>
-5.4800

> <Gold.Chemscore.Hbond>
2.8350

> <Gold.Chemscore.Metal>
0.0000

> <Gold.Chemscore.Lipo>
87.6007

> <Gold.Chemscore.Internal_Hbond>
0.0000

> <Gold.Chemscore.DEClash>
0.0050

> <Gold.Chemscore.DEInternal>
0.1627

> <Gold.Chemscore.Rot>
1.4621

> <Gold.Chemscore.Internal.Correction>
   9.000000E+99

> <Gold.Chemscore.Hbonds>
donor molecule, donor type, donor heavy atom, donor atom, acceptor molecule, acceptor atom, score
      L1  H     1    20       P1 10175  0.84
      L1  H     4    23       P1  7957  0.96
      P1  H  7997  8010       L1     8  0.92

> <Gold.Chemscore.Hbond.Weighted>
-9.4689

> <Gold.Chemscore.Metal.Weighted>
-0.0000

> <Gold.Chemscore.Lipo.Weighted>
-10.2493

> <Gold.Chemscore.Internal_Hbond.Weighted>
0.0000

> <Gold.Chemscore.DEClash.Weighted>
0.0050

> <Gold.Chemscore.DEInternal.Weighted>
0.1627

> <Gold.Chemscore.Rot.Weighted>
3.7429

> <Gold.Chemscore.Internal.Correction.Weighted>
   9.000000E+99

> <Gold.Protein.RotatedTorsions>
[ 6907 6896 6895 6894 ] final  124.11 input  -60.11 | X-H torsion
[ 7974 7965 7964 7962 ] final   65.09 input  175.53 | X-H torsion
[ 8008 7997 7996 7995 ] final   64.82 input   59.86 | X-H torsion
[ 10167 10162 10161 10158 ] final   81.20 input  -65.29 | X-H torsion
[ 10718 10713 10712 10709 ] final  -20.40 input   66.30 | X-H torsion
[ 10763 10752 10751 10750 ] final  166.40 input  -60.55 | X-H torsion
[ 11005 11000 10999 10996 ] final  -87.92 input  -57.11 | X-H torsion

> <Gold.Protein.ActiveResidues>
 VAL166  LYS551  ARG553  GLY616  TRP617  ASP618  TYR619  PRO620  LYS621  CYS622 
 ASP623  PHE694  ASN695  SER759  ASP760  ASP761  ALA762  ILE779  LEU786  VAL792 
 PHE793  MET794  SER795  GLU796  ALA797  LYS798  CYS799  TRP800  GLU811  SER814 

> <Gold.Protein.RotatedAtoms>
  152.4105  133.6956  159.6393 H   0  0  0  0  0  0  0  0  0  0  0  0  # atno 6907 bound_to 6896
  150.7986  133.8632  159.3246 H   0  0  0  0  0  0  0  0  0  0  0  0  # atno 6908 bound_to 6896
  151.6376  135.1018  160.0186 H   0  0  0  0  0  0  0  0  0  0  0  0  # atno 6909 bound_to 6896
  145.8425  139.3204  143.0923 H   0  0  0  0  0  0  0  0  0  0  0  0  # atno 7974 bound_to 7965
  155.6520  140.3497  155.4751 H   0  0  0  0  0  0  0  0  0  0  0  0  # atno 8008 bound_to 7997
  155.9840  140.1180  157.0723 H   0  0  0  0  0  0  0  0  0  0  0  0  # atno 8009 bound_to 7997
  154.4199  140.1132  156.5460 H   0  0  0  0  0  0  0  0  0  0  0  0  # atno 8010 bound_to 7997
  139.9417  144.6085  150.8245 H   0  0  0  0  0  0  0  0  0  0  0  0  # atno 10167 bound_to 10162
  156.5324  130.4658  149.6540 H   0  0  0  0  0  0  0  0  0  0  0  0  # atno 10718 bound_to 10713
  154.3384  135.2754  155.2436 H   0  0  0  0  0  0  0  0  0  0  0  0  # atno 10763 bound_to 10752
  154.4717  135.5881  153.6330 H   0  0  0  0  0  0  0  0  0  0  0  0  # atno 10764 bound_to 10752
  152.9860  135.6090  154.3582 H   0  0  0  0  0  0  0  0  0  0  0  0  # atno 10765 bound_to 10752
  141.1610  133.7539  156.9376 H   0  0  0  0  0  0  0  0  0  0  0  0  # atno 11005 bound_to 11000
  145.9449  140.8952  143.0289 LP  0  0  0  0  0  0  0  0  0  0  0  0  # atno 17320 bound_to 7965
  144.6733  140.1599  143.7423 LP  0  0  0  0  0  0  0  0  0  0  0  0  # atno 17321 bound_to 7965
  140.7609  143.3161  151.2729 LP  0  0  0  0  0  0  0  0  0  0  0  0  # atno 17342 bound_to 10162
  139.6699  144.0039  152.2746 LP  0  0  0  0  0  0  0  0  0  0  0  0  # atno 17343 bound_to 10162
  156.3047  130.7196  151.2076 LP  0  0  0  0  0  0  0  0  0  0  0  0  # atno 17370 bound_to 10713
  157.7419  131.0497  150.5061 LP  0  0  0  0  0  0  0  0  0  0  0  0  # atno 17371 bound_to 10713
  140.1344  134.9335  157.2381 LP  0  0  0  0  0  0  0  0  0  0  0  0  # atno 17394 bound_to 11000
  140.2914  134.3236  155.7314 LP  0  0  0  0  0  0  0  0  0  0  0  0  # atno 17395 bound_to 11000

$$$$
