#       Name:                AV-unprocessed.smi:1923
#       Creating user name   scv26
#       Creation time:       Fri Mar 27 09:53:35 2020


#       File generated by GOLD software.
#

@<TRIPOS>MOLECULE
AV-unprocessed.smi:1923
    61    63     1
SMALL
NO_CHARGES


@<TRIPOS>ATOM
      1 ****        -5.2414   5.2769   0.7049 C.3            1 S1                 0.0000
      2 ****        -4.6824   5.5082  -0.7098 C.3            1 S1                 0.0000
      3 ****        -5.1302   4.4284  -1.7113 C.3            1 S1                 0.0000
      4 ****        -4.3983   3.0919  -1.4933 C.3            1 S1                 0.0000
      5 ****        -2.9240   3.2694  -1.5455 N.4            1 S1                 1.0000
      6 ****        -2.1996   1.9752  -1.4753 C.3            1 S1                 0.0000
      7 ****        -0.7889   2.0588  -2.0906 C.3            1 S1                 0.0000
      8 ****        -0.1115   0.7673  -2.0661 N.am           1 S1                 0.0000
      9 ****         0.4636   0.2215  -0.9850 C.2            1 S1                 0.0000
     10 ****         0.4547   0.7540   0.1245 O.2            1 S1                 0.0000
     11 ****         1.0197  -0.9667  -1.2789 N.am           1 S1                 0.0000
     12 ****         1.7388  -1.8527  -0.4303 C.ar           1 S1                 0.0000
     13 ****         2.2989  -1.4949   0.8183 C.ar           1 S1                 0.0000
     14 ****         3.0049  -2.4665   1.5535 C.ar           1 S1                 0.0000
     15 ****         3.1433  -3.7719   1.0258 C.ar           1 S1                 0.0000
     16 ****         3.8473  -4.7608   1.7475 N.3            1 S1                 0.0000
     17 ****         3.7516  -6.1448   1.2856 C.3            1 S1                 0.0000
     18 ****         4.3335  -7.1043   2.3375 C.3            1 S1                 0.0000
     19 ****         5.6685  -6.7208   2.6497 O.3            1 S1                 0.0000
     20 ****         5.7262  -5.4106   3.2035 C.3            1 S1                 0.0000
     21 ****         5.1907  -4.3889   2.1852 C.3            1 S1                 0.0000
     22 ****         2.6087  -4.1094  -0.1733 N.ar           1 S1                 0.0000
     23 ****         1.9357  -3.1749  -0.8761 C.ar           1 S1                 0.0000
     24 ****        -2.4575   4.2584  -0.5374 C.3            1 S1                 0.0000
     25 ****        -3.1472   5.6210  -0.7329 C.3            1 S1                 0.0000
     26 ****        -4.8946   4.3389   1.1375 H              1 S1                 0.0000
     27 ****        -6.3314   5.2511   0.6939 H              1 S1                 0.0000
     28 ****        -4.9417   6.0804   1.3781 H              1 S1                 0.0000
     29 ****        -5.0888   6.4620  -1.0490 H              1 S1                 0.0000
     30 ****        -6.2088   4.2796  -1.6504 H              1 S1                 0.0000
     31 ****        -4.9315   4.7783  -2.7254 H              1 S1                 0.0000
     32 ****        -4.6820   2.6499  -0.5372 H              1 S1                 0.0000
     33 ****        -4.7109   2.3899  -2.2673 H              1 S1                 0.0000
     34 ****        -2.1603   1.6354  -0.4392 H              1 S1                 0.0000
     35 ****        -2.7601   1.2176  -2.0250 H              1 S1                 0.0000
     36 ****        -0.8570   2.3836  -3.1290 H              1 S1                 0.0000
     37 ****        -0.1696   2.7940  -1.5763 H              1 S1                 0.0000
     38 ****        -0.0618   0.2604  -2.9380 H              1 S1                 0.0000
     39 ****         0.8809  -1.2980  -2.2223 H              1 S1                 0.0000
     40 ****         2.2136  -0.5001   1.2255 H              1 S1                 0.0000
     41 ****         3.4196  -2.2012   2.5145 H              1 S1                 0.0000
     42 ****         2.7104  -6.4081   1.0947 H              1 S1                 0.0000
     43 ****         4.2938  -6.2504   0.3450 H              1 S1                 0.0000
     44 ****         3.7229  -7.1077   3.2419 H              1 S1                 0.0000
     45 ****         4.3375  -8.1242   1.9528 H              1 S1                 0.0000
     46 ****         5.1541  -5.3711   4.1320 H              1 S1                 0.0000
     47 ****         6.7606  -5.1789   3.4577 H              1 S1                 0.0000
     48 ****         5.8461  -4.3530   1.3141 H              1 S1                 0.0000
     49 ****         5.2097  -3.3980   2.6361 H              1 S1                 0.0000
     50 ****         1.5378  -3.4976  -1.8272 H              1 S1                 0.0000
     51 ****        -2.6454   3.8762   0.4667 H              1 S1                 0.0000
     52 ****        -1.3804   4.4003  -0.6171 H              1 S1                 0.0000
     53 ****        -2.8349   6.0404  -1.6903 H              1 S1                 0.0000
     54 ****        -2.8089   6.3245   0.0287 H              1 S1                 0.0000
     55 ****        -2.7229   3.6598  -2.4551 H              1 S1                 0.0000
     56 ****         0.0029   1.6371   0.2517 LP             1 S1                 0.0000
     57 ****         0.8992   0.3037   0.8988 LP             1 S1                 0.0000
     58 ****         3.2883  -4.7737   2.5766 LP             1 S1                 0.0000
     59 ****         6.2157  -6.7430   1.8130 LP             1 S1                 0.0000
     60 ****         6.0451  -7.3689   3.3116 LP             1 S1                 0.0000
     61 ****         2.7116  -5.0373  -0.5317 LP             1 S1                 0.0000
@<TRIPOS>BOND
    1    1    2 1     
    2    1   26 1     
    3    1   27 1     
    4    1   28 1     
    5    2   25 1     
    6    2    3 1     
    7    2   29 1     
    8    3    4 1     
    9    3   30 1     
   10    3   31 1     
   11    4    5 1     
   12    4   32 1     
   13    4   33 1     
   14    5    6 1     
   15    5   24 1     
   16    5   55 1     
   17    6    7 1     
   18    6   34 1     
   19    6   35 1     
   20    7    8 1     
   21    7   36 1     
   22    7   37 1     
   23    8    9 am    
   24    8   38 1     
   25    9   10 2     
   26    9   11 am    
   27   11   12 1     
   28   11   39 1     
   29   12   23 ar    
   30   12   13 ar    
   31   13   14 ar    
   32   13   40 1     
   33   14   15 ar    
   34   14   41 1     
   35   15   16 1     
   36   15   22 ar    
   37   16   21 1     
   38   16   17 1     
   39   17   18 1     
   40   17   42 1     
   41   17   43 1     
   42   18   19 1     
   43   18   44 1     
   44   18   45 1     
   45   19   20 1     
   46   20   21 1     
   47   20   46 1     
   48   20   47 1     
   49   21   48 1     
   50   21   49 1     
   51   22   23 ar    
   52   23   50 1     
   53   24   25 1     
   54   24   51 1     
   55   24   52 1     
   56   25   53 1     
   57   25   54 1     
   58   10   56 1     
   59   10   57 1     
   60   16   58 1     
   61   19   59 1     
   62   19   60 1     
   63   22   61 1     
@<TRIPOS>SUBSTRUCTURE
      1 S1             1
@<TRIPOS>SET
LONE_PAIRS      STATIC     ATOMS    <user>   **** ""
6 56 57 58 59 60 61
DONOR_HYDROGENS      STATIC     ATOMS    <user>   **** ""
3 55 38 39
ATOM$BLUE        STATIC     ATOMS    COLORGROUP SYSTEM
6 56 57 58 59 60 61
ATOM$RED        STATIC     ATOMS    COLORGROUP SYSTEM
3 55 38 39
