AV-unprocessed.smi:3329|AV-procd|sdf|12797|dock5
  -GOLD-   2272019153D 1   1.00000     0.00000
 Structure written by MMmdl.
 41 42  0  0  0  0  0  0  0  0  1 V2000
  144.1822  132.1700  149.9686 C   0  0  0  0  0  0  0  0  0  0  0  0
  145.1427  132.4590  151.0861 C   0  0  0  0  0  0  0  0  0  0  0  0
  144.8482  132.6541  152.4657 C   0  0  0  0  0  0  0  0  0  0  0  0
  145.9276  132.8894  153.1943 N   0  0  0  0  0  0  0  0  0  0  0  0
  146.9452  132.8549  152.3081 N   0  0  0  0  0  0  0  0  0  0  0  0
  148.3047  133.0709  152.7628 C   0  0  0  0  0  0  0  0  0  0  0  0
  148.3399  133.6882  154.1684 C   0  0  0  0  0  0  0  0  0  0  0  0
  149.3362  134.7475  154.2047 N   0  0  0  0  0  0  0  0  0  0  0  0
  149.4187  135.3364  155.5440 C   0  0  0  0  0  0  0  0  0  0  0  0
  150.5415  136.3683  155.6252 C   0  0  0  0  0  0  0  0  0  0  0  0
  151.4110  136.3947  154.7555 O   0  0  0  0  0  0  0  0  0  0  0  0
  150.4985  137.2142  156.6688 N   0  0  0  0  0  0  0  0  0  0  0  0
  151.4245  138.3041  156.9880 C   0  0  1  0  0  0  0  0  0  0  0  0
  152.8476  137.7369  157.1626 C   0  0  0  0  0  0  0  0  0  0  0  0
  151.4484  139.2106  155.8249 C   0  0  0  0  0  0  0  0  0  0  0  0
  151.4662  139.9192  154.9099 N   0  0  0  0  0  0  0  0  0  0  0  0
  151.0286  139.0933  158.2413 C   0  0  0  0  0  0  0  0  0  0  0  0
  150.2403  140.3823  158.1819 C   0  0  0  0  0  0  0  0  0  0  0  0
  151.6892  140.4010  158.6174 C   0  0  0  0  0  0  0  0  0  0  0  0
  146.5006  132.5984  151.0290 C   0  0  0  0  0  0  0  0  0  0  0  0
  143.1873  131.9258  150.3415 H   0  0  0  0  0  0  0  0  0  0  0  0
  144.5125  131.3269  149.3615 H   0  0  0  0  0  0  0  0  0  0  0  0
  144.0742  133.0249  149.3010 H   0  0  0  0  0  0  0  0  0  0  0  0
  143.8864  132.6301  152.9568 H   0  0  0  0  0  0  0  0  0  0  0  0
  148.8265  132.1129  152.7549 H   0  0  0  0  0  0  0  0  0  0  0  0
  148.8146  133.7156  152.0451 H   0  0  0  0  0  0  0  0  0  0  0  0
  147.3600  134.0932  154.4260 H   0  0  0  0  0  0  0  0  0  0  0  0
  148.5844  132.9228  154.9064 H   0  0  0  0  0  0  0  0  0  0  0  0
  149.1051  135.4431  153.5095 H   0  0  0  0  0  0  0  0  0  0  0  0
  148.4645  135.7981  155.8051 H   0  0  0  0  0  0  0  0  0  0  0  0
  149.6121  134.5563  156.2818 H   0  0  0  0  0  0  0  0  0  0  0  0
  149.7342  137.0923  157.3175 H   0  0  0  0  0  0  0  0  0  0  0  0
  153.5739  138.5391  157.2977 H   0  0  0  0  0  0  0  0  0  0  0  0
  153.1562  137.1632  156.2878 H   0  0  0  0  0  0  0  0  0  0  0  0
  152.9257  137.0835  158.0319 H   0  0  0  0  0  0  0  0  0  0  0  0
  150.8014  138.4554  159.0928 H   0  0  0  0  0  0  0  0  0  0  0  0
  150.0028  140.7990  157.2054 H   0  0  0  0  0  0  0  0  0  0  0  0
  149.4839  140.5400  158.9480 H   0  0  0  0  0  0  0  0  0  0  0  0
  151.8950  140.5696  159.6725 H   0  0  0  0  0  0  0  0  0  0  0  0
  152.4153  140.8315  157.9310 H   0  0  0  0  0  0  0  0  0  0  0  0
  147.1807  132.5350  150.1925 H   0  0  0  0  0  0  0  0  0  0  0  0
  1  2  1  0  0  0  0
  1 21  1  0  0  0  0
  1 22  1  0  0  0  0
  1 23  1  0  0  0  0
  2 20  2  0  0  0  0
  2  3  1  0  0  0  0
  3  4  2  0  0  0  0
  3 24  1  0  0  0  0
  4  5  1  0  0  0  0
  5  6  1  0  0  0  0
  5 20  1  0  0  0  0
  6  7  1  0  0  0  0
  6 25  1  0  0  0  0
  6 26  1  0  0  0  0
  7  8  1  0  0  0  0
  7 27  1  0  0  0  0
  7 28  1  0  0  0  0
  8  9  1  0  0  0  0
  8 29  1  0  0  0  0
  9 10  1  0  0  0  0
  9 30  1  0  0  0  0
  9 31  1  0  0  0  0
 10 11  2  0  0  0  0
 10 12  1  0  0  0  0
 12 13  1  0  0  0  0
 12 32  1  0  0  0  0
 13 14  1  0  0  0  0
 13 15  1  0  0  0  0
 13 17  1  0  0  0  0
 14 33  1  0  0  0  0
 14 34  1  0  0  0  0
 14 35  1  0  0  0  0
 15 16  3  0  0  0  0
 17 19  1  0  0  0  0
 17 18  1  0  0  0  0
 17 36  1  0  0  0  0
 18 19  1  0  0  0  0
 18 37  1  0  0  0  0
 18 38  1  0  0  0  0
 19 39  1  0  0  0  0
 19 40  1  0  0  0  0
 20 41  1  0  0  0  0
M  END
> <s_m_source_file>
AV-unprocessed.smi

> <i_m_source_file_index>
3329

> <i_lp_mmshare_version>
43012

> <i_f3d_flags>
0

> <s_epik_input>
W0NIM11jMVtjSF1ubihbY0hdMSlbQ0gyXVtDSDJdW05IXVtDSDJdQyg9TylbTkhdW0NAQF0oW0NIM10pKEMjTilbQ0hdMltDSDJdW0NIMl0y

> <s_epik_cmdline>
J2VwaWtfcHl0aG9uJywgJy1waCcsICc3LjAnLCAnLXRuJywgJzgnLCAnLW1hJywgJzIwMCcsICctbWV0YWxfYmluZGluZycsICctaW1hZScsICc8aW5maWxlLm1hZT4nLCAnLW9tYWUnLCAnPG91dGZpbGUubWFlPic=

> <r_lp_tautomer_probability>
1

> <r_epik_Ionization_Penalty>
0.481866

> <r_epik_Ionization_Penalty_Charging>
0

> <r_epik_Ionization_Penalty_Neutral>
0.481866

> <r_epik_State_Penalty>
0.48398

> <r_epik_Charging_Adjusted_Penalty>
0.48398

> <i_epik_Tot_Q>
0

> <i_epik_Tot_abs_Q>
0

> <r_epik_Metal_State_Penalty>
0.5042

> <b_epik_Metal_Only>
0

> <s_lp_Force_Field>
OPLS_2005

> <r_lp_Energy>
12.8497

> <b_lp_Chiralities_Consistent>
1

> <s_lp_Variant>
AV-unprocessed.smi:3329-3

> <Gold.Version>
5.8.1

> <Gold.Id.Protein>
6NUR|6NUR_protein|mol2

> <Gold.PLP.Fitness>
43.8484

> <Gold.PLP.PLP>
-30.7772

> <Gold.PLP.part.hbond>
-2.9486

> <Gold.PLP.part.metal>
0.0000

> <Gold.PLP.part.buried>
-4.5432

> <Gold.PLP.part.nonpolar>
-24.6475

> <Gold.PLP.part.repulsive>
0.3720

> <Gold.PLP.ligand.clash>
0.0000

> <Gold.PLP.ligand.torsion>
1.5761

> <Gold.PLP.Chemscore.Hbond>
3.0000

> <Gold.PLP.Chemscore.CHOScore>
1.8665

> <Gold.PLP.Chemscore.Metal>
0.0000

> <Gold.Chemscore.Hbonds>
donor molecule, donor type, donor heavy atom, donor atom, acceptor molecule, acceptor atom, score
      L1  H     8    29       P1  7948  1.00
      P1  H  7989  7998       L1    16  1.00
      P1  H 10752 10763       L1    11  1.00
      L1  C     3    24       P1 10957  0.86
      L1  C    20    41       P1 10747  0.78

> <Gold.PLP.Chemscore.Internal.Correction>
1.6238

> <Gold.Rescore>
     Score         DG    S(hbond)    S(metal)    S(lipo)     H(rot)  DE(clash)    DE(int)     intcor
     14.50     -16.77       2.73        0.00      69.22       2.31       0.08       2.19       ----

> <Gold.Chemscore.Fitness>
14.4963

> <Gold.Chemscore.DG>
-16.7670

> <Gold.Chemscore.ZeroCoef>
-5.4800

> <Gold.Chemscore.Hbond>
2.7275

> <Gold.Chemscore.Metal>
0.0000

> <Gold.Chemscore.Lipo>
69.2169

> <Gold.Chemscore.Internal_Hbond>
0.0000

> <Gold.Chemscore.DEClash>
0.0787

> <Gold.Chemscore.DEInternal>
2.1920

> <Gold.Chemscore.Rot>
2.3129

> <Gold.Chemscore.Internal.Correction>
   9.000000E+99

> <Gold.Chemscore.Hbonds>
donor molecule, donor type, donor heavy atom, donor atom, acceptor molecule, acceptor atom, score
      L1  H     8    29       P1  7948  0.55
      P1  H  7989  7998       L1    16  0.99
      P1  H 10752 10763       L1    11  1.00

> <Gold.Chemscore.Hbond.Weighted>
-9.1098

> <Gold.Chemscore.Metal.Weighted>
-0.0000

> <Gold.Chemscore.Lipo.Weighted>
-8.0984

> <Gold.Chemscore.Internal_Hbond.Weighted>
0.0000

> <Gold.Chemscore.DEClash.Weighted>
0.0787

> <Gold.Chemscore.DEInternal.Weighted>
2.1920

> <Gold.Chemscore.Rot.Weighted>
5.9211

> <Gold.Chemscore.Internal.Correction.Weighted>
   9.000000E+99

> <Gold.Protein.RotatedTorsions>
[ 6907 6896 6895 6894 ] final    0.90 input  -60.11 | X-H torsion
[ 7974 7965 7964 7962 ] final  -67.86 input  175.53 | X-H torsion
[ 8008 7997 7996 7995 ] final -102.92 input   59.86 | X-H torsion
[ 10167 10162 10161 10158 ] final  119.24 input  -65.29 | X-H torsion
[ 10718 10713 10712 10709 ] final -171.43 input   66.30 | X-H torsion
[ 10763 10752 10751 10750 ] final   56.33 input  -60.55 | X-H torsion
[ 11005 11000 10999 10996 ] final  -19.65 input  -57.11 | X-H torsion

> <Gold.Protein.ActiveResidues>
 VAL166  LYS551  ARG553  GLY616  TRP617  ASP618  TYR619  PRO620  LYS621  CYS622 
 ASP623  PHE694  ASN695  SER759  ASP760  ASP761  ALA762  ILE779  LEU786  VAL792 
 PHE793  MET794  SER795  GLU796  ALA797  LYS798  CYS799  TRP800  GLU811  SER814 

> <Gold.Protein.RotatedAtoms>
  151.5840  135.1057  160.0023 H   0  0  0  0  0  0  0  0  0  0  0  0  # atno 6907 bound_to 6896
  152.4340  133.7323  159.6605 H   0  0  0  0  0  0  0  0  0  0  0  0  # atno 6908 bound_to 6896
  150.8235  133.8141  159.3151 H   0  0  0  0  0  0  0  0  0  0  0  0  # atno 6909 bound_to 6896
  145.7239  140.9027  143.0616 H   0  0  0  0  0  0  0  0  0  0  0  0  # atno 7974 bound_to 7965
  154.8635  140.0425  157.1680 H   0  0  0  0  0  0  0  0  0  0  0  0  # atno 8008 bound_to 7997
  154.8815  140.2973  155.5402 H   0  0  0  0  0  0  0  0  0  0  0  0  # atno 8009 bound_to 7997
  156.2999  140.2410  156.3818 H   0  0  0  0  0  0  0  0  0  0  0  0  # atno 8010 bound_to 7997
  139.6059  144.7069  151.2955 H   0  0  0  0  0  0  0  0  0  0  0  0  # atno 10167 bound_to 10162
  156.7407  130.9341  151.3110 H   0  0  0  0  0  0  0  0  0  0  0  0  # atno 10718 bound_to 10713
  152.9830  135.5680  154.5211 H   0  0  0  0  0  0  0  0  0  0  0  0  # atno 10763 bound_to 10752
  154.4698  135.2784  155.1653 H   0  0  0  0  0  0  0  0  0  0  0  0  # atno 10764 bound_to 10752
  154.3205  135.6270  153.5559 H   0  0  0  0  0  0  0  0  0  0  0  0  # atno 10765 bound_to 10752
  140.8387  133.7942  155.9837 H   0  0  0  0  0  0  0  0  0  0  0  0  # atno 11005 bound_to 11000
  144.6910  139.9239  143.7469 LP  0  0  0  0  0  0  0  0  0  0  0  0  # atno 17320 bound_to 7965
  146.0600  139.3595  143.0587 LP  0  0  0  0  0  0  0  0  0  0  0  0  # atno 17321 bound_to 7965
  140.7284  143.6936  150.7902 LP  0  0  0  0  0  0  0  0  0  0  0  0  # atno 17342 bound_to 10162
  140.0522  143.5239  152.2668 LP  0  0  0  0  0  0  0  0  0  0  0  0  # atno 17343 bound_to 10162
  157.6819  130.9148  150.0289 LP  0  0  0  0  0  0  0  0  0  0  0  0  # atno 17370 bound_to 10713
  156.1466  130.3642  149.9501 LP  0  0  0  0  0  0  0  0  0  0  0  0  # atno 17371 bound_to 10713
  140.8919  134.2485  157.5090 LP  0  0  0  0  0  0  0  0  0  0  0  0  # atno 17394 bound_to 11000
  139.8703  134.9665  156.4565 LP  0  0  0  0  0  0  0  0  0  0  0  0  # atno 17395 bound_to 11000

$$$$
