AV-unprocessed.smi:3234|AV-procd|sdf|12358|dock7
  -GOLD-   2272018223D 1   1.00000     0.00000
 Structure written by MMmdl.
 37 39  0  0  0  0  0  0  0  0  4 V2000
  145.0435  138.4065  153.4467 O   0  0  0  0  0  0  0  0  0  0  0  0
  145.9721  137.7964  152.9038 C   0  0  0  0  0  0  0  0  0  0  0  0
  147.2401  138.2188  153.0533 N   0  0  0  0  0  0  0  0  0  0  0  0
  147.7206  139.3614  153.7473 C   0  0  0  0  0  0  0  0  0  0  0  0
  146.9486  140.5424  153.6889 C   0  0  0  0  0  0  0  0  0  0  0  0
  147.3824  141.6898  154.3833 C   0  0  0  0  0  0  0  0  0  0  0  0
  148.5212  141.6472  155.1078 N   0  3  0  0  0  0  0  0  0  0  0  0
  149.2815  140.5356  155.2088 C   0  0  0  0  0  0  0  0  0  0  0  0
  148.8986  139.3579  154.5359 C   0  0  0  0  0  0  0  0  0  0  0  0
  145.8900  136.6737  152.1395 N   0  5  0  0  0  0  0  0  0  0  0  0
  144.6397  136.0789  151.6630 C   0  0  2  0  0  0  0  0  0  0  0  0
  143.8231  135.4837  152.8111 C   0  0  0  0  0  0  0  0  0  0  0  0
  142.9938  134.3708  152.1521 C   0  0  0  0  0  0  0  0  0  0  0  0
  143.6081  134.1086  150.8294 N   0  3  2  0  0  0  0  0  0  0  0  0
  143.7328  132.6762  150.4844 C   0  0  0  0  0  0  0  0  0  0  0  0
  145.1160  132.1178  150.7193 C   0  0  0  0  0  0  0  0  0  0  0  0
  144.6471  132.4165  149.3116 C   0  0  0  0  0  0  0  0  0  0  0  0
  144.8785  134.8571  150.7750 C   0  0  0  0  0  0  0  0  0  0  0  0
  147.9478  137.6051  152.6766 H   0  0  0  0  0  0  0  0  0  0  0  0
  146.0360  140.5733  153.1109 H   0  0  0  0  0  0  0  0  0  0  0  0
  146.8549  142.6324  154.3829 H   0  0  0  0  0  0  0  0  0  0  0  0
  150.1639  140.6177  155.8262 H   0  0  0  0  0  0  0  0  0  0  0  0
  149.5036  138.4702  154.6434 H   0  0  0  0  0  0  0  0  0  0  0  0
  144.0138  136.7921  151.1237 H   0  0  0  0  0  0  0  0  0  0  0  0
  144.4813  135.0419  153.5616 H   0  0  0  0  0  0  0  0  0  0  0  0
  143.2033  136.2275  153.3125 H   0  0  0  0  0  0  0  0  0  0  0  0
  142.9857  133.4781  152.7799 H   0  0  0  0  0  0  0  0  0  0  0  0
  141.9568  134.6769  152.0058 H   0  0  0  0  0  0  0  0  0  0  0  0
  142.8520  132.0578  150.6495 H   0  0  0  0  0  0  0  0  0  0  0  0
  145.8705  132.7749  151.1486 H   0  0  0  0  0  0  0  0  0  0  0  0
  145.1922  131.0717  151.0085 H   0  0  0  0  0  0  0  0  0  0  0  0
  144.4150  131.5668  148.6727 H   0  0  0  0  0  0  0  0  0  0  0  0
  145.0908  133.2718  148.8051 H   0  0  0  0  0  0  0  0  0  0  0  0
  145.1403  135.1256  149.7510 H   0  0  0  0  0  0  0  0  0  0  0  0
  145.6826  134.2395  151.1803 H   0  0  0  0  0  0  0  0  0  0  0  0
  143.0012  134.5389  150.1466 H   0  0  0  0  0  0  0  0  0  0  0  0
  148.8166  142.4881  155.6043 H   0  0  0  0  0  0  0  0  0  0  0  0
  1  2  2  0  0  0  0
  2  3  1  0  0  0  0
  2 10  1  0  0  0  0
  3  4  1  0  0  0  0
  3 19  1  0  0  0  0
  4  9  1  0  0  0  0
  4  5  2  0  0  0  0
  5  6  1  0  0  0  0
  5 20  1  0  0  0  0
  6  7  2  0  0  0  0
  6 21  1  0  0  0  0
  7  8  1  0  0  0  0
  7 37  1  0  0  0  0
  8  9  2  0  0  0  0
  8 22  1  0  0  0  0
  9 23  1  0  0  0  0
 10 11  1  0  0  0  0
 11 18  1  0  0  0  0
 11 12  1  0  0  0  0
 11 24  1  0  0  0  0
 12 13  1  0  0  0  0
 12 25  1  0  0  0  0
 12 26  1  0  0  0  0
 13 14  1  0  0  0  0
 13 27  1  0  0  0  0
 13 28  1  0  0  0  0
 14 15  1  0  0  0  0
 14 18  1  0  0  0  0
 14 36  1  0  0  0  0
 15 17  1  0  0  0  0
 15 16  1  0  0  0  0
 15 29  1  0  0  0  0
 16 17  1  0  0  0  0
 16 30  1  0  0  0  0
 16 31  1  0  0  0  0
 17 32  1  0  0  0  0
 17 33  1  0  0  0  0
 18 34  1  0  0  0  0
 18 35  1  0  0  0  0
M  CHG  1   7   1
M  CHG  1  10  -1
M  CHG  1  14   1
M  END
> <s_m_source_file>
AV-unprocessed.smi

> <i_m_source_file_index>
3234

> <i_lp_mmshare_version>
43012

> <i_f3d_flags>
0

> <s_epik_input>
W2NIXTFbY0hdbltjSF1bY0hdYzFbTkhdQyg9TylbTkhdW0NAQEhdMltDSDJdW0NIMl1OKFtDSDJdMilbQ0hdM1tDSDJdW0NIMl0z

> <s_epik_cmdline>
J2VwaWtfcHl0aG9uJywgJy1waCcsICc3LjAnLCAnLXRuJywgJzgnLCAnLW1hJywgJzIwMCcsICctbWV0YWxfYmluZGluZycsICctaW1hZScsICc8aW5maWxlLm1hZT4nLCAnLW9tYWUnLCAnPG91dGZpbGUubWFlPic=

> <r_epik_Ionization_Penalty>
8.3234

> <r_epik_Ionization_Penalty_Charging>
8.3234

> <r_epik_Ionization_Penalty_Neutral>
3.58513e-06

> <r_epik_State_Penalty>
7.99376

> <r_epik_Charging_Adjusted_Penalty>
16.3172

> <i_epik_Tot_Q>
1

> <i_epik_Tot_abs_Q>
3

> <r_epik_Metal_State_Penalty>
3.98956

> <b_epik_Metal_Only>
1

> <s_lp_Force_Field>
OPLS_2005

> <r_lp_Energy>
39.7431

> <b_lp_Chiralities_Consistent>
1

> <s_lp_Variant>
AV-unprocessed.smi:3234-11

> <Gold.Version>
5.8.1

> <Gold.Id.Protein>
6NUR|6NUR_protein|mol2

> <Gold.PLP.Fitness>
46.4133

> <Gold.PLP.PLP>
-32.1181

> <Gold.PLP.part.hbond>
-3.0000

> <Gold.PLP.part.metal>
0.0000

> <Gold.PLP.part.buried>
-3.7962

> <Gold.PLP.part.nonpolar>
-29.6517

> <Gold.PLP.part.repulsive>
3.7688

> <Gold.PLP.ligand.clash>
0.0000

> <Gold.PLP.ligand.torsion>
0.9918

> <Gold.PLP.Chemscore.Hbond>
5.0000

> <Gold.PLP.Chemscore.CHOScore>
0.0000

> <Gold.PLP.Chemscore.Metal>
0.0000

> <Gold.Chemscore.Hbonds>
donor molecule, donor type, donor heavy atom, donor atom, acceptor molecule, acceptor atom, score
      L1  H     3    19       P1  7948  1.00
      L1  H     7    37       P1  8028  0.95
      L1  H    14    36       P1 10186  1.35

> <Gold.PLP.Chemscore.Internal.Correction>
1.2789

> <Gold.Rescore>
     Score         DG    S(hbond)    S(metal)    S(lipo)     H(rot)  DE(clash)    DE(int)     intcor
     16.65     -20.83       2.61        0.00      83.28       1.21       1.86       2.32       ----

> <Gold.Chemscore.Fitness>
16.6549

> <Gold.Chemscore.DG>
-20.8332

> <Gold.Chemscore.ZeroCoef>
-5.4800

> <Gold.Chemscore.Hbond>
2.6074

> <Gold.Chemscore.Metal>
0.0000

> <Gold.Chemscore.Lipo>
83.2819

> <Gold.Chemscore.Internal_Hbond>
0.0000

> <Gold.Chemscore.DEClash>
1.8602

> <Gold.Chemscore.DEInternal>
2.3182

> <Gold.Chemscore.Rot>
1.2108

> <Gold.Chemscore.Internal.Correction>
   9.000000E+99

> <Gold.Chemscore.Hbonds>
donor molecule, donor type, donor heavy atom, donor atom, acceptor molecule, acceptor atom, score
      L1  H     3    19       P1  7948  1.00
      L1  H     7    37       P1  8028  0.45
      L1  H    14    36       P1 10186  0.52

> <Gold.Chemscore.Hbond.Weighted>
-8.7088

> <Gold.Chemscore.Metal.Weighted>
-0.0000

> <Gold.Chemscore.Lipo.Weighted>
-9.7440

> <Gold.Chemscore.Internal_Hbond.Weighted>
0.0000

> <Gold.Chemscore.DEClash.Weighted>
1.8602

> <Gold.Chemscore.DEInternal.Weighted>
2.3182

> <Gold.Chemscore.Rot.Weighted>
3.0996

> <Gold.Chemscore.Internal.Correction.Weighted>
   9.000000E+99

> <Gold.Protein.RotatedTorsions>
[ 6907 6896 6895 6894 ] final   69.80 input  -60.11 | X-H torsion
[ 7974 7965 7964 7962 ] final   15.63 input  175.53 | X-H torsion
[ 8008 7997 7996 7995 ] final   43.30 input   59.86 | X-H torsion
[ 10167 10162 10161 10158 ] final  152.76 input  -65.29 | X-H torsion
[ 10718 10713 10712 10709 ] final   93.93 input   66.30 | X-H torsion
[ 10763 10752 10751 10750 ] final   17.64 input  -60.55 | X-H torsion
[ 11005 11000 10999 10996 ] final  -49.01 input  -57.11 | X-H torsion

> <Gold.Protein.ActiveResidues>
 VAL166  LYS551  ARG553  GLY616  TRP617  ASP618  TYR619  PRO620  LYS621  CYS622 
 ASP623  PHE694  ASN695  SER759  ASP760  ASP761  ALA762  ILE779  LEU786  VAL792 
 PHE793  MET794  SER795  GLU796  ALA797  LYS798  CYS799  TRP800  GLU811  SER814 

> <Gold.Protein.RotatedAtoms>
  152.4709  134.4962  159.9710 H   0  0  0  0  0  0  0  0  0  0  0  0  # atno 6907 bound_to 6896
  151.4989  133.3502  159.2873 H   0  0  0  0  0  0  0  0  0  0  0  0  # atno 6908 bound_to 6896
  150.8719  134.8122  159.7222 H   0  0  0  0  0  0  0  0  0  0  0  0  # atno 6909 bound_to 6896
  146.2273  139.8865  142.8562 H   0  0  0  0  0  0  0  0  0  0  0  0  # atno 7974 bound_to 7965
  155.3004  140.3384  155.4248 H   0  0  0  0  0  0  0  0  0  0  0  0  # atno 8008 bound_to 7997
  156.2004  140.1730  156.7951 H   0  0  0  0  0  0  0  0  0  0  0  0  # atno 8009 bound_to 7997
  154.5551  140.0698  156.8715 H   0  0  0  0  0  0  0  0  0  0  0  0  # atno 8010 bound_to 7997
  139.4831  144.5331  151.7690 H   0  0  0  0  0  0  0  0  0  0  0  0  # atno 10167 bound_to 10162
  157.6951  131.0495  150.4108 H   0  0  0  0  0  0  0  0  0  0  0  0  # atno 10718 bound_to 10713
  153.1321  135.6742  153.9162 H   0  0  0  0  0  0  0  0  0  0  0  0  # atno 10763 bound_to 10752
  153.8645  135.3077  155.3440 H   0  0  0  0  0  0  0  0  0  0  0  0  # atno 10764 bound_to 10752
  154.7716  135.4936  153.9742 H   0  0  0  0  0  0  0  0  0  0  0  0  # atno 10765 bound_to 10752
  141.0734  133.6672  156.3524 H   0  0  0  0  0  0  0  0  0  0  0  0  # atno 11005 bound_to 11000
  145.2460  141.0026  143.3908 LP  0  0  0  0  0  0  0  0  0  0  0  0  # atno 17320 bound_to 7965
  144.9413  139.4185  143.6447 LP  0  0  0  0  0  0  0  0  0  0  0  0  # atno 17321 bound_to 7965
  140.4860  144.1381  150.5941 LP  0  0  0  0  0  0  0  0  0  0  0  0  # atno 17342 bound_to 10162
  140.4225  143.2605  151.9698 LP  0  0  0  0  0  0  0  0  0  0  0  0  # atno 17343 bound_to 10162
  156.4492  130.4008  149.6647 LP  0  0  0  0  0  0  0  0  0  0  0  0  # atno 17370 bound_to 10713
  156.3802  130.7575  151.2567 LP  0  0  0  0  0  0  0  0  0  0  0  0  # atno 17371 bound_to 10713
  140.5625  134.5920  157.5437 LP  0  0  0  0  0  0  0  0  0  0  0  0  # atno 17394 bound_to 11000
  139.9547  134.7556  156.0369 LP  0  0  0  0  0  0  0  0  0  0  0  0  # atno 17395 bound_to 11000

$$$$
