#       Name:                AV-unprocessed.smi:1225
#       Creating user name   scv26
#       Creation time:       Fri Mar 27 04:20:05 2020


#       File generated by GOLD software.
#

@<TRIPOS>MOLECULE
AV-unprocessed.smi:1225
    53    55     1
SMALL
NO_CHARGES


@<TRIPOS>ATOM
      1 ****        -5.4534   4.3958  -1.3649 C.3            1 S1                 0.0000
      2 ****        -4.5216   3.2484  -1.1737 C.2            1 S1                 0.0000
      3 ****        -3.3024   3.3662  -0.6425 N.2            1 S1                 0.0000
      4 ****        -2.6311   2.1434  -0.5730 C.2            1 S1                 0.0000
      5 ****        -3.3561   1.0841  -1.0611 C.2            1 S1                 0.0000
      6 ****        -2.9373  -0.3488  -1.1345 C.3            1 S1                 0.0000
      7 ****        -2.6681  -0.9448   0.1775 N.3            1 S1                 0.0000
      8 ****        -3.9142  -1.0984   0.9247 C.3            1 S1                 0.0000
      9 ****        -1.9764  -2.2318   0.0618 C.3            1 S1                 0.0000
     10 ****        -0.4332  -2.1636   0.0970 C.3            1 S1                 0.0000
     11 ****         0.0368  -3.4957   0.1699 O.3            1 S1                 0.0000
     12 ****         0.2295  -1.4584  -1.1056 C.3            1 S1                 0.0000
     13 ****         1.6787  -1.5552  -1.0884 N.pl3          1 S1                 0.0000
     14 ****         2.4538  -2.3152  -1.8857 C.2            1 S1                 0.0000
     15 ****         3.7690  -2.2456  -1.7021 N.2            1 S1                 0.0000
     16 ****         3.8578  -1.3312  -0.6665 C.ar           1 S1                 0.0000
     17 ****         4.9871  -0.8116   0.0031 C.ar           1 S1                 0.0000
     18 ****         4.8412   0.1296   1.0470 C.ar           1 S1                 0.0000
     19 ****         6.0836   0.6632   1.7382 C.3            1 S1                 0.0000
     20 ****         3.5486   0.5634   1.4372 C.ar           1 S1                 0.0000
     21 ****         3.3673   1.5710   2.5586 C.3            1 S1                 0.0000
     22 ****         2.4100   0.0562   0.7768 C.ar           1 S1                 0.0000
     23 ****         2.5683  -0.8794  -0.2607 C.ar           1 S1                 0.0000
     24 ****        -4.9222   1.5979  -1.6321 S.3            1 S1                 0.0000
     25 ****        -5.0834   5.2817  -0.8479 H              1 S1                 0.0000
     26 ****        -6.4381   4.1468  -0.9690 H              1 S1                 0.0000
     27 ****        -5.5488   4.6245  -2.4263 H              1 S1                 0.0000
     28 ****        -1.6342   2.1155  -0.1580 H              1 S1                 0.0000
     29 ****        -3.7026  -0.9300  -1.6512 H              1 S1                 0.0000
     30 ****        -2.0598  -0.4068  -1.7728 H              1 S1                 0.0000
     31 ****        -3.7217  -1.4975   1.9211 H              1 S1                 0.0000
     32 ****        -4.5996  -1.7763   0.4139 H              1 S1                 0.0000
     33 ****        -4.4184  -0.1407   1.0558 H              1 S1                 0.0000
     34 ****        -2.2684  -2.8629   0.9030 H              1 S1                 0.0000
     35 ****        -2.3182  -2.7663  -0.8260 H              1 S1                 0.0000
     36 ****        -0.1256  -1.6652   1.0171 H              1 S1                 0.0000
     37 ****        -0.2229  -3.9496  -0.6170 H              1 S1                 0.0000
     38 ****        -0.1372  -1.8766  -2.0442 H              1 S1                 0.0000
     39 ****        -0.0207  -0.3977  -1.1055 H              1 S1                 0.0000
     40 ****         2.0284  -2.9568  -2.6436 H              1 S1                 0.0000
     41 ****         5.9715  -1.1427  -0.2938 H              1 S1                 0.0000
     42 ****         6.0912   0.3695   2.7879 H              1 S1                 0.0000
     43 ****         6.1171   1.7514   1.6818 H              1 S1                 0.0000
     44 ****         6.9927   0.2781   1.2755 H              1 S1                 0.0000
     45 ****         2.3120   1.7399   2.7749 H              1 S1                 0.0000
     46 ****         3.8116   2.5283   2.2854 H              1 S1                 0.0000
     47 ****         3.8421   1.2168   3.4739 H              1 S1                 0.0000
     48 ****         1.4194   0.3792   1.0618 H              1 S1                 0.0000
     49 ****        -2.9135   4.2326  -0.3295 LP             1 S1                 0.0000
     50 ****        -2.0612  -0.3249   0.6748 LP             1 S1                 0.0000
     51 ****        -0.3599  -3.9500   0.9676 LP             1 S1                 0.0000
     52 ****         1.0338  -3.4977   0.2468 LP             1 S1                 0.0000
     53 ****         4.5007  -2.7268  -2.1847 LP             1 S1                 0.0000
@<TRIPOS>BOND
    1    1    2 1     
    2    1   25 1     
    3    1   26 1     
    4    1   27 1     
    5    2   24 1     
    6    2    3 2     
    7    3    4 1     
    8    4    5 2     
    9    4   28 1     
   10    5    6 1     
   11    5   24 1     
   12    6    7 1     
   13    6   29 1     
   14    6   30 1     
   15    7    8 1     
   16    7    9 1     
   17    8   31 1     
   18    8   32 1     
   19    8   33 1     
   20    9   10 1     
   21    9   34 1     
   22    9   35 1     
   23   10   11 1     
   24   10   12 1     
   25   10   36 1     
   26   11   37 1     
   27   12   13 1     
   28   12   38 1     
   29   12   39 1     
   30   13   23 1     
   31   13   14 1     
   32   14   15 2     
   33   14   40 1     
   34   15   16 1     
   35   16   23 ar    
   36   16   17 ar    
   37   17   18 ar    
   38   17   41 1     
   39   18   19 1     
   40   18   20 ar    
   41   19   42 1     
   42   19   43 1     
   43   19   44 1     
   44   20   21 1     
   45   20   22 ar    
   46   21   45 1     
   47   21   46 1     
   48   21   47 1     
   49   22   23 ar    
   50   22   48 1     
   51    3   49 1     
   52    7   50 1     
   53   11   51 1     
   54   11   52 1     
   55   15   53 1     
@<TRIPOS>SUBSTRUCTURE
      1 S1             1
@<TRIPOS>SET
LONE_PAIRS      STATIC     ATOMS    <user>   **** ""
5 49 50 51 52 53
DONOR_HYDROGENS      STATIC     ATOMS    <user>   **** ""
1 37
ATOM$BLUE        STATIC     ATOMS    COLORGROUP SYSTEM
5 49 50 51 52 53
ATOM$RED        STATIC     ATOMS    COLORGROUP SYSTEM
1 37
