#       Name:                AV-unprocessed.smi:433
#       Creating user name   scv26
#       Creation time:       Thu Mar 26 22:51:43 2020


#       File generated by GOLD software.
#

@<TRIPOS>MOLECULE
AV-unprocessed.smi:433
    44    45     1
SMALL
NO_CHARGES


@<TRIPOS>ATOM
      1 ****        -2.1915   3.0147  -2.2963 C.3            1 S1                 0.0000
      2 ****        -1.8863   3.0253  -0.8947 N.am           1 S1                 0.0000
      3 ****        -2.0430   4.1510  -0.1101 C.2            1 S1                 0.0000
      4 ****        -1.7433   4.1732   1.2068 C.2            1 S1                 0.0000
      5 ****        -1.2323   2.9841   1.8801 C.2            1 S1                 0.0000
      6 ****        -0.9216   2.9682   3.0717 O.2            1 S1                 0.0000
      7 ****        -1.1028   1.8429   1.0507 N.am           1 S1                 0.0000
      8 ****        -0.5780   0.6272   1.6473 C.3            1 S1                 0.0000
      9 ****         0.9557   0.4996   1.5031 C.3            1 S1                 0.0000
     10 ****         1.5619   0.8821   2.7210 O.3            1 S1                 0.0000
     11 ****         1.3947  -0.9418   1.2062 C.3            1 S1                 0.0000
     12 ****         0.9586  -1.2819  -0.1030 O.3            1 S1                 0.0000
     13 ****         1.2253  -2.5480  -0.5754 C.ar           1 S1                 0.0000
     14 ****         0.7477  -2.8610  -1.8647 C.ar           1 S1                 0.0000
     15 ****         0.9755  -4.1307  -2.4292 C.ar           1 S1                 0.0000
     16 ****         1.6879  -5.1044  -1.7054 C.ar           1 S1                 0.0000
     17 ****         2.1701  -4.8056  -0.4174 C.ar           1 S1                 0.0000
     18 ****         1.9416  -3.5354   0.1475 C.ar           1 S1                 0.0000
     19 ****        -1.3979   1.8255  -0.3336 C.2            1 S1                 0.0000
     20 ****        -1.2296   0.8175  -1.0261 O.2            1 S1                 0.0000
     21 ****        -2.5808   3.9976  -2.5638 H              1 S1                 0.0000
     22 ****        -2.9455   2.2438  -2.4650 H              1 S1                 0.0000
     23 ****        -1.2632   2.8080  -2.8319 H              1 S1                 0.0000
     24 ****        -2.4166   5.0566  -0.5658 H              1 S1                 0.0000
     25 ****        -1.8798   5.0845   1.7701 H              1 S1                 0.0000
     26 ****        -0.9132   0.5746   2.6849 H              1 S1                 0.0000
     27 ****        -1.0972  -0.2033   1.1657 H              1 S1                 0.0000
     28 ****         1.3315   1.1518   0.7133 H              1 S1                 0.0000
     29 ****         1.3031   1.7695   2.9189 H              1 S1                 0.0000
     30 ****         2.4828  -1.0139   1.2548 H              1 S1                 0.0000
     31 ****         0.9745  -1.6248   1.9466 H              1 S1                 0.0000
     32 ****         0.2000  -2.1183  -2.4264 H              1 S1                 0.0000
     33 ****         0.6037  -4.3565  -3.4178 H              1 S1                 0.0000
     34 ****         1.8643  -6.0786  -2.1372 H              1 S1                 0.0000
     35 ****         2.7172  -5.5520   0.1392 H              1 S1                 0.0000
     36 ****         2.3276  -3.3426   1.1368 H              1 S1                 0.0000
     37 ****        -1.0152   3.7967   3.6239 LP             1 S1                 0.0000
     38 ****        -0.5758   2.1269   3.4870 LP             1 S1                 0.0000
     39 ****         2.5567   0.8325   2.6328 LP             1 S1                 0.0000
     40 ****         1.2613   0.2717   3.4538 LP             1 S1                 0.0000
     41 ****         1.3863  -0.6349  -0.7342 LP             1 S1                 0.0000
     42 ****        -0.0339  -1.1616  -0.1243 LP             1 S1                 0.0000
     43 ****        -1.4402   0.8414  -2.0034 LP             1 S1                 0.0000
     44 ****        -0.8827  -0.0229  -0.6098 LP             1 S1                 0.0000
@<TRIPOS>BOND
    1    1    2 1     
    2    1   21 1     
    3    1   22 1     
    4    1   23 1     
    5    2   19 am    
    6    2    3 1     
    7    3    4 2     
    8    3   24 1     
    9    4    5 1     
   10    4   25 1     
   11    5    6 2     
   12    5    7 am    
   13    7    8 1     
   14    7   19 am    
   15    8    9 1     
   16    8   26 1     
   17    8   27 1     
   18    9   10 1     
   19    9   11 1     
   20    9   28 1     
   21   10   29 1     
   22   11   12 1     
   23   11   30 1     
   24   11   31 1     
   25   12   13 1     
   26   13   18 ar    
   27   13   14 ar    
   28   14   15 ar    
   29   14   32 1     
   30   15   16 ar    
   31   15   33 1     
   32   16   17 ar    
   33   16   34 1     
   34   17   18 ar    
   35   17   35 1     
   36   18   36 1     
   37   19   20 2     
   38    6   37 1     
   39    6   38 1     
   40   10   39 1     
   41   10   40 1     
   42   12   41 1     
   43   12   42 1     
   44   20   43 1     
   45   20   44 1     
@<TRIPOS>SUBSTRUCTURE
      1 S1             1
@<TRIPOS>SET
LONE_PAIRS      STATIC     ATOMS    <user>   **** ""
8 37 38 39 40 41 42 43 44
DONOR_HYDROGENS      STATIC     ATOMS    <user>   **** ""
1 29
ATOM$BLUE        STATIC     ATOMS    COLORGROUP SYSTEM
8 37 38 39 40 41 42 43 44
ATOM$RED        STATIC     ATOMS    COLORGROUP SYSTEM
1 29
