AV-unprocessed.smi:1207|AV-procd|sdf|5057|dock10
  -GOLD-   22720 4 93D 1   1.00000     0.00000
 Structure written by MMmdl.
 53 55  0  0  0  0  0  0  0  0  3 V2000
  146.0682  129.9903  151.7966 C   0  0  0  0  0  0  0  0  0  0  0  0
  145.9378  131.5039  151.7691 C   0  0  0  0  0  0  0  0  0  0  0  0
  144.7747  132.0704  151.2003 C   0  0  0  0  0  0  0  0  0  0  0  0
  144.6843  133.4573  151.1897 C   0  0  0  0  0  0  0  0  0  0  0  0
  143.6854  134.3068  150.7085 N   0  3  0  0  0  0  0  0  0  0  0  0
  144.0481  135.6022  150.9213 C   0  0  0  0  0  0  0  0  0  0  0  0
  145.2621  135.5919  151.5371 N   0  0  0  0  0  0  0  0  0  0  0  0
  146.1058  136.7086  151.9835 C   0  0  0  0  0  0  0  0  0  0  0  0
  145.5193  137.4579  153.1962 C   0  0  2  0  0  0  0  0  0  0  0  0
  144.2534  137.9845  152.8483 O   0  0  0  0  0  0  0  0  0  0  0  0
  146.4317  138.6170  153.6454 C   0  0  0  0  0  0  0  0  0  0  0  0
  147.8722  138.2473  153.6461 N   0  3  1  0  0  0  0  0  0  0  0  0
  148.7487  139.3587  153.1987 C   0  0  0  0  0  0  0  0  0  0  0  0
  148.3027  137.6635  154.9435 C   0  0  0  0  0  0  0  0  0  0  0  0
  149.7713  137.3231  154.9481 C   0  0  0  0  0  0  0  0  0  0  0  0
  150.3841  136.0427  154.8177 C   0  0  0  0  0  0  0  0  0  0  0  0
  149.7321  134.7010  154.6425 C   0  0  0  0  0  0  0  0  0  0  0  0
  151.7031  136.1212  154.8628 N   0  0  0  0  0  0  0  0  0  0  0  0
  152.0027  137.4775  155.0206 O   0  0  0  0  0  0  0  0  0  0  0  0
  150.8377  138.1715  155.0661 C   0  0  0  0  0  0  0  0  0  0  0  0
  150.9447  139.6503  155.2274 C   0  0  0  0  0  0  0  0  0  0  0  0
  145.7003  134.2758  151.7199 C   0  0  0  0  0  0  0  0  0  0  0  0
  146.8536  133.7348  152.2826 C   0  0  0  0  0  0  0  0  0  0  0  0
  146.9642  132.3259  152.3032 C   0  0  0  0  0  0  0  0  0  0  0  0
  148.2104  131.7057  152.9117 C   0  0  0  0  0  0  0  0  0  0  0  0
  145.2047  129.5071  151.3385 H   0  0  0  0  0  0  0  0  0  0  0  0
  146.1453  129.6308  152.8230 H   0  0  0  0  0  0  0  0  0  0  0  0
  146.9561  129.6716  151.2501 H   0  0  0  0  0  0  0  0  0  0  0  0
  143.9902  131.4508  150.7905 H   0  0  0  0  0  0  0  0  0  0  0  0
  143.4756  136.4782  150.6514 H   0  0  0  0  0  0  0  0  0  0  0  0
  147.0994  136.3184  152.2081 H   0  0  0  0  0  0  0  0  0  0  0  0
  146.2247  137.3874  151.1376 H   0  0  0  0  0  0  0  0  0  0  0  0
  145.3767  136.7466  154.0082 H   0  0  0  0  0  0  0  0  0  0  0  0
  144.3469  138.9121  152.6916 H   0  0  0  0  0  0  0  0  0  0  0  0
  146.2871  139.4891  153.0060 H   0  0  0  0  0  0  0  0  0  0  0  0
  146.1201  138.9228  154.6454 H   0  0  0  0  0  0  0  0  0  0  0  0
  148.7241  140.1839  153.9112 H   0  0  0  0  0  0  0  0  0  0  0  0
  148.4465  139.7451  152.2267 H   0  0  0  0  0  0  0  0  0  0  0  0
  149.7828  139.0308  153.0951 H   0  0  0  0  0  0  0  0  0  0  0  0
  148.0476  138.3525  155.7497 H   0  0  0  0  0  0  0  0  0  0  0  0
  147.7286  136.7567  155.1373 H   0  0  0  0  0  0  0  0  0  0  0  0
  148.7726  134.6561  155.1569 H   0  0  0  0  0  0  0  0  0  0  0  0
  150.3540  133.8987  155.0408 H   0  0  0  0  0  0  0  0  0  0  0  0
  149.5534  134.4900  153.5880 H   0  0  0  0  0  0  0  0  0  0  0  0
  150.1371  140.0330  155.8517 H   0  0  0  0  0  0  0  0  0  0  0  0
  150.8887  140.1476  154.2591 H   0  0  0  0  0  0  0  0  0  0  0  0
  151.8900  139.9260  155.6954 H   0  0  0  0  0  0  0  0  0  0  0  0
  147.6357  134.3598  152.6871 H   0  0  0  0  0  0  0  0  0  0  0  0
  148.9037  132.4685  153.2679 H   0  0  0  0  0  0  0  0  0  0  0  0
  148.7351  131.0983  152.1740 H   0  0  0  0  0  0  0  0  0  0  0  0
  147.9481  131.0721  153.7594 H   0  0  0  0  0  0  0  0  0  0  0  0
  147.9640  137.5050  152.9669 H   0  0  0  0  0  0  0  0  0  0  0  0
  142.8207  134.0258  150.2638 H   0  0  0  0  0  0  0  0  0  0  0  0
  1  2  1  0  0  0  0
  1 26  1  0  0  0  0
  1 27  1  0  0  0  0
  1 28  1  0  0  0  0
  2 24  1  0  0  0  0
  2  3  2  0  0  0  0
  3  4  1  0  0  0  0
  3 29  1  0  0  0  0
  4 22  2  0  0  0  0
  4  5  1  0  0  0  0
  5  6  2  0  0  0  0
  5 53  1  0  0  0  0
  6  7  1  0  0  0  0
  6 30  1  0  0  0  0
  7  8  1  0  0  0  0
  7 22  1  0  0  0  0
  8  9  1  0  0  0  0
  8 31  1  0  0  0  0
  8 32  1  0  0  0  0
  9 10  1  0  0  0  0
  9 11  1  0  0  0  0
  9 33  1  0  0  0  0
 10 34  1  0  0  0  0
 11 12  1  0  0  0  0
 11 35  1  0  0  0  0
 11 36  1  0  0  0  0
 12 13  1  0  0  0  0
 12 14  1  0  0  0  0
 12 52  1  0  0  0  0
 13 37  1  0  0  0  0
 13 38  1  0  0  0  0
 13 39  1  0  0  0  0
 14 15  1  0  0  0  0
 14 40  1  0  0  0  0
 14 41  1  0  0  0  0
 15 20  2  0  0  0  0
 15 16  1  0  0  0  0
 16 17  1  0  0  0  0
 16 18  2  0  0  0  0
 17 42  1  0  0  0  0
 17 43  1  0  0  0  0
 17 44  1  0  0  0  0
 18 19  1  0  0  0  0
 19 20  1  0  0  0  0
 20 21  1  0  0  0  0
 21 45  1  0  0  0  0
 21 46  1  0  0  0  0
 21 47  1  0  0  0  0
 22 23  1  0  0  0  0
 23 24  2  0  0  0  0
 23 48  1  0  0  0  0
 24 25  1  0  0  0  0
 25 49  1  0  0  0  0
 25 50  1  0  0  0  0
 25 51  1  0  0  0  0
M  CHG  1   5   1
M  CHG  1  12   1
M  END
> <s_m_source_file>
AV-unprocessed.smi

> <i_m_source_file_index>
1207

> <i_lp_mmshare_version>
43012

> <i_f3d_flags>
0

> <s_epik_input>
W0NIM11jKFtjSF0xKWMoW0NIM10pW2NIXWMoYzEyKW4oW2NIXW4yKVtDSDJdW0NASF0oW09IXSlbQ0gyXU4oW0NIM10pW0NIMl1jM2MoW0NIM10pbm9jM1tDSDNd

> <s_epik_cmdline>
J2VwaWtfcHl0aG9uJywgJy1waCcsICc3LjAnLCAnLXRuJywgJzgnLCAnLW1hJywgJzIwMCcsICctbWV0YWxfYmluZGluZycsICctaW1hZScsICc8aW5maWxlLm1hZT4nLCAnLW9tYWUnLCAnPG91dGZpbGUubWFlPic=

> <r_epik_Ionization_Penalty>
1.77463

> <r_epik_Ionization_Penalty_Charging>
1.77463

> <r_epik_Ionization_Penalty_Neutral>
3.70885e-06

> <r_epik_State_Penalty>
1.85225

> <r_epik_Charging_Adjusted_Penalty>
3.62688

> <i_epik_Tot_Q>
2

> <i_epik_Tot_abs_Q>
2

> <r_epik_Metal_State_Penalty>
1.92674

> <b_epik_Metal_Only>
0

> <s_lp_Force_Field>
OPLS_2005

> <r_lp_Energy>
17.578

> <b_lp_Chiralities_Consistent>
1

> <s_lp_Variant>
AV-unprocessed.smi:1207-9

> <Gold.Version>
5.8.1

> <Gold.Id.Protein>
6NUR|6NUR_protein|mol2

> <Gold.PLP.Fitness>
56.2458

> <Gold.PLP.PLP>
-37.1132

> <Gold.PLP.part.hbond>
-5.4498

> <Gold.PLP.part.metal>
0.0000

> <Gold.PLP.part.buried>
1.9825

> <Gold.PLP.part.nonpolar>
-34.7964

> <Gold.PLP.part.repulsive>
0.2011

> <Gold.PLP.ligand.clash>
0.0000

> <Gold.PLP.ligand.torsion>
0.9107

> <Gold.PLP.Chemscore.Hbond>
5.9440

> <Gold.PLP.Chemscore.CHOScore>
1.0000

> <Gold.PLP.Chemscore.Metal>
0.0000

> <Gold.Chemscore.Hbonds>
donor molecule, donor type, donor heavy atom, donor atom, acceptor molecule, acceptor atom, score
      L1  H     5    53       P1 10186  2.00
      L1  H    10    34       P1 10175  1.00
      L1  H    12    52       P1  7948  2.00
      P1  H 10752 10763       L1    18  0.63
      L1  C     6    30       P1 10171  1.00

> <Gold.PLP.Chemscore.Internal.Correction>
0.1221

> <Gold.Rescore>
     Score         DG    S(hbond)    S(metal)    S(lipo)     H(rot)  DE(clash)    DE(int)     intcor
     18.25     -23.59       3.79        0.00     102.17       2.54       2.78       2.56       ----

> <Gold.Chemscore.Fitness>
18.2493

> <Gold.Chemscore.DG>
-23.5939

> <Gold.Chemscore.ZeroCoef>
-5.4800

> <Gold.Chemscore.Hbond>
3.7873

> <Gold.Chemscore.Metal>
0.0000

> <Gold.Chemscore.Lipo>
102.1749

> <Gold.Chemscore.Internal_Hbond>
0.0000

> <Gold.Chemscore.DEClash>
2.7809

> <Gold.Chemscore.DEInternal>
2.5637

> <Gold.Chemscore.Rot>
2.5351

> <Gold.Chemscore.Internal.Correction>
   9.000000E+99

> <Gold.Chemscore.Hbonds>
donor molecule, donor type, donor heavy atom, donor atom, acceptor molecule, acceptor atom, score
      L1  H     5    53       P1 10186  0.90
      L1  H    10    34       P1 10175  0.94
      L1  H    12    52       P1  7948  0.97
      P1  H 10752 10763       L1    18  0.22

> <Gold.Chemscore.Hbond.Weighted>
-12.6494

> <Gold.Chemscore.Metal.Weighted>
-0.0000

> <Gold.Chemscore.Lipo.Weighted>
-11.9545

> <Gold.Chemscore.Internal_Hbond.Weighted>
0.0000

> <Gold.Chemscore.DEClash.Weighted>
2.7809

> <Gold.Chemscore.DEInternal.Weighted>
2.5637

> <Gold.Chemscore.Rot.Weighted>
6.4900

> <Gold.Chemscore.Internal.Correction.Weighted>
   9.000000E+99

> <Gold.Protein.RotatedTorsions>
[ 6907 6896 6895 6894 ] final   77.08 input  -60.11 | X-H torsion
[ 7974 7965 7964 7962 ] final  142.37 input  175.53 | X-H torsion
[ 8008 7997 7996 7995 ] final   26.18 input   59.86 | X-H torsion
[ 10167 10162 10161 10158 ] final   77.88 input  -65.29 | X-H torsion
[ 10718 10713 10712 10709 ] final -115.19 input   66.30 | X-H torsion
[ 10763 10752 10751 10750 ] final   67.47 input  -60.55 | X-H torsion
[ 11005 11000 10999 10996 ] final   57.33 input  -57.11 | X-H torsion

> <Gold.Protein.ActiveResidues>
 VAL166  LYS551  ARG553  GLY616  TRP617  ASP618  TYR619  PRO620  LYS621  CYS622 
 ASP623  PHE694  ASN695  SER759  ASP760  ASP761  ALA762  ILE779  LEU786  VAL792 
 PHE793  MET794  SER795  GLU796  ALA797  LYS798  CYS799  TRP800  GLU811  SER814 

> <Gold.Protein.RotatedAtoms>
  152.5102  134.3871  159.9370 H   0  0  0  0  0  0  0  0  0  0  0  0  # atno 6907 bound_to 6896
  151.3830  133.3808  159.2720 H   0  0  0  0  0  0  0  0  0  0  0  0  # atno 6908 bound_to 6896
  150.9490  134.8913  159.7719 H   0  0  0  0  0  0  0  0  0  0  0  0  # atno 6909 bound_to 6896
  144.9014  139.5418  143.5752 H   0  0  0  0  0  0  0  0  0  0  0  0  # atno 7974 bound_to 7965
  155.0233  140.3150  155.4785 H   0  0  0  0  0  0  0  0  0  0  0  0  # atno 8008 bound_to 7997
  156.2888  140.2193  156.5294 H   0  0  0  0  0  0  0  0  0  0  0  0  # atno 8009 bound_to 7997
  154.7433  140.0472  157.0818 H   0  0  0  0  0  0  0  0  0  0  0  0  # atno 8010 bound_to 7997
  139.9768  144.5855  150.7936 H   0  0  0  0  0  0  0  0  0  0  0  0  # atno 10167 bound_to 10162
  156.0879  130.6067  150.8874 H   0  0  0  0  0  0  0  0  0  0  0  0  # atno 10718 bound_to 10713
  153.0188  135.5283  154.6984 H   0  0  0  0  0  0  0  0  0  0  0  0  # atno 10763 bound_to 10752
  154.6099  135.2877  155.0445 H   0  0  0  0  0  0  0  0  0  0  0  0  # atno 10764 bound_to 10752
  154.1471  135.6569  153.5007 H   0  0  0  0  0  0  0  0  0  0  0  0  # atno 10765 bound_to 10752
  140.0461  134.5804  155.9321 H   0  0  0  0  0  0  0  0  0  0  0  0  # atno 11005 bound_to 11000
  146.3110  139.7746  142.9020 LP  0  0  0  0  0  0  0  0  0  0  0  0  # atno 17320 bound_to 7965
  145.3611  141.0326  143.3284 LP  0  0  0  0  0  0  0  0  0  0  0  0  # atno 17321 bound_to 7965
  140.7503  143.2953  151.3222 LP  0  0  0  0  0  0  0  0  0  0  0  0  # atno 17342 bound_to 10162
  139.6439  144.0487  152.2576 LP  0  0  0  0  0  0  0  0  0  0  0  0  # atno 17343 bound_to 10162
  157.6020  131.0941  150.8944 LP  0  0  0  0  0  0  0  0  0  0  0  0  # atno 17370 bound_to 10713
  156.9100  130.5277  149.5280 LP  0  0  0  0  0  0  0  0  0  0  0  0  # atno 17371 bound_to 10713
  141.1907  133.6569  156.5425 LP  0  0  0  0  0  0  0  0  0  0  0  0  # atno 17394 bound_to 11000
  140.3992  134.7372  157.4769 LP  0  0  0  0  0  0  0  0  0  0  0  0  # atno 17395 bound_to 11000

$$$$
