AV-unprocessed.smi:2913|AV-procd|sdf|11184|dock3
  -GOLD-   2272016 73D 1   1.00000     0.00000
 Structure written by MMmdl.
 41 42  0  0  0  0  0  0  0  0  1 V2000
  150.6947  144.9441  160.0745 C   0  0  0  0  0  0  0  0  0  0  0  0
  151.7065  143.9414  160.6042 C   0  0  0  0  0  0  0  0  0  0  0  0
  152.2361  144.1086  161.8366 C   0  0  0  0  0  0  0  0  0  0  0  0
  153.2157  143.1843  162.4103 C   0  0  0  0  0  0  0  0  0  0  0  0
  153.6890  143.3429  163.5360 O   0  0  0  0  0  0  0  0  0  0  0  0
  153.5712  142.1381  161.6151 N   0  0  0  0  0  0  0  0  0  0  0  0
  154.5545  141.1620  162.0923 C   0  0  0  0  0  0  0  0  0  0  0  0
  153.0283  141.9522  160.3326 C   0  0  0  0  0  0  0  0  0  0  0  0
  152.1150  142.7953  159.8016 C   0  0  0  0  0  0  0  0  0  0  0  0
  151.5545  142.6529  158.5208 N   0  0  0  0  0  0  0  0  0  0  0  0
  150.8885  141.6120  157.9866 C   0  0  0  0  0  0  0  0  0  0  0  0
  150.6055  140.5632  158.5650 O   0  0  0  0  0  0  0  0  0  0  0  0
  150.5431  141.8734  156.7177 N   0  0  0  0  0  0  0  0  0  0  0  0
  149.7631  141.0013  155.8423 C   0  0  2  0  0  0  0  0  0  0  0  0
  148.3029  140.9962  156.3212 C   0  0  0  0  0  0  0  0  0  0  0  0
  150.3905  139.5934  155.8415 C   0  0  1  0  0  0  0  0  0  0  0  0
  149.7294  138.5986  154.8862 C   0  0  0  0  0  0  0  0  0  0  0  0
  150.8459  137.6065  154.6574 C   0  0  0  0  0  0  0  0  0  0  0  0
  152.0660  138.5203  154.6007 C   0  0  0  0  0  0  0  0  0  0  0  0
  151.7485  139.6518  155.4074 O   0  0  0  0  0  0  0  0  0  0  0  0
  150.4861  145.7305  160.8008 H   0  0  0  0  0  0  0  0  0  0  0  0
  149.7533  144.4459  159.8409 H   0  0  0  0  0  0  0  0  0  0  0  0
  151.0694  145.4171  159.1663 H   0  0  0  0  0  0  0  0  0  0  0  0
  151.9319  144.9570  162.4325 H   0  0  0  0  0  0  0  0  0  0  0  0
  154.7527  140.3704  161.3691 H   0  0  0  0  0  0  0  0  0  0  0  0
  154.2053  140.6835  163.0083 H   0  0  0  0  0  0  0  0  0  0  0  0
  155.5059  141.6512  162.3059 H   0  0  0  0  0  0  0  0  0  0  0  0
  153.4218  141.0870  159.8241 H   0  0  0  0  0  0  0  0  0  0  0  0
  151.6571  143.4632  157.9275 H   0  0  0  0  0  0  0  0  0  0  0  0
  150.8177  142.7643  156.3312 H   0  0  0  0  0  0  0  0  0  0  0  0
  149.7773  141.3813  154.8194 H   0  0  0  0  0  0  0  0  0  0  0  0
  147.6713  140.3978  155.6648 H   0  0  0  0  0  0  0  0  0  0  0  0
  147.8917  142.0062  156.3333 H   0  0  0  0  0  0  0  0  0  0  0  0
  148.2165  140.5889  157.3290 H   0  0  0  0  0  0  0  0  0  0  0  0
  150.3847  139.1763  156.8503 H   0  0  0  0  0  0  0  0  0  0  0  0
  148.8318  138.1394  155.3012 H   0  0  0  0  0  0  0  0  0  0  0  0
  149.4641  139.0840  153.9456 H   0  0  0  0  0  0  0  0  0  0  0  0
  150.9231  136.9271  155.5076 H   0  0  0  0  0  0  0  0  0  0  0  0
  150.7153  137.0113  153.7534 H   0  0  0  0  0  0  0  0  0  0  0  0
  152.9715  138.0239  154.9500 H   0  0  0  0  0  0  0  0  0  0  0  0
  152.2399  138.8623  153.5797 H   0  0  0  0  0  0  0  0  0  0  0  0
  1  2  1  0  0  0  0
  1 21  1  0  0  0  0
  1 22  1  0  0  0  0
  1 23  1  0  0  0  0
  2  9  1  0  0  0  0
  2  3  2  0  0  0  0
  3  4  1  0  0  0  0
  3 24  1  0  0  0  0
  4  5  2  0  0  0  0
  4  6  1  0  0  0  0
  6  7  1  0  0  0  0
  6  8  1  0  0  0  0
  7 25  1  0  0  0  0
  7 26  1  0  0  0  0
  7 27  1  0  0  0  0
  8  9  2  0  0  0  0
  8 28  1  0  0  0  0
  9 10  1  0  0  0  0
 10 11  1  0  0  0  0
 10 29  1  0  0  0  0
 11 12  2  0  0  0  0
 11 13  1  0  0  0  0
 13 14  1  0  0  0  0
 13 30  1  0  0  0  0
 14 15  1  0  0  0  0
 14 16  1  0  0  0  0
 14 31  1  0  0  0  0
 15 32  1  0  0  0  0
 15 33  1  0  0  0  0
 15 34  1  0  0  0  0
 16 20  1  0  0  0  0
 16 17  1  0  0  0  0
 16 35  1  0  0  0  0
 17 18  1  0  0  0  0
 17 36  1  0  0  0  0
 17 37  1  0  0  0  0
 18 19  1  0  0  0  0
 18 38  1  0  0  0  0
 18 39  1  0  0  0  0
 19 20  1  0  0  0  0
 19 40  1  0  0  0  0
 19 41  1  0  0  0  0
M  END
> <s_m_source_file>
AV-unprocessed.smi

> <i_m_source_file_index>
2913

> <i_lp_mmshare_version>
43012

> <i_f3d_flags>
0

> <s_epik_input>
W0NIM11jMVtjSF1jKD1PKW4oW0NIM10pW2NIXWMxW05IXUMoPU8pW05IXVtDQEhdKFtDSDNdKVtDQEBIXTJbQ0gyXVtDSDJdW0NIMl1PMg==

> <s_epik_cmdline>
J2VwaWtfcHl0aG9uJywgJy1waCcsICc3LjAnLCAnLXRuJywgJzgnLCAnLW1hJywgJzIwMCcsICctbWV0YWxfYmluZGluZycsICctaW1hZScsICc8aW5maWxlLm1hZT4nLCAnLW9tYWUnLCAnPG91dGZpbGUubWFlPic=

> <r_lp_tautomer_probability>
1

> <r_epik_Ionization_Penalty>
2.72039e-05

> <r_epik_Ionization_Penalty_Charging>
8.03976e-06

> <r_epik_Ionization_Penalty_Neutral>
1.91642e-05

> <r_epik_State_Penalty>
-0

> <r_epik_Charging_Adjusted_Penalty>
8.03976e-06

> <i_epik_Tot_Q>
0

> <i_epik_Tot_abs_Q>
0

> <r_epik_Metal_State_Penalty>
-0

> <b_epik_Metal_Only>
0

> <s_lp_Force_Field>
OPLS_2005

> <r_lp_Energy>
32.0319

> <b_lp_Chiralities_Consistent>
1

> <s_lp_Variant>
AV-unprocessed.smi:2913-3

> <Gold.Version>
5.8.1

> <Gold.Id.Protein>
6NUR|6NUR_protein|mol2

> <Gold.PLP.Fitness>
49.1144

> <Gold.PLP.PLP>
-49.9662

> <Gold.PLP.part.hbond>
-1.0000

> <Gold.PLP.part.metal>
0.0000

> <Gold.PLP.part.buried>
-6.2397

> <Gold.PLP.part.nonpolar>
-41.8130

> <Gold.PLP.part.repulsive>
0.2750

> <Gold.PLP.ligand.clash>
0.0000

> <Gold.PLP.ligand.torsion>
0.6169

> <Gold.PLP.Chemscore.Hbond>
0.1232

> <Gold.PLP.Chemscore.CHOScore>
0.0000

> <Gold.PLP.Chemscore.Metal>
0.0000

> <Gold.Chemscore.Hbonds>
donor molecule, donor type, donor heavy atom, donor atom, acceptor molecule, acceptor atom, score
      P1  H  7989  7998       L1    20  0.18

> <Gold.PLP.Chemscore.Internal.Correction>
0.0123

> <Gold.Rescore>
     Score         DG    S(hbond)    S(metal)    S(lipo)     H(rot)  DE(clash)    DE(int)     intcor
     12.96     -15.37       0.00        0.00     110.99       1.21       0.20       2.21       ----

> <Gold.Chemscore.Fitness>
12.9632

> <Gold.Chemscore.DG>
-15.3683

> <Gold.Chemscore.ZeroCoef>
-5.4800

> <Gold.Chemscore.Hbond>
0.0000

> <Gold.Chemscore.Metal>
0.0000

> <Gold.Chemscore.Lipo>
110.9938

> <Gold.Chemscore.Internal_Hbond>
0.0000

> <Gold.Chemscore.DEClash>
0.1967

> <Gold.Chemscore.DEInternal>
2.2085

> <Gold.Chemscore.Rot>
1.2101

> <Gold.Chemscore.Internal.Correction>
   9.000000E+99

> <Gold.Chemscore.Hbond.Weighted>
-0.0000

> <Gold.Chemscore.Metal.Weighted>
-0.0000

> <Gold.Chemscore.Lipo.Weighted>
-12.9863

> <Gold.Chemscore.Internal_Hbond.Weighted>
0.0000

> <Gold.Chemscore.DEClash.Weighted>
0.1967

> <Gold.Chemscore.DEInternal.Weighted>
2.2085

> <Gold.Chemscore.Rot.Weighted>
3.0979

> <Gold.Chemscore.Internal.Correction.Weighted>
   9.000000E+99

> <Gold.Protein.RotatedTorsions>
[ 6907 6896 6895 6894 ] final   85.26 input  -60.11 | X-H torsion
[ 7974 7965 7964 7962 ] final  167.45 input  175.53 | X-H torsion
[ 8008 7997 7996 7995 ] final   19.02 input   59.86 | X-H torsion
[ 10167 10162 10161 10158 ] final   47.53 input  -65.29 | X-H torsion
[ 10718 10713 10712 10709 ] final   94.79 input   66.30 | X-H torsion
[ 10763 10752 10751 10750 ] final -145.93 input  -60.55 | X-H torsion
[ 11005 11000 10999 10996 ] final -106.89 input  -57.11 | X-H torsion

> <Gold.Protein.ActiveResidues>
 VAL166  LYS551  ARG553  GLY616  TRP617  ASP618  TYR619  PRO620  LYS621  CYS622 
 ASP623  PHE694  ASN695  SER759  ASP760  ASP761  ALA762  ILE779  LEU786  VAL792 
 PHE793  MET794  SER795  GLU796  ALA797  LYS798  CYS799  TRP800  GLU811  SER814 

> <Gold.Protein.RotatedAtoms>
  152.5371  134.2613  159.8936 H   0  0  0  0  0  0  0  0  0  0  0  0  # atno 6907 bound_to 6896
  151.2573  133.4313  159.2622 H   0  0  0  0  0  0  0  0  0  0  0  0  # atno 6908 bound_to 6896
  151.0485  134.9671  159.8255 H   0  0  0  0  0  0  0  0  0  0  0  0  # atno 6909 bound_to 6896
  144.7424  139.8763  143.6393 H   0  0  0  0  0  0  0  0  0  0  0  0  # atno 7974 bound_to 7965
  154.9146  140.3019  155.5248 H   0  0  0  0  0  0  0  0  0  0  0  0  # atno 8008 bound_to 7997
  156.3013  140.2382  156.4125 H   0  0  0  0  0  0  0  0  0  0  0  0  # atno 8009 bound_to 7997
  154.8391  140.0414  157.1518 H   0  0  0  0  0  0  0  0  0  0  0  0  # atno 8010 bound_to 7997
  140.3027  144.2915  150.6216 H   0  0  0  0  0  0  0  0  0  0  0  0  # atno 10167 bound_to 10162
  157.6945  131.0524  150.4240 H   0  0  0  0  0  0  0  0  0  0  0  0  # atno 10718 bound_to 10713
  154.8360  135.3400  154.6582 H   0  0  0  0  0  0  0  0  0  0  0  0  # atno 10763 bound_to 10752
  153.7197  135.6959  153.5020 H   0  0  0  0  0  0  0  0  0  0  0  0  # atno 10764 bound_to 10752
  153.2390  135.4391  155.0631 H   0  0  0  0  0  0  0  0  0  0  0  0  # atno 10765 bound_to 10752
  141.0982  133.8932  157.1910 H   0  0  0  0  0  0  0  0  0  0  0  0  # atno 11005 bound_to 11000
  146.1244  139.4267  143.0208 LP  0  0  0  0  0  0  0  0  0  0  0  0  # atno 17320 bound_to 7965
  145.7257  141.0060  143.1378 LP  0  0  0  0  0  0  0  0  0  0  0  0  # atno 17321 bound_to 7965
  140.5637  143.2189  151.7721 LP  0  0  0  0  0  0  0  0  0  0  0  0  # atno 17342 bound_to 10162
  139.4911  144.4313  151.9869 LP  0  0  0  0  0  0  0  0  0  0  0  0  # atno 17343 bound_to 10162
  156.4612  130.4032  149.6575 LP  0  0  0  0  0  0  0  0  0  0  0  0  # atno 17370 bound_to 10713
  156.3689  130.7520  151.2501 LP  0  0  0  0  0  0  0  0  0  0  0  0  # atno 17371 bound_to 10713
  139.9825  135.0093  156.9783 LP  0  0  0  0  0  0  0  0  0  0  0  0  # atno 17394 bound_to 11000
  140.5088  134.1023  155.7266 LP  0  0  0  0  0  0  0  0  0  0  0  0  # atno 17395 bound_to 11000

$$$$
