AV-unprocessed.smi:72|AV-procd|sdf|701|dock4
  -GOLD-   2262017 23D 1   1.00000     0.00000
 Structure written by MMmdl.
 30 31  0  0  0  0  0  0  0  0  2 V2000
  146.4172  138.2407  151.4672 N   0  0  0  0  0  0  0  0  0  0  0  0
  147.0896  139.0714  152.3389 C   0  0  0  0  0  0  0  0  0  0  0  0
  148.2484  138.5904  152.9200 N   0  3  0  0  0  0  0  0  0  0  0  0
  149.0078  139.2607  153.7969 C   0  0  0  0  0  0  0  0  0  0  0  0
  148.6332  140.4668  154.1798 N   0  0  0  0  0  0  0  0  0  0  0  0
  149.4440  141.2828  155.1619 C   0  0  2  0  0  0  0  0  0  0  0  0
  150.7232  140.7406  155.2404 O   0  0  0  0  0  0  0  0  0  0  0  0
  150.7453  139.7530  156.2623 C   0  0  1  0  0  0  0  0  0  0  0  0
  152.1950  139.4508  156.6681 C   0  0  0  0  0  0  0  0  0  0  0  0
  152.9696  139.1996  155.5150 O   0  0  0  0  0  0  0  0  0  0  0  0
  149.9194  140.4216  157.3635 C   0  0  2  0  0  0  0  0  0  0  0  0
  149.3165  139.4399  158.1822 O   0  0  0  0  0  0  0  0  0  0  0  0
  148.8562  141.2006  156.5893 C   0  0  1  0  0  0  0  0  0  0  0  0
  148.6786  142.4845  157.1512 O   0  0  0  0  0  0  0  0  0  0  0  0
  147.4927  141.0684  153.5861 C   0  0  0  0  0  0  0  0  0  0  0  0
  147.1793  142.2236  153.8723 O   0  0  0  0  0  0  0  0  0  0  0  0
  146.7613  140.2865  152.6807 N   0  0  0  0  0  0  0  0  0  0  0  0
  149.4756  142.2862  154.7335 H   0  0  0  0  0  0  0  0  0  0  0  0
  150.2383  138.8481  155.9200 H   0  0  0  0  0  0  0  0  0  0  0  0
  150.5465  141.0881  157.9586 H   0  0  0  0  0  0  0  0  0  0  0  0
  147.9016  140.6722  156.5811 H   0  0  0  0  0  0  0  0  0  0  0  0
  145.5681  138.5102  150.9907 H   0  0  0  0  0  0  0  0  0  0  0  0
  146.7160  137.3041  151.2353 H   0  0  0  0  0  0  0  0  0  0  0  0
  149.9161  138.7954  154.1565 H   0  0  0  0  0  0  0  0  0  0  0  0
  152.6258  140.2679  157.2477 H   0  0  0  0  0  0  0  0  0  0  0  0
  152.2319  138.5560  157.2902 H   0  0  0  0  0  0  0  0  0  0  0  0
  153.1099  138.2674  155.4452 H   0  0  0  0  0  0  0  0  0  0  0  0
  148.4671  139.7560  158.4515 H   0  0  0  0  0  0  0  0  0  0  0  0
  148.6560  143.1200  156.4512 H   0  0  0  0  0  0  0  0  0  0  0  0
  148.5456  137.6614  152.6570 H   0  0  0  0  0  0  0  0  0  0  0  0
  1  2  1  0  0  0  0
  1 22  1  0  0  0  0
  1 23  1  0  0  0  0
  2 17  2  0  0  0  0
  2  3  1  0  0  0  0
  3  4  2  0  0  0  0
  3 30  1  0  0  0  0
  4  5  1  0  0  0  0
  4 24  1  0  0  0  0
  5  6  1  0  0  0  0
  5 15  1  0  0  0  0
  6 18  1  0  0  0  0
  6 13  1  0  0  0  0
  6  7  1  0  0  0  0
  7  8  1  0  0  0  0
  8 19  1  0  0  0  0
  8  9  1  0  0  0  0
  8 11  1  0  0  0  0
  9 10  1  0  0  0  0
  9 25  1  0  0  0  0
  9 26  1  0  0  0  0
 10 27  1  0  0  0  0
 11 20  1  0  0  0  0
 11 12  1  0  0  0  0
 11 13  1  0  0  0  0
 12 28  1  0  0  0  0
 13 21  1  0  0  0  0
 13 14  1  0  0  0  0
 14 29  1  0  0  0  0
 15 16  2  0  0  0  0
 15 17  1  0  0  0  0
M  CHG  1   3   1
M  END
> <s_m_source_file>
AV-unprocessed.smi

> <i_m_source_file_index>
72

> <i_lp_mmshare_version>
43012

> <i_f3d_flags>
0

> <s_epik_input>
W05IMl1jMW5bY0hdbihjKD1PKW4xKVtDQEBIXTJPW0NASF0oW0NIMl1bT0hdKVtDQEBIXShbT0hdKVtDQEhdMltPSF0=

> <s_epik_cmdline>
J2VwaWtfcHl0aG9uJywgJy1waCcsICc3LjAnLCAnLXRuJywgJzgnLCAnLW1hJywgJzIwMCcsICctbWV0YWxfYmluZGluZycsICctaW1hZScsICc8aW5maWxlLm1hZT4nLCAnLW9tYWUnLCAnPG91dGZpbGUubWFlPic=

> <r_lp_tautomer_probability>
4.77166e-05

> <r_epik_Ionization_Penalty>
0.104979

> <r_epik_Ionization_Penalty_Charging>
0.0999619

> <r_epik_Ionization_Penalty_Neutral>
0.00501745

> <r_epik_State_Penalty>
2.51541

> <r_epik_Charging_Adjusted_Penalty>
2.61537

> <i_epik_Tot_Q>
1

> <i_epik_Tot_abs_Q>
1

> <r_epik_Metal_State_Penalty>
3.53763

> <b_epik_Metal_Only>
0

> <s_epik_Chemistry_Notes>
This compound contains an acetal/aminal-like group ( X-CH(R)-Y where X, Y are N, S, or O) that may be acid/base labile, releasing an aldehyde.

> <s_lp_Force_Field>
OPLS_2005

> <r_lp_Energy>
25.3585

> <b_lp_Chiralities_Consistent>
1

> <s_lp_Variant>
AV-unprocessed.smi:72-39

> <Gold.Version>
5.8.1

> <Gold.Id.Protein>
6NUR|6NUR_protein|mol2

> <Gold.PLP.Fitness>
41.0122

> <Gold.PLP.PLP>
-24.8003

> <Gold.PLP.part.hbond>
-6.3162

> <Gold.PLP.part.metal>
0.0000

> <Gold.PLP.part.buried>
0.3641

> <Gold.PLP.part.nonpolar>
-19.1856

> <Gold.PLP.part.repulsive>
1.2038

> <Gold.PLP.ligand.clash>
0.0000

> <Gold.PLP.ligand.torsion>
0.6758

> <Gold.PLP.Chemscore.Hbond>
5.8393

> <Gold.PLP.Chemscore.CHOScore>
0.0000

> <Gold.PLP.Chemscore.Metal>
0.0000

> <Gold.Chemscore.Hbonds>
donor molecule, donor type, donor heavy atom, donor atom, acceptor molecule, acceptor atom, score
      L1  H     1    22       P1 10171  0.94
      L1  H     3    30       P1  7948  2.00
      L1  H    14    29       P1  8028  1.00
      P1  H  7989  7998       L1     7  0.86
      P1  H  7997  8010       L1    10  0.96

> <Gold.PLP.Chemscore.Internal.Correction>
0.0458

> <Gold.Rescore>
     Score         DG    S(hbond)    S(metal)    S(lipo)     H(rot)  DE(clash)    DE(int)     intcor
      7.43     -10.52       4.00        0.00      18.10       4.08       1.83       1.26       ----

> <Gold.Chemscore.Fitness>
7.4293

> <Gold.Chemscore.DG>
-10.5209

> <Gold.Chemscore.ZeroCoef>
-5.4800

> <Gold.Chemscore.Hbond>
4.0012

> <Gold.Chemscore.Metal>
0.0000

> <Gold.Chemscore.Lipo>
18.0967

> <Gold.Chemscore.Internal_Hbond>
0.0000

> <Gold.Chemscore.DEClash>
1.8329

> <Gold.Chemscore.DEInternal>
1.2587

> <Gold.Chemscore.Rot>
4.0783

> <Gold.Chemscore.Internal.Correction>
   9.000000E+99

> <Gold.Chemscore.Hbonds>
donor molecule, donor type, donor heavy atom, donor atom, acceptor molecule, acceptor atom, score
      L1  H     1    22       P1 10171  0.90
      L1  H     3    30       P1  7948  1.00
      L1  H    14    29       P1  8028  0.90
      P1  H  7989  7998       L1     7  0.62
      P1  H  7997  8010       L1    10  0.36

> <Gold.Chemscore.Hbond.Weighted>
-13.3640

> <Gold.Chemscore.Metal.Weighted>
-0.0000

> <Gold.Chemscore.Lipo.Weighted>
-2.1173

> <Gold.Chemscore.Internal_Hbond.Weighted>
0.0000

> <Gold.Chemscore.DEClash.Weighted>
1.8329

> <Gold.Chemscore.DEInternal.Weighted>
1.2587

> <Gold.Chemscore.Rot.Weighted>
10.4404

> <Gold.Chemscore.Internal.Correction.Weighted>
   9.000000E+99

> <Gold.Protein.RotatedTorsions>
[ 6907 6896 6895 6894 ] final   -0.81 input  -60.11 | X-H torsion
[ 7974 7965 7964 7962 ] final  -44.66 input  175.53 | X-H torsion
[ 8008 7997 7996 7995 ] final  113.93 input   59.86 | X-H torsion
[ 10167 10162 10161 10158 ] final  140.68 input  -65.29 | X-H torsion
[ 10718 10713 10712 10709 ] final  163.90 input   66.30 | X-H torsion
[ 10763 10752 10751 10750 ] final  -57.08 input  -60.55 | X-H torsion
[ 11005 11000 10999 10996 ] final  104.95 input  -57.11 | X-H torsion

> <Gold.Protein.ActiveResidues>
 VAL166  LYS551  ARG553  GLY616  TRP617  ASP618  TYR619  PRO620  LYS621  CYS622 
 ASP623  PHE694  ASN695  SER759  ASP760  ASP761  ALA762  ILE779  LEU786  VAL792 
 PHE793  MET794  SER795  GLU796  ALA797  LYS798  CYS799  TRP800  GLU811  SER814 

> <Gold.Protein.RotatedAtoms>
  151.5562  135.1066  159.9961 H   0  0  0  0  0  0  0  0  0  0  0  0  # atno 6907 bound_to 6896
  152.4468  133.7548  159.6724 H   0  0  0  0  0  0  0  0  0  0  0  0  # atno 6908 bound_to 6896
  150.8386  133.7906  159.3094 H   0  0  0  0  0  0  0  0  0  0  0  0  # atno 6909 bound_to 6896
  145.9899  140.7192  142.9322 H   0  0  0  0  0  0  0  0  0  0  0  0  # atno 7974 bound_to 7965
  156.2289  140.2969  156.0138 H   0  0  0  0  0  0  0  0  0  0  0  0  # atno 8008 bound_to 7997
  155.2279  140.0418  157.2975 H   0  0  0  0  0  0  0  0  0  0  0  0  # atno 8009 bound_to 7997
  154.5962  140.2415  155.7861 H   0  0  0  0  0  0  0  0  0  0  0  0  # atno 8010 bound_to 7997
  139.5042  144.6219  151.6031 H   0  0  0  0  0  0  0  0  0  0  0  0  # atno 10167 bound_to 10162
  157.1020  131.0445  151.2494 H   0  0  0  0  0  0  0  0  0  0  0  0  # atno 10718 bound_to 10713
  154.2168  135.6385  153.5132 H   0  0  0  0  0  0  0  0  0  0  0  0  # atno 10763 bound_to 10752
  152.9977  135.5487  154.6156 H   0  0  0  0  0  0  0  0  0  0  0  0  # atno 10764 bound_to 10752
  154.5607  135.2908  155.0896 H   0  0  0  0  0  0  0  0  0  0  0  0  # atno 10765 bound_to 10752
  139.8797  134.9318  156.5439 H   0  0  0  0  0  0  0  0  0  0  0  0  # atno 11005 bound_to 11000
  144.6886  140.3051  143.7257 LP  0  0  0  0  0  0  0  0  0  0  0  0  # atno 17320 bound_to 7965
  145.7646  139.1836  143.2247 LP  0  0  0  0  0  0  0  0  0  0  0  0  # atno 17321 bound_to 7965
  140.5923  143.9757  150.6333 LP  0  0  0  0  0  0  0  0  0  0  0  0  # atno 17342 bound_to 10162
  140.2941  143.3304  152.1034 LP  0  0  0  0  0  0  0  0  0  0  0  0  # atno 17343 bound_to 10162
  157.4633  130.7666  149.7255 LP  0  0  0  0  0  0  0  0  0  0  0  0  # atno 17370 bound_to 10713
  155.9871  130.3969  150.3180 LP  0  0  0  0  0  0  0  0  0  0  0  0  # atno 17371 bound_to 10713
  140.8290  133.8294  155.8966 LP  0  0  0  0  0  0  0  0  0  0  0  0  # atno 17394 bound_to 11000
  140.9347  134.1977  157.4840 LP  0  0  0  0  0  0  0  0  0  0  0  0  # atno 17395 bound_to 11000

$$$$
