AV-unprocessed.smi:3047|AV-procd|sdf|11623|dock8
  -GOLD-   2272017 13D 1   1.00000     0.00000
 Structure written by MMmdl.
 37 38  0  0  0  0  0  0  0  0  1 V2000
  149.6162  134.8003  156.3099 C   0  0  0  0  0  0  0  0  0  0  0  0
  150.7405  136.1176  156.9272 S   0  0  0  0  0  0  0  0  0  0  0  0
  150.4743  136.3142  158.3605 O   0  0  0  0  0  0  0  0  0  0  0  0
  152.1097  135.8410  156.4664 O   0  0  0  0  0  0  0  0  0  0  0  0
  150.1753  137.5248  156.0941 N   0  0  0  0  0  0  0  0  0  0  0  0
  148.8592  137.4829  155.4415 C   0  0  0  0  0  0  0  0  0  0  0  0
  148.9114  138.5380  154.3391 C   0  0  0  0  0  0  0  0  0  0  0  0
  150.3832  138.5565  153.9490 C   0  0  0  0  0  0  0  0  0  0  0  0
  151.1253  138.2883  155.2696 C   0  0  1  0  0  0  0  0  0  0  0  0
  151.6092  139.5680  155.9659 C   0  0  0  0  0  0  0  0  0  0  0  0
  152.7995  139.7210  156.2434 O   0  0  0  0  0  0  0  0  0  0  0  0
  150.6714  140.4913  156.2281 N   0  0  0  0  0  0  0  0  0  0  0  0
  150.9220  141.7860  156.8492 C   0  0  0  0  0  0  0  0  0  0  0  0
  151.8925  141.6706  158.0364 C   0  0  0  0  0  0  0  0  0  0  0  0
  152.0300  142.9338  158.7319 N   0  0  0  0  0  0  0  0  0  0  0  0
  152.1004  144.1980  158.1616 C   0  0  0  0  0  0  0  0  0  0  0  0
  152.2235  145.0914  159.2016 C   0  0  0  0  0  0  0  0  0  0  0  0
  152.2314  144.4030  160.4129 N   0  0  0  0  0  0  0  0  0  0  0  0
  152.1130  143.1309  160.0548 C   0  0  0  0  0  0  0  0  0  0  0  0
  149.8628  133.8575  156.7972 H   0  0  0  0  0  0  0  0  0  0  0  0
  149.7338  134.6902  155.2322 H   0  0  0  0  0  0  0  0  0  0  0  0
  148.5844  135.0667  156.5383 H   0  0  0  0  0  0  0  0  0  0  0  0
  148.6999  136.4956  155.0063 H   0  0  0  0  0  0  0  0  0  0  0  0
  148.0625  137.6726  156.1609 H   0  0  0  0  0  0  0  0  0  0  0  0
  148.2542  138.3065  153.5006 H   0  0  0  0  0  0  0  0  0  0  0  0
  148.6180  139.5095  154.7389 H   0  0  0  0  0  0  0  0  0  0  0  0
  150.5882  137.7488  153.2449 H   0  0  0  0  0  0  0  0  0  0  0  0
  150.6707  139.4900  153.4629 H   0  0  0  0  0  0  0  0  0  0  0  0
  151.9960  137.6670  155.0516 H   0  0  0  0  0  0  0  0  0  0  0  0
  149.7198  140.2915  155.9546 H   0  0  0  0  0  0  0  0  0  0  0  0
  151.3063  142.4856  156.1047 H   0  0  0  0  0  0  0  0  0  0  0  0
  149.9667  142.1882  157.1875 H   0  0  0  0  0  0  0  0  0  0  0  0
  151.5442  140.9167  158.7438 H   0  0  0  0  0  0  0  0  0  0  0  0
  152.8819  141.3579  157.6997 H   0  0  0  0  0  0  0  0  0  0  0  0
  152.0570  144.3526  157.0934 H   0  0  0  0  0  0  0  0  0  0  0  0
  152.3060  146.1680  159.1721 H   0  0  0  0  0  0  0  0  0  0  0  0
  152.0855  142.3239  160.7725 H   0  0  0  0  0  0  0  0  0  0  0  0
  1  2  1  0  0  0  0
  1 20  1  0  0  0  0
  1 21  1  0  0  0  0
  1 22  1  0  0  0  0
  2  3  2  0  0  0  0
  2  4  2  0  0  0  0
  2  5  1  0  0  0  0
  5  9  1  0  0  0  0
  5  6  1  0  0  0  0
  6  7  1  0  0  0  0
  6 23  1  0  0  0  0
  6 24  1  0  0  0  0
  7  8  1  0  0  0  0
  7 25  1  0  0  0  0
  7 26  1  0  0  0  0
  8  9  1  0  0  0  0
  8 27  1  0  0  0  0
  8 28  1  0  0  0  0
  9 10  1  0  0  0  0
  9 29  1  0  0  0  0
 10 11  2  0  0  0  0
 10 12  1  0  0  0  0
 12 13  1  0  0  0  0
 12 30  1  0  0  0  0
 13 14  1  0  0  0  0
 13 31  1  0  0  0  0
 13 32  1  0  0  0  0
 14 15  1  0  0  0  0
 14 33  1  0  0  0  0
 14 34  1  0  0  0  0
 15 19  1  0  0  0  0
 15 16  1  0  0  0  0
 16 17  2  0  0  0  0
 16 35  1  0  0  0  0
 17 18  1  0  0  0  0
 17 36  1  0  0  0  0
 18 19  2  0  0  0  0
 19 37  1  0  0  0  0
M  END
> <s_m_source_file>
AV-unprocessed.smi

> <i_m_source_file_index>
3047

> <i_lp_mmshare_version>
43012

> <i_f3d_flags>
0

> <s_epik_input>
W0NIM11TKD1PKSg9TylOMVtDSDJdW0NIMl1bQ0gyXVtDQEhdMUMoPU8pW05IXVtDSDJdW0NIMl1uMltjSF1bY0hdbltjSF0y

> <s_epik_cmdline>
J2VwaWtfcHl0aG9uJywgJy1waCcsICc3LjAnLCAnLXRuJywgJzgnLCAnLW1hJywgJzIwMCcsICctbWV0YWxfYmluZGluZycsICctaW1hZScsICc8aW5maWxlLm1hZT4nLCAnLW9tYWUnLCAnPG91dGZpbGUubWFlPic=

> <r_lp_tautomer_probability>
1

> <r_epik_Ionization_Penalty>
0.575721

> <r_epik_Ionization_Penalty_Charging>
0.575721

> <r_epik_Ionization_Penalty_Neutral>
1.33078e-07

> <r_epik_State_Penalty>
0.588056

> <r_epik_Charging_Adjusted_Penalty>
1.16378

> <i_epik_Tot_Q>
0

> <i_epik_Tot_abs_Q>
0

> <r_epik_Metal_State_Penalty>
0.294357

> <b_epik_Metal_Only>
0

> <s_lp_Force_Field>
OPLS_2005

> <r_lp_Energy>
8.50144

> <b_lp_Chiralities_Consistent>
1

> <s_lp_Variant>
AV-unprocessed.smi:3047-3

> <Gold.Version>
5.8.1

> <Gold.Id.Protein>
6NUR|6NUR_protein|mol2

> <Gold.PLP.Fitness>
42.4581

> <Gold.PLP.PLP>
-34.7356

> <Gold.PLP.part.hbond>
-3.0000

> <Gold.PLP.part.metal>
0.0000

> <Gold.PLP.part.buried>
-4.7000

> <Gold.PLP.part.nonpolar>
-28.0585

> <Gold.PLP.part.repulsive>
0.1867

> <Gold.PLP.ligand.clash>
0.0000

> <Gold.PLP.ligand.torsion>
0.7682

> <Gold.PLP.Chemscore.Hbond>
2.8960

> <Gold.PLP.Chemscore.CHOScore>
0.0000

> <Gold.PLP.Chemscore.Metal>
0.0000

> <Gold.Chemscore.Hbonds>
donor molecule, donor type, donor heavy atom, donor atom, acceptor molecule, acceptor atom, score
      P1  H  6896  6909       L1     3  0.86
      P1  H  7997  8008       L1    11  1.00
      P1  H 10752 10765       L1     4  1.00

> <Gold.PLP.Chemscore.Internal.Correction>
0.5711

> <Gold.Rescore>
     Score         DG    S(hbond)    S(metal)    S(lipo)     H(rot)  DE(clash)    DE(int)     intcor
     13.99     -16.14       2.89        0.00      60.77       2.39       0.00       2.15       ----

> <Gold.Chemscore.Fitness>
13.9948

> <Gold.Chemscore.DG>
-16.1409

> <Gold.Chemscore.ZeroCoef>
-5.4800

> <Gold.Chemscore.Hbond>
2.8916

> <Gold.Chemscore.Metal>
0.0000

> <Gold.Chemscore.Lipo>
60.7720

> <Gold.Chemscore.Internal_Hbond>
0.0000

> <Gold.Chemscore.DEClash>
0.0000

> <Gold.Chemscore.DEInternal>
2.1461

> <Gold.Chemscore.Rot>
2.3857

> <Gold.Chemscore.Internal.Correction>
   9.000000E+99

> <Gold.Chemscore.Hbonds>
donor molecule, donor type, donor heavy atom, donor atom, acceptor molecule, acceptor atom, score
      P1  H  6896  6909       L1     3  0.81
      P1  H  7997  8008       L1    11  0.99
      P1  H 10752 10765       L1     4  0.99

> <Gold.Chemscore.Hbond.Weighted>
-9.6580

> <Gold.Chemscore.Metal.Weighted>
-0.0000

> <Gold.Chemscore.Lipo.Weighted>
-7.1103

> <Gold.Chemscore.Internal_Hbond.Weighted>
0.0000

> <Gold.Chemscore.DEClash.Weighted>
0.0000

> <Gold.Chemscore.DEInternal.Weighted>
2.1461

> <Gold.Chemscore.Rot.Weighted>
6.1074

> <Gold.Chemscore.Internal.Correction.Weighted>
   9.000000E+99

> <Gold.Protein.RotatedTorsions>
[ 6907 6896 6895 6894 ] final   69.91 input  -60.11 | X-H torsion
[ 7974 7965 7964 7962 ] final   14.88 input  175.53 | X-H torsion
[ 8008 7997 7996 7995 ] final  -49.77 input   59.86 | X-H torsion
[ 10167 10162 10161 10158 ] final -166.54 input  -65.29 | X-H torsion
[ 10718 10713 10712 10709 ] final  -83.37 input   66.30 | X-H torsion
[ 10763 10752 10751 10750 ] final -158.10 input  -60.55 | X-H torsion
[ 11005 11000 10999 10996 ] final  127.70 input  -57.11 | X-H torsion

> <Gold.Protein.ActiveResidues>
 VAL166  LYS551  ARG553  GLY616  TRP617  ASP618  TYR619  PRO620  LYS621  CYS622 
 ASP623  PHE694  ASN695  SER759  ASP760  ASP761  ALA762  ILE779  LEU786  VAL792 
 PHE793  MET794  SER795  GLU796  ALA797  LYS798  CYS799  TRP800  GLU811  SER814 

> <Gold.Protein.RotatedAtoms>
  152.4716  134.4946  159.9705 H   0  0  0  0  0  0  0  0  0  0  0  0  # atno 6907 bound_to 6896
  151.4971  133.3506  159.2871 H   0  0  0  0  0  0  0  0  0  0  0  0  # atno 6908 bound_to 6896
  150.8729  134.8134  159.7230 H   0  0  0  0  0  0  0  0  0  0  0  0  # atno 6909 bound_to 6896
  146.2293  139.8976  142.8544 H   0  0  0  0  0  0  0  0  0  0  0  0  # atno 7974 bound_to 7965
  154.4050  140.1288  156.4558 H   0  0  0  0  0  0  0  0  0  0  0  0  # atno 8008 bound_to 7997
  155.7322  140.3491  155.5045 H   0  0  0  0  0  0  0  0  0  0  0  0  # atno 8009 bound_to 7997
  155.9117  140.1037  157.1264 H   0  0  0  0  0  0  0  0  0  0  0  0  # atno 8010 bound_to 7997
  139.6108  144.0819  152.1840 H   0  0  0  0  0  0  0  0  0  0  0  0  # atno 10167 bound_to 10162
  156.0019  130.4663  150.4246 H   0  0  0  0  0  0  0  0  0  0  0  0  # atno 10718 bound_to 10713
  154.7584  135.3111  154.8426 H   0  0  0  0  0  0  0  0  0  0  0  0  # atno 10763 bound_to 10752
  153.9194  135.6797  153.4752 H   0  0  0  0  0  0  0  0  0  0  0  0  # atno 10764 bound_to 10752
  153.1183  135.4834  154.9082 H   0  0  0  0  0  0  0  0  0  0  0  0  # atno 10765 bound_to 10752
  139.9521  134.9620  156.8893 H   0  0  0  0  0  0  0  0  0  0  0  0  # atno 11005 bound_to 11000
  145.2356  140.9989  143.3965 LP  0  0  0  0  0  0  0  0  0  0  0  0  # atno 17320 bound_to 7965
  144.9494  139.4099  143.6410 LP  0  0  0  0  0  0  0  0  0  0  0  0  # atno 17321 bound_to 7965
  140.0437  144.5987  150.7391 LP  0  0  0  0  0  0  0  0  0  0  0  0  # atno 17342 bound_to 10162
  140.7317  143.2698  151.3926 LP  0  0  0  0  0  0  0  0  0  0  0  0  # atno 17343 bound_to 10162
  157.2300  131.0502  151.2498 LP  0  0  0  0  0  0  0  0  0  0  0  0  # atno 17370 bound_to 10713
  157.3720  130.7186  149.6571 LP  0  0  0  0  0  0  0  0  0  0  0  0  # atno 17371 bound_to 10713
  140.5694  134.0458  155.7425 LP  0  0  0  0  0  0  0  0  0  0  0  0  # atno 17394 bound_to 11000
  141.1186  133.9499  157.2774 LP  0  0  0  0  0  0  0  0  0  0  0  0  # atno 17395 bound_to 11000

$$$$
