AV-unprocessed.smi:2563|AV-procd|sdf|10060|dock7
  -GOLD-   2272014 93D 1   1.00000     0.00000
 Structure written by MMmdl.
 34 35  0  0  0  0  0  0  0  0  1 V2000
  151.9663  137.7773  159.7541 C   0  0  0  0  0  0  0  0  0  0  0  0
  150.8545  138.5347  159.0163 C   0  0  0  0  0  0  0  0  0  0  0  0
  151.3655  139.2862  157.8698 N   0  0  0  0  0  0  0  0  0  0  0  0
  152.3628  140.3290  158.1047 C   0  0  0  0  0  0  0  0  0  0  0  0
  151.7281  141.6616  158.5401 C   0  0  2  0  0  0  0  0  0  0  0  0
  151.0349  142.3697  157.3590 C   0  0  0  0  0  0  0  0  0  0  0  0
  150.4988  143.6630  157.7814 N   0  0  0  0  0  0  0  0  0  0  0  0
  151.5392  144.4989  158.3770 C   0  0  0  0  0  0  0  0  0  0  0  0
  152.2370  143.7454  159.5224 C   0  0  0  0  0  0  0  0  0  0  0  0
  152.7589  142.5164  159.0295 O   0  0  0  0  0  0  0  0  0  0  0  0
  150.9632  138.9527  156.5534 C   0  0  0  0  0  0  0  0  0  0  0  0
  150.6421  137.6231  156.1834 C   0  0  0  0  0  0  0  0  0  0  0  0
  150.2518  137.3787  154.8559 C   0  0  0  0  0  0  0  0  0  0  0  0
  150.2066  138.4781  153.9826 C   0  0  0  0  0  0  0  0  0  0  0  0
  150.5216  139.7301  154.3771 N   0  0  0  0  0  0  0  0  0  0  0  0
  150.8933  139.9578  155.6412 N   0  0  0  0  0  0  0  0  0  0  0  0
  151.5628  137.2411  160.6131 H   0  0  0  0  0  0  0  0  0  0  0  0
  152.7350  138.4585  160.1198 H   0  0  0  0  0  0  0  0  0  0  0  0
  152.4476  137.0462  159.1038 H   0  0  0  0  0  0  0  0  0  0  0  0
  150.0629  137.8493  158.7122 H   0  0  0  0  0  0  0  0  0  0  0  0
  150.3826  139.2335  159.7074 H   0  0  0  0  0  0  0  0  0  0  0  0
  153.0611  139.9928  158.8722 H   0  0  0  0  0  0  0  0  0  0  0  0
  152.9692  140.4656  157.2095 H   0  0  0  0  0  0  0  0  0  0  0  0
  150.9967  141.4775  159.3294 H   0  0  0  0  0  0  0  0  0  0  0  0
  151.7460  142.5115  156.5438 H   0  0  0  0  0  0  0  0  0  0  0  0
  150.2309  141.7455  156.9680 H   0  0  0  0  0  0  0  0  0  0  0  0
  150.0936  144.1413  156.9832 H   0  0  0  0  0  0  0  0  0  0  0  0
  152.2735  144.7732  157.6187 H   0  0  0  0  0  0  0  0  0  0  0  0
  151.1078  145.4291  158.7471 H   0  0  0  0  0  0  0  0  0  0  0  0
  153.0575  144.3431  159.9195 H   0  0  0  0  0  0  0  0  0  0  0  0
  151.5487  143.5609  160.3487 H   0  0  0  0  0  0  0  0  0  0  0  0
  150.6942  136.7971  156.8757 H   0  0  0  0  0  0  0  0  0  0  0  0
  149.9984  136.3844  154.5197 H   0  0  0  0  0  0  0  0  0  0  0  0
  149.9150  138.3524  152.9503 H   0  0  0  0  0  0  0  0  0  0  0  0
  1  2  1  0  0  0  0
  1 17  1  0  0  0  0
  1 18  1  0  0  0  0
  1 19  1  0  0  0  0
  2  3  1  0  0  0  0
  2 20  1  0  0  0  0
  2 21  1  0  0  0  0
  3  4  1  0  0  0  0
  3 11  1  0  0  0  0
  4  5  1  0  0  0  0
  4 22  1  0  0  0  0
  4 23  1  0  0  0  0
  5 10  1  0  0  0  0
  5  6  1  0  0  0  0
  5 24  1  0  0  0  0
  6  7  1  0  0  0  0
  6 25  1  0  0  0  0
  6 26  1  0  0  0  0
  7  8  1  0  0  0  0
  7 27  1  0  0  0  0
  8  9  1  0  0  0  0
  8 28  1  0  0  0  0
  8 29  1  0  0  0  0
  9 10  1  0  0  0  0
  9 30  1  0  0  0  0
  9 31  1  0  0  0  0
 11 16  1  0  0  0  0
 11 12  2  0  0  0  0
 12 13  1  0  0  0  0
 12 32  1  0  0  0  0
 13 14  2  0  0  0  0
 13 33  1  0  0  0  0
 14 15  1  0  0  0  0
 14 34  1  0  0  0  0
 15 16  2  0  0  0  0
M  END
> <s_m_source_file>
AV-unprocessed.smi

> <i_m_source_file_index>
2563

> <i_lp_mmshare_version>
43012

> <i_f3d_flags>
0

> <s_epik_input>
bjFuW2NIXVtjSF1bY0hdYzFOKFtDSDJdW0NIM10pW0NIMl1bQ0BASF0yW0NIMl1bTkhdW0NIMl1bQ0gyXU8y

> <s_epik_cmdline>
J2VwaWtfcHl0aG9uJywgJy1waCcsICc3LjAnLCAnLXRuJywgJzgnLCAnLW1hJywgJzIwMCcsICctbWV0YWxfYmluZGluZycsICctaW1hZScsICc8aW5maWxlLm1hZT4nLCAnLW9tYWUnLCAnPG91dGZpbGUubWFlPic=

> <r_lp_tautomer_probability>
1

> <r_epik_Ionization_Penalty>
2.34719

> <r_epik_Ionization_Penalty_Charging>
0

> <r_epik_Ionization_Penalty_Neutral>
2.34719

> <r_epik_State_Penalty>
2.60452

> <r_epik_Charging_Adjusted_Penalty>
2.60452

> <i_epik_Tot_Q>
0

> <i_epik_Tot_abs_Q>
0

> <r_epik_Metal_State_Penalty>
2.56937

> <b_epik_Metal_Only>
0

> <s_lp_Force_Field>
OPLS_2005

> <r_lp_Energy>
25.5001

> <b_lp_Chiralities_Consistent>
1

> <s_lp_Variant>
AV-unprocessed.smi:2563-5

> <Gold.Version>
5.8.1

> <Gold.Id.Protein>
6NUR|6NUR_protein|mol2

> <Gold.PLP.Fitness>
38.2452

> <Gold.PLP.PLP>
-27.9644

> <Gold.PLP.part.hbond>
-2.0000

> <Gold.PLP.part.metal>
0.0000

> <Gold.PLP.part.buried>
-5.3341

> <Gold.PLP.part.nonpolar>
-21.8440

> <Gold.PLP.part.repulsive>
0.1493

> <Gold.PLP.ligand.clash>
0.0000

> <Gold.PLP.ligand.torsion>
0.8405

> <Gold.PLP.Chemscore.Hbond>
2.0000

> <Gold.PLP.Chemscore.CHOScore>
1.9747

> <Gold.PLP.Chemscore.Metal>
0.0000

> <Gold.Chemscore.Hbonds>
donor molecule, donor type, donor heavy atom, donor atom, acceptor molecule, acceptor atom, score
      L1  H     7    27       P1  8028  1.00
      P1  H  7989  7998       L1    15  1.00
      L1  C    14    34       P1  7948  0.96
      L1  C    14    34       P1  7957  1.00

> <Gold.PLP.Chemscore.Internal.Correction>
0.0377

> <Gold.Rescore>
     Score         DG    S(hbond)    S(metal)    S(lipo)     H(rot)  DE(clash)    DE(int)     intcor
     15.58     -16.47       1.71        0.00      74.97       1.36       0.09       0.79       ----

> <Gold.Chemscore.Fitness>
15.5824

> <Gold.Chemscore.DG>
-16.4666

> <Gold.Chemscore.ZeroCoef>
-5.4800

> <Gold.Chemscore.Hbond>
1.7069

> <Gold.Chemscore.Metal>
0.0000

> <Gold.Chemscore.Lipo>
74.9709

> <Gold.Chemscore.Internal_Hbond>
0.0000

> <Gold.Chemscore.DEClash>
0.0920

> <Gold.Chemscore.DEInternal>
0.7921

> <Gold.Chemscore.Rot>
1.3618

> <Gold.Chemscore.Internal.Correction>
   9.000000E+99

> <Gold.Chemscore.Hbonds>
donor molecule, donor type, donor heavy atom, donor atom, acceptor molecule, acceptor atom, score
      L1  H     7    27       P1  8028  0.90
      P1  H  7989  7998       L1    15  0.30

> <Gold.Chemscore.Hbond.Weighted>
-5.7011

> <Gold.Chemscore.Metal.Weighted>
-0.0000

> <Gold.Chemscore.Lipo.Weighted>
-8.7716

> <Gold.Chemscore.Internal_Hbond.Weighted>
0.0000

> <Gold.Chemscore.DEClash.Weighted>
0.0920

> <Gold.Chemscore.DEInternal.Weighted>
0.7921

> <Gold.Chemscore.Rot.Weighted>
3.4861

> <Gold.Chemscore.Internal.Correction.Weighted>
   9.000000E+99

> <Gold.Protein.RotatedTorsions>
[ 6907 6896 6895 6894 ] final   24.41 input  -60.11 | X-H torsion
[ 7974 7965 7964 7962 ] final -162.60 input  175.53 | X-H torsion
[ 8008 7997 7996 7995 ] final  -66.63 input   59.86 | X-H torsion
[ 10167 10162 10161 10158 ] final  172.30 input  -65.29 | X-H torsion
[ 10718 10713 10712 10709 ] final   -8.02 input   66.30 | X-H torsion
[ 10763 10752 10751 10750 ] final   17.19 input  -60.55 | X-H torsion
[ 11005 11000 10999 10996 ] final   41.83 input  -57.11 | X-H torsion

> <Gold.Protein.ActiveResidues>
 VAL166  LYS551  ARG553  GLY616  TRP617  ASP618  TYR619  PRO620  LYS621  CYS622 
 ASP623  PHE694  ASN695  SER759  ASP760  ASP761  ALA762  ILE779  LEU786  VAL792 
 PHE793  MET794  SER795  GLU796  ALA797  LYS798  CYS799  TRP800  GLU811  SER814 

> <Gold.Protein.RotatedAtoms>
  151.9571  135.0141  160.0545 H   0  0  0  0  0  0  0  0  0  0  0  0  # atno 6907 bound_to 6896
  152.1902  133.4763  159.5012 H   0  0  0  0  0  0  0  0  0  0  0  0  # atno 6908 bound_to 6896
  150.6933  134.1640  159.4230 H   0  0  0  0  0  0  0  0  0  0  0  0  # atno 6909 bound_to 6896
  144.7352  140.3229  143.6167 H   0  0  0  0  0  0  0  0  0  0  0  0  # atno 7974 bound_to 7965
  154.4747  140.0909  156.7232 H   0  0  0  0  0  0  0  0  0  0  0  0  # atno 8008 bound_to 7997
  155.4628  140.3461  155.4297 H   0  0  0  0  0  0  0  0  0  0  0  0  # atno 8009 bound_to 7997
  156.1097  140.1444  156.9344 H   0  0  0  0  0  0  0  0  0  0  0  0  # atno 8010 bound_to 7997
  139.5072  144.3389  152.0038 H   0  0  0  0  0  0  0  0  0  0  0  0  # atno 10167 bound_to 10162
  156.7087  130.5115  149.5897 H   0  0  0  0  0  0  0  0  0  0  0  0  # atno 10718 bound_to 10713
  153.1361  135.6750  153.9101 H   0  0  0  0  0  0  0  0  0  0  0  0  # atno 10763 bound_to 10752
  153.8572  135.3086  155.3437 H   0  0  0  0  0  0  0  0  0  0  0  0  # atno 10764 bound_to 10752
  154.7749  135.4920  153.9806 H   0  0  0  0  0  0  0  0  0  0  0  0  # atno 10765 bound_to 10752
  140.1797  134.4120  155.8208 H   0  0  0  0  0  0  0  0  0  0  0  0  # atno 11005 bound_to 11000
  145.7550  139.1806  143.2300 LP  0  0  0  0  0  0  0  0  0  0  0  0  # atno 17320 bound_to 7965
  146.1031  140.7519  142.9539 LP  0  0  0  0  0  0  0  0  0  0  0  0  # atno 17321 bound_to 7965
  140.2827  144.3841  150.6113 LP  0  0  0  0  0  0  0  0  0  0  0  0  # atno 17342 bound_to 10162
  140.6006  143.2167  151.7080 LP  0  0  0  0  0  0  0  0  0  0  0  0  # atno 17343 bound_to 10162
  156.1676  130.6416  151.0798 LP  0  0  0  0  0  0  0  0  0  0  0  0  # atno 17370 bound_to 10713
  157.6944  131.0799  150.7012 LP  0  0  0  0  0  0  0  0  0  0  0  0  # atno 17371 bound_to 10713
  141.2222  133.6994  156.7908 LP  0  0  0  0  0  0  0  0  0  0  0  0  # atno 17394 bound_to 11000
  140.2282  134.8706  157.3449 LP  0  0  0  0  0  0  0  0  0  0  0  0  # atno 17395 bound_to 11000

$$$$
