AV-unprocessed.smi:671|AV-procd|sdf|3286|dock5
  -GOLD-   22720 0243D 1   1.00000     0.00000
 Structure written by MMmdl.
 50 51  0  0  0  0  0  0  0  0  2 V2000
  147.4923  141.5711  154.1789 C   0  0  0  0  0  0  0  0  0  0  0  0
  148.7917  141.3565  154.8800 C   0  0  0  0  0  0  0  0  0  0  0  0
  149.3968  142.2843  155.6690 N   0  3  0  0  0  0  0  0  0  0  0  0
  150.5470  141.7989  156.1563 N   0  0  0  0  0  0  0  0  0  0  0  0
  151.3622  142.6388  157.0340 C   0  0  0  0  0  0  0  0  0  0  0  0
  150.7512  140.5293  155.7051 C   0  0  0  0  0  0  0  0  0  0  0  0
  151.9392  139.6915  156.0480 C   0  0  0  0  0  0  0  0  0  0  0  0
  149.6454  140.2462  154.8937 C   0  0  0  0  0  0  0  0  0  0  0  0
  149.4170  138.9574  154.1504 C   0  0  0  0  0  0  0  0  0  0  0  0
  148.4976  137.9739  154.9032 C   0  0  1  0  0  0  0  0  0  0  0  0
  147.2499  138.6717  155.4610 C   0  0  0  0  0  0  0  0  0  0  0  0
  148.0880  136.8812  154.0141 N   0  0  0  0  0  0  0  0  0  0  0  0
  147.0711  136.0105  154.1465 C   0  0  0  0  0  0  0  0  0  0  0  0
  146.3281  136.0363  155.1253 O   0  0  0  0  0  0  0  0  0  0  0  0
  146.9569  135.1166  153.1502 N   0  0  0  0  0  0  0  0  0  0  0  0
  145.9417  134.0671  153.0507 C   0  0  2  0  0  0  0  0  0  0  0  0
  146.6144  132.6788  153.0368 C   0  0  0  0  0  0  0  0  0  0  0  0
  146.2061  132.0043  151.7225 C   0  0  0  0  0  0  0  0  0  0  0  0
  145.7957  133.1486  150.8003 C   0  0  0  0  0  0  0  0  0  0  0  0
  145.1250  134.1520  151.7395 C   0  0  2  0  0  0  0  0  0  0  0  0
  144.9467  135.5488  151.1213 C   0  0  0  0  0  0  0  0  0  0  0  0
  147.6483  141.6171  153.1011 H   0  0  0  0  0  0  0  0  0  0  0  0
  147.0315  142.5051  154.5015 H   0  0  0  0  0  0  0  0  0  0  0  0
  146.8054  140.7536  154.3986 H   0  0  0  0  0  0  0  0  0  0  0  0
  152.3245  142.8238  156.5560 H   0  0  0  0  0  0  0  0  0  0  0  0
  151.5184  142.1185  157.9792 H   0  0  0  0  0  0  0  0  0  0  0  0
  150.8612  143.5896  157.2214 H   0  0  0  0  0  0  0  0  0  0  0  0
  152.0502  138.8689  155.3424 H   0  0  0  0  0  0  0  0  0  0  0  0
  151.8284  139.2776  157.0500 H   0  0  0  0  0  0  0  0  0  0  0  0
  152.8490  140.2915  156.0169 H   0  0  0  0  0  0  0  0  0  0  0  0
  148.9884  139.1707  153.1704 H   0  0  0  0  0  0  0  0  0  0  0  0
  150.3723  138.4727  153.9451 H   0  0  0  0  0  0  0  0  0  0  0  0
  149.0626  137.5952  155.7551 H   0  0  0  0  0  0  0  0  0  0  0  0
  147.5229  139.4804  156.1395 H   0  0  0  0  0  0  0  0  0  0  0  0
  146.6257  137.9723  156.0183 H   0  0  0  0  0  0  0  0  0  0  0  0
  146.6415  139.0983  154.6627 H   0  0  0  0  0  0  0  0  0  0  0  0
  148.7193  136.6976  153.2476 H   0  0  0  0  0  0  0  0  0  0  0  0
  147.6284  135.1641  152.3980 H   0  0  0  0  0  0  0  0  0  0  0  0
  145.2594  134.1261  153.9006 H   0  0  0  0  0  0  0  0  0  0  0  0
  147.7013  132.7666  153.0827 H   0  0  0  0  0  0  0  0  0  0  0  0
  146.3099  132.0778  153.8947 H   0  0  0  0  0  0  0  0  0  0  0  0
  147.0037  131.3921  151.3002 H   0  0  0  0  0  0  0  0  0  0  0  0
  145.3481  131.3534  151.8976 H   0  0  0  0  0  0  0  0  0  0  0  0
  146.6829  133.5925  150.3459 H   0  0  0  0  0  0  0  0  0  0  0  0
  145.1363  132.8200  149.9964 H   0  0  0  0  0  0  0  0  0  0  0  0
  144.1289  133.7650  151.9610 H   0  0  0  0  0  0  0  0  0  0  0  0
  145.9004  135.9643  150.7997 H   0  0  0  0  0  0  0  0  0  0  0  0
  144.4991  136.2422  151.8339 H   0  0  0  0  0  0  0  0  0  0  0  0
  144.2972  135.5069  150.2469 H   0  0  0  0  0  0  0  0  0  0  0  0
  149.0841  143.2194  155.8982 H   0  0  0  0  0  0  0  0  0  0  0  0
  1  2  1  0  0  0  0
  1 22  1  0  0  0  0
  1 23  1  0  0  0  0
  1 24  1  0  0  0  0
  2  8  1  0  0  0  0
  2  3  2  0  0  0  0
  3  4  1  0  0  0  0
  3 50  1  0  0  0  0
  4  5  1  0  0  0  0
  4  6  1  0  0  0  0
  5 25  1  0  0  0  0
  5 26  1  0  0  0  0
  5 27  1  0  0  0  0
  6  7  1  0  0  0  0
  6  8  2  0  0  0  0
  7 28  1  0  0  0  0
  7 29  1  0  0  0  0
  7 30  1  0  0  0  0
  8  9  1  0  0  0  0
  9 10  1  0  0  0  0
  9 31  1  0  0  0  0
  9 32  1  0  0  0  0
 10 11  1  0  0  0  0
 10 12  1  0  0  0  0
 10 33  1  0  0  0  0
 11 34  1  0  0  0  0
 11 35  1  0  0  0  0
 11 36  1  0  0  0  0
 12 13  1  0  0  0  0
 12 37  1  0  0  0  0
 13 14  2  0  0  0  0
 13 15  1  0  0  0  0
 15 16  1  0  0  0  0
 15 38  1  0  0  0  0
 16 20  1  0  0  0  0
 16 17  1  0  0  0  0
 16 39  1  0  0  0  0
 17 18  1  0  0  0  0
 17 40  1  0  0  0  0
 17 41  1  0  0  0  0
 18 19  1  0  0  0  0
 18 42  1  0  0  0  0
 18 43  1  0  0  0  0
 19 20  1  0  0  0  0
 19 44  1  0  0  0  0
 19 45  1  0  0  0  0
 20 21  1  0  0  0  0
 20 46  1  0  0  0  0
 21 47  1  0  0  0  0
 21 48  1  0  0  0  0
 21 49  1  0  0  0  0
M  CHG  1   3   1
M  END
> <s_m_source_file>
AV-unprocessed.smi

> <i_m_source_file_index>
671

> <i_lp_mmshare_version>
43012

> <i_f3d_flags>
0

> <s_epik_input>
W0NIM11jMW5uKFtDSDNdKWMoW0NIM10pYzFbQ0gyXVtDQEhdKFtDSDNdKVtOSF1DKD1PKVtOSF1bQ0BASF0yW0NIMl1bQ0gyXVtDSDJdW0NASF0yW0NIM10=

> <s_epik_cmdline>
J2VwaWtfcHl0aG9uJywgJy1waCcsICc3LjAnLCAnLXRuJywgJzgnLCAnLW1hJywgJzIwMCcsICctbWV0YWxfYmluZGluZycsICctaW1hZScsICc8aW5maWxlLm1hZT4nLCAnLW9tYWUnLCAnPG91dGZpbGUubWFlPic=

> <r_lp_tautomer_probability>
1

> <r_epik_Ionization_Penalty>
2.28705

> <r_epik_Ionization_Penalty_Charging>
2.28698

> <r_epik_Ionization_Penalty_Neutral>
6.23157e-05

> <r_epik_State_Penalty>
2.43671

> <r_epik_Charging_Adjusted_Penalty>
4.72369

> <i_epik_Tot_Q>
1

> <i_epik_Tot_abs_Q>
1

> <r_epik_Metal_State_Penalty>
2.44911

> <b_epik_Metal_Only>
0

> <s_lp_Force_Field>
OPLS_2005

> <r_lp_Energy>
35.2288

> <b_lp_Chiralities_Consistent>
1

> <s_lp_Variant>
AV-unprocessed.smi:671-14

> <Gold.Version>
5.8.1

> <Gold.Id.Protein>
6NUR|6NUR_protein|mol2

> <Gold.PLP.Fitness>
45.4584

> <Gold.PLP.PLP>
-35.4867

> <Gold.PLP.part.hbond>
-2.5580

> <Gold.PLP.part.metal>
0.0000

> <Gold.PLP.part.buried>
-4.7501

> <Gold.PLP.part.nonpolar>
-29.8460

> <Gold.PLP.part.repulsive>
0.1897

> <Gold.PLP.ligand.clash>
0.0000

> <Gold.PLP.ligand.torsion>
0.6877

> <Gold.PLP.Chemscore.Hbond>
3.7748

> <Gold.PLP.Chemscore.CHOScore>
0.0000

> <Gold.PLP.Chemscore.Metal>
0.0000

> <Gold.Chemscore.Hbonds>
donor molecule, donor type, donor heavy atom, donor atom, acceptor molecule, acceptor atom, score
      L1  H     3    50       P1  8028  2.00
      L1  H    12    37       P1  7948  0.86
      L1  H    15    38       P1  7948  0.80

> <Gold.PLP.Chemscore.Internal.Correction>
0.0229

> <Gold.Rescore>
     Score         DG    S(hbond)    S(metal)    S(lipo)     H(rot)  DE(clash)    DE(int)     intcor
     18.48     -20.38       2.83        0.00      79.40       1.51       0.02       1.89       ----

> <Gold.Chemscore.Fitness>
18.4807

> <Gold.Chemscore.DG>
-20.3823

> <Gold.Chemscore.ZeroCoef>
-5.4800

> <Gold.Chemscore.Hbond>
2.8346

> <Gold.Chemscore.Metal>
0.0000

> <Gold.Chemscore.Lipo>
79.3954

> <Gold.Chemscore.Internal_Hbond>
0.0000

> <Gold.Chemscore.DEClash>
0.0164

> <Gold.Chemscore.DEInternal>
1.8852

> <Gold.Chemscore.Rot>
1.5057

> <Gold.Chemscore.Internal.Correction>
   9.000000E+99

> <Gold.Chemscore.Hbonds>
donor molecule, donor type, donor heavy atom, donor atom, acceptor molecule, acceptor atom, score
      L1  H     3    50       P1  8028  0.92
      L1  H    12    37       P1  7948  0.80
      L1  H    15    38       P1  7948  0.79

> <Gold.Chemscore.Hbond.Weighted>
-9.4677

> <Gold.Chemscore.Metal.Weighted>
-0.0000

> <Gold.Chemscore.Lipo.Weighted>
-9.2893

> <Gold.Chemscore.Internal_Hbond.Weighted>
0.0000

> <Gold.Chemscore.DEClash.Weighted>
0.0164

> <Gold.Chemscore.DEInternal.Weighted>
1.8852

> <Gold.Chemscore.Rot.Weighted>
3.8547

> <Gold.Chemscore.Internal.Correction.Weighted>
   9.000000E+99

> <Gold.Protein.RotatedTorsions>
[ 6907 6896 6895 6894 ] final -119.10 input  -60.11 | X-H torsion
[ 7974 7965 7964 7962 ] final   29.04 input  175.53 | X-H torsion
[ 8008 7997 7996 7995 ] final -130.00 input   59.86 | X-H torsion
[ 10167 10162 10161 10158 ] final    2.30 input  -65.29 | X-H torsion
[ 10718 10713 10712 10709 ] final   87.81 input   66.30 | X-H torsion
[ 10763 10752 10751 10750 ] final   51.93 input  -60.55 | X-H torsion
[ 11005 11000 10999 10996 ] final -161.16 input  -57.11 | X-H torsion

> <Gold.Protein.ActiveResidues>
 VAL166  LYS551  ARG553  GLY616  TRP617  ASP618  TYR619  PRO620  LYS621  CYS622 
 ASP623  PHE694  ASN695  SER759  ASP760  ASP761  ALA762  ILE779  LEU786  VAL792 
 PHE793  MET794  SER795  GLU796  ALA797  LYS798  CYS799  TRP800  GLU811  SER814 

> <Gold.Protein.RotatedAtoms>
  150.8276  133.8145  159.3111 H   0  0  0  0  0  0  0  0  0  0  0  0  # atno 6907 bound_to 6896
  151.5884  135.1053  160.0043 H   0  0  0  0  0  0  0  0  0  0  0  0  # atno 6908 bound_to 6896
  152.4359  133.7319  159.6649 H   0  0  0  0  0  0  0  0  0  0  0  0  # atno 6909 bound_to 6896
  146.1695  139.6975  142.8978 H   0  0  0  0  0  0  0  0  0  0  0  0  # atno 7974 bound_to 7965
  155.2884  140.0447  157.3021 H   0  0  0  0  0  0  0  0  0  0  0  0  # atno 8008 bound_to 7997
  154.5555  140.2330  155.8384 H   0  0  0  0  0  0  0  0  0  0  0  0  # atno 8009 bound_to 7997
  156.2004  140.3027  155.9521 H   0  0  0  0  0  0  0  0  0  0  0  0  # atno 8010 bound_to 7997
  140.6641  143.7225  150.7794 H   0  0  0  0  0  0  0  0  0  0  0  0  # atno 10167 bound_to 10162
  157.6943  131.0270  150.3179 H   0  0  0  0  0  0  0  0  0  0  0  0  # atno 10718 bound_to 10713
  152.9787  135.5829  154.4496 H   0  0  0  0  0  0  0  0  0  0  0  0  # atno 10763 bound_to 10752
  154.4087  135.2769  155.2053 H   0  0  0  0  0  0  0  0  0  0  0  0  # atno 10764 bound_to 10752
  154.3852  135.6138  153.5867 H   0  0  0  0  0  0  0  0  0  0  0  0  # atno 10765 bound_to 10752
  140.6235  134.4726  157.5225 H   0  0  0  0  0  0  0  0  0  0  0  0  # atno 11005 bound_to 11000
  145.4379  141.0420  143.2874 LP  0  0  0  0  0  0  0  0  0  0  0  0  # atno 17320 bound_to 7965
  144.8141  139.5908  143.7016 LP  0  0  0  0  0  0  0  0  0  0  0  0  # atno 17321 bound_to 7965
  140.0899  143.4887  152.2484 LP  0  0  0  0  0  0  0  0  0  0  0  0  # atno 17342 bound_to 10162
  139.5884  144.7540  151.3461 LP  0  0  0  0  0  0  0  0  0  0  0  0  # atno 17343 bound_to 10162
  156.3671  130.3857  149.7205 LP  0  0  0  0  0  0  0  0  0  0  0  0  # atno 17370 bound_to 10713
  156.4632  130.7961  151.2981 LP  0  0  0  0  0  0  0  0  0  0  0  0  # atno 17371 bound_to 10713
  139.9144  134.8277  156.1417 LP  0  0  0  0  0  0  0  0  0  0  0  0  # atno 17394 bound_to 11000
  141.0726  133.6790  156.2171 LP  0  0  0  0  0  0  0  0  0  0  0  0  # atno 17395 bound_to 11000

$$$$
