AV-unprocessed.smi:1381|AV-procd|sdf|5614|dock4
  -GOLD-   22720 5223D 1   1.00000     0.00000
 Structure written by MMmdl.
 42 43  0  0  0  0  0  0  0  0  3 V2000
  150.9517  141.1674  155.9584 C   0  0  0  0  0  0  0  0  0  0  0  0
  151.3940  139.8117  155.5254 C   0  0  0  0  0  0  0  0  0  0  0  0
  150.7546  138.6069  155.4493 C   0  0  0  0  0  0  0  0  0  0  0  0
  151.7646  137.7334  154.9620 C   0  0  0  0  0  0  0  0  0  0  0  0
  151.6206  136.4235  154.7081 N   0  5  0  0  0  0  0  0  0  0  0  0
  150.5331  135.7588  155.1598 C   0  0  0  0  0  0  0  0  0  0  0  0
  150.1182  135.7359  156.3210 O   0  0  0  0  0  0  0  0  0  0  0  0
  149.8872  135.0712  154.2071 N   0  0  0  0  0  0  0  0  0  0  0  0
  148.7031  134.2457  154.4109 C   0  0  0  0  0  0  0  0  0  0  0  0
  147.4749  135.1070  154.7619 C   0  0  0  0  0  0  0  0  0  0  0  0
  146.8749  135.7468  153.5657 N   0  3  1  0  0  0  0  0  0  0  0  0
  146.1197  134.7856  152.7296 C   0  0  0  0  0  0  0  0  0  0  0  0
  145.6127  135.4704  151.4483 C   0  0  1  0  0  0  0  0  0  0  0  0
  144.7520  134.5307  150.5963 C   0  0  0  0  0  0  0  0  0  0  0  0
  144.8154  136.5993  151.7963 O   0  0  0  0  0  0  0  0  0  0  0  0
  145.4758  137.5750  152.6026 C   0  0  2  0  0  0  0  0  0  0  0  0
  146.5322  138.3666  151.8112 C   0  0  0  0  0  0  0  0  0  0  0  0
  146.0290  136.9231  153.8853 C   0  0  0  0  0  0  0  0  0  0  0  0
  152.9106  138.3567  154.7444 N   0  0  0  0  0  0  0  0  0  0  0  0
  152.6832  139.6890  155.1093 O   0  0  0  0  0  0  0  0  0  0  0  0
  150.3469  141.6403  155.1849 H   0  0  0  0  0  0  0  0  0  0  0  0
  151.8065  141.8128  156.1620 H   0  0  0  0  0  0  0  0  0  0  0  0
  150.3523  141.1060  156.8669 H   0  0  0  0  0  0  0  0  0  0  0  0
  149.7299  138.3836  155.7058 H   0  0  0  0  0  0  0  0  0  0  0  0
  150.2573  135.1208  153.2689 H   0  0  0  0  0  0  0  0  0  0  0  0
  148.5313  133.6419  153.5195 H   0  0  0  0  0  0  0  0  0  0  0  0
  148.9124  133.5488  155.2226 H   0  0  0  0  0  0  0  0  0  0  0  0
  146.7334  134.4593  155.2324 H   0  0  0  0  0  0  0  0  0  0  0  0
  147.7246  135.8725  155.4984 H   0  0  0  0  0  0  0  0  0  0  0  0
  146.7614  133.9446  152.4635 H   0  0  0  0  0  0  0  0  0  0  0  0
  145.2836  134.3819  153.3035 H   0  0  0  0  0  0  0  0  0  0  0  0
  146.4617  135.7908  150.8441 H   0  0  0  0  0  0  0  0  0  0  0  0
  145.3130  133.6445  150.2985 H   0  0  0  0  0  0  0  0  0  0  0  0
  144.4137  135.0296  149.6878 H   0  0  0  0  0  0  0  0  0  0  0  0
  143.8681  134.1997  151.1426 H   0  0  0  0  0  0  0  0  0  0  0  0
  144.7073  138.2894  152.8996 H   0  0  0  0  0  0  0  0  0  0  0  0
  146.9188  139.1946  152.4057 H   0  0  0  0  0  0  0  0  0  0  0  0
  146.1013  138.7875  150.9024 H   0  0  0  0  0  0  0  0  0  0  0  0
  147.3839  137.7503  151.5243 H   0  0  0  0  0  0  0  0  0  0  0  0
  145.1998  136.6022  154.5181 H   0  0  0  0  0  0  0  0  0  0  0  0
  146.5889  137.6624  154.4571 H   0  0  0  0  0  0  0  0  0  0  0  0
  147.6438  136.0751  152.9991 H   0  0  0  0  0  0  0  0  0  0  0  0
  1  2  1  0  0  0  0
  1 21  1  0  0  0  0
  1 22  1  0  0  0  0
  1 23  1  0  0  0  0
  2 20  1  0  0  0  0
  2  3  2  0  0  0  0
  3  4  1  0  0  0  0
  3 24  1  0  0  0  0
  4  5  1  0  0  0  0
  4 19  2  0  0  0  0
  5  6  1  0  0  0  0
  6  7  2  0  0  0  0
  6  8  1  0  0  0  0
  8  9  1  0  0  0  0
  8 25  1  0  0  0  0
  9 10  1  0  0  0  0
  9 26  1  0  0  0  0
  9 27  1  0  0  0  0
 10 11  1  0  0  0  0
 10 28  1  0  0  0  0
 10 29  1  0  0  0  0
 11 18  1  0  0  0  0
 11 12  1  0  0  0  0
 11 42  1  0  0  0  0
 12 13  1  0  0  0  0
 12 30  1  0  0  0  0
 12 31  1  0  0  0  0
 13 14  1  0  0  0  0
 13 15  1  0  0  0  0
 13 32  1  0  0  0  0
 14 33  1  0  0  0  0
 14 34  1  0  0  0  0
 14 35  1  0  0  0  0
 15 16  1  0  0  0  0
 16 17  1  0  0  0  0
 16 18  1  0  0  0  0
 16 36  1  0  0  0  0
 17 37  1  0  0  0  0
 17 38  1  0  0  0  0
 17 39  1  0  0  0  0
 18 40  1  0  0  0  0
 18 41  1  0  0  0  0
 19 20  1  0  0  0  0
M  CHG  1   5  -1
M  CHG  1  11   1
M  END
> <s_m_source_file>
AV-unprocessed.smi

> <i_m_source_file_index>
1381

> <i_lp_mmshare_version>
43012

> <i_f3d_flags>
0

> <s_epik_input>
W0NIM11jMVtjSF1jKG5vMSlbTkhdQyg9TylbTkhdW0NIMl1bQ0gyXU4yW0NIMl1bQ0BASF0oW0NIM10pT1tDQEBIXShbQ0gzXSlbQ0gyXTI=

> <s_epik_cmdline>
J2VwaWtfcHl0aG9uJywgJy1waCcsICc3LjAnLCAnLXRuJywgJzgnLCAnLW1hJywgJzIwMCcsICctbWV0YWxfYmluZGluZycsICctaW1hZScsICc8aW5maWxlLm1hZT4nLCAnLW9tYWUnLCAnPG91dGZpbGUubWFlPic=

> <r_epik_Ionization_Penalty>
6.73511

> <r_epik_Ionization_Penalty_Charging>
6.73502

> <r_epik_Ionization_Penalty_Neutral>
9.26583e-05

> <r_epik_State_Penalty>
6.93549

> <r_epik_Charging_Adjusted_Penalty>
13.6705

> <i_epik_Tot_Q>
0

> <i_epik_Tot_abs_Q>
2

> <r_epik_Metal_State_Penalty>
2.87211

> <b_epik_Metal_Only>
1

> <s_lp_Force_Field>
OPLS_2005

> <r_lp_Energy>
5.23247

> <b_lp_Chiralities_Consistent>
1

> <s_lp_Variant>
AV-unprocessed.smi:1381-13

> <Gold.Version>
5.8.1

> <Gold.Id.Protein>
6NUR|6NUR_protein|mol2

> <Gold.PLP.Fitness>
44.9895

> <Gold.PLP.PLP>
-31.4662

> <Gold.PLP.part.hbond>
-5.9305

> <Gold.PLP.part.metal>
0.0000

> <Gold.PLP.part.buried>
-1.4087

> <Gold.PLP.part.nonpolar>
-24.9848

> <Gold.PLP.part.repulsive>
1.2816

> <Gold.PLP.ligand.clash>
0.0000

> <Gold.PLP.ligand.torsion>
0.7750

> <Gold.PLP.Chemscore.Hbond>
5.0000

> <Gold.PLP.Chemscore.CHOScore>
0.0000

> <Gold.PLP.Chemscore.Metal>
0.0000

> <Gold.Chemscore.Hbonds>
donor molecule, donor type, donor heavy atom, donor atom, acceptor molecule, acceptor atom, score
      L1  H    11    42       P1  7948  2.00
      P1  H  7997  8009       L1    20  1.00
      P1  H 10752 10765       L1     5  2.00

> <Gold.PLP.Chemscore.Internal.Correction>
0.0733

> <Gold.Rescore>
     Score         DG    S(hbond)    S(metal)    S(lipo)     H(rot)  DE(clash)    DE(int)     intcor
     15.09     -16.11       2.40        0.00      56.81       1.58       0.18       0.84       ----

> <Gold.Chemscore.Fitness>
15.0893

> <Gold.Chemscore.DG>
-16.1104

> <Gold.Chemscore.ZeroCoef>
-5.4800

> <Gold.Chemscore.Hbond>
2.4031

> <Gold.Chemscore.Metal>
0.0000

> <Gold.Chemscore.Lipo>
56.8110

> <Gold.Chemscore.Internal_Hbond>
0.0000

> <Gold.Chemscore.DEClash>
0.1808

> <Gold.Chemscore.DEInternal>
0.8403

> <Gold.Chemscore.Rot>
1.5792

> <Gold.Chemscore.Internal.Correction>
   9.000000E+99

> <Gold.Chemscore.Hbonds>
donor molecule, donor type, donor heavy atom, donor atom, acceptor molecule, acceptor atom, score
      L1  H    11    42       P1  7948  1.00
      P1  H  7997  8009       L1    20  0.34
      P1  H 10752 10765       L1     5  0.87

> <Gold.Chemscore.Hbond.Weighted>
-8.0263

> <Gold.Chemscore.Metal.Weighted>
-0.0000

> <Gold.Chemscore.Lipo.Weighted>
-6.6469

> <Gold.Chemscore.Internal_Hbond.Weighted>
0.0000

> <Gold.Chemscore.DEClash.Weighted>
0.1808

> <Gold.Chemscore.DEInternal.Weighted>
0.8403

> <Gold.Chemscore.Rot.Weighted>
4.0428

> <Gold.Chemscore.Internal.Correction.Weighted>
   9.000000E+99

> <Gold.Protein.RotatedTorsions>
[ 6907 6896 6895 6894 ] final   21.87 input  -60.11 | X-H torsion
[ 7974 7965 7964 7962 ] final   91.10 input  175.53 | X-H torsion
[ 8008 7997 7996 7995 ] final -140.74 input   59.86 | X-H torsion
[ 10167 10162 10161 10158 ] final   96.74 input  -65.29 | X-H torsion
[ 10718 10713 10712 10709 ] final  -65.07 input   66.30 | X-H torsion
[ 10763 10752 10751 10750 ] final  158.45 input  -60.55 | X-H torsion
[ 11005 11000 10999 10996 ] final  106.93 input  -57.11 | X-H torsion

> <Gold.Protein.ActiveResidues>
 VAL166  LYS551  ARG553  GLY616  TRP617  ASP618  TYR619  PRO620  LYS621  CYS622 
 ASP623  PHE694  ASN695  SER759  ASP760  ASP761  ALA762  ILE779  LEU786  VAL792 
 PHE793  MET794  SER795  GLU796  ALA797  LYS798  CYS799  TRP800  GLU811  SER814 

> <Gold.Protein.RotatedAtoms>
  151.9185  135.0308  160.0519 H   0  0  0  0  0  0  0  0  0  0  0  0  # atno 6907 bound_to 6896
  152.2220  133.4986  159.5176 H   0  0  0  0  0  0  0  0  0  0  0  0  # atno 6908 bound_to 6896
  150.7002  134.1247  159.4090 H   0  0  0  0  0  0  0  0  0  0  0  0  # atno 6909 bound_to 6896
  145.5102  139.2277  143.2729 H   0  0  0  0  0  0  0  0  0  0  0  0  # atno 7974 bound_to 7965
  155.4663  140.0549  157.2985 H   0  0  0  0  0  0  0  0  0  0  0  0  # atno 8008 bound_to 7997
  154.4716  140.2043  155.9934 H   0  0  0  0  0  0  0  0  0  0  0  0  # atno 8009 bound_to 7997
  156.1065  140.3211  155.8018 H   0  0  0  0  0  0  0  0  0  0  0  0  # atno 8010 bound_to 7997
  139.7866  144.6868  150.9950 H   0  0  0  0  0  0  0  0  0  0  0  0  # atno 10167 bound_to 10162
  156.0691  130.4242  150.1512 H   0  0  0  0  0  0  0  0  0  0  0  0  # atno 10718 bound_to 10713
  154.2162  135.2784  155.2941 H   0  0  0  0  0  0  0  0  0  0  0  0  # atno 10763 bound_to 10752
  154.5739  135.5610  153.7124 H   0  0  0  0  0  0  0  0  0  0  0  0  # atno 10764 bound_to 10752
  153.0052  135.6328  154.2301 H   0  0  0  0  0  0  0  0  0  0  0  0  # atno 10765 bound_to 10752
  139.8821  134.9385  156.5741 H   0  0  0  0  0  0  0  0  0  0  0  0  # atno 11005 bound_to 11000
  146.2171  140.5908  142.9033 LP  0  0  0  0  0  0  0  0  0  0  0  0  # atno 17320 bound_to 7965
  144.7732  140.5682  143.6656 LP  0  0  0  0  0  0  0  0  0  0  0  0  # atno 17321 bound_to 7965
  140.7820  143.4426  151.0530 LP  0  0  0  0  0  0  0  0  0  0  0  0  # atno 17342 bound_to 10162
  139.8104  143.7959  152.3171 LP  0  0  0  0  0  0  0  0  0  0  0  0  # atno 17343 bound_to 10162
  156.9566  130.9791  151.3487 LP  0  0  0  0  0  0  0  0  0  0  0  0  # atno 17370 bound_to 10713
  157.5751  130.8337  149.8444 LP  0  0  0  0  0  0  0  0  0  0  0  0  # atno 17371 bound_to 10713
  140.8076  133.8455  155.8781 LP  0  0  0  0  0  0  0  0  0  0  0  0  # atno 17394 bound_to 11000
  140.9536  134.1747  157.4709 LP  0  0  0  0  0  0  0  0  0  0  0  0  # atno 17395 bound_to 11000

$$$$
