AV-unprocessed.smi:29|AV-procd|sdf|191|dock5
  -GOLD-   2262015463D 1   1.00000     0.00000
 Structure written by MMmdl.
 56 59  0  0  0  0  0  0  0  0  1 V2000
  151.7057  137.4825  158.6005 O   0  0  0  0  0  0  0  0  0  0  0  0
  150.5288  137.5925  158.2570 C   0  0  0  0  0  0  0  0  0  0  0  0
  149.6545  136.3403  158.0897 C   0  0  0  0  0  0  0  0  0  0  0  0
  148.2503  136.5567  158.4991 N   0  0  0  0  0  0  0  0  0  0  0  0
  147.2461  136.6283  157.5014 C   0  0  0  0  0  0  0  0  0  0  0  0
  147.5252  136.5316  156.3057 O   0  0  0  0  0  0  0  0  0  0  0  0
  145.8841  136.8103  157.9907 C   0  0  0  0  0  0  0  0  0  0  0  0
  144.8663  136.8786  157.1159 F   0  0  0  0  0  0  0  0  0  0  0  0
  145.6273  136.9060  159.3113 C   0  0  0  0  0  0  0  0  0  0  0  0
  146.6186  136.8415  160.2733 N   0  0  0  0  0  0  0  0  0  0  0  0
  146.2946  136.9389  161.7475 C   0  0  2  0  0  0  0  0  0  0  0  0
  146.8749  135.7348  162.4979 C   0  0  0  0  0  0  0  0  0  0  0  0
  145.6988  134.7829  162.5143 C   0  0  0  0  0  0  0  0  0  0  0  0
  144.5256  135.7474  162.6469 C   0  0  0  0  0  0  0  0  0  0  0  0
  144.9059  136.9094  161.9139 O   0  0  0  0  0  0  0  0  0  0  0  0
  147.9607  136.6487  159.8814 C   0  0  0  0  0  0  0  0  0  0  0  0
  148.8555  136.5526  160.7246 O   0  0  0  0  0  0  0  0  0  0  0  0
  149.9195  138.7555  157.9646 N   0  0  0  0  0  0  0  0  0  0  0  0
  150.4320  140.0857  157.9945 C   0  0  0  0  0  0  0  0  0  0  0  0
  151.4343  140.5050  158.9041 C   0  0  0  0  0  0  0  0  0  0  0  0
  151.9012  141.8357  158.9062 C   0  0  0  0  0  0  0  0  0  0  0  0
  152.9810  142.2475  159.8958 C   0  0  0  0  0  0  0  0  0  0  0  0
  153.4064  143.4930  159.6803 F   0  0  0  0  0  0  0  0  0  0  0  0
  152.5028  142.1761  161.1381 F   0  0  0  0  0  0  0  0  0  0  0  0
  154.0193  141.4191  159.7866 F   0  0  0  0  0  0  0  0  0  0  0  0
  151.3595  142.7605  157.9902 C   0  0  0  0  0  0  0  0  0  0  0  0
  150.3511  142.3605  157.0953 C   0  0  0  0  0  0  0  0  0  0  0  0
  149.8754  141.0297  157.0950 C   0  0  0  0  0  0  0  0  0  0  0  0
  148.8542  140.6405  156.2116 N   0  0  0  0  0  0  0  0  0  0  0  0
  147.5666  141.2644  156.4869 C   0  0  0  0  0  0  0  0  0  0  0  0
  146.4853  140.6561  155.5773 C   0  0  0  0  0  0  0  0  0  0  0  0
  146.8786  140.7879  154.2139 O   0  0  0  0  0  0  0  0  0  0  0  0
  148.1013  140.1082  153.9404 C   0  0  0  0  0  0  0  0  0  0  0  0
  149.2268  140.7032  154.8045 C   0  0  0  0  0  0  0  0  0  0  0  0
  149.6991  135.9989  157.0536 H   0  0  0  0  0  0  0  0  0  0  0  0
  150.1167  135.5287  158.6534 H   0  0  0  0  0  0  0  0  0  0  0  0
  144.5989  137.0322  159.6151 H   0  0  0  0  0  0  0  0  0  0  0  0
  146.6840  137.9017  162.0823 H   0  0  0  0  0  0  0  0  0  0  0  0
  147.7678  135.3327  162.0171 H   0  0  0  0  0  0  0  0  0  0  0  0
  147.1287  136.0466  163.5119 H   0  0  0  0  0  0  0  0  0  0  0  0
  145.6393  134.2401  161.5701 H   0  0  0  0  0  0  0  0  0  0  0  0
  145.7472  134.0556  163.3250 H   0  0  0  0  0  0  0  0  0  0  0  0
  143.5912  135.3272  162.2745 H   0  0  0  0  0  0  0  0  0  0  0  0
  144.3810  136.0263  163.6915 H   0  0  0  0  0  0  0  0  0  0  0  0
  148.9756  138.6757  157.6144 H   0  0  0  0  0  0  0  0  0  0  0  0
  151.8561  139.8256  159.6274 H   0  0  0  0  0  0  0  0  0  0  0  0
  151.7044  143.7835  157.9710 H   0  0  0  0  0  0  0  0  0  0  0  0
  149.9405  143.0867  156.4089 H   0  0  0  0  0  0  0  0  0  0  0  0
  147.3003  141.1181  157.5345 H   0  0  0  0  0  0  0  0  0  0  0  0
  147.6306  142.3397  156.3156 H   0  0  0  0  0  0  0  0  0  0  0  0
  146.3200  139.6050  155.8192 H   0  0  0  0  0  0  0  0  0  0  0  0
  145.5357  141.1704  155.7257 H   0  0  0  0  0  0  0  0  0  0  0  0
  147.9863  139.0403  154.1333 H   0  0  0  0  0  0  0  0  0  0  0  0
  148.3408  140.2174  152.8826 H   0  0  0  0  0  0  0  0  0  0  0  0
  149.4074  141.7387  154.5136 H   0  0  0  0  0  0  0  0  0  0  0  0
  150.1547  140.1535  154.6422 H   0  0  0  0  0  0  0  0  0  0  0  0
  1  2  2  0  0  0  0
  2  3  1  0  0  0  0
  2 18  1  0  0  0  0
  3  4  1  0  0  0  0
  3 35  1  0  0  0  0
  3 36  1  0  0  0  0
  4 16  1  0  0  0  0
  4  5  1  0  0  0  0
  5  6  2  0  0  0  0
  5  7  1  0  0  0  0
  7  8  1  0  0  0  0
  7  9  2  0  0  0  0
  9 10  1  0  0  0  0
  9 37  1  0  0  0  0
 10 11  1  0  0  0  0
 10 16  1  0  0  0  0
 11 15  1  0  0  0  0
 11 12  1  0  0  0  0
 11 38  1  0  0  0  0
 12 13  1  0  0  0  0
 12 39  1  0  0  0  0
 12 40  1  0  0  0  0
 13 14  1  0  0  0  0
 13 41  1  0  0  0  0
 13 42  1  0  0  0  0
 14 15  1  0  0  0  0
 14 43  1  0  0  0  0
 14 44  1  0  0  0  0
 16 17  2  0  0  0  0
 18 19  1  0  0  0  0
 18 45  1  0  0  0  0
 19 28  1  0  0  0  0
 19 20  2  0  0  0  0
 20 21  1  0  0  0  0
 20 46  1  0  0  0  0
 21 22  1  0  0  0  0
 21 26  2  0  0  0  0
 22 23  1  0  0  0  0
 22 24  1  0  0  0  0
 22 25  1  0  0  0  0
 26 27  1  0  0  0  0
 26 47  1  0  0  0  0
 27 28  2  0  0  0  0
 27 48  1  0  0  0  0
 28 29  1  0  0  0  0
 29 34  1  0  0  0  0
 29 30  1  0  0  0  0
 30 31  1  0  0  0  0
 30 49  1  0  0  0  0
 30 50  1  0  0  0  0
 31 32  1  0  0  0  0
 31 51  1  0  0  0  0
 31 52  1  0  0  0  0
 32 33  1  0  0  0  0
 33 34  1  0  0  0  0
 33 53  1  0  0  0  0
 33 54  1  0  0  0  0
 34 55  1  0  0  0  0
 34 56  1  0  0  0  0
M  END
> <s_m_source_file>
AV-unprocessed.smi

> <i_m_source_file_index>
29

> <i_lp_mmshare_version>
43012

> <i_f3d_flags>
0

> <s_epik_input>
TzFbQ0gyXVtDSDJdW0NIMl1bQ0BIXTFuKGMyPU8pW2NIXWMoRiljKD1PKW4yW0NIMl1DKD1PKVtOSF1jM1tjSF1jKEMoRikoRilGKVtjSF1bY0hdYzNONFtDSDJdW0NIMl1PW0NIMl1bQ0gyXTQ=

> <s_epik_cmdline>
J2VwaWtfcHl0aG9uJywgJy1waCcsICc3LjAnLCAnLXRuJywgJzgnLCAnLW1hJywgJzIwMCcsICctbWV0YWxfYmluZGluZycsICctaW1hZScsICc8aW5maWxlLm1hZT4nLCAnLW9tYWUnLCAnPG91dGZpbGUubWFlPic=

> <r_lp_tautomer_probability>
1

> <r_epik_Ionization_Penalty>
3.5967e-06

> <r_epik_Ionization_Penalty_Charging>
3.88729e-08

> <r_epik_Ionization_Penalty_Neutral>
3.55783e-06

> <r_epik_State_Penalty>
-0

> <r_epik_Charging_Adjusted_Penalty>
3.88729e-08

> <i_epik_Tot_Q>
0

> <i_epik_Tot_abs_Q>
0

> <r_epik_Metal_State_Penalty>
-0

> <b_epik_Metal_Only>
0

> <s_epik_Chemistry_Notes>
This compound contains an acetal/aminal-like group ( X-CH(R)-Y where X, Y are N, S, or O) that may be acid/base labile, releasing an aldehyde.

> <s_lp_Force_Field>
OPLS_2005

> <r_lp_Energy>
49.5757

> <b_lp_Chiralities_Consistent>
1

> <s_lp_Variant>
AV-unprocessed.smi:29-1

> <Gold.Version>
5.8.1

> <Gold.Id.Protein>
6NUR|6NUR_protein|mol2

> <Gold.PLP.Fitness>
46.5955

> <Gold.PLP.PLP>
-45.4308

> <Gold.PLP.part.hbond>
-1.0000

> <Gold.PLP.part.metal>
0.0000

> <Gold.PLP.part.buried>
-5.6004

> <Gold.PLP.part.nonpolar>
-38.6313

> <Gold.PLP.part.repulsive>
0.2997

> <Gold.PLP.ligand.clash>
0.0000

> <Gold.PLP.ligand.torsion>
0.9786

> <Gold.PLP.Chemscore.Hbond>
0.9600

> <Gold.PLP.Chemscore.CHOScore>
0.0000

> <Gold.PLP.Chemscore.Metal>
0.0000

> <Gold.Chemscore.Hbonds>
donor molecule, donor type, donor heavy atom, donor atom, acceptor molecule, acceptor atom, score
      P1  H  6931  6943       L1    17  0.87

> <Gold.PLP.Chemscore.Internal.Correction>
0.2420

> <Gold.Rescore>
     Score         DG    S(hbond)    S(metal)    S(lipo)     H(rot)  DE(clash)    DE(int)     intcor
     11.39     -14.43       0.90        0.00      93.72       1.96       0.15       2.88       ----

> <Gold.Chemscore.Fitness>
11.3936

> <Gold.Chemscore.DG>
-14.4276

> <Gold.Chemscore.ZeroCoef>
-5.4800

> <Gold.Chemscore.Hbond>
0.9012

> <Gold.Chemscore.Metal>
0.0000

> <Gold.Chemscore.Lipo>
93.7217

> <Gold.Chemscore.Internal_Hbond>
0.0000

> <Gold.Chemscore.DEClash>
0.1499

> <Gold.Chemscore.DEInternal>
2.8841

> <Gold.Chemscore.Rot>
1.9641

> <Gold.Chemscore.Internal.Correction>
   9.000000E+99

> <Gold.Chemscore.Hbonds>
donor molecule, donor type, donor heavy atom, donor atom, acceptor molecule, acceptor atom, score
      P1  H  6931  6943       L1    17  0.70

> <Gold.Chemscore.Hbond.Weighted>
-3.0102

> <Gold.Chemscore.Metal.Weighted>
-0.0000

> <Gold.Chemscore.Lipo.Weighted>
-10.9654

> <Gold.Chemscore.Internal_Hbond.Weighted>
0.0000

> <Gold.Chemscore.DEClash.Weighted>
0.1499

> <Gold.Chemscore.DEInternal.Weighted>
2.8841

> <Gold.Chemscore.Rot.Weighted>
5.0280

> <Gold.Chemscore.Internal.Correction.Weighted>
   9.000000E+99

> <Gold.Protein.RotatedTorsions>
[ 6907 6896 6895 6894 ] final  134.58 input  -60.11 | X-H torsion
[ 7974 7965 7964 7962 ] final   14.66 input  175.53 | X-H torsion
[ 8008 7997 7996 7995 ] final  -21.35 input   59.86 | X-H torsion
[ 10167 10162 10161 10158 ] final   19.28 input  -65.29 | X-H torsion
[ 10718 10713 10712 10709 ] final   29.11 input   66.30 | X-H torsion
[ 10763 10752 10751 10750 ] final -160.68 input  -60.55 | X-H torsion
[ 11005 11000 10999 10996 ] final -109.59 input  -57.11 | X-H torsion

> <Gold.Protein.ActiveResidues>
 VAL166  LYS551  ARG553  GLY616  TRP617  ASP618  TYR619  PRO620  LYS621  CYS622 
 ASP623  PHE694  ASN695  SER759  ASP760  ASP761  ALA762  ILE779  LEU786  VAL792 
 PHE793  MET794  SER795  GLU796  ALA797  LYS798  CYS799  TRP800  GLU811  SER814 

> <Gold.Protein.RotatedAtoms>
  152.3098  133.5741  159.5672 H   0  0  0  0  0  0  0  0  0  0  0  0  # atno 6907 bound_to 6896
  150.7317  134.0169  159.3697 H   0  0  0  0  0  0  0  0  0  0  0  0  # atno 6908 bound_to 6896
  151.8063  135.0694  160.0458 H   0  0  0  0  0  0  0  0  0  0  0  0  # atno 6909 bound_to 6896
  146.2299  139.9008  142.8539 H   0  0  0  0  0  0  0  0  0  0  0  0  # atno 7974 bound_to 7965
  154.4711  140.2037  155.9993 H   0  0  0  0  0  0  0  0  0  0  0  0  # atno 8008 bound_to 7997
  156.1012  140.3243  155.7915 H   0  0  0  0  0  0  0  0  0  0  0  0  # atno 8009 bound_to 7997
  155.4794  140.0537  157.2960 H   0  0  0  0  0  0  0  0  0  0  0  0  # atno 8010 bound_to 7997
  140.5590  143.9371  150.6629 H   0  0  0  0  0  0  0  0  0  0  0  0  # atno 10167 bound_to 10162
  157.2422  130.7075  149.6364 H   0  0  0  0  0  0  0  0  0  0  0  0  # atno 10718 bound_to 10713
  154.7370  135.3059  154.8795 H   0  0  0  0  0  0  0  0  0  0  0  0  # atno 10763 bound_to 10752
  153.9621  135.6752  153.4749 H   0  0  0  0  0  0  0  0  0  0  0  0  # atno 10764 bound_to 10752
  153.0971  135.4930  154.8723 H   0  0  0  0  0  0  0  0  0  0  0  0  # atno 10765 bound_to 10752
  141.0839  133.9172  157.2228 H   0  0  0  0  0  0  0  0  0  0  0  0  # atno 11005 bound_to 11000
  145.2325  140.9978  143.3982 LP  0  0  0  0  0  0  0  0  0  0  0  0  # atno 17320 bound_to 7965
  144.9518  139.4074  143.6398 LP  0  0  0  0  0  0  0  0  0  0  0  0  # atno 17321 bound_to 7965
  140.2817  143.3385  152.1145 LP  0  0  0  0  0  0  0  0  0  0  0  0  # atno 17342 bound_to 10162
  139.5061  144.6808  151.6014 LP  0  0  0  0  0  0  0  0  0  0  0  0  # atno 17343 bound_to 10162
  155.9669  130.4454  150.5501 LP  0  0  0  0  0  0  0  0  0  0  0  0  # atno 17370 bound_to 10713
  157.3366  131.0709  151.1820 LP  0  0  0  0  0  0  0  0  0  0  0  0  # atno 17371 bound_to 10713
  139.9655  135.0143  156.9376 LP  0  0  0  0  0  0  0  0  0  0  0  0  # atno 17394 bound_to 11000
  140.5406  134.0723  155.7340 LP  0  0  0  0  0  0  0  0  0  0  0  0  # atno 17395 bound_to 11000

$$$$
