AV-unprocessed.smi:3052|AV-procd|sdf|11635|dock5
  -GOLD-   2272017 23D 1   1.00000     0.00000
 Structure written by MMmdl.
 41 43  0  0  0  0  0  0  0  0  1 V2000
  147.3685  141.3308  153.9912 C   0  0  0  0  0  0  0  0  0  0  0  0
  148.6522  140.6088  154.2934 C   0  0  0  0  0  0  0  0  0  0  0  0
  149.6747  141.2926  154.7850 N   0  0  0  0  0  0  0  0  0  0  0  0
  150.7418  140.3896  154.9071 O   0  0  0  0  0  0  0  0  0  0  0  0
  150.3376  139.1671  154.4738 C   0  0  0  0  0  0  0  0  0  0  0  0
  151.3510  138.0708  154.5201 C   0  0  0  0  0  0  0  0  0  0  0  0
  152.0005  137.6674  155.8203 C   0  0  0  0  0  0  0  0  0  0  0  0
  152.8189  138.3471  154.7443 C   0  0  0  0  0  0  0  0  0  0  0  0
  149.0243  139.2445  154.1117 C   0  0  0  0  0  0  0  0  0  0  0  0
  148.2614  138.1661  153.5985 N   0  0  0  0  0  0  0  0  0  0  0  0
  146.9819  137.8796  153.8805 C   0  0  0  0  0  0  0  0  0  0  0  0
  146.2746  138.5267  154.6516 O   0  0  0  0  0  0  0  0  0  0  0  0
  146.5813  136.7753  153.2295 N   0  0  0  0  0  0  0  0  0  0  0  0
  145.2738  136.1068  153.2786 C   0  0  1  0  0  0  0  0  0  0  0  0
  145.0591  135.7017  154.7579 C   0  0  0  0  0  0  0  0  0  0  0  0
  144.1545  137.0998  152.8617 C   0  0  0  0  0  0  0  0  0  0  0  0
  143.9507  138.1243  153.8165 O   0  0  0  0  0  0  0  0  0  0  0  0
  145.2107  134.8943  152.3332 C   0  0  0  0  0  0  0  0  0  0  0  0
  145.0065  134.9972  150.8387 C   0  0  0  0  0  0  0  0  0  0  0  0
  143.9396  134.3639  151.7117 C   0  0  0  0  0  0  0  0  0  0  0  0
  146.8633  140.8945  153.1296 H   0  0  0  0  0  0  0  0  0  0  0  0
  147.5459  142.3825  153.7643 H   0  0  0  0  0  0  0  0  0  0  0  0
  146.6857  141.2872  154.8396 H   0  0  0  0  0  0  0  0  0  0  0  0
  151.0964  137.2763  153.8214 H   0  0  0  0  0  0  0  0  0  0  0  0
  151.7590  138.2482  156.7084 H   0  0  0  0  0  0  0  0  0  0  0  0
  152.1708  136.6060  155.9885 H   0  0  0  0  0  0  0  0  0  0  0  0
  153.5332  137.7371  154.1952 H   0  0  0  0  0  0  0  0  0  0  0  0
  153.1298  139.3724  154.9339 H   0  0  0  0  0  0  0  0  0  0  0  0
  148.7674  137.4868  153.0495 H   0  0  0  0  0  0  0  0  0  0  0  0
  147.2658  136.3321  152.6348 H   0  0  0  0  0  0  0  0  0  0  0  0
  144.0713  135.2741  154.9275 H   0  0  0  0  0  0  0  0  0  0  0  0
  145.1416  136.5629  155.4219 H   0  0  0  0  0  0  0  0  0  0  0  0
  145.8015  134.9821  155.1006 H   0  0  0  0  0  0  0  0  0  0  0  0
  144.3720  137.5642  151.8997 H   0  0  0  0  0  0  0  0  0  0  0  0
  143.2116  136.5672  152.7338 H   0  0  0  0  0  0  0  0  0  0  0  0
  143.6857  138.9091  153.3616 H   0  0  0  0  0  0  0  0  0  0  0  0
  145.9223  134.1207  152.6142 H   0  0  0  0  0  0  0  0  0  0  0  0
  144.7776  135.9631  150.3965 H   0  0  0  0  0  0  0  0  0  0  0  0
  145.5953  134.3333  150.2091 H   0  0  0  0  0  0  0  0  0  0  0  0
  143.8263  133.2832  151.6584 H   0  0  0  0  0  0  0  0  0  0  0  0
  143.0128  134.9144  151.8497 H   0  0  0  0  0  0  0  0  0  0  0  0
  1  2  1  0  0  0  0
  1 21  1  0  0  0  0
  1 22  1  0  0  0  0
  1 23  1  0  0  0  0
  2  9  1  0  0  0  0
  2  3  2  0  0  0  0
  3  4  1  0  0  0  0
  4  5  1  0  0  0  0
  5  6  1  0  0  0  0
  5  9  2  0  0  0  0
  6  8  1  0  0  0  0
  6  7  1  0  0  0  0
  6 24  1  0  0  0  0
  7  8  1  0  0  0  0
  7 25  1  0  0  0  0
  7 26  1  0  0  0  0
  8 27  1  0  0  0  0
  8 28  1  0  0  0  0
  9 10  1  0  0  0  0
 10 11  1  0  0  0  0
 10 29  1  0  0  0  0
 11 12  2  0  0  0  0
 11 13  1  0  0  0  0
 13 14  1  0  0  0  0
 13 30  1  0  0  0  0
 14 15  1  0  0  0  0
 14 16  1  0  0  0  0
 14 18  1  0  0  0  0
 15 31  1  0  0  0  0
 15 32  1  0  0  0  0
 15 33  1  0  0  0  0
 16 17  1  0  0  0  0
 16 34  1  0  0  0  0
 16 35  1  0  0  0  0
 17 36  1  0  0  0  0
 18 20  1  0  0  0  0
 18 19  1  0  0  0  0
 18 37  1  0  0  0  0
 19 20  1  0  0  0  0
 19 38  1  0  0  0  0
 19 39  1  0  0  0  0
 20 40  1  0  0  0  0
 20 41  1  0  0  0  0
M  END
> <s_m_source_file>
AV-unprocessed.smi

> <i_m_source_file_index>
3052

> <i_lp_mmshare_version>
43012

> <i_f3d_flags>
0

> <s_epik_input>
W0NIM11jMW5vYyhbQ0hdMltDSDJdW0NIMl0yKWMxW05IXUMoPU8pW05IXVtDQEBdKFtDSDNdKShbQ0gyXVtPSF0pW0NIXTNbQ0gyXVtDSDJdMw==

> <s_epik_cmdline>
J2VwaWtfcHl0aG9uJywgJy1waCcsICc3LjAnLCAnLXRuJywgJzgnLCAnLW1hJywgJzIwMCcsICctbWV0YWxfYmluZGluZycsICctaW1hZScsICc8aW5maWxlLm1hZT4nLCAnLW9tYWUnLCAnPG91dGZpbGUubWFlPic=

> <r_lp_tautomer_probability>
1

> <r_epik_Ionization_Penalty>
3.5887e-05

> <r_epik_Ionization_Penalty_Charging>
0

> <r_epik_Ionization_Penalty_Neutral>
3.5887e-05

> <r_epik_State_Penalty>
-0

> <r_epik_Charging_Adjusted_Penalty>
0

> <i_epik_Tot_Q>
0

> <i_epik_Tot_abs_Q>
0

> <r_epik_Metal_State_Penalty>
-0

> <b_epik_Metal_Only>
0

> <s_lp_Force_Field>
OPLS_2005

> <r_lp_Energy>
30.0106

> <b_lp_Chiralities_Consistent>
1

> <s_lp_Variant>
AV-unprocessed.smi:3052-1

> <Gold.Version>
5.8.1

> <Gold.Id.Protein>
6NUR|6NUR_protein|mol2

> <Gold.PLP.Fitness>
45.1179

> <Gold.PLP.PLP>
-33.7175

> <Gold.PLP.part.hbond>
-5.5429

> <Gold.PLP.part.metal>
0.0000

> <Gold.PLP.part.buried>
-2.3769

> <Gold.PLP.part.nonpolar>
-25.8185

> <Gold.PLP.part.repulsive>
0.3651

> <Gold.PLP.ligand.clash>
0.0000

> <Gold.PLP.ligand.torsion>
1.2791

> <Gold.PLP.Chemscore.Hbond>
4.0000

> <Gold.PLP.Chemscore.CHOScore>
0.0000

> <Gold.PLP.Chemscore.Metal>
0.0000

> <Gold.Chemscore.Hbonds>
donor molecule, donor type, donor heavy atom, donor atom, acceptor molecule, acceptor atom, score
      L1  H    10    29       P1  7948  1.00
      L1  H    13    30       P1  7948  1.00
      L1  H    17    36       P1 10175  1.00
      P1  H  7989  7998       L1     4  0.86

> <Gold.PLP.Chemscore.Internal.Correction>
1.9585

> <Gold.Rescore>
     Score         DG    S(hbond)    S(metal)    S(lipo)     H(rot)  DE(clash)    DE(int)     intcor
     16.64     -18.59       2.97        0.00      74.32       2.16       0.04       1.91       ----

> <Gold.Chemscore.Fitness>
16.6370

> <Gold.Chemscore.DG>
-18.5857

> <Gold.Chemscore.ZeroCoef>
-5.4800

> <Gold.Chemscore.Hbond>
2.9737

> <Gold.Chemscore.Metal>
0.0000

> <Gold.Chemscore.Lipo>
74.3178

> <Gold.Chemscore.Internal_Hbond>
0.0000

> <Gold.Chemscore.DEClash>
0.0352

> <Gold.Chemscore.DEInternal>
1.9135

> <Gold.Chemscore.Rot>
2.1569

> <Gold.Chemscore.Internal.Correction>
   9.000000E+99

> <Gold.Chemscore.Hbonds>
donor molecule, donor type, donor heavy atom, donor atom, acceptor molecule, acceptor atom, score
      L1  H    10    29       P1  7948  0.99
      L1  H    13    30       P1  7948  0.97
      L1  H    17    36       P1 10175  1.00
      P1  H  7989  7998       L1     4  0.04

> <Gold.Chemscore.Hbond.Weighted>
-9.9323

> <Gold.Chemscore.Metal.Weighted>
-0.0000

> <Gold.Chemscore.Lipo.Weighted>
-8.6952

> <Gold.Chemscore.Internal_Hbond.Weighted>
0.0000

> <Gold.Chemscore.DEClash.Weighted>
0.0352

> <Gold.Chemscore.DEInternal.Weighted>
1.9135

> <Gold.Chemscore.Rot.Weighted>
5.5218

> <Gold.Chemscore.Internal.Correction.Weighted>
   9.000000E+99

> <Gold.Protein.RotatedTorsions>
[ 6907 6896 6895 6894 ] final  -88.60 input  -60.11 | X-H torsion
[ 7974 7965 7964 7962 ] final -141.49 input  175.53 | X-H torsion
[ 8008 7997 7996 7995 ] final   70.63 input   59.86 | X-H torsion
[ 10167 10162 10161 10158 ] final   21.65 input  -65.29 | X-H torsion
[ 10718 10713 10712 10709 ] final  -41.14 input   66.30 | X-H torsion
[ 10763 10752 10751 10750 ] final  -78.58 input  -60.55 | X-H torsion
[ 11005 11000 10999 10996 ] final -128.12 input  -57.11 | X-H torsion

> <Gold.Protein.ActiveResidues>
 VAL166  LYS551  ARG553  GLY616  TRP617  ASP618  TYR619  PRO620  LYS621  CYS622 
 ASP623  PHE694  ASN695  SER759  ASP760  ASP761  ALA762  ILE779  LEU786  VAL792 
 PHE793  MET794  SER795  GLU796  ALA797  LYS798  CYS799  TRP800  GLU811  SER814 

> <Gold.Protein.RotatedAtoms>
  150.6869  134.2716  159.4590 H   0  0  0  0  0  0  0  0  0  0  0  0  # atno 6907 bound_to 6896
  152.0638  134.9575  160.0584 H   0  0  0  0  0  0  0  0  0  0  0  0  # atno 6908 bound_to 6896
  152.0992  133.4206  159.4616 H   0  0  0  0  0  0  0  0  0  0  0  0  # atno 6909 bound_to 6896
  144.8515  140.6073  143.5387 H   0  0  0  0  0  0  0  0  0  0  0  0  # atno 7974 bound_to 7965
  155.7417  140.3490  155.5107 H   0  0  0  0  0  0  0  0  0  0  0  0  # atno 8008 bound_to 7997
  155.9088  140.1047  157.1316 H   0  0  0  0  0  0  0  0  0  0  0  0  # atno 8009 bound_to 7997
  154.4053  140.1272  156.4517 H   0  0  0  0  0  0  0  0  0  0  0  0  # atno 8010 bound_to 7997
  140.5410  143.9677  150.6519 H   0  0  0  0  0  0  0  0  0  0  0  0  # atno 10167 bound_to 10162
  156.2736  130.4209  149.8412 H   0  0  0  0  0  0  0  0  0  0  0  0  # atno 10718 bound_to 10713
  154.5277  135.5725  153.6733 H   0  0  0  0  0  0  0  0  0  0  0  0  # atno 10763 bound_to 10752
  152.9932  135.6197  154.2670 H   0  0  0  0  0  0  0  0  0  0  0  0  # atno 10764 bound_to 10752
  154.2595  135.2856  155.2763 H   0  0  0  0  0  0  0  0  0  0  0  0  # atno 10765 bound_to 10752
  140.9543  134.1023  157.4032 H   0  0  0  0  0  0  0  0  0  0  0  0  # atno 11005 bound_to 11000
  145.4490  139.1526  143.3929 LP  0  0  0  0  0  0  0  0  0  0  0  0  # atno 17320 bound_to 7965
  146.2789  140.4615  142.8784 LP  0  0  0  0  0  0  0  0  0  0  0  0  # atno 17321 bound_to 7965
  140.3077  143.3218  152.0909 LP  0  0  0  0  0  0  0  0  0  0  0  0  # atno 17342 bound_to 10162
  139.4989  144.6656  151.6364 LP  0  0  0  0  0  0  0  0  0  0  0  0  # atno 17343 bound_to 10162
  156.5884  130.8496  151.3401 LP  0  0  0  0  0  0  0  0  0  0  0  0  # atno 17370 bound_to 10713
  157.7292  130.9667  150.1775 LP  0  0  0  0  0  0  0  0  0  0  0  0  # atno 17371 bound_to 10713
  139.8857  135.0075  156.6452 LP  0  0  0  0  0  0  0  0  0  0  0  0  # atno 17394 bound_to 11000
  140.7559  133.8858  155.8381 LP  0  0  0  0  0  0  0  0  0  0  0  0  # atno 17395 bound_to 11000

$$$$
