AV-unprocessed.smi:1451|AV-procd|sdf|5899|dock7
  -GOLD-   22720 5583D 1   1.00000     0.00000
 Structure written by MMmdl.
 47 48  0  0  0  0  0  0  0  0  2 V2000
  146.1286  129.8247  151.3604 C   0  0  0  0  0  0  0  0  0  0  0  0
  145.1615  130.9290  151.8110 C   0  0  2  0  0  0  0  0  0  0  0  0
  144.5036  131.6253  150.6080 C   0  0  0  0  0  0  0  0  0  0  0  0
  143.5632  132.7379  151.0877 C   0  0  0  0  0  0  0  0  0  0  0  0
  144.3034  133.7275  152.0015 C   0  0  0  0  0  0  0  0  0  0  0  0
  144.9268  133.0292  153.1558 N   0  3  2  0  0  0  0  0  0  0  0  0
  145.5337  133.9797  154.1217 C   0  0  0  0  0  0  0  0  0  0  0  0
  146.8903  134.5283  153.6371 C   0  0  0  0  0  0  0  0  0  0  0  0
  147.6560  135.1009  154.7378 N   0  0  0  0  0  0  0  0  0  0  0  0
  148.9766  134.9467  154.9167 C   0  0  0  0  0  0  0  0  0  0  0  0
  149.6902  134.3112  154.1394 O   0  0  0  0  0  0  0  0  0  0  0  0
  149.5748  135.6262  156.1569 C   0  0  0  0  0  0  0  0  0  0  0  0
  150.1891  136.9320  155.8626 N   0  0  0  0  0  0  0  0  0  0  0  0
  149.3189  138.0072  155.5944 C   0  0  0  0  0  0  0  0  0  0  0  0
  149.7549  139.2461  155.2964 C   0  0  0  0  0  0  0  0  0  0  0  0
  148.7894  140.3975  155.0625 C   0  0  0  0  0  0  0  0  0  0  0  0
  149.4436  141.5450  154.8815 F   0  0  0  0  0  0  0  0  0  0  0  0
  148.0568  140.1607  153.9751 F   0  0  0  0  0  0  0  0  0  0  0  0
  147.9605  140.5466  156.0965 F   0  0  0  0  0  0  0  0  0  0  0  0
  151.1915  139.4420  155.2956 C   0  0  0  0  0  0  0  0  0  0  0  0
  152.0376  138.4263  155.5562 C   0  0  0  0  0  0  0  0  0  0  0  0
  151.5483  137.0785  155.8545 C   0  0  0  0  0  0  0  0  0  0  0  0
  152.3111  136.1387  156.0820 O   0  0  0  0  0  0  0  0  0  0  0  0
  145.8669  131.9664  152.7080 C   0  0  0  0  0  0  0  0  0  0  0  0
  146.9481  130.2317  150.7669 H   0  0  0  0  0  0  0  0  0  0  0  0
  145.6163  129.0783  150.7522 H   0  0  0  0  0  0  0  0  0  0  0  0
  146.5621  129.3085  152.2174 H   0  0  0  0  0  0  0  0  0  0  0  0
  144.3743  130.4544  152.3993 H   0  0  0  0  0  0  0  0  0  0  0  0
  145.2702  132.0483  149.9570 H   0  0  0  0  0  0  0  0  0  0  0  0
  143.9484  130.9032  150.0084 H   0  0  0  0  0  0  0  0  0  0  0  0
  143.1431  133.2652  150.2305 H   0  0  0  0  0  0  0  0  0  0  0  0
  142.7210  132.3008  151.6257 H   0  0  0  0  0  0  0  0  0  0  0  0
  145.0718  134.2598  151.4384 H   0  0  0  0  0  0  0  0  0  0  0  0
  143.5960  134.4765  152.3599 H   0  0  0  0  0  0  0  0  0  0  0  0
  144.8369  134.7936  154.3289 H   0  0  0  0  0  0  0  0  0  0  0  0
  145.6926  133.4649  155.0703 H   0  0  0  0  0  0  0  0  0  0  0  0
  147.4693  133.7425  153.1488 H   0  0  0  0  0  0  0  0  0  0  0  0
  146.7511  135.3160  152.8979 H   0  0  0  0  0  0  0  0  0  0  0  0
  147.1453  135.6464  155.4174 H   0  0  0  0  0  0  0  0  0  0  0  0
  148.7842  135.7292  156.9013 H   0  0  0  0  0  0  0  0  0  0  0  0
  150.3133  134.9651  156.6151 H   0  0  0  0  0  0  0  0  0  0  0  0
  148.2683  137.7598  155.6422 H   0  0  0  0  0  0  0  0  0  0  0  0
  151.5978  140.4186  155.0774 H   0  0  0  0  0  0  0  0  0  0  0  0
  153.1025  138.6082  155.5441 H   0  0  0  0  0  0  0  0  0  0  0  0
  146.2905  131.4545  153.5713 H   0  0  0  0  0  0  0  0  0  0  0  0
  146.7014  132.4228  152.1730 H   0  0  0  0  0  0  0  0  0  0  0  0
  144.1716  132.5697  153.6445 H   0  0  0  0  0  0  0  0  0  0  0  0
  1  2  1  0  0  0  0
  1 25  1  0  0  0  0
  1 26  1  0  0  0  0
  1 27  1  0  0  0  0
  2 24  1  0  0  0  0
  2  3  1  0  0  0  0
  2 28  1  0  0  0  0
  3  4  1  0  0  0  0
  3 29  1  0  0  0  0
  3 30  1  0  0  0  0
  4  5  1  0  0  0  0
  4 31  1  0  0  0  0
  4 32  1  0  0  0  0
  5  6  1  0  0  0  0
  5 33  1  0  0  0  0
  5 34  1  0  0  0  0
  6  7  1  0  0  0  0
  6 24  1  0  0  0  0
  6 47  1  0  0  0  0
  7  8  1  0  0  0  0
  7 35  1  0  0  0  0
  7 36  1  0  0  0  0
  8  9  1  0  0  0  0
  8 37  1  0  0  0  0
  8 38  1  0  0  0  0
  9 10  1  0  0  0  0
  9 39  1  0  0  0  0
 10 11  2  0  0  0  0
 10 12  1  0  0  0  0
 12 13  1  0  0  0  0
 12 40  1  0  0  0  0
 12 41  1  0  0  0  0
 13 22  1  0  0  0  0
 13 14  1  0  0  0  0
 14 15  2  0  0  0  0
 14 42  1  0  0  0  0
 15 16  1  0  0  0  0
 15 20  1  0  0  0  0
 16 17  1  0  0  0  0
 16 18  1  0  0  0  0
 16 19  1  0  0  0  0
 20 21  2  0  0  0  0
 20 43  1  0  0  0  0
 21 22  1  0  0  0  0
 21 44  1  0  0  0  0
 22 23  2  0  0  0  0
 24 45  1  0  0  0  0
 24 46  1  0  0  0  0
M  CHG  1   6   1
M  END
> <s_m_source_file>
AV-unprocessed.smi

> <i_m_source_file_index>
1451

> <i_lp_mmshare_version>
43012

> <i_f3d_flags>
0

> <s_epik_input>
W0NIM11bQ0BASF0xW0NIMl1bQ0gyXVtDSDJdTihbQ0gyXTEpW0NIMl1bQ0gyXVtOSF1DKD1PKVtDSDJdbjJbY0hdYyhDKEYpKEYpRilbY0hdW2NIXWMyPU8=

> <s_epik_cmdline>
J2VwaWtfcHl0aG9uJywgJy1waCcsICc3LjAnLCAnLXRuJywgJzgnLCAnLW1hJywgJzIwMCcsICctbWV0YWxfYmluZGluZycsICctaW1hZScsICc8aW5maWxlLm1hZT4nLCAnLW9tYWUnLCAnPG91dGZpbGUubWFlPic=

> <r_lp_tautomer_probability>
1

> <r_epik_Ionization_Penalty>
0.00192452

> <r_epik_Ionization_Penalty_Charging>
0.00192444

> <r_epik_Ionization_Penalty_Neutral>
8.16761e-08

> <r_epik_State_Penalty>
0.00131115

> <r_epik_Charging_Adjusted_Penalty>
0.00323559

> <i_epik_Tot_Q>
1

> <i_epik_Tot_abs_Q>
1

> <r_epik_Metal_State_Penalty>
-0

> <b_epik_Metal_Only>
0

> <s_lp_Force_Field>
OPLS_2005

> <r_lp_Energy>
28.0939

> <b_lp_Chiralities_Consistent>
1

> <s_lp_Variant>
AV-unprocessed.smi:1451-1

> <Gold.Version>
5.8.1

> <Gold.Id.Protein>
6NUR|6NUR_protein|mol2

> <Gold.PLP.Fitness>
42.3495

> <Gold.PLP.PLP>
-34.8713

> <Gold.PLP.part.hbond>
-1.9761

> <Gold.PLP.part.metal>
0.0000

> <Gold.PLP.part.buried>
-2.0843

> <Gold.PLP.part.nonpolar>
-31.0048

> <Gold.PLP.part.repulsive>
0.7482

> <Gold.PLP.ligand.clash>
0.0000

> <Gold.PLP.ligand.torsion>
0.8116

> <Gold.PLP.Chemscore.Hbond>
3.0000

> <Gold.PLP.Chemscore.CHOScore>
0.0000

> <Gold.PLP.Chemscore.Metal>
0.0000

> <Gold.Chemscore.Hbonds>
donor molecule, donor type, donor heavy atom, donor atom, acceptor molecule, acceptor atom, score
      L1  H     6    47       P1 10957  1.95
      P1  H 10752 10765       L1    23  0.86

> <Gold.PLP.Chemscore.Internal.Correction>
0.1014

> <Gold.Rescore>
     Score         DG    S(hbond)    S(metal)    S(lipo)     H(rot)  DE(clash)    DE(int)     intcor
     14.55     -15.34       1.86        0.00      76.69       2.08       0.05       0.74       ----

> <Gold.Chemscore.Fitness>
14.5520

> <Gold.Chemscore.DG>
-15.3387

> <Gold.Chemscore.ZeroCoef>
-5.4800

> <Gold.Chemscore.Hbond>
1.8566

> <Gold.Chemscore.Metal>
0.0000

> <Gold.Chemscore.Lipo>
76.6899

> <Gold.Chemscore.Internal_Hbond>
0.0000

> <Gold.Chemscore.DEClash>
0.0491

> <Gold.Chemscore.DEInternal>
0.7376

> <Gold.Chemscore.Rot>
2.0762

> <Gold.Chemscore.Internal.Correction>
   9.000000E+99

> <Gold.Chemscore.Hbonds>
donor molecule, donor type, donor heavy atom, donor atom, acceptor molecule, acceptor atom, score
      L1  H     6    47       P1 10957  0.41
      P1  H 10752 10765       L1    23  0.84

> <Gold.Chemscore.Hbond.Weighted>
-6.2010

> <Gold.Chemscore.Metal.Weighted>
-0.0000

> <Gold.Chemscore.Lipo.Weighted>
-8.9727

> <Gold.Chemscore.Internal_Hbond.Weighted>
0.0000

> <Gold.Chemscore.DEClash.Weighted>
0.0491

> <Gold.Chemscore.DEInternal.Weighted>
0.7376

> <Gold.Chemscore.Rot.Weighted>
5.3150

> <Gold.Chemscore.Internal.Correction.Weighted>
   9.000000E+99

> <Gold.Protein.RotatedTorsions>
[ 6907 6896 6895 6894 ] final   90.74 input  -60.11 | X-H torsion
[ 7974 7965 7964 7962 ] final   53.08 input  175.53 | X-H torsion
[ 8008 7997 7996 7995 ] final   70.90 input   59.86 | X-H torsion
[ 10167 10162 10161 10158 ] final -108.09 input  -65.29 | X-H torsion
[ 10718 10713 10712 10709 ] final  174.38 input   66.30 | X-H torsion
[ 10763 10752 10751 10750 ] final -147.49 input  -60.55 | X-H torsion
[ 11005 11000 10999 10996 ] final  -29.29 input  -57.11 | X-H torsion

> <Gold.Protein.ActiveResidues>
 VAL166  LYS551  ARG553  GLY616  TRP617  ASP618  TYR619  PRO620  LYS621  CYS622 
 ASP623  PHE694  ASN695  SER759  ASP760  ASP761  ALA762  ILE779  LEU786  VAL792 
 PHE793  MET794  SER795  GLU796  ALA797  LYS798  CYS799  TRP800  GLU811  SER814 

> <Gold.Protein.RotatedAtoms>
  152.5446  134.1765  159.8617 H   0  0  0  0  0  0  0  0  0  0  0  0  # atno 6907 bound_to 6896
  151.1771  133.4741  159.2601 H   0  0  0  0  0  0  0  0  0  0  0  0  # atno 6908 bound_to 6896
  151.1216  135.0094  159.8596 H   0  0  0  0  0  0  0  0  0  0  0  0  # atno 6909 bound_to 6896
  145.9748  139.4184  143.0168 H   0  0  0  0  0  0  0  0  0  0  0  0  # atno 7974 bound_to 7965
  155.7458  140.3489  155.5126 H   0  0  0  0  0  0  0  0  0  0  0  0  # atno 8008 bound_to 7997
  155.9051  140.1040  157.1342 H   0  0  0  0  0  0  0  0  0  0  0  0  # atno 8009 bound_to 7997
  154.4048  140.1278  156.4472 H   0  0  0  0  0  0  0  0  0  0  0  0  # atno 8010 bound_to 7997
  140.1699  143.4051  152.1362 H   0  0  0  0  0  0  0  0  0  0  0  0  # atno 10167 bound_to 10162
  156.9504  131.0029  151.2950 H   0  0  0  0  0  0  0  0  0  0  0  0  # atno 10718 bound_to 10713
  154.8283  135.3359  154.6827 H   0  0  0  0  0  0  0  0  0  0  0  0  # atno 10763 bound_to 10752
  153.7450  135.6943  153.4963 H   0  0  0  0  0  0  0  0  0  0  0  0  # atno 10764 bound_to 10752
  153.2217  135.4446  155.0447 H   0  0  0  0  0  0  0  0  0  0  0  0  # atno 10765 bound_to 10752
  140.9283  133.7354  156.0899 H   0  0  0  0  0  0  0  0  0  0  0  0  # atno 11005 bound_to 11000
  145.7854  140.9838  143.1077 LP  0  0  0  0  0  0  0  0  0  0  0  0  # atno 17320 bound_to 7965
  144.6846  139.9616  143.7480 LP  0  0  0  0  0  0  0  0  0  0  0  0  # atno 17321 bound_to 7965
  139.5342  144.7192  151.4949 LP  0  0  0  0  0  0  0  0  0  0  0  0  # atno 17342 bound_to 10162
  140.6588  143.8542  150.6865 LP  0  0  0  0  0  0  0  0  0  0  0  0  # atno 17343 bound_to 10162
  157.5725  130.8320  149.8411 LP  0  0  0  0  0  0  0  0  0  0  0  0  # atno 17370 bound_to 10713
  156.0365  130.3750  150.1547 LP  0  0  0  0  0  0  0  0  0  0  0  0  # atno 17371 bound_to 10713
  140.7896  134.3632  157.5468 LP  0  0  0  0  0  0  0  0  0  0  0  0  # atno 17394 bound_to 11000
  139.8790  134.9132  156.3078 LP  0  0  0  0  0  0  0  0  0  0  0  0  # atno 17395 bound_to 11000

$$$$
