AV-unprocessed.smi:2615|AV-procd|sdf|10215|dock1
  -GOLD-   2272014223D 1   1.00000     0.00000
 Structure written by MMmdl.
 36 37  0  0  0  0  0  0  0  0  1 V2000
  153.7080  142.9979  163.2383 C   0  0  0  0  0  0  0  0  0  0  0  0
  152.9594  142.9265  161.9239 C   0  0  0  0  0  0  0  0  0  0  0  0
  152.0920  143.9592  161.5196 C   0  0  0  0  0  0  0  0  0  0  0  0
  151.4225  143.8389  160.2866 C   0  0  0  0  0  0  0  0  0  0  0  0
  151.6348  142.6925  159.4882 C   0  0  0  0  0  0  0  0  0  0  0  0
  150.9123  142.6694  158.2654 N   0  0  0  0  0  0  0  0  0  0  0  0
  150.8194  141.6675  157.3732 C   0  0  0  0  0  0  0  0  0  0  0  0
  151.3663  140.5689  157.4754 O   0  0  0  0  0  0  0  0  0  0  0  0
  150.0455  142.0145  156.3342 N   0  0  0  0  0  0  0  0  0  0  0  0
  149.7356  141.1609  155.1910 C   0  0  0  0  0  0  0  0  0  0  0  0
  148.5226  141.7119  154.4123 C   0  0  0  0  0  0  0  0  0  0  0  0
  148.1316  140.7844  153.2504 C   0  0  0  0  0  0  0  0  0  0  0  0
  147.8659  139.3535  153.7431 C   0  0  0  0  0  0  0  0  0  0  0  0
  149.0748  138.7997  154.5133 C   0  0  0  0  0  0  0  0  0  0  0  0
  149.4655  139.7244  155.6776 C   0  0  0  0  0  0  0  0  0  0  0  0
  152.4728  141.7031  159.8865 N   0  0  0  0  0  0  0  0  0  0  0  0
  153.1142  141.8190  161.0683 C   0  0  0  0  0  0  0  0  0  0  0  0
  153.4425  143.8956  163.7976 H   0  0  0  0  0  0  0  0  0  0  0  0
  154.7834  143.0118  163.0595 H   0  0  0  0  0  0  0  0  0  0  0  0
  153.4728  142.1299  163.8549 H   0  0  0  0  0  0  0  0  0  0  0  0
  151.9389  144.8301  162.1399 H   0  0  0  0  0  0  0  0  0  0  0  0
  150.7530  144.6218  159.9612 H   0  0  0  0  0  0  0  0  0  0  0  0
  150.4076  143.5146  158.0441 H   0  0  0  0  0  0  0  0  0  0  0  0
  149.6374  142.9378  156.3332 H   0  0  0  0  0  0  0  0  0  0  0  0
  150.5999  141.1343  154.5242 H   0  0  0  0  0  0  0  0  0  0  0  0
  147.6717  141.8247  155.0857 H   0  0  0  0  0  0  0  0  0  0  0  0
  148.7431  142.7072  154.0244 H   0  0  0  0  0  0  0  0  0  0  0  0
  147.2469  141.1740  152.7457 H   0  0  0  0  0  0  0  0  0  0  0  0
  148.9308  140.7725  152.5083 H   0  0  0  0  0  0  0  0  0  0  0  0
  146.9864  139.3464  154.3881 H   0  0  0  0  0  0  0  0  0  0  0  0
  147.6348  138.7055  152.8971 H   0  0  0  0  0  0  0  0  0  0  0  0
  148.8497  137.8016  154.8901 H   0  0  0  0  0  0  0  0  0  0  0  0
  149.9217  138.6903  153.8346 H   0  0  0  0  0  0  0  0  0  0  0  0
  150.3485  139.3274  156.1798 H   0  0  0  0  0  0  0  0  0  0  0  0
  148.6644  139.7288  156.4184 H   0  0  0  0  0  0  0  0  0  0  0  0
  153.7694  141.0035  161.3373 H   0  0  0  0  0  0  0  0  0  0  0  0
  1  2  1  0  0  0  0
  1 18  1  0  0  0  0
  1 19  1  0  0  0  0
  1 20  1  0  0  0  0
  2 17  1  0  0  0  0
  2  3  2  0  0  0  0
  3  4  1  0  0  0  0
  3 21  1  0  0  0  0
  4  5  2  0  0  0  0
  4 22  1  0  0  0  0
  5  6  1  0  0  0  0
  5 16  1  0  0  0  0
  6  7  1  0  0  0  0
  6 23  1  0  0  0  0
  7  8  2  0  0  0  0
  7  9  1  0  0  0  0
  9 10  1  0  0  0  0
  9 24  1  0  0  0  0
 10 15  1  0  0  0  0
 10 11  1  0  0  0  0
 10 25  1  0  0  0  0
 11 12  1  0  0  0  0
 11 26  1  0  0  0  0
 11 27  1  0  0  0  0
 12 13  1  0  0  0  0
 12 28  1  0  0  0  0
 12 29  1  0  0  0  0
 13 14  1  0  0  0  0
 13 30  1  0  0  0  0
 13 31  1  0  0  0  0
 14 15  1  0  0  0  0
 14 32  1  0  0  0  0
 14 33  1  0  0  0  0
 15 34  1  0  0  0  0
 15 35  1  0  0  0  0
 16 17  2  0  0  0  0
 17 36  1  0  0  0  0
M  END
> <s_m_source_file>
AV-unprocessed.smi

> <i_m_source_file_index>
2615

> <i_lp_mmshare_version>
43012

> <i_f3d_flags>
0

> <s_epik_input>
W0NIM11jMVtjSF1bY0hdYyhuW2NIXTEpW05IXUMoPU8pW05IXVtDSF0yW0NIMl1bQ0gyXVtDSDJdW0NIMl1bQ0gyXTI=

> <s_epik_cmdline>
J2VwaWtfcHl0aG9uJywgJy1waCcsICc3LjAnLCAnLXRuJywgJzgnLCAnLW1hJywgJzIwMCcsICctbWV0YWxfYmluZGluZycsICctaW1hZScsICc8aW5maWxlLm1hZT4nLCAnLW9tYWUnLCAnPG91dGZpbGUubWFlPic=

> <r_lp_tautomer_probability>
1

> <r_epik_Ionization_Penalty>
6.39786e-05

> <r_epik_Ionization_Penalty_Charging>
0

> <r_epik_Ionization_Penalty_Neutral>
6.39786e-05

> <r_epik_State_Penalty>
-0

> <r_epik_Charging_Adjusted_Penalty>
0

> <i_epik_Tot_Q>
0

> <i_epik_Tot_abs_Q>
0

> <r_epik_Metal_State_Penalty>
-0

> <b_epik_Metal_Only>
0

> <s_lp_Force_Field>
OPLS_2005

> <r_lp_Energy>
11.2563

> <b_lp_Chiralities_Consistent>
1

> <s_lp_Variant>
AV-unprocessed.smi:2615-1

> <Gold.Version>
5.8.1

> <Gold.Id.Protein>
6NUR|6NUR_protein|mol2

> <Gold.PLP.Fitness>
37.2962

> <Gold.PLP.PLP>
-34.8412

> <Gold.PLP.part.hbond>
-1.0000

> <Gold.PLP.part.metal>
0.0000

> <Gold.PLP.part.buried>
-0.2481

> <Gold.PLP.part.nonpolar>
-32.5123

> <Gold.PLP.part.repulsive>
0.1273

> <Gold.PLP.ligand.clash>
0.0275

> <Gold.PLP.ligand.torsion>
0.2472

> <Gold.PLP.Chemscore.Hbond>
0.9913

> <Gold.PLP.Chemscore.CHOScore>
0.0000

> <Gold.PLP.Chemscore.Metal>
0.0000

> <Gold.Chemscore.Hbonds>
donor molecule, donor type, donor heavy atom, donor atom, acceptor molecule, acceptor atom, score
      L1  H     9    24       P1  8028  0.96

> <Gold.PLP.Chemscore.Internal.Correction>
0.0031

> <Gold.Rescore>
     Score         DG    S(hbond)    S(metal)    S(lipo)     H(rot)  DE(clash)    DE(int)     intcor
     14.02     -17.11       0.98        0.00      93.28       1.00       0.05       3.04       ----

> <Gold.Chemscore.Fitness>
14.0195

> <Gold.Chemscore.DG>
-17.1078

> <Gold.Chemscore.ZeroCoef>
-5.4800

> <Gold.Chemscore.Hbond>
0.9804

> <Gold.Chemscore.Metal>
0.0000

> <Gold.Chemscore.Lipo>
93.2758

> <Gold.Chemscore.Internal_Hbond>
0.0000

> <Gold.Chemscore.DEClash>
0.0456

> <Gold.Chemscore.DEInternal>
3.0428

> <Gold.Chemscore.Rot>
1.0000

> <Gold.Chemscore.Internal.Correction>
   9.000000E+99

> <Gold.Chemscore.Hbonds>
donor molecule, donor type, donor heavy atom, donor atom, acceptor molecule, acceptor atom, score
      L1  H     9    24       P1  8028  0.91

> <Gold.Chemscore.Hbond.Weighted>
-3.2746

> <Gold.Chemscore.Metal.Weighted>
-0.0000

> <Gold.Chemscore.Lipo.Weighted>
-10.9133

> <Gold.Chemscore.Internal_Hbond.Weighted>
0.0000

> <Gold.Chemscore.DEClash.Weighted>
0.0456

> <Gold.Chemscore.DEInternal.Weighted>
3.0428

> <Gold.Chemscore.Rot.Weighted>
2.5600

> <Gold.Chemscore.Internal.Correction.Weighted>
   9.000000E+99

> <Gold.Protein.RotatedTorsions>
[ 6907 6896 6895 6894 ] final  -89.50 input  -60.11 | X-H torsion
[ 7974 7965 7964 7962 ] final  137.86 input  175.53 | X-H torsion
[ 8008 7997 7996 7995 ] final -107.08 input   59.86 | X-H torsion
[ 10167 10162 10161 10158 ] final   47.57 input  -65.29 | X-H torsion
[ 10718 10713 10712 10709 ] final  -94.63 input   66.30 | X-H torsion
[ 10763 10752 10751 10750 ] final -167.78 input  -60.55 | X-H torsion
[ 11005 11000 10999 10996 ] final    9.97 input  -57.11 | X-H torsion

> <Gold.Protein.ActiveResidues>
 VAL166  LYS551  ARG553  GLY616  TRP617  ASP618  TYR619  PRO620  LYS621  CYS622 
 ASP623  PHE694  ASN695  SER759  ASP760  ASP761  ALA762  ILE779  LEU786  VAL792 
 PHE793  MET794  SER795  GLU796  ALA797  LYS798  CYS799  TRP800  GLU811  SER814 

> <Gold.Protein.RotatedAtoms>
  150.6874  134.2577  159.4536 H   0  0  0  0  0  0  0  0  0  0  0  0  # atno 6907 bound_to 6896
  152.0509  134.9651  160.0584 H   0  0  0  0  0  0  0  0  0  0  0  0  # atno 6908 bound_to 6896
  152.1116  133.4269  159.4670 H   0  0  0  0  0  0  0  0  0  0  0  0  # atno 6909 bound_to 6896
  144.9427  139.4911  143.5564 H   0  0  0  0  0  0  0  0  0  0  0  0  # atno 7974 bound_to 7965
  154.9240  140.0406  157.2013 H   0  0  0  0  0  0  0  0  0  0  0  0  # atno 8008 bound_to 7997
  154.8225  140.2886  155.5755 H   0  0  0  0  0  0  0  0  0  0  0  0  # atno 8009 bound_to 7997
  156.2981  140.2516  156.3135 H   0  0  0  0  0  0  0  0  0  0  0  0  # atno 8010 bound_to 7997
  140.3023  144.2919  150.6216 H   0  0  0  0  0  0  0  0  0  0  0  0  # atno 10167 bound_to 10162
  156.0030  130.5075  150.5955 H   0  0  0  0  0  0  0  0  0  0  0  0  # atno 10718 bound_to 10713
  154.6696  135.2937  154.9759 H   0  0  0  0  0  0  0  0  0  0  0  0  # atno 10763 bound_to 10752
  154.0791  135.6607  153.4839 H   0  0  0  0  0  0  0  0  0  0  0  0  # atno 10764 bound_to 10752
  153.0478  135.5193  154.7686 H   0  0  0  0  0  0  0  0  0  0  0  0  # atno 10765 bound_to 10752
  140.5197  134.0571  155.7841 H   0  0  0  0  0  0  0  0  0  0  0  0  # atno 11005 bound_to 11000
  146.3292  139.8458  142.8882 LP  0  0  0  0  0  0  0  0  0  0  0  0  # atno 17320 bound_to 7965
  145.2965  141.0182  143.3633 LP  0  0  0  0  0  0  0  0  0  0  0  0  # atno 17321 bound_to 7965
  140.5640  143.2188  151.7715 LP  0  0  0  0  0  0  0  0  0  0  0  0  # atno 17342 bound_to 10162
  139.4912  144.4309  151.9873 LP  0  0  0  0  0  0  0  0  0  0  0  0  # atno 17343 bound_to 10162
  157.3813  131.0781  151.1474 LP  0  0  0  0  0  0  0  0  0  0  0  0  # atno 17370 bound_to 10713
  157.2196  130.6475  149.5806 LP  0  0  0  0  0  0  0  0  0  0  0  0  # atno 17371 bound_to 10713
  141.1341  133.9252  157.2473 LP  0  0  0  0  0  0  0  0  0  0  0  0  # atno 17394 bound_to 11000
  139.9613  135.0153  156.9267 LP  0  0  0  0  0  0  0  0  0  0  0  0  # atno 17395 bound_to 11000

$$$$
