AV-unprocessed.smi:1543|AV-procd|sdf|6207|dock4
  -GOLD-   22720 6373D 1   1.00000     0.00000
 Structure written by MMmdl.
 48 49  0  0  0  0  0  0  0  0  1 V2000
  145.5622  142.8682  158.6667 C   0  0  0  0  0  0  0  0  0  0  0  0
  145.7546  141.6403  157.7702 C   0  0  1  0  0  0  0  0  0  0  0  0
  146.6044  141.9576  156.5275 C   0  0  0  0  0  0  0  0  0  0  0  0
  146.8441  140.7663  155.7078 N   0  0  0  0  0  0  0  0  0  0  0  0
  147.5142  141.0259  154.4020 C   0  0  0  0  0  0  0  0  0  0  0  0
  147.2812  139.8981  153.3682 C   0  0  0  0  0  0  0  0  0  0  0  0
  147.0007  142.3432  153.7665 C   0  0  0  0  0  0  0  0  0  0  0  0
  149.0542  141.1898  154.5660 C   0  0  0  0  0  0  0  0  0  0  0  0
  149.4091  142.2535  155.5055 N   0  0  0  0  0  0  0  0  0  0  0  0
  150.1618  142.1138  156.6053 C   0  0  0  0  0  0  0  0  0  0  0  0
  150.6365  141.0395  156.9715 O   0  0  0  0  0  0  0  0  0  0  0  0
  150.3146  143.2931  157.2324 N   0  0  0  0  0  0  0  0  0  0  0  0
  151.0128  143.5966  158.4341 C   0  0  0  0  0  0  0  0  0  0  0  0
  151.9676  142.7535  159.0547 C   0  0  0  0  0  0  0  0  0  0  0  0
  152.5854  143.1857  160.2443 C   0  0  0  0  0  0  0  0  0  0  0  0
  152.2317  144.4436  160.7687 C   0  0  0  0  0  0  0  0  0  0  0  0
  151.3306  145.2610  160.1852 N   0  0  0  0  0  0  0  0  0  0  0  0
  150.7422  144.8396  159.0455 C   0  0  0  0  0  0  0  0  0  0  0  0
  147.4926  139.7488  156.5430 C   0  0  0  0  0  0  0  0  0  0  0  0
  146.6974  139.4274  157.8241 C   0  0  2  0  0  0  0  0  0  0  0  0
  145.4370  138.5855  157.5619 C   0  0  0  0  0  0  0  0  0  0  0  0
  146.3964  140.6262  158.5379 O   0  0  0  0  0  0  0  0  0  0  0  0
  145.0653  143.6747  158.1268 H   0  0  0  0  0  0  0  0  0  0  0  0
  146.5185  143.2467  159.0289 H   0  0  0  0  0  0  0  0  0  0  0  0
  144.9502  142.6241  159.5353 H   0  0  0  0  0  0  0  0  0  0  0  0
  144.7705  141.2901  157.4571 H   0  0  0  0  0  0  0  0  0  0  0  0
  146.0797  142.7225  155.9589 H   0  0  0  0  0  0  0  0  0  0  0  0
  147.5531  142.3935  156.8420 H   0  0  0  0  0  0  0  0  0  0  0  0
  147.7820  140.1225  152.4258 H   0  0  0  0  0  0  0  0  0  0  0  0
  146.2250  139.7632  153.1359 H   0  0  0  0  0  0  0  0  0  0  0  0
  147.6702  138.9393  153.7111 H   0  0  0  0  0  0  0  0  0  0  0  0
  147.6088  142.6380  152.9102 H   0  0  0  0  0  0  0  0  0  0  0  0
  147.0222  143.1691  154.4786 H   0  0  0  0  0  0  0  0  0  0  0  0
  145.9796  142.2546  153.3964 H   0  0  0  0  0  0  0  0  0  0  0  0
  149.5114  140.2664  154.9210 H   0  0  0  0  0  0  0  0  0  0  0  0
  149.5199  141.3614  153.5937 H   0  0  0  0  0  0  0  0  0  0  0  0
  149.0701  143.1774  155.2807 H   0  0  0  0  0  0  0  0  0  0  0  0
  149.8385  144.0761  156.8087 H   0  0  0  0  0  0  0  0  0  0  0  0
  152.2471  141.7939  158.6512 H   0  0  0  0  0  0  0  0  0  0  0  0
  153.3159  142.5662  160.7430 H   0  0  0  0  0  0  0  0  0  0  0  0
  152.6863  144.8037  161.6796 H   0  0  0  0  0  0  0  0  0  0  0  0
  150.0265  145.5202  158.6082 H   0  0  0  0  0  0  0  0  0  0  0  0
  147.6339  138.8197  155.9939 H   0  0  0  0  0  0  0  0  0  0  0  0
  148.4851  140.0918  156.8354 H   0  0  0  0  0  0  0  0  0  0  0  0
  147.3412  138.8381  158.4773 H   0  0  0  0  0  0  0  0  0  0  0  0
  145.7001  137.6197  157.1303 H   0  0  0  0  0  0  0  0  0  0  0  0
  144.7534  139.0750  156.8686 H   0  0  0  0  0  0  0  0  0  0  0  0
  144.8957  138.3966  158.4892 H   0  0  0  0  0  0  0  0  0  0  0  0
  1  2  1  0  0  0  0
  1 23  1  0  0  0  0
  1 24  1  0  0  0  0
  1 25  1  0  0  0  0
  2 22  1  0  0  0  0
  2  3  1  0  0  0  0
  2 26  1  0  0  0  0
  3  4  1  0  0  0  0
  3 27  1  0  0  0  0
  3 28  1  0  0  0  0
  4  5  1  0  0  0  0
  4 19  1  0  0  0  0
  5  6  1  0  0  0  0
  5  7  1  0  0  0  0
  5  8  1  0  0  0  0
  6 29  1  0  0  0  0
  6 30  1  0  0  0  0
  6 31  1  0  0  0  0
  7 32  1  0  0  0  0
  7 33  1  0  0  0  0
  7 34  1  0  0  0  0
  8  9  1  0  0  0  0
  8 35  1  0  0  0  0
  8 36  1  0  0  0  0
  9 10  1  0  0  0  0
  9 37  1  0  0  0  0
 10 11  2  0  0  0  0
 10 12  1  0  0  0  0
 12 13  1  0  0  0  0
 12 38  1  0  0  0  0
 13 18  1  0  0  0  0
 13 14  2  0  0  0  0
 14 15  1  0  0  0  0
 14 39  1  0  0  0  0
 15 16  2  0  0  0  0
 15 40  1  0  0  0  0
 16 17  1  0  0  0  0
 16 41  1  0  0  0  0
 17 18  2  0  0  0  0
 18 42  1  0  0  0  0
 19 20  1  0  0  0  0
 19 43  1  0  0  0  0
 19 44  1  0  0  0  0
 20 21  1  0  0  0  0
 20 22  1  0  0  0  0
 20 45  1  0  0  0  0
 21 46  1  0  0  0  0
 21 47  1  0  0  0  0
 21 48  1  0  0  0  0
M  END
> <s_m_source_file>
AV-unprocessed.smi

> <i_m_source_file_index>
1543

> <i_lp_mmshare_version>
43012

> <i_f3d_flags>
0

> <s_epik_input>
W0NIM11bQ0BASF0xW0NIMl1OKFtDSDJdW0NASF0oTzEpW0NIM10pQyhbQ0gzXSkoW0NIM10pW0NIMl1bTkhdQyg9TylbTkhdYzJbY0hdW2NIXVtjSF1uW2NIXTI=

> <s_epik_cmdline>
J2VwaWtfcHl0aG9uJywgJy1waCcsICc3LjAnLCAnLXRuJywgJzgnLCAnLW1hJywgJzIwMCcsICctbWV0YWxfYmluZGluZycsICctaW1hZScsICc8aW5maWxlLm1hZT4nLCAnLW9tYWUnLCAnPG91dGZpbGUubWFlPic=

> <r_epik_Ionization_Penalty>
0.270794

> <r_epik_Ionization_Penalty_Charging>
0

> <r_epik_Ionization_Penalty_Neutral>
0.270794

> <r_epik_State_Penalty>
0.268291

> <r_epik_Charging_Adjusted_Penalty>
0.268291

> <i_epik_Tot_Q>
0

> <i_epik_Tot_abs_Q>
0

> <r_epik_Metal_State_Penalty>
0.264827

> <b_epik_Metal_Only>
0

> <s_lp_Force_Field>
OPLS_2005

> <r_lp_Energy>
46.1399

> <b_lp_Chiralities_Consistent>
1

> <s_lp_Variant>
AV-unprocessed.smi:1543-3

> <Gold.Version>
5.8.1

> <Gold.Id.Protein>
6NUR|6NUR_protein|mol2

> <Gold.PLP.Fitness>
42.2588

> <Gold.PLP.PLP>
-33.8772

> <Gold.PLP.part.hbond>
-2.9967

> <Gold.PLP.part.metal>
0.0000

> <Gold.PLP.part.buried>
-6.1520

> <Gold.PLP.part.nonpolar>
-25.7759

> <Gold.PLP.part.repulsive>
0.4416

> <Gold.PLP.ligand.clash>
0.0082

> <Gold.PLP.ligand.torsion>
0.5349

> <Gold.PLP.Chemscore.Hbond>
2.1326

> <Gold.PLP.Chemscore.CHOScore>
1.0000

> <Gold.PLP.Chemscore.Metal>
0.0000

> <Gold.Chemscore.Hbonds>
donor molecule, donor type, donor heavy atom, donor atom, acceptor molecule, acceptor atom, score
      L1  H     9    37       P1  8028  1.00
      L1  H    12    38       P1  8028  1.00
      P1  H  6934  6946       L1    22  0.14
      L1  C    18    42       P1  8029  1.00

> <Gold.PLP.Chemscore.Internal.Correction>
0.0618

> <Gold.Rescore>
     Score         DG    S(hbond)    S(metal)    S(lipo)     H(rot)  DE(clash)    DE(int)     intcor
     17.27     -19.71       2.32        0.00      86.59       1.43       0.01       2.42       ----

> <Gold.Chemscore.Fitness>
17.2741

> <Gold.Chemscore.DG>
-19.7078

> <Gold.Chemscore.ZeroCoef>
-5.4800

> <Gold.Chemscore.Hbond>
2.3220

> <Gold.Chemscore.Metal>
0.0000

> <Gold.Chemscore.Lipo>
86.5886

> <Gold.Chemscore.Internal_Hbond>
0.0000

> <Gold.Chemscore.DEClash>
0.0115

> <Gold.Chemscore.DEInternal>
2.4222

> <Gold.Chemscore.Rot>
1.4291

> <Gold.Chemscore.Internal.Correction>
   9.000000E+99

> <Gold.Chemscore.Hbonds>
donor molecule, donor type, donor heavy atom, donor atom, acceptor molecule, acceptor atom, score
      L1  H     9    37       P1  8028  0.95
      L1  H    12    38       P1  8028  0.90
      P1  H  6934  6946       L1    22  0.14

> <Gold.Chemscore.Hbond.Weighted>
-7.7555

> <Gold.Chemscore.Metal.Weighted>
-0.0000

> <Gold.Chemscore.Lipo.Weighted>
-10.1309

> <Gold.Chemscore.Internal_Hbond.Weighted>
0.0000

> <Gold.Chemscore.DEClash.Weighted>
0.0115

> <Gold.Chemscore.DEInternal.Weighted>
2.4222

> <Gold.Chemscore.Rot.Weighted>
3.6586

> <Gold.Chemscore.Internal.Correction.Weighted>
   9.000000E+99

> <Gold.Protein.RotatedTorsions>
[ 6907 6896 6895 6894 ] final -133.32 input  -60.11 | X-H torsion
[ 7974 7965 7964 7962 ] final   17.08 input  175.53 | X-H torsion
[ 8008 7997 7996 7995 ] final  -91.28 input   59.86 | X-H torsion
[ 10167 10162 10161 10158 ] final  -58.26 input  -65.29 | X-H torsion
[ 10718 10713 10712 10709 ] final -115.49 input   66.30 | X-H torsion
[ 10763 10752 10751 10750 ] final -156.38 input  -60.55 | X-H torsion
[ 11005 11000 10999 10996 ] final  -47.58 input  -57.11 | X-H torsion

> <Gold.Protein.ActiveResidues>
 VAL166  LYS551  ARG553  GLY616  TRP617  ASP618  TYR619  PRO620  LYS621  CYS622 
 ASP623  PHE694  ASN695  SER759  ASP760  ASP761  ALA762  ILE779  LEU786  VAL792 
 PHE793  MET794  SER795  GLU796  ALA797  LYS798  CYS799  TRP800  GLU811  SER814 

> <Gold.Protein.RotatedAtoms>
  150.9727  133.6327  159.2735 H   0  0  0  0  0  0  0  0  0  0  0  0  # atno 6907 bound_to 6896
  151.3610  135.0903  159.9444 H   0  0  0  0  0  0  0  0  0  0  0  0  # atno 6908 bound_to 6896
  152.5188  133.9300  159.7630 H   0  0  0  0  0  0  0  0  0  0  0  0  # atno 6909 bound_to 6896
  146.2229  139.8654  142.8597 H   0  0  0  0  0  0  0  0  0  0  0  0  # atno 7974 bound_to 7965
  154.7088  140.0521  157.0530 H   0  0  0  0  0  0  0  0  0  0  0  0  # atno 8008 bound_to 7997
  155.0583  140.3186  155.4650 H   0  0  0  0  0  0  0  0  0  0  0  0  # atno 8009 bound_to 7997
  156.2783  140.2103  156.5709 H   0  0  0  0  0  0  0  0  0  0  0  0  # atno 8010 bound_to 7997
  140.6208  143.2419  151.5485 H   0  0  0  0  0  0  0  0  0  0  0  0  # atno 10167 bound_to 10162
  156.0899  130.6084  150.8913 H   0  0  0  0  0  0  0  0  0  0  0  0  # atno 10718 bound_to 10713
  154.7717  135.3147  154.8176 H   0  0  0  0  0  0  0  0  0  0  0  0  # atno 10763 bound_to 10752
  153.8909  135.6825  153.4765 H   0  0  0  0  0  0  0  0  0  0  0  0  # atno 10764 bound_to 10752
  153.1332  135.4771  154.9316 H   0  0  0  0  0  0  0  0  0  0  0  0  # atno 10765 bound_to 10752
  141.0649  133.6697  156.3318 H   0  0  0  0  0  0  0  0  0  0  0  0  # atno 11005 bound_to 11000
  145.2662  141.0093  143.3798 LP  0  0  0  0  0  0  0  0  0  0  0  0  # atno 17320 bound_to 7965
  144.9259  139.4356  143.6518 LP  0  0  0  0  0  0  0  0  0  0  0  0  # atno 17321 bound_to 7965
  139.5437  144.2579  152.1401 LP  0  0  0  0  0  0  0  0  0  0  0  0  # atno 17342 bound_to 10162
  140.1798  144.4855  150.6534 LP  0  0  0  0  0  0  0  0  0  0  0  0  # atno 17343 bound_to 10162
  157.6045  131.0939  150.8902 LP  0  0  0  0  0  0  0  0  0  0  0  0  # atno 17370 bound_to 10713
  156.9053  130.5261  149.5281 LP  0  0  0  0  0  0  0  0  0  0  0  0  # atno 17371 bound_to 10713
  140.5793  134.5762  157.5476 LP  0  0  0  0  0  0  0  0  0  0  0  0  # atno 17394 bound_to 11000
  139.9467  134.7689  156.0545 LP  0  0  0  0  0  0  0  0  0  0  0  0  # atno 17395 bound_to 11000

$$$$
