AV-unprocessed.smi:2534|AV-procd|sdf|9974|dock6
  -GOLD-   2272014 23D 1   1.00000     0.00000
 Structure written by MMmdl.
 40 42  0  0  0  0  0  0  0  0  1 V2000
  152.1636  145.9731  160.3724 C   0  0  0  0  0  0  0  0  0  0  0  0
  151.6772  144.6235  159.8259 C   0  0  2  0  0  0  0  0  0  0  0  0
  152.7304  143.9743  158.9118 C   0  0  0  0  0  0  0  0  0  0  0  0
  152.2515  142.6154  158.3712 C   0  0  0  0  0  0  0  0  0  0  0  0
  150.8902  142.6945  157.6424 C   0  0  1  0  0  0  0  0  0  0  0  0
  151.0637  143.4588  156.4619 O   0  0  0  0  0  0  0  0  0  0  0  0
  150.4352  141.2689  157.2319 C   0  0  0  0  0  0  0  0  0  0  0  0
  149.4597  141.2325  156.1487 N   0  0  0  0  0  0  0  0  0  0  0  0
  149.8762  141.0032  154.8756 N   0  0  0  0  0  0  0  0  0  0  0  0
  148.7785  141.0280  154.1232 C   0  0  0  0  0  0  0  0  0  0  0  0
  147.6123  141.2914  154.8922 C   0  0  0  0  0  0  0  0  0  0  0  0
  146.1903  141.4307  154.5976 C   0  0  0  0  0  0  0  0  0  0  0  0
  145.3827  141.6820  155.5795 N   0  0  0  0  0  0  0  0  0  0  0  0
  145.8489  141.8226  156.8915 N   0  0  0  0  0  0  0  0  0  0  0  0
  144.7893  142.1054  157.8589 C   0  0  0  0  0  0  0  0  0  0  0  0
  147.1605  141.7200  157.2704 C   0  0  0  0  0  0  0  0  0  0  0  0
  147.5633  141.8627  158.4249 O   0  0  0  0  0  0  0  0  0  0  0  0
  148.0905  141.4190  156.1544 C   0  0  0  0  0  0  0  0  0  0  0  0
  149.8447  143.4162  158.5285 C   0  0  0  0  0  0  0  0  0  0  0  0
  150.3432  144.7672  159.0731 C   0  0  0  0  0  0  0  0  0  0  0  0
  152.3405  146.6865  159.5668 H   0  0  0  0  0  0  0  0  0  0  0  0
  153.0954  145.8588  160.9268 H   0  0  0  0  0  0  0  0  0  0  0  0
  151.4293  146.4103  161.0495 H   0  0  0  0  0  0  0  0  0  0  0  0
  151.5149  143.9624  160.6785 H   0  0  0  0  0  0  0  0  0  0  0  0
  152.9610  144.6413  158.0801 H   0  0  0  0  0  0  0  0  0  0  0  0
  153.6630  143.8366  159.4599 H   0  0  0  0  0  0  0  0  0  0  0  0
  153.0111  142.1978  157.7093 H   0  0  0  0  0  0  0  0  0  0  0  0
  152.1697  141.9210  159.2086 H   0  0  0  0  0  0  0  0  0  0  0  0
  150.2132  143.6327  156.0880 H   0  0  0  0  0  0  0  0  0  0  0  0
  151.2935  140.6606  156.9465 H   0  0  0  0  0  0  0  0  0  0  0  0
  149.9971  140.7640  158.0942 H   0  0  0  0  0  0  0  0  0  0  0  0
  148.8659  140.8601  153.0599 H   0  0  0  0  0  0  0  0  0  0  0  0
  145.8231  141.3256  153.5770 H   0  0  0  0  0  0  0  0  0  0  0  0
  145.1434  142.2053  158.8856 H   0  0  0  0  0  0  0  0  0  0  0  0
  144.0489  141.3046  157.8471 H   0  0  0  0  0  0  0  0  0  0  0  0
  144.2821  143.0344  157.5963 H   0  0  0  0  0  0  0  0  0  0  0  0
  148.9194  143.5791  157.9750 H   0  0  0  0  0  0  0  0  0  0  0  0
  149.5849  142.7738  159.3709 H   0  0  0  0  0  0  0  0  0  0  0  0
  149.5872  145.1910  159.7348 H   0  0  0  0  0  0  0  0  0  0  0  0
  150.4576  145.4741  158.2501 H   0  0  0  0  0  0  0  0  0  0  0  0
  1  2  1  0  0  0  0
  1 21  1  0  0  0  0
  1 22  1  0  0  0  0
  1 23  1  0  0  0  0
  2 20  1  0  0  0  0
  2  3  1  0  0  0  0
  2 24  1  0  0  0  0
  3  4  1  0  0  0  0
  3 25  1  0  0  0  0
  3 26  1  0  0  0  0
  4  5  1  0  0  0  0
  4 27  1  0  0  0  0
  4 28  1  0  0  0  0
  5  6  1  0  0  0  0
  5  7  1  0  0  0  0
  5 19  1  0  0  0  0
  6 29  1  0  0  0  0
  7  8  1  0  0  0  0
  7 30  1  0  0  0  0
  7 31  1  0  0  0  0
  8 18  1  0  0  0  0
  8  9  1  0  0  0  0
  9 10  2  0  0  0  0
 10 11  1  0  0  0  0
 10 32  1  0  0  0  0
 11 18  2  0  0  0  0
 11 12  1  0  0  0  0
 12 13  2  0  0  0  0
 12 33  1  0  0  0  0
 13 14  1  0  0  0  0
 14 15  1  0  0  0  0
 14 16  1  0  0  0  0
 15 34  1  0  0  0  0
 15 35  1  0  0  0  0
 15 36  1  0  0  0  0
 16 17  2  0  0  0  0
 16 18  1  0  0  0  0
 19 20  1  0  0  0  0
 19 37  1  0  0  0  0
 19 38  1  0  0  0  0
 20 39  1  0  0  0  0
 20 40  1  0  0  0  0
M  END
> <s_m_source_file>
AV-unprocessed.smi

> <i_m_source_file_index>
2534

> <i_lp_mmshare_version>
43012

> <i_f3d_flags>
0

> <s_epik_input>
W0NIMl0xW0NIMl1bQ0BIXShbQ0gzXSlbQ0gyXVtDSDJdW0NAQF0xKFtPSF0pW0NIMl1uKG5bY0hdMiljKGMyMyljKD1PKW4oW0NIM10pbltjSF0z

> <s_epik_cmdline>
J2VwaWtfcHl0aG9uJywgJy1waCcsICc3LjAnLCAnLXRuJywgJzgnLCAnLW1hJywgJzIwMCcsICctbWV0YWxfYmluZGluZycsICctaW1hZScsICc8aW5maWxlLm1hZT4nLCAnLW9tYWUnLCAnPG91dGZpbGUubWFlPic=

> <r_lp_tautomer_probability>
1

> <r_epik_Ionization_Penalty>
4.4666e-07

> <r_epik_Ionization_Penalty_Charging>
3.10141e-10

> <r_epik_Ionization_Penalty_Neutral>
4.46349e-07

> <r_epik_State_Penalty>
-0

> <r_epik_Charging_Adjusted_Penalty>
3.10141e-10

> <i_epik_Tot_Q>
0

> <i_epik_Tot_abs_Q>
0

> <r_epik_Metal_State_Penalty>
-0

> <b_epik_Metal_Only>
0

> <s_lp_Force_Field>
OPLS_2005

> <r_lp_Energy>
31.1347

> <b_lp_Chiralities_Consistent>
1

> <s_lp_Variant>
AV-unprocessed.smi:2534-1

> <Gold.Version>
5.8.1

> <Gold.Id.Protein>
6NUR|6NUR_protein|mol2

> <Gold.PLP.Fitness>
42.7243

> <Gold.PLP.PLP>
-34.0110

> <Gold.PLP.part.hbond>
-2.4690

> <Gold.PLP.part.metal>
0.0000

> <Gold.PLP.part.buried>
-4.9639

> <Gold.PLP.part.nonpolar>
-27.6262

> <Gold.PLP.part.repulsive>
0.3237

> <Gold.PLP.ligand.clash>
0.0000

> <Gold.PLP.ligand.torsion>
0.5735

> <Gold.PLP.Chemscore.Hbond>
1.3640

> <Gold.PLP.Chemscore.CHOScore>
1.9216

> <Gold.PLP.Chemscore.Metal>
0.0000

> <Gold.Chemscore.Hbonds>
donor molecule, donor type, donor heavy atom, donor atom, acceptor molecule, acceptor atom, score
      L1  H     6    29       P1  8028  1.00
      P1  H  7989  7998       L1     9  0.34
      L1  C    10    32       P1  7957  1.00
      L1  C    12    33       P1 10175  0.98

> <Gold.PLP.Chemscore.Internal.Correction>
0.0035

> <Gold.Rescore>
     Score         DG    S(hbond)    S(metal)    S(lipo)     H(rot)  DE(clash)    DE(int)     intcor
     14.69     -16.39       1.19        0.00      95.80       1.68       0.03       1.66       ----

> <Gold.Chemscore.Fitness>
14.6948

> <Gold.Chemscore.DG>
-16.3871

> <Gold.Chemscore.ZeroCoef>
-5.4800

> <Gold.Chemscore.Hbond>
1.1943

> <Gold.Chemscore.Metal>
0.0000

> <Gold.Chemscore.Lipo>
95.7955

> <Gold.Chemscore.Internal_Hbond>
0.0000

> <Gold.Chemscore.DEClash>
0.0323

> <Gold.Chemscore.DEInternal>
1.6600

> <Gold.Chemscore.Rot>
1.6758

> <Gold.Chemscore.Internal.Correction>
   9.000000E+99

> <Gold.Chemscore.Hbonds>
donor molecule, donor type, donor heavy atom, donor atom, acceptor molecule, acceptor atom, score
      L1  H     6    29       P1  8028  0.95
      P1  H  7989  7998       L1     9  0.21

> <Gold.Chemscore.Hbond.Weighted>
-3.9889

> <Gold.Chemscore.Metal.Weighted>
-0.0000

> <Gold.Chemscore.Lipo.Weighted>
-11.2081

> <Gold.Chemscore.Internal_Hbond.Weighted>
0.0000

> <Gold.Chemscore.DEClash.Weighted>
0.0323

> <Gold.Chemscore.DEInternal.Weighted>
1.6600

> <Gold.Chemscore.Rot.Weighted>
4.2899

> <Gold.Chemscore.Internal.Correction.Weighted>
   9.000000E+99

> <Gold.Protein.RotatedTorsions>
[ 6907 6896 6895 6894 ] final  170.54 input  -60.11 | X-H torsion
[ 7974 7965 7964 7962 ] final  145.78 input  175.53 | X-H torsion
[ 8008 7997 7996 7995 ] final   72.48 input   59.86 | X-H torsion
[ 10167 10162 10161 10158 ] final -141.76 input  -65.29 | X-H torsion
[ 10718 10713 10712 10709 ] final  111.45 input   66.30 | X-H torsion
[ 10763 10752 10751 10750 ] final -135.87 input  -60.55 | X-H torsion
[ 11005 11000 10999 10996 ] final  -50.53 input  -57.11 | X-H torsion

> <Gold.Protein.ActiveResidues>
 VAL166  LYS551  ARG553  GLY616  TRP617  ASP618  TYR619  PRO620  LYS621  CYS622 
 ASP623  PHE694  ASN695  SER759  ASP760  ASP761  ALA762  ILE779  LEU786  VAL792 
 PHE793  MET794  SER795  GLU796  ALA797  LYS798  CYS799  TRP800  GLU811  SER814 

> <Gold.Protein.RotatedAtoms>
  151.8145  133.3386  159.3565 H   0  0  0  0  0  0  0  0  0  0  0  0  # atno 6907 bound_to 6896
  150.7315  134.5633  159.5862 H   0  0  0  0  0  0  0  0  0  0  0  0  # atno 6908 bound_to 6896
  152.3051  134.7566  160.0400 H   0  0  0  0  0  0  0  0  0  0  0  0  # atno 6909 bound_to 6896
  144.8725  139.5824  143.5880 H   0  0  0  0  0  0  0  0  0  0  0  0  # atno 7974 bound_to 7965
  155.7694  140.3484  155.5239 H   0  0  0  0  0  0  0  0  0  0  0  0  # atno 8008 bound_to 7997
  155.8836  140.1006  157.1489 H   0  0  0  0  0  0  0  0  0  0  0  0  # atno 8009 bound_to 7997
  154.4027  140.1317  156.4215 H   0  0  0  0  0  0  0  0  0  0  0  0  # atno 8010 bound_to 7997
  139.8153  143.7647  152.2665 H   0  0  0  0  0  0  0  0  0  0  0  0  # atno 10167 bound_to 10162
  157.6444  131.0951  150.6750 H   0  0  0  0  0  0  0  0  0  0  0  0  # atno 10718 bound_to 10713
  154.8695  135.3690  154.4968 H   0  0  0  0  0  0  0  0  0  0  0  0  # atno 10763 bound_to 10752
  153.5611  135.7023  153.5552 H   0  0  0  0  0  0  0  0  0  0  0  0  # atno 10764 bound_to 10752
  153.3627  135.4042  155.1694 H   0  0  0  0  0  0  0  0  0  0  0  0  # atno 10765 bound_to 10752
  141.0821  133.6651  156.3745 H   0  0  0  0  0  0  0  0  0  0  0  0  # atno 11005 bound_to 11000
  146.2940  139.7222  142.9140 LP  0  0  0  0  0  0  0  0  0  0  0  0  # atno 17320 bound_to 7965
  145.4105  141.0396  143.3020 LP  0  0  0  0  0  0  0  0  0  0  0  0  # atno 17321 bound_to 7965
  139.7808  144.7445  151.0090 LP  0  0  0  0  0  0  0  0  0  0  0  0  # atno 17342 bound_to 10162
  140.7816  143.4544  151.0367 LP  0  0  0  0  0  0  0  0  0  0  0  0  # atno 17343 bound_to 10162
  156.7070  130.4640  149.5557 LP  0  0  0  0  0  0  0  0  0  0  0  0  # atno 17370 bound_to 10713
  156.1756  130.6465  151.0890 LP  0  0  0  0  0  0  0  0  0  0  0  0  # atno 17371 bound_to 10713
  140.5445  134.6088  157.5390 LP  0  0  0  0  0  0  0  0  0  0  0  0  # atno 17394 bound_to 11000
  139.9636  134.7411  156.0186 LP  0  0  0  0  0  0  0  0  0  0  0  0  # atno 17395 bound_to 11000

$$$$
