AV-unprocessed.smi:2336|AV-procd|sdf|9332|dock2
  -GOLD-   2272012553D 1   1.00000     0.00000
 Structure written by MMmdl.
 49 50  0  0  0  0  0  0  0  0  1 V2000
  152.2865  139.0161  155.3124 C   0  0  0  0  0  0  0  0  0  0  0  0
  150.8545  139.0892  155.8726 C   0  0  0  0  0  0  0  0  0  0  0  0
  149.9547  139.9314  154.9483 C   0  0  0  0  0  0  0  0  0  0  0  0
  150.7915  139.4849  157.3884 C   0  0  1  0  0  0  0  0  0  0  0  0
  151.2917  138.3297  158.3052 C   0  0  0  0  0  0  0  0  0  0  0  0
  150.2967  137.9458  159.3021 N   0  0  0  0  0  0  0  0  0  0  0  0
  149.7063  136.7473  159.3969 C   0  0  0  0  0  0  0  0  0  0  0  0
  149.9147  135.8209  158.6138 O   0  0  0  0  0  0  0  0  0  0  0  0
  148.8628  136.7109  160.4421 N   0  0  0  0  0  0  0  0  0  0  0  0
  148.0898  135.6221  160.9293 C   0  0  0  0  0  0  0  0  0  0  0  0
  147.8260  134.4410  160.1940 C   0  0  0  0  0  0  0  0  0  0  0  0
  147.0646  133.4233  160.8032 C   0  0  0  0  0  0  0  0  0  0  0  0
  146.5758  133.5095  162.0585 N   0  0  0  0  0  0  0  0  0  0  0  0
  146.8396  134.6317  162.7604 C   0  0  0  0  0  0  0  0  0  0  0  0
  147.5907  135.7075  162.2462 C   0  0  0  0  0  0  0  0  0  0  0  0
  147.8238  136.8041  163.0076 F   0  0  0  0  0  0  0  0  0  0  0  0
  151.4141  140.7959  157.7093 N   0  0  0  0  0  0  0  0  0  0  0  0
  151.5884  140.9958  159.1578 C   0  0  0  0  0  0  0  0  0  0  0  0
  152.2563  142.3427  159.4897 C   0  0  0  0  0  0  0  0  0  0  0  0
  151.4785  143.4634  158.9745 N   0  0  0  0  0  0  0  0  0  0  0  0
  152.1001  144.7389  159.2958 C   0  0  0  0  0  0  0  0  0  0  0  0
  151.3190  143.2914  157.5353 C   0  0  0  0  0  0  0  0  0  0  0  0
  150.6507  141.9458  157.1974 C   0  0  0  0  0  0  0  0  0  0  0  0
  152.7208  140.0041  155.1608 H   0  0  0  0  0  0  0  0  0  0  0  0
  152.2958  138.5151  154.3440 H   0  0  0  0  0  0  0  0  0  0  0  0
  152.9433  138.4537  155.9763 H   0  0  0  0  0  0  0  0  0  0  0  0
  150.5061  138.0610  155.7928 H   0  0  0  0  0  0  0  0  0  0  0  0
  150.3332  140.9451  154.8246 H   0  0  0  0  0  0  0  0  0  0  0  0
  148.9345  139.9969  155.3262 H   0  0  0  0  0  0  0  0  0  0  0  0
  149.9035  139.4876  153.9538 H   0  0  0  0  0  0  0  0  0  0  0  0
  149.7269  139.5829  157.6077 H   0  0  0  0  0  0  0  0  0  0  0  0
  151.5256  137.4471  157.7108 H   0  0  0  0  0  0  0  0  0  0  0  0
  152.2409  138.5841  158.7739 H   0  0  0  0  0  0  0  0  0  0  0  0
  150.0621  138.6465  159.9905 H   0  0  0  0  0  0  0  0  0  0  0  0
  148.7326  137.5818  160.9361 H   0  0  0  0  0  0  0  0  0  0  0  0
  148.1979  134.2885  159.1929 H   0  0  0  0  0  0  0  0  0  0  0  0
  146.8482  132.5103  160.2682 H   0  0  0  0  0  0  0  0  0  0  0  0
  146.4426  134.6729  163.7639 H   0  0  0  0  0  0  0  0  0  0  0  0
  150.6233  140.9300  159.6628 H   0  0  0  0  0  0  0  0  0  0  0  0
  152.2183  140.2162  159.5819 H   0  0  0  0  0  0  0  0  0  0  0  0
  152.3622  142.4354  160.5710 H   0  0  0  0  0  0  0  0  0  0  0  0
  153.2654  142.3632  159.0745 H   0  0  0  0  0  0  0  0  0  0  0  0
  151.4996  145.5669  158.9179 H   0  0  0  0  0  0  0  0  0  0  0  0
  153.0965  144.8140  158.8580 H   0  0  0  0  0  0  0  0  0  0  0  0
  152.1930  144.8617  160.3753 H   0  0  0  0  0  0  0  0  0  0  0  0
  150.7138  144.1045  157.1328 H   0  0  0  0  0  0  0  0  0  0  0  0
  152.2899  143.3512  157.0406 H   0  0  0  0  0  0  0  0  0  0  0  0
  150.5735  141.9037  156.1129 H   0  0  0  0  0  0  0  0  0  0  0  0
  149.6334  141.9269  157.5914 H   0  0  0  0  0  0  0  0  0  0  0  0
  1  2  1  0  0  0  0
  1 24  1  0  0  0  0
  1 25  1  0  0  0  0
  1 26  1  0  0  0  0
  2  3  1  0  0  0  0
  2  4  1  0  0  0  0
  2 27  1  0  0  0  0
  3 28  1  0  0  0  0
  3 29  1  0  0  0  0
  3 30  1  0  0  0  0
  4  5  1  0  0  0  0
  4 17  1  0  0  0  0
  4 31  1  0  0  0  0
  5  6  1  0  0  0  0
  5 32  1  0  0  0  0
  5 33  1  0  0  0  0
  6  7  1  0  0  0  0
  6 34  1  0  0  0  0
  7  8  2  0  0  0  0
  7  9  1  0  0  0  0
  9 10  1  0  0  0  0
  9 35  1  0  0  0  0
 10 15  1  0  0  0  0
 10 11  2  0  0  0  0
 11 12  1  0  0  0  0
 11 36  1  0  0  0  0
 12 13  2  0  0  0  0
 12 37  1  0  0  0  0
 13 14  1  0  0  0  0
 14 15  2  0  0  0  0
 14 38  1  0  0  0  0
 15 16  1  0  0  0  0
 17 23  1  0  0  0  0
 17 18  1  0  0  0  0
 18 19  1  0  0  0  0
 18 39  1  0  0  0  0
 18 40  1  0  0  0  0
 19 20  1  0  0  0  0
 19 41  1  0  0  0  0
 19 42  1  0  0  0  0
 20 21  1  0  0  0  0
 20 22  1  0  0  0  0
 21 43  1  0  0  0  0
 21 44  1  0  0  0  0
 21 45  1  0  0  0  0
 22 23  1  0  0  0  0
 22 46  1  0  0  0  0
 22 47  1  0  0  0  0
 23 48  1  0  0  0  0
 23 49  1  0  0  0  0
M  END
> <s_m_source_file>
AV-unprocessed.smi

> <i_m_source_file_index>
2336

> <i_lp_mmshare_version>
43012

> <i_f3d_flags>
0

> <s_epik_input>
W0NIMl0xW0NIMl1OKFtDSDNdKVtDSDJdW0NIMl1OMVtDQEhdKFtDSF0oW0NIM10pW0NIM10pW0NIMl1bTkhdQyg9TylbTkhdYzJbY0hdW2NIXW5bY0hdYzJG

> <s_epik_cmdline>
J2VwaWtfcHl0aG9uJywgJy1waCcsICc3LjAnLCAnLXRuJywgJzgnLCAnLW1hJywgJzIwMCcsICctbWV0YWxfYmluZGluZycsICctaW1hZScsICc8aW5maWxlLm1hZT4nLCAnLW9tYWUnLCAnPG91dGZpbGUubWFlPic=

> <r_epik_Ionization_Penalty>
2.58102

> <r_epik_Ionization_Penalty_Charging>
0

> <r_epik_Ionization_Penalty_Neutral>
2.58102

> <r_epik_State_Penalty>
2.00874

> <r_epik_Charging_Adjusted_Penalty>
2.00874

> <i_epik_Tot_Q>
0

> <i_epik_Tot_abs_Q>
0

> <r_epik_Metal_State_Penalty>
2.00867

> <b_epik_Metal_Only>
0

> <s_lp_Force_Field>
OPLS_2005

> <r_lp_Energy>
52.4608

> <b_lp_Chiralities_Consistent>
1

> <s_lp_Variant>
AV-unprocessed.smi:2336-6

> <Gold.Version>
5.8.1

> <Gold.Id.Protein>
6NUR|6NUR_protein|mol2

> <Gold.PLP.Fitness>
45.1059

> <Gold.PLP.PLP>
-44.0041

> <Gold.PLP.part.hbond>
-1.0000

> <Gold.PLP.part.metal>
0.0000

> <Gold.PLP.part.buried>
-5.4670

> <Gold.PLP.part.nonpolar>
-38.9295

> <Gold.PLP.part.repulsive>
0.5159

> <Gold.PLP.ligand.clash>
0.0000

> <Gold.PLP.ligand.torsion>
1.1748

> <Gold.PLP.Chemscore.Hbond>
1.0000

> <Gold.PLP.Chemscore.CHOScore>
0.0000

> <Gold.PLP.Chemscore.Metal>
0.0000

> <Gold.Chemscore.Hbonds>
donor molecule, donor type, donor heavy atom, donor atom, acceptor molecule, acceptor atom, score
      P1  H  6896  6908       L1     8  1.00

> <Gold.PLP.Chemscore.Internal.Correction>
0.4514

> <Gold.Rescore>
     Score         DG    S(hbond)    S(metal)    S(lipo)     H(rot)  DE(clash)    DE(int)     intcor
     13.99     -16.79       0.76        0.00     110.49       1.63       0.57       2.23       ----

> <Gold.Chemscore.Fitness>
13.9852

> <Gold.Chemscore.DG>
-16.7853

> <Gold.Chemscore.ZeroCoef>
-5.4800

> <Gold.Chemscore.Hbond>
0.7620

> <Gold.Chemscore.Metal>
0.0000

> <Gold.Chemscore.Lipo>
110.4873

> <Gold.Chemscore.Internal_Hbond>
0.0000

> <Gold.Chemscore.DEClash>
0.5659

> <Gold.Chemscore.DEInternal>
2.2343

> <Gold.Chemscore.Rot>
1.6277

> <Gold.Chemscore.Internal.Correction>
   9.000000E+99

> <Gold.Chemscore.Hbonds>
donor molecule, donor type, donor heavy atom, donor atom, acceptor molecule, acceptor atom, score
      P1  H  6896  6908       L1     8  0.58

> <Gold.Chemscore.Hbond.Weighted>
-2.5452

> <Gold.Chemscore.Metal.Weighted>
-0.0000

> <Gold.Chemscore.Lipo.Weighted>
-12.9270

> <Gold.Chemscore.Internal_Hbond.Weighted>
0.0000

> <Gold.Chemscore.DEClash.Weighted>
0.5659

> <Gold.Chemscore.DEInternal.Weighted>
2.2343

> <Gold.Chemscore.Rot.Weighted>
4.1670

> <Gold.Chemscore.Internal.Correction.Weighted>
   9.000000E+99

> <Gold.Protein.RotatedTorsions>
[ 6907 6896 6895 6894 ] final  166.85 input  -60.11 | X-H torsion
[ 7974 7965 7964 7962 ] final  114.32 input  175.53 | X-H torsion
[ 8008 7997 7996 7995 ] final   59.23 input   59.86 | X-H torsion
[ 10167 10162 10161 10158 ] final  -74.72 input  -65.29 | X-H torsion
[ 10718 10713 10712 10709 ] final   28.34 input   66.30 | X-H torsion
[ 10763 10752 10751 10750 ] final -115.76 input  -60.55 | X-H torsion
[ 11005 11000 10999 10996 ] final  106.88 input  -57.11 | X-H torsion

> <Gold.Protein.ActiveResidues>
 VAL166  LYS551  ARG553  GLY616  TRP617  ASP618  TYR619  PRO620  LYS621  CYS622 
 ASP623  PHE694  ASN695  SER759  ASP760  ASP761  ALA762  ILE779  LEU786  VAL792 
 PHE793  MET794  SER795  GLU796  ALA797  LYS798  CYS799  TRP800  GLU811  SER814 

> <Gold.Protein.RotatedAtoms>
  151.8725  133.3478  159.3739 H   0  0  0  0  0  0  0  0  0  0  0  0  # atno 6907 bound_to 6896
  150.7149  134.5099  159.5611 H   0  0  0  0  0  0  0  0  0  0  0  0  # atno 6908 bound_to 6896
  152.2634  134.8010  160.0477 H   0  0  0  0  0  0  0  0  0  0  0  0  # atno 6909 bound_to 6896
  145.2059  139.2929  143.4294 H   0  0  0  0  0  0  0  0  0  0  0  0  # atno 7974 bound_to 7965
  155.5629  140.3488  155.4496 H   0  0  0  0  0  0  0  0  0  0  0  0  # atno 8008 bound_to 7997
  156.0501  140.1316  157.0085 H   0  0  0  0  0  0  0  0  0  0  0  0  # atno 8009 bound_to 7997
  154.4430  140.1006  156.6348 H   0  0  0  0  0  0  0  0  0  0  0  0  # atno 8010 bound_to 7997
  140.5003  143.2362  151.7762 H   0  0  0  0  0  0  0  0  0  0  0  0  # atno 10167 bound_to 10162
  157.2321  130.7029  149.6318 H   0  0  0  0  0  0  0  0  0  0  0  0  # atno 10718 bound_to 10713
  154.8493  135.4370  154.1713 H   0  0  0  0  0  0  0  0  0  0  0  0  # atno 10763 bound_to 10752
  153.2826  135.6955  153.7377 H   0  0  0  0  0  0  0  0  0  0  0  0  # atno 10764 bound_to 10752
  153.6575  135.3441  155.3092 H   0  0  0  0  0  0  0  0  0  0  0  0  # atno 10765 bound_to 10752
  139.8820  134.9383  156.5735 H   0  0  0  0  0  0  0  0  0  0  0  0  # atno 11005 bound_to 11000
  146.3408  140.2319  142.8593 LP  0  0  0  0  0  0  0  0  0  0  0  0  # atno 17320 bound_to 7965
  144.9902  140.8540  143.5344 LP  0  0  0  0  0  0  0  0  0  0  0  0  # atno 17321 bound_to 7965
  139.4871  144.4530  151.9631 LP  0  0  0  0  0  0  0  0  0  0  0  0  # atno 17342 bound_to 10162
  140.3619  144.2962  150.5932 LP  0  0  0  0  0  0  0  0  0  0  0  0  # atno 17343 bound_to 10162
  155.9675  130.4485  150.5623 LP  0  0  0  0  0  0  0  0  0  0  0  0  # atno 17370 bound_to 10713
  157.3467  131.0726  151.1746 LP  0  0  0  0  0  0  0  0  0  0  0  0  # atno 17371 bound_to 10713
  140.8081  133.8451  155.8785 LP  0  0  0  0  0  0  0  0  0  0  0  0  # atno 17394 bound_to 11000
  140.9532  134.1752  157.4712 LP  0  0  0  0  0  0  0  0  0  0  0  0  # atno 17395 bound_to 11000

$$$$
