AV-unprocessed.smi:688|AV-procd|sdf|3354|dock7
  -GOLD-   22720 0333D 1   1.00000     0.00000
 Structure written by MMmdl.
 36 37  0  0  0  0  0  0  0  0  1 V2000
  149.6890  130.9393  154.3700 O   0  0  0  0  0  0  0  0  0  0  0  0
  149.8427  132.1077  154.7204 C   0  0  0  0  0  0  0  0  0  0  0  0
  150.6465  132.4028  155.8258 N   0  0  0  0  0  0  0  0  0  0  0  0
  150.9033  133.6800  156.3255 C   0  0  0  0  0  0  0  0  0  0  0  0
  151.6215  133.8196  157.3158 O   0  0  0  0  0  0  0  0  0  0  0  0
  150.3021  134.7632  155.6436 N   0  0  0  0  0  0  0  0  0  0  0  0
  150.5403  136.0965  156.1429 C   0  0  0  0  0  0  0  0  0  0  0  0
  150.8423  137.1232  155.0283 C   0  0  2  0  0  0  0  0  0  0  0  0
  151.6929  136.5023  154.0838 O   0  0  0  0  0  0  0  0  0  0  0  0
  151.5867  138.3530  155.5747 C   0  0  0  0  0  0  0  0  0  0  0  0
  150.6465  139.2621  156.1232 O   0  0  0  0  0  0  0  0  0  0  0  0
  150.9753  140.6176  155.8633 C   0  0  0  0  0  0  0  0  0  0  0  0
  151.2785  141.3888  157.1344 C   0  0  0  0  0  0  0  0  0  0  0  0
  150.5817  142.5793  157.4341 C   0  0  0  0  0  0  0  0  0  0  0  0
  150.8804  143.2993  158.6073 C   0  0  0  0  0  0  0  0  0  0  0  0
  151.8824  142.8367  159.4825 C   0  0  0  0  0  0  0  0  0  0  0  0
  152.2486  143.7185  160.9197 Cl  0  0  0  0  0  0  0  0  0  0  0  0
  152.5875  141.6551  159.1820 C   0  0  0  0  0  0  0  0  0  0  0  0
  152.2883  140.9348  158.0090 C   0  0  0  0  0  0  0  0  0  0  0  0
  149.4904  134.5168  154.5472 C   0  0  0  0  0  0  0  0  0  0  0  0
  149.2426  133.2727  154.0710 C   0  0  0  0  0  0  0  0  0  0  0  0
  148.2183  133.0466  152.6985 Cl  0  0  0  0  0  0  0  0  0  0  0  0
  151.0749  131.6245  156.3057 H   0  0  0  0  0  0  0  0  0  0  0  0
  149.6591  136.3698  156.7276 H   0  0  0  0  0  0  0  0  0  0  0  0
  151.3576  136.0234  156.8629 H   0  0  0  0  0  0  0  0  0  0  0  0
  149.9198  137.4432  154.5419 H   0  0  0  0  0  0  0  0  0  0  0  0
  151.5478  136.9020  153.2401 H   0  0  0  0  0  0  0  0  0  0  0  0
  152.2651  138.0487  156.3732 H   0  0  0  0  0  0  0  0  0  0  0  0
  152.1936  138.8240  154.7991 H   0  0  0  0  0  0  0  0  0  0  0  0
  151.8399  140.6637  155.1991 H   0  0  0  0  0  0  0  0  0  0  0  0
  150.1462  141.1110  155.3540 H   0  0  0  0  0  0  0  0  0  0  0  0
  149.8152  142.9454  156.7667 H   0  0  0  0  0  0  0  0  0  0  0  0
  150.3408  144.2073  158.8337 H   0  0  0  0  0  0  0  0  0  0  0  0
  153.3590  141.2997  159.8491 H   0  0  0  0  0  0  0  0  0  0  0  0
  152.8362  140.0315  157.7839 H   0  0  0  0  0  0  0  0  0  0  0  0
  149.0282  135.3557  154.0463 H   0  0  0  0  0  0  0  0  0  0  0  0
  1  2  2  0  0  0  0
  2 21  1  0  0  0  0
  2  3  1  0  0  0  0
  3 23  1  0  0  0  0
  3  4  1  0  0  0  0
  4  5  2  0  0  0  0
  4  6  1  0  0  0  0
  6  7  1  0  0  0  0
  6 20  1  0  0  0  0
  7  8  1  0  0  0  0
  7 24  1  0  0  0  0
  7 25  1  0  0  0  0
  8  9  1  0  0  0  0
  8 10  1  0  0  0  0
  8 26  1  0  0  0  0
  9 27  1  0  0  0  0
 10 11  1  0  0  0  0
 10 28  1  0  0  0  0
 10 29  1  0  0  0  0
 11 12  1  0  0  0  0
 12 13  1  0  0  0  0
 12 30  1  0  0  0  0
 12 31  1  0  0  0  0
 13 19  1  0  0  0  0
 13 14  2  0  0  0  0
 14 15  1  0  0  0  0
 14 32  1  0  0  0  0
 15 16  2  0  0  0  0
 15 33  1  0  0  0  0
 16 17  1  0  0  0  0
 16 18  1  0  0  0  0
 18 19  2  0  0  0  0
 18 34  1  0  0  0  0
 19 35  1  0  0  0  0
 20 21  2  0  0  0  0
 20 36  1  0  0  0  0
 21 22  1  0  0  0  0
M  END
> <s_m_source_file>
AV-unprocessed.smi

> <i_m_source_file_index>
688

> <i_lp_mmshare_version>
43012

> <i_f3d_flags>
0

> <s_epik_input>
Tz1jMVtuSF1jKD1PKW4oW2NIXWMxQ2wpW0NIMl1bQ0BIXShbT0hdKVtDSDJdT1tDSDJdYzJbY0hdW2NIXWMoQ2wpW2NIXVtjSF0y

> <s_epik_cmdline>
J2VwaWtfcHl0aG9uJywgJy1waCcsICc3LjAnLCAnLXRuJywgJzgnLCAnLW1hJywgJzIwMCcsICctbWV0YWxfYmluZGluZycsICctaW1hZScsICc8aW5maWxlLm1hZT4nLCAnLW9tYWUnLCAnPG91dGZpbGUubWFlPic=

> <r_lp_tautomer_probability>
0.999537

> <r_epik_Ionization_Penalty>
0.0280571

> <r_epik_Ionization_Penalty_Charging>
0.028057

> <r_epik_Ionization_Penalty_Neutral>
6.25502e-08

> <r_epik_State_Penalty>
0.0230008

> <r_epik_Charging_Adjusted_Penalty>
0.0510579

> <i_epik_Tot_Q>
0

> <i_epik_Tot_abs_Q>
0

> <r_epik_Metal_State_Penalty>
2.1942

> <b_epik_Metal_Only>
0

> <s_lp_Force_Field>
OPLS_2005

> <r_lp_Energy>
17.1949

> <b_lp_Chiralities_Consistent>
1

> <s_lp_Variant>
AV-unprocessed.smi:688-1

> <Gold.Version>
5.8.1

> <Gold.Id.Protein>
6NUR|6NUR_protein|mol2

> <Gold.PLP.Fitness>
48.4821

> <Gold.PLP.PLP>
-42.1135

> <Gold.PLP.part.hbond>
-3.0000

> <Gold.PLP.part.metal>
0.0000

> <Gold.PLP.part.buried>
-6.5680

> <Gold.PLP.part.nonpolar>
-34.6204

> <Gold.PLP.part.repulsive>
0.1047

> <Gold.PLP.ligand.clash>
0.0000

> <Gold.PLP.ligand.torsion>
1.2792

> <Gold.PLP.Chemscore.Hbond>
1.9555

> <Gold.PLP.Chemscore.CHOScore>
1.0000

> <Gold.PLP.Chemscore.Metal>
0.0000

> <Gold.Chemscore.Hbonds>
donor molecule, donor type, donor heavy atom, donor atom, acceptor molecule, acceptor atom, score
      L1  H     9    27       P1  7949  0.56
      P1  H  6896  6908       L1     5  0.40
      P1  H 10752 10765       L1     9  0.98
      L1  C    20    36       P1  7948  1.00

> <Gold.PLP.Chemscore.Internal.Correction>
0.0604

> <Gold.Rescore>
     Score         DG    S(hbond)    S(metal)    S(lipo)     H(rot)  DE(clash)    DE(int)     intcor
     14.87     -16.15       1.90        0.00     101.43       2.94       0.09       1.19       ----

> <Gold.Chemscore.Fitness>
14.8672

> <Gold.Chemscore.DG>
-16.1521

> <Gold.Chemscore.ZeroCoef>
-5.4800

> <Gold.Chemscore.Hbond>
1.8978

> <Gold.Chemscore.Metal>
0.0000

> <Gold.Chemscore.Lipo>
101.4292

> <Gold.Chemscore.Internal_Hbond>
0.0000

> <Gold.Chemscore.DEClash>
0.0945

> <Gold.Chemscore.DEInternal>
1.1904

> <Gold.Chemscore.Rot>
2.9429

> <Gold.Chemscore.Internal.Correction>
   9.000000E+99

> <Gold.Chemscore.Hbonds>
donor molecule, donor type, donor heavy atom, donor atom, acceptor molecule, acceptor atom, score
      L1  H     9    27       P1  7949  0.49
      P1  H  6896  6908       L1     5  0.40
      P1  H 10752 10765       L1     9  0.78

> <Gold.Chemscore.Hbond.Weighted>
-6.3386

> <Gold.Chemscore.Metal.Weighted>
-0.0000

> <Gold.Chemscore.Lipo.Weighted>
-11.8672

> <Gold.Chemscore.Internal_Hbond.Weighted>
0.0000

> <Gold.Chemscore.DEClash.Weighted>
0.0945

> <Gold.Chemscore.DEInternal.Weighted>
1.1904

> <Gold.Chemscore.Rot.Weighted>
7.5337

> <Gold.Chemscore.Internal.Correction.Weighted>
   9.000000E+99

> <Gold.Protein.RotatedTorsions>
[ 6907 6896 6895 6894 ] final   78.78 input  -60.11 | X-H torsion
[ 7974 7965 7964 7962 ] final  160.31 input  175.53 | X-H torsion
[ 8008 7997 7996 7995 ] final   -0.21 input   59.86 | X-H torsion
[ 10167 10162 10161 10158 ] final  -98.42 input  -65.29 | X-H torsion
[ 10718 10713 10712 10709 ] final  131.57 input   66.30 | X-H torsion
[ 10763 10752 10751 10750 ] final  153.09 input  -60.55 | X-H torsion
[ 11005 11000 10999 10996 ] final  -71.56 input  -57.11 | X-H torsion

> <Gold.Protein.ActiveResidues>
 VAL166  LYS551  ARG553  GLY616  TRP617  ASP618  TYR619  PRO620  LYS621  CYS622 
 ASP623  PHE694  ASN695  SER759  ASP760  ASP761  ALA762  ILE779  LEU786  VAL792 
 PHE793  MET794  SER795  GLU796  ALA797  LYS798  CYS799  TRP800  GLU811  SER814 

> <Gold.Protein.RotatedAtoms>
  152.5173  134.3611  159.9284 H   0  0  0  0  0  0  0  0  0  0  0  0  # atno 6907 bound_to 6896
  151.3564  133.3900  159.2693 H   0  0  0  0  0  0  0  0  0  0  0  0  # atno 6908 bound_to 6896
  150.9687  134.9082  159.7832 H   0  0  0  0  0  0  0  0  0  0  0  0  # atno 6909 bound_to 6896
  144.7744  139.7739  143.6284 H   0  0  0  0  0  0  0  0  0  0  0  0  # atno 7974 bound_to 7965
  154.6606  140.2589  155.7113 H   0  0  0  0  0  0  0  0  0  0  0  0  # atno 8008 bound_to 7997
  156.2616  140.2849  156.0998 H   0  0  0  0  0  0  0  0  0  0  0  0  # atno 8009 bound_to 7997
  155.1314  140.0378  157.2766 H   0  0  0  0  0  0  0  0  0  0  0  0  # atno 8010 bound_to 7997
  140.2732  143.3330  152.0514 H   0  0  0  0  0  0  0  0  0  0  0  0  # atno 10167 bound_to 10162
  157.4955  131.1092  150.9499 H   0  0  0  0  0  0  0  0  0  0  0  0  # atno 10718 bound_to 10713
  154.1306  135.2827  155.3186 H   0  0  0  0  0  0  0  0  0  0  0  0  # atno 10763 bound_to 10752
  154.6358  135.5419  153.7736 H   0  0  0  0  0  0  0  0  0  0  0  0  # atno 10764 bound_to 10752
  153.0282  135.6474  154.1456 H   0  0  0  0  0  0  0  0  0  0  0  0  # atno 10765 bound_to 10752
  141.1594  133.6821  156.6925 H   0  0  0  0  0  0  0  0  0  0  0  0  # atno 11005 bound_to 11000
  146.1913  139.5155  142.9803 LP  0  0  0  0  0  0  0  0  0  0  0  0  # atno 17320 bound_to 7965
  145.6230  141.0319  143.1904 LP  0  0  0  0  0  0  0  0  0  0  0  0  # atno 17321 bound_to 7965
  139.4983  144.6642  151.6394 LP  0  0  0  0  0  0  0  0  0  0  0  0  # atno 17342 bound_to 10162
  140.5873  143.9842  150.6303 LP  0  0  0  0  0  0  0  0  0  0  0  0  # atno 17343 bound_to 10162
  157.0187  130.5665  149.5329 LP  0  0  0  0  0  0  0  0  0  0  0  0  # atno 17370 bound_to 10713
  156.0198  130.5293  150.8242 LP  0  0  0  0  0  0  0  0  0  0  0  0  # atno 17371 bound_to 10713
  140.3020  134.8156  157.4105 LP  0  0  0  0  0  0  0  0  0  0  0  0  # atno 17394 bound_to 11000
  140.1254  134.5165  155.8149 LP  0  0  0  0  0  0  0  0  0  0  0  0  # atno 17395 bound_to 11000

$$$$
