AV-unprocessed.smi:1754|AV-procd|sdf|7066|dock5
  -GOLD-   22720 8283D 1   1.00000     0.00000
 Structure written by MMmdl.
 44 45  0  0  0  0  0  0  0  0  1 V2000
  143.9548  132.8116  148.7738 C   0  0  0  0  0  0  0  0  0  0  0  0
  144.9130  132.2743  149.8487 C   0  0  0  0  0  0  0  0  0  0  0  0
  144.4386  132.5146  151.2138 N   0  0  0  0  0  0  0  0  0  0  0  0
  145.0633  131.7324  152.2803 C   0  0  0  0  0  0  0  0  0  0  0  0
  145.3761  130.2885  151.8585 C   0  0  0  0  0  0  0  0  0  0  0  0
  144.0730  133.8287  151.5826 C   0  0  0  0  0  0  0  0  0  0  0  0
  144.9750  134.8979  151.3751 C   0  0  0  0  0  0  0  0  0  0  0  0
  144.5915  136.2041  151.7343 C   0  0  0  0  0  0  0  0  0  0  0  0
  143.3118  136.4111  152.3003 C   0  0  0  0  0  0  0  0  0  0  0  0
  142.7941  137.6753  152.6933 N   0  0  0  0  0  0  0  0  0  0  0  0
  141.6187  137.9685  153.2843 C   0  0  0  0  0  0  0  0  0  0  0  0
  140.7536  137.1459  153.5752 O   0  0  0  0  0  0  0  0  0  0  0  0
  141.4354  139.2792  153.5260 N   0  0  0  0  0  0  0  0  0  0  0  0
  140.2850  139.9366  154.1482 C   0  0  2  0  0  0  0  0  0  0  0  0
  139.0697  139.9275  153.2017 C   0  0  0  0  0  0  0  0  0  0  0  0
  138.0268  140.9227  153.7256 C   0  0  0  0  0  0  0  0  0  0  0  0
  138.9678  142.2468  154.5754 S   0  0  0  0  0  0  0  0  0  0  0  0
  139.0143  143.4452  153.7241 O   0  0  0  0  0  0  0  0  0  0  0  0
  138.5185  142.3273  155.9735 O   0  0  0  0  0  0  0  0  0  0  0  0
  140.5908  141.4004  154.5062 C   0  0  0  0  0  0  0  0  0  0  0  0
  142.4795  135.2849  152.4570 C   0  0  0  0  0  0  0  0  0  0  0  0
  142.8430  134.0318  152.1138 N   0  0  0  0  0  0  0  0  0  0  0  0
  144.3256  132.5729  147.7771 H   0  0  0  0  0  0  0  0  0  0  0  0
  143.8399  133.8940  148.8277 H   0  0  0  0  0  0  0  0  0  0  0  0
  142.9653  132.3648  148.8737 H   0  0  0  0  0  0  0  0  0  0  0  0
  145.0331  131.2006  149.7018 H   0  0  0  0  0  0  0  0  0  0  0  0
  145.9052  132.7080  149.7186 H   0  0  0  0  0  0  0  0  0  0  0  0
  145.9727  132.2167  152.6341 H   0  0  0  0  0  0  0  0  0  0  0  0
  144.3893  131.7183  153.1375 H   0  0  0  0  0  0  0  0  0  0  0  0
  145.8233  129.7357  152.6847 H   0  0  0  0  0  0  0  0  0  0  0  0
  146.0787  130.2602  151.0251 H   0  0  0  0  0  0  0  0  0  0  0  0
  144.4738  129.7568  151.5555 H   0  0  0  0  0  0  0  0  0  0  0  0
  145.9546  134.7285  150.9534 H   0  0  0  0  0  0  0  0  0  0  0  0
  145.2831  137.0121  151.5569 H   0  0  0  0  0  0  0  0  0  0  0  0
  143.3737  138.4671  152.4564 H   0  0  0  0  0  0  0  0  0  0  0  0
  142.1801  139.8939  153.2300 H   0  0  0  0  0  0  0  0  0  0  0  0
  139.9937  139.4042  155.0556 H   0  0  0  0  0  0  0  0  0  0  0  0
  139.3862  140.2477  152.2078 H   0  0  0  0  0  0  0  0  0  0  0  0
  138.6475  138.9278  153.0933 H   0  0  0  0  0  0  0  0  0  0  0  0
  137.4083  141.3467  152.9342 H   0  0  0  0  0  0  0  0  0  0  0  0
  137.3756  140.4492  154.4604 H   0  0  0  0  0  0  0  0  0  0  0  0
  141.1126  141.5127  155.4569 H   0  0  0  0  0  0  0  0  0  0  0  0
  141.1823  141.8823  153.7269 H   0  0  0  0  0  0  0  0  0  0  0  0
  141.4885  135.3901  152.8740 H   0  0  0  0  0  0  0  0  0  0  0  0
  1  2  1  0  0  0  0
  1 23  1  0  0  0  0
  1 24  1  0  0  0  0
  1 25  1  0  0  0  0
  2  3  1  0  0  0  0
  2 26  1  0  0  0  0
  2 27  1  0  0  0  0
  3  4  1  0  0  0  0
  3  6  1  0  0  0  0
  4  5  1  0  0  0  0
  4 28  1  0  0  0  0
  4 29  1  0  0  0  0
  5 30  1  0  0  0  0
  5 31  1  0  0  0  0
  5 32  1  0  0  0  0
  6 22  1  0  0  0  0
  6  7  2  0  0  0  0
  7  8  1  0  0  0  0
  7 33  1  0  0  0  0
  8  9  2  0  0  0  0
  8 34  1  0  0  0  0
  9 10  1  0  0  0  0
  9 21  1  0  0  0  0
 10 11  1  0  0  0  0
 10 35  1  0  0  0  0
 11 12  2  0  0  0  0
 11 13  1  0  0  0  0
 13 14  1  0  0  0  0
 13 36  1  0  0  0  0
 14 20  1  0  0  0  0
 14 15  1  0  0  0  0
 14 37  1  0  0  0  0
 15 16  1  0  0  0  0
 15 38  1  0  0  0  0
 15 39  1  0  0  0  0
 16 17  1  0  0  0  0
 16 40  1  0  0  0  0
 16 41  1  0  0  0  0
 17 18  2  0  0  0  0
 17 19  2  0  0  0  0
 17 20  1  0  0  0  0
 20 42  1  0  0  0  0
 20 43  1  0  0  0  0
 21 22  2  0  0  0  0
 21 44  1  0  0  0  0
M  END
> <s_m_source_file>
AV-unprocessed.smi

> <i_m_source_file_index>
1754

> <i_lp_mmshare_version>
43012

> <i_f3d_flags>
0

> <s_epik_input>
W0NIM11bQ0gyXU4oW0NIMl1bQ0gzXSljMVtjSF1bY0hdYyhbY0hdbjEpW05IXUMoPU8pW05IXVtDQEBIXShbQ0gyXTIpW0NIMl1bQ0gyXVMyKD1PKT1P

> <s_epik_cmdline>
J2VwaWtfcHl0aG9uJywgJy1waCcsICc3LjAnLCAnLXRuJywgJzgnLCAnLW1hJywgJzIwMCcsICctbWV0YWxfYmluZGluZycsICctaW1hZScsICc8aW5maWxlLm1hZT4nLCAnLW9tYWUnLCAnPG91dGZpbGUubWFlPic=

> <r_lp_tautomer_probability>
1

> <r_epik_Ionization_Penalty>
0.615754

> <r_epik_Ionization_Penalty_Charging>
0

> <r_epik_Ionization_Penalty_Neutral>
0.615754

> <r_epik_State_Penalty>
2.08676

> <r_epik_Charging_Adjusted_Penalty>
2.08676

> <i_epik_Tot_Q>
0

> <i_epik_Tot_abs_Q>
0

> <r_epik_Metal_State_Penalty>
1.53042

> <b_epik_Metal_Only>
0

> <s_lp_Force_Field>
OPLS_2005

> <r_lp_Energy>
24.3589

> <b_lp_Chiralities_Consistent>
1

> <s_lp_Variant>
AV-unprocessed.smi:1754-3

> <Gold.Version>
5.8.1

> <Gold.Id.Protein>
6NUR|6NUR_protein|mol2

> <Gold.PLP.Fitness>
44.8812

> <Gold.PLP.PLP>
-38.4732

> <Gold.PLP.part.hbond>
-3.5018

> <Gold.PLP.part.metal>
0.0000

> <Gold.PLP.part.buried>
-5.7535

> <Gold.PLP.part.nonpolar>
-29.9544

> <Gold.PLP.part.repulsive>
0.4201

> <Gold.PLP.ligand.clash>
0.0000

> <Gold.PLP.ligand.torsion>
1.6665

> <Gold.PLP.Chemscore.Hbond>
2.9600

> <Gold.PLP.Chemscore.CHOScore>
0.0000

> <Gold.PLP.Chemscore.Metal>
0.0000

> <Gold.Chemscore.Hbonds>
donor molecule, donor type, donor heavy atom, donor atom, acceptor molecule, acceptor atom, score
      L1  H    10    35       P1 10175  0.96
      L1  H    13    36       P1 10175  1.00
      P1  H 10162 10167       L1    18  1.00

> <Gold.PLP.Chemscore.Internal.Correction>
0.8610

> <Gold.Rescore>
     Score         DG    S(hbond)    S(metal)    S(lipo)     H(rot)  DE(clash)    DE(int)     intcor
     17.10     -20.19       2.76        0.00      77.42       1.39       0.03       3.06       ----

> <Gold.Chemscore.Fitness>
17.1024

> <Gold.Chemscore.DG>
-20.1890

> <Gold.Chemscore.ZeroCoef>
-5.4800

> <Gold.Chemscore.Hbond>
2.7554

> <Gold.Chemscore.Metal>
0.0000

> <Gold.Chemscore.Lipo>
77.4213

> <Gold.Chemscore.Internal_Hbond>
0.0000

> <Gold.Chemscore.DEClash>
0.0315

> <Gold.Chemscore.DEInternal>
3.0552

> <Gold.Chemscore.Rot>
1.3876

> <Gold.Chemscore.Internal.Correction>
   9.000000E+99

> <Gold.Chemscore.Hbonds>
donor molecule, donor type, donor heavy atom, donor atom, acceptor molecule, acceptor atom, score
      L1  H    10    35       P1 10175  0.90
      L1  H    13    36       P1 10175  0.70
      P1  H 10162 10167       L1    18  0.96

> <Gold.Chemscore.Hbond.Weighted>
-9.2031

> <Gold.Chemscore.Metal.Weighted>
-0.0000

> <Gold.Chemscore.Lipo.Weighted>
-9.0583

> <Gold.Chemscore.Internal_Hbond.Weighted>
0.0000

> <Gold.Chemscore.DEClash.Weighted>
0.0315

> <Gold.Chemscore.DEInternal.Weighted>
3.0552

> <Gold.Chemscore.Rot.Weighted>
3.5524

> <Gold.Chemscore.Internal.Correction.Weighted>
   9.000000E+99

> <Gold.Protein.RotatedTorsions>
[ 6907 6896 6895 6894 ] final  -56.30 input  -60.11 | X-H torsion
[ 7974 7965 7964 7962 ] final  150.45 input  175.53 | X-H torsion
[ 8008 7997 7996 7995 ] final   53.15 input   59.86 | X-H torsion
[ 10167 10162 10161 10158 ] final -153.73 input  -65.29 | X-H torsion
[ 10718 10713 10712 10709 ] final  107.66 input   66.30 | X-H torsion
[ 10763 10752 10751 10750 ] final   -4.15 input  -60.55 | X-H torsion
[ 11005 11000 10999 10996 ] final -141.50 input  -57.11 | X-H torsion

> <Gold.Protein.ActiveResidues>
 VAL166  LYS551  ARG553  GLY616  TRP617  ASP618  TYR619  PRO620  LYS621  CYS622 
 ASP623  PHE694  ASN695  SER759  ASP760  ASP761  ALA762  ILE779  LEU786  VAL792 
 PHE793  MET794  SER795  GLU796  ALA797  LYS798  CYS799  TRP800  GLU811  SER814 

> <Gold.Protein.RotatedAtoms>
  150.8179  134.7371  159.6746 H   0  0  0  0  0  0  0  0  0  0  0  0  # atno 6907 bound_to 6896
  152.4297  134.5798  159.9954 H   0  0  0  0  0  0  0  0  0  0  0  0  # atno 6908 bound_to 6896
  151.5990  133.3321  159.3079 H   0  0  0  0  0  0  0  0  0  0  0  0  # atno 6909 bound_to 6896
  144.8363  139.6410  143.6036 H   0  0  0  0  0  0  0  0  0  0  0  0  # atno 7974 bound_to 7965
  155.4635  140.3462  155.4316 H   0  0  0  0  0  0  0  0  0  0  0  0  # atno 8008 bound_to 7997
  156.1146  140.1470  156.9320 H   0  0  0  0  0  0  0  0  0  0  0  0  # atno 8009 bound_to 7997
  154.4780  140.0879  156.7288 H   0  0  0  0  0  0  0  0  0  0  0  0  # atno 8010 bound_to 7997
  139.7072  143.9167  152.2453 H   0  0  0  0  0  0  0  0  0  0  0  0  # atno 10167 bound_to 10162
  157.6619  131.0877  150.6189 H   0  0  0  0  0  0  0  0  0  0  0  0  # atno 10718 bound_to 10713
  153.3809  135.6998  153.6566 H   0  0  0  0  0  0  0  0  0  0  0  0  # atno 10763 bound_to 10752
  153.5178  135.3618  155.2618 H   0  0  0  0  0  0  0  0  0  0  0  0  # atno 10764 bound_to 10752
  154.8692  135.4150  154.3107 H   0  0  0  0  0  0  0  0  0  0  0  0  # atno 10765 bound_to 10752
  140.8318  134.2508  157.4853 H   0  0  0  0  0  0  0  0  0  0  0  0  # atno 11005 bound_to 11000
  146.2661  139.6524  142.9328 LP  0  0  0  0  0  0  0  0  0  0  0  0  # atno 17320 bound_to 7965
  145.4787  141.0437  143.2658 LP  0  0  0  0  0  0  0  0  0  0  0  0  # atno 17321 bound_to 7965
  139.9026  144.6903  150.8649 LP  0  0  0  0  0  0  0  0  0  0  0  0  # atno 17342 bound_to 10162
  140.7724  143.3503  151.2028 LP  0  0  0  0  0  0  0  0  0  0  0  0  # atno 17343 bound_to 10162
  156.6492  130.4480  149.5725 LP  0  0  0  0  0  0  0  0  0  0  0  0  # atno 17370 bound_to 10713
  156.2151  130.6702  151.1310 LP  0  0  0  0  0  0  0  0  0  0  0  0  # atno 17371 bound_to 10713
  139.8705  134.9590  156.4317 LP  0  0  0  0  0  0  0  0  0  0  0  0  # atno 17394 bound_to 11000
  140.8990  133.7793  155.9658 LP  0  0  0  0  0  0  0  0  0  0  0  0  # atno 17395 bound_to 11000

$$$$
