AV-unprocessed.smi:3171|AV-procd|sdf|12111|dock3
  -GOLD-   2272017553D 1   1.00000     0.00000
 Structure written by MMmdl.
 33 34  0  0  0  0  0  0  0  0  1 V2000
  152.0749  144.4408  161.2023 C   0  0  0  0  0  0  0  0  0  0  0  0
  151.8641  143.4566  160.0653 C   0  0  0  0  0  0  0  0  0  0  0  0
  150.9119  143.8096  159.1746 N   0  0  0  0  0  0  0  0  0  0  0  0
  150.6451  143.0296  158.1261 N   0  0  0  0  0  0  0  0  0  0  0  0
  151.3188  141.8704  157.9289 C   0  0  0  0  0  0  0  0  0  0  0  0
  150.9884  141.1078  156.7925 N   0  0  0  0  0  0  0  0  0  0  0  0
  150.4533  141.7440  155.5941 C   0  0  0  0  0  0  0  0  0  0  0  0
  149.1405  141.0933  155.1293 C   0  0  2  0  0  0  0  0  0  0  0  0
  149.2960  139.6283  154.7312 C   0  0  0  0  0  0  0  0  0  0  0  0
  148.1110  139.3903  153.8103 C   0  0  0  0  0  0  0  0  0  0  0  0
  147.7017  140.7971  153.3630 C   0  0  0  0  0  0  0  0  0  0  0  0
  148.6753  141.6705  153.9196 O   0  0  0  0  0  0  0  0  0  0  0  0
  152.3336  141.4402  158.8235 C   0  0  0  0  0  0  0  0  0  0  0  0
  153.0646  140.1945  158.6000 C   0  0  0  0  0  0  0  0  0  0  0  0
  153.6436  139.2084  158.4229 N   0  0  0  0  0  0  0  0  0  0  0  0
  152.6149  142.2624  159.9438 C   0  0  0  0  0  0  0  0  0  0  0  0
  153.6856  141.8822  160.9636 C   0  0  0  0  0  0  0  0  0  0  0  0
  153.1168  144.7595  161.2435 H   0  0  0  0  0  0  0  0  0  0  0  0
  151.8107  143.9837  162.1559 H   0  0  0  0  0  0  0  0  0  0  0  0
  151.4602  145.3333  161.0776 H   0  0  0  0  0  0  0  0  0  0  0  0
  150.7622  140.1337  156.9328 H   0  0  0  0  0  0  0  0  0  0  0  0
  150.3318  142.8190  155.7301 H   0  0  0  0  0  0  0  0  0  0  0  0
  151.2031  141.6245  154.8119 H   0  0  0  0  0  0  0  0  0  0  0  0
  148.3694  141.1867  155.8969 H   0  0  0  0  0  0  0  0  0  0  0  0
  150.2242  139.4875  154.1753 H   0  0  0  0  0  0  0  0  0  0  0  0
  149.3111  138.9548  155.5885 H   0  0  0  0  0  0  0  0  0  0  0  0
  148.3841  138.7535  152.9681 H   0  0  0  0  0  0  0  0  0  0  0  0
  147.2909  138.9089  154.3443 H   0  0  0  0  0  0  0  0  0  0  0  0
  147.6704  140.8976  152.2778 H   0  0  0  0  0  0  0  0  0  0  0  0
  146.7178  141.0546  153.7571 H   0  0  0  0  0  0  0  0  0  0  0  0
  153.5701  140.8438  161.2766 H   0  0  0  0  0  0  0  0  0  0  0  0
  153.6473  142.4870  161.8680 H   0  0  0  0  0  0  0  0  0  0  0  0
  154.6772  141.9985  160.5253 H   0  0  0  0  0  0  0  0  0  0  0  0
  1  2  1  0  0  0  0
  1 18  1  0  0  0  0
  1 19  1  0  0  0  0
  1 20  1  0  0  0  0
  2 16  1  0  0  0  0
  2  3  2  0  0  0  0
  3  4  1  0  0  0  0
  4  5  2  0  0  0  0
  5  6  1  0  0  0  0
  5 13  1  0  0  0  0
  6  7  1  0  0  0  0
  6 21  1  0  0  0  0
  7  8  1  0  0  0  0
  7 22  1  0  0  0  0
  7 23  1  0  0  0  0
  8 12  1  0  0  0  0
  8  9  1  0  0  0  0
  8 24  1  0  0  0  0
  9 10  1  0  0  0  0
  9 25  1  0  0  0  0
  9 26  1  0  0  0  0
 10 11  1  0  0  0  0
 10 27  1  0  0  0  0
 10 28  1  0  0  0  0
 11 12  1  0  0  0  0
 11 29  1  0  0  0  0
 11 30  1  0  0  0  0
 13 14  1  0  0  0  0
 13 16  2  0  0  0  0
 14 15  3  0  0  0  0
 16 17  1  0  0  0  0
 17 31  1  0  0  0  0
 17 32  1  0  0  0  0
 17 33  1  0  0  0  0
M  END
> <s_m_source_file>
AV-unprocessed.smi

> <i_m_source_file_index>
3171

> <i_lp_mmshare_version>
43012

> <i_f3d_flags>
0

> <s_epik_input>
W0NIM11jMW5uYyhjKEMjTiljMVtDSDNdKVtOSF1bQ0gyXVtDQEBIXTJbQ0gyXVtDSDJdW0NIMl1PMg==

> <s_epik_cmdline>
J2VwaWtfcHl0aG9uJywgJy1waCcsICc3LjAnLCAnLXRuJywgJzgnLCAnLW1hJywgJzIwMCcsICctbWV0YWxfYmluZGluZycsICctaW1hZScsICc8aW5maWxlLm1hZT4nLCAnLW9tYWUnLCAnPG91dGZpbGUubWFlPic=

> <r_lp_tautomer_probability>
1

> <r_epik_Ionization_Penalty>
0.00108228

> <r_epik_Ionization_Penalty_Charging>
0

> <r_epik_Ionization_Penalty_Neutral>
0.00108228

> <r_epik_State_Penalty>
-0

> <r_epik_Charging_Adjusted_Penalty>
0

> <i_epik_Tot_Q>
0

> <i_epik_Tot_abs_Q>
0

> <r_epik_Metal_State_Penalty>
-0

> <b_epik_Metal_Only>
0

> <s_lp_Force_Field>
OPLS_2005

> <r_lp_Energy>
28.7028

> <b_lp_Chiralities_Consistent>
1

> <s_lp_Variant>
AV-unprocessed.smi:3171-1

> <Gold.Version>
5.8.1

> <Gold.Id.Protein>
6NUR|6NUR_protein|mol2

> <Gold.PLP.Fitness>
35.3676

> <Gold.PLP.PLP>
-32.2422

> <Gold.PLP.part.hbond>
-2.0000

> <Gold.PLP.part.metal>
0.0000

> <Gold.PLP.part.buried>
-1.8259

> <Gold.PLP.part.nonpolar>
-27.5684

> <Gold.PLP.part.repulsive>
0.4765

> <Gold.PLP.ligand.clash>
0.0000

> <Gold.PLP.ligand.torsion>
0.1941

> <Gold.PLP.Chemscore.Hbond>
1.1680

> <Gold.PLP.Chemscore.CHOScore>
0.0000

> <Gold.PLP.Chemscore.Metal>
0.0000

> <Gold.Chemscore.Hbonds>
donor molecule, donor type, donor heavy atom, donor atom, acceptor molecule, acceptor atom, score
      P1  H  7997  8008       L1    15  0.65
      P1  H  8011  8017       L1    12  0.53

> <Gold.PLP.Chemscore.Internal.Correction>
0.0097

> <Gold.Rescore>
     Score         DG    S(hbond)    S(metal)    S(lipo)     H(rot)  DE(clash)    DE(int)     intcor
     15.61     -16.08       1.07        0.00      86.72       1.22       0.29       0.18       ----

> <Gold.Chemscore.Fitness>
15.6074

> <Gold.Chemscore.DG>
-16.0841

> <Gold.Chemscore.ZeroCoef>
-5.4800

> <Gold.Chemscore.Hbond>
1.0708

> <Gold.Chemscore.Metal>
0.0000

> <Gold.Chemscore.Lipo>
86.7163

> <Gold.Chemscore.Internal_Hbond>
0.0000

> <Gold.Chemscore.DEClash>
0.2943

> <Gold.Chemscore.DEInternal>
0.1824

> <Gold.Chemscore.Rot>
1.2181

> <Gold.Chemscore.Internal.Correction>
   9.000000E+99

> <Gold.Chemscore.Hbonds>
donor molecule, donor type, donor heavy atom, donor atom, acceptor molecule, acceptor atom, score
      P1  H  7997  8008       L1    15  0.06
      P1  H  8011  8017       L1    12  0.31

> <Gold.Chemscore.Hbond.Weighted>
-3.5765

> <Gold.Chemscore.Metal.Weighted>
-0.0000

> <Gold.Chemscore.Lipo.Weighted>
-10.1458

> <Gold.Chemscore.Internal_Hbond.Weighted>
0.0000

> <Gold.Chemscore.DEClash.Weighted>
0.2943

> <Gold.Chemscore.DEInternal.Weighted>
0.1824

> <Gold.Chemscore.Rot.Weighted>
3.1182

> <Gold.Chemscore.Internal.Correction.Weighted>
   9.000000E+99

> <Gold.Protein.RotatedTorsions>
[ 6907 6896 6895 6894 ] final   75.42 input  -60.11 | X-H torsion
[ 7974 7965 7964 7962 ] final  -54.99 input  175.53 | X-H torsion
[ 8008 7997 7996 7995 ] final -106.09 input   59.86 | X-H torsion
[ 10167 10162 10161 10158 ] final  164.19 input  -65.29 | X-H torsion
[ 10718 10713 10712 10709 ] final   65.12 input   66.30 | X-H torsion
[ 10763 10752 10751 10750 ] final    2.71 input  -60.55 | X-H torsion
[ 11005 11000 10999 10996 ] final  -97.94 input  -57.11 | X-H torsion

> <Gold.Protein.ActiveResidues>
 VAL166  LYS551  ARG553  GLY616  TRP617  ASP618  TYR619  PRO620  LYS621  CYS622 
 ASP623  PHE694  ASN695  SER759  ASP760  ASP761  ALA762  ILE779  LEU786  VAL792 
 PHE793  MET794  SER795  GLU796  ALA797  LYS798  CYS799  TRP800  GLU811  SER814 

> <Gold.Protein.RotatedAtoms>
  152.5025  134.4122  159.9452 H   0  0  0  0  0  0  0  0  0  0  0  0  # atno 6907 bound_to 6896
  151.4091  133.3727  159.2749 H   0  0  0  0  0  0  0  0  0  0  0  0  # atno 6908 bound_to 6896
  150.9305  134.8741  159.7607 H   0  0  0  0  0  0  0  0  0  0  0  0  # atno 6909 bound_to 6896
  145.8793  140.8156  142.9848 H   0  0  0  0  0  0  0  0  0  0  0  0  # atno 7974 bound_to 7965
  154.9094  140.0410  157.1938 H   0  0  0  0  0  0  0  0  0  0  0  0  # atno 8008 bound_to 7997
  154.8363  140.2907  155.5667 H   0  0  0  0  0  0  0  0  0  0  0  0  # atno 8009 bound_to 7997
  156.2990  140.2491  156.3298 H   0  0  0  0  0  0  0  0  0  0  0  0  # atno 8010 bound_to 7997
  139.4885  144.4260  151.9128 H   0  0  0  0  0  0  0  0  0  0  0  0  # atno 10167 bound_to 10162
  157.6084  130.9197  149.9935 H   0  0  0  0  0  0  0  0  0  0  0  0  # atno 10718 bound_to 10713
  153.2923  135.6949  153.7281 H   0  0  0  0  0  0  0  0  0  0  0  0  # atno 10763 bound_to 10752
  153.6228  135.3424  155.3017 H   0  0  0  0  0  0  0  0  0  0  0  0  # atno 10764 bound_to 10752
  154.8527  135.4390  154.2009 H   0  0  0  0  0  0  0  0  0  0  0  0  # atno 10765 bound_to 10752
  141.1362  133.8208  157.0773 H   0  0  0  0  0  0  0  0  0  0  0  0  # atno 11005 bound_to 11000
  144.6727  140.1359  143.7440 LP  0  0  0  0  0  0  0  0  0  0  0  0  # atno 17320 bound_to 7965
  145.9042  139.2448  143.1475 LP  0  0  0  0  0  0  0  0  0  0  0  0  # atno 17321 bound_to 7965
  140.3706  144.2860  150.5920 LP  0  0  0  0  0  0  0  0  0  0  0  0  # atno 17342 bound_to 10162
  140.5322  143.2241  151.8220 LP  0  0  0  0  0  0  0  0  0  0  0  0  # atno 17343 bound_to 10162
  156.1179  130.3647  149.9937 LP  0  0  0  0  0  0  0  0  0  0  0  0  # atno 17370 bound_to 10713
  156.8023  130.9295  151.3645 LP  0  0  0  0  0  0  0  0  0  0  0  0  # atno 17371 bound_to 10713
  140.0473  134.9823  157.1073 LP  0  0  0  0  0  0  0  0  0  0  0  0  # atno 17394 bound_to 11000
  140.4043  134.2049  155.7163 LP  0  0  0  0  0  0  0  0  0  0  0  0  # atno 17395 bound_to 11000

$$$$
