AV-unprocessed.smi:1005|AV-procd|sdf|4367|dock9
  -GOLD-   22720 2273D 1   1.00000     0.00000
 Structure written by MMmdl.
 57 59  0  0  0  0  0  0  0  0  3 V2000
  153.0916  141.9417  160.5870 C   0  0  0  0  0  0  0  0  0  0  0  0
  152.2981  141.6902  159.3170 C   0  0  0  0  0  0  0  0  0  0  0  0
  152.4442  140.4536  158.6488 C   0  0  0  0  0  0  0  0  0  0  0  0
  151.7234  140.1802  157.4658 C   0  0  0  0  0  0  0  0  0  0  0  0
  151.7094  139.0536  156.6613 N   0  0  0  0  0  0  0  0  0  0  0  0
  150.8414  139.4078  155.7185 C   0  0  0  0  0  0  0  0  0  0  0  0
  150.2862  140.6310  155.8188 N   0  0  0  0  0  0  0  0  0  0  0  0
  149.3166  141.2266  154.9158 C   0  0  0  0  0  0  0  0  0  0  0  0
  147.8821  141.1868  155.4782 C   0  0  1  0  0  0  0  0  0  0  0  0
  147.7744  142.0908  156.5615 O   0  0  0  0  0  0  0  0  0  0  0  0
  146.8395  141.5736  154.4096 C   0  0  0  0  0  0  0  0  0  0  0  0
  146.3746  140.4106  153.6101 N   0  3  1  0  0  0  0  0  0  0  0  0
  147.0509  140.3184  152.2949 C   0  0  0  0  0  0  0  0  0  0  0  0
  146.4812  139.1453  151.4809 C   0  0  0  0  0  0  0  0  0  0  0  0
  146.6130  137.9401  152.2250 O   0  0  0  0  0  0  0  0  0  0  0  0
  145.8893  137.9770  153.4508 C   0  0  1  0  0  0  0  0  0  0  0  0
  146.0357  136.6038  154.1338 C   0  0  0  0  0  0  0  0  0  0  0  0
  147.4381  136.1128  154.1551 N   0  3  0  0  0  0  0  0  0  0  0  0
  147.5489  134.6496  154.3592 C   0  0  0  0  0  0  0  0  0  0  0  0
  148.2717  136.8573  155.1251 C   0  0  0  0  0  0  0  0  0  0  0  0
  146.4599  139.1125  154.3246 C   0  0  0  0  0  0  0  0  0  0  0  0
  150.8461  141.1861  156.9650 C   0  0  0  0  0  0  0  0  0  0  0  0
  150.6941  142.4211  157.6196 C   0  0  0  0  0  0  0  0  0  0  0  0
  151.4201  142.6772  158.8015 C   0  0  0  0  0  0  0  0  0  0  0  0
  151.2466  144.0129  159.5022 C   0  0  0  0  0  0  0  0  0  0  0  0
  153.7366  141.0963  160.8284 H   0  0  0  0  0  0  0  0  0  0  0  0
  152.4202  142.1021  161.4309 H   0  0  0  0  0  0  0  0  0  0  0  0
  153.7237  142.8227  160.4743 H   0  0  0  0  0  0  0  0  0  0  0  0
  153.1131  139.7016  159.0414 H   0  0  0  0  0  0  0  0  0  0  0  0
  150.5928  138.7379  154.9084 H   0  0  0  0  0  0  0  0  0  0  0  0
  149.6210  142.2528  154.7053 H   0  0  0  0  0  0  0  0  0  0  0  0
  149.3612  140.6896  153.9674 H   0  0  0  0  0  0  0  0  0  0  0  0
  147.6889  140.1819  155.8524 H   0  0  0  0  0  0  0  0  0  0  0  0
  148.0231  142.9523  156.2600 H   0  0  0  0  0  0  0  0  0  0  0  0
  145.9843  142.0280  154.9131 H   0  0  0  0  0  0  0  0  0  0  0  0
  147.2400  142.3370  153.7408 H   0  0  0  0  0  0  0  0  0  0  0  0
  146.9148  141.2477  151.7402 H   0  0  0  0  0  0  0  0  0  0  0  0
  148.1241  140.1859  152.4423 H   0  0  0  0  0  0  0  0  0  0  0  0
  145.4342  139.3182  151.2267 H   0  0  0  0  0  0  0  0  0  0  0  0
  147.0236  139.0414  150.5409 H   0  0  0  0  0  0  0  0  0  0  0  0
  144.8382  138.1863  153.2502 H   0  0  0  0  0  0  0  0  0  0  0  0
  145.6668  136.6911  155.1571 H   0  0  0  0  0  0  0  0  0  0  0  0
  145.4039  135.8620  153.6427 H   0  0  0  0  0  0  0  0  0  0  0  0
  147.1230  134.3547  155.3192 H   0  0  0  0  0  0  0  0  0  0  0  0
  148.5945  134.3398  154.3453 H   0  0  0  0  0  0  0  0  0  0  0  0
  147.0403  134.0926  153.5736 H   0  0  0  0  0  0  0  0  0  0  0  0
  147.9058  136.7178  156.1431 H   0  0  0  0  0  0  0  0  0  0  0  0
  148.2664  137.9246  154.9022 H   0  0  0  0  0  0  0  0  0  0  0  0
  149.3080  136.5195  155.0849 H   0  0  0  0  0  0  0  0  0  0  0  0
  147.5001  138.9061  154.5828 H   0  0  0  0  0  0  0  0  0  0  0  0
  145.9026  139.1578  155.2594 H   0  0  0  0  0  0  0  0  0  0  0  0
  150.0220  143.1643  157.2169 H   0  0  0  0  0  0  0  0  0  0  0  0
  150.5113  144.6366  158.9934 H   0  0  0  0  0  0  0  0  0  0  0  0
  152.1908  144.5575  159.5229 H   0  0  0  0  0  0  0  0  0  0  0  0
  150.9078  143.8670  160.5282 H   0  0  0  0  0  0  0  0  0  0  0  0
  147.8286  136.3136  153.2452 H   0  0  0  0  0  0  0  0  0  0  0  0
  145.3978  140.5808  153.4146 H   0  0  0  0  0  0  0  0  0  0  0  0
  1  2  1  0  0  0  0
  1 26  1  0  0  0  0
  1 27  1  0  0  0  0
  1 28  1  0  0  0  0
  2 24  1  0  0  0  0
  2  3  2  0  0  0  0
  3  4  1  0  0  0  0
  3 29  1  0  0  0  0
  4 22  2  0  0  0  0
  4  5  1  0  0  0  0
  5  6  2  0  0  0  0
  6  7  1  0  0  0  0
  6 30  1  0  0  0  0
  7  8  1  0  0  0  0
  7 22  1  0  0  0  0
  8  9  1  0  0  0  0
  8 31  1  0  0  0  0
  8 32  1  0  0  0  0
  9 10  1  0  0  0  0
  9 11  1  0  0  0  0
  9 33  1  0  0  0  0
 10 34  1  0  0  0  0
 11 12  1  0  0  0  0
 11 35  1  0  0  0  0
 11 36  1  0  0  0  0
 12 21  1  0  0  0  0
 12 13  1  0  0  0  0
 12 57  1  0  0  0  0
 13 14  1  0  0  0  0
 13 37  1  0  0  0  0
 13 38  1  0  0  0  0
 14 15  1  0  0  0  0
 14 39  1  0  0  0  0
 14 40  1  0  0  0  0
 15 16  1  0  0  0  0
 16 17  1  0  0  0  0
 16 21  1  0  0  0  0
 16 41  1  0  0  0  0
 17 18  1  0  0  0  0
 17 42  1  0  0  0  0
 17 43  1  0  0  0  0
 18 19  1  0  0  0  0
 18 20  1  0  0  0  0
 18 56  1  0  0  0  0
 19 44  1  0  0  0  0
 19 45  1  0  0  0  0
 19 46  1  0  0  0  0
 20 47  1  0  0  0  0
 20 48  1  0  0  0  0
 20 49  1  0  0  0  0
 21 50  1  0  0  0  0
 21 51  1  0  0  0  0
 22 23  1  0  0  0  0
 23 24  2  0  0  0  0
 23 52  1  0  0  0  0
 24 25  1  0  0  0  0
 25 53  1  0  0  0  0
 25 54  1  0  0  0  0
 25 55  1  0  0  0  0
M  CHG  1  12   1
M  CHG  1  18   1
M  END
> <s_m_source_file>
AV-unprocessed.smi

> <i_m_source_file_index>
1005

> <i_lp_mmshare_version>
43012

> <i_f3d_flags>
0

> <s_epik_input>
W0NIM11jKFtjSF0xKWMoW0NIM10pW2NIXWMoYzEyKW4oW2NIXW4yKVtDSDJdW0NASF0oW09IXSlbQ0gyXU4zW0NIMl1bQ0gyXU9bQ0BIXShbQ0gyXTMpW0NIMl1OKFtDSDNdKVtDSDNd

> <s_epik_cmdline>
J2VwaWtfcHl0aG9uJywgJy1waCcsICc3LjAnLCAnLXRuJywgJzgnLCAnLW1hJywgJzIwMCcsICctbWV0YWxfYmluZGluZycsICctaW1hZScsICc8aW5maWxlLm1hZT4nLCAnLW9tYWUnLCAnPG91dGZpbGUubWFlPic=

> <r_epik_Ionization_Penalty>
1.0968

> <r_epik_Ionization_Penalty_Charging>
1.0096

> <r_epik_Ionization_Penalty_Neutral>
0.0871956

> <r_epik_State_Penalty>
1.31185

> <r_epik_Charging_Adjusted_Penalty>
2.32145

> <i_epik_Tot_Q>
2

> <i_epik_Tot_abs_Q>
2

> <r_epik_Metal_State_Penalty>
1.22442

> <b_epik_Metal_Only>
0

> <s_lp_Force_Field>
OPLS_2005

> <r_lp_Energy>
33.8035

> <b_lp_Chiralities_Consistent>
1

> <s_lp_Variant>
AV-unprocessed.smi:1005-6

> <Gold.Version>
5.8.1

> <Gold.Id.Protein>
6NUR|6NUR_protein|mol2

> <Gold.PLP.Fitness>
55.3291

> <Gold.PLP.PLP>
-42.9186

> <Gold.PLP.part.hbond>
-3.0000

> <Gold.PLP.part.metal>
0.0000

> <Gold.PLP.part.buried>
0.2720

> <Gold.PLP.part.nonpolar>
-41.8111

> <Gold.PLP.part.repulsive>
1.7826

> <Gold.PLP.ligand.clash>
0.0000

> <Gold.PLP.ligand.torsion>
1.3542

> <Gold.PLP.Chemscore.Hbond>
5.0000

> <Gold.PLP.Chemscore.CHOScore>
0.0000

> <Gold.PLP.Chemscore.Metal>
0.0000

> <Gold.Chemscore.Hbonds>
donor molecule, donor type, donor heavy atom, donor atom, acceptor molecule, acceptor atom, score
      L1  H    10    34       P1  8028  0.98
      L1  H    12    57       P1 10175  2.00
      L1  H    18    56       P1  7948  2.00

> <Gold.PLP.Chemscore.Internal.Correction>
0.1189

> <Gold.Rescore>
     Score         DG    S(hbond)    S(metal)    S(lipo)     H(rot)  DE(clash)    DE(int)     intcor
     19.25     -23.67       2.78        0.00     130.45       2.48       2.82       1.60       ----

> <Gold.Chemscore.Fitness>
19.2464

> <Gold.Chemscore.DG>
-23.6739

> <Gold.Chemscore.ZeroCoef>
-5.4800

> <Gold.Chemscore.Hbond>
2.7796

> <Gold.Chemscore.Metal>
0.0000

> <Gold.Chemscore.Lipo>
130.4467

> <Gold.Chemscore.Internal_Hbond>
0.0000

> <Gold.Chemscore.DEClash>
2.8227

> <Gold.Chemscore.DEInternal>
1.6048

> <Gold.Chemscore.Rot>
2.4814

> <Gold.Chemscore.Internal.Correction>
   9.000000E+99

> <Gold.Chemscore.Hbonds>
donor molecule, donor type, donor heavy atom, donor atom, acceptor molecule, acceptor atom, score
      L1  H    10    34       P1  8028  0.46
      L1  H    12    57       P1 10175  0.93
      L1  H    18    56       P1  7948  0.99

> <Gold.Chemscore.Hbond.Weighted>
-9.2840

> <Gold.Chemscore.Metal.Weighted>
-0.0000

> <Gold.Chemscore.Lipo.Weighted>
-15.2623

> <Gold.Chemscore.Internal_Hbond.Weighted>
0.0000

> <Gold.Chemscore.DEClash.Weighted>
2.8227

> <Gold.Chemscore.DEInternal.Weighted>
1.6048

> <Gold.Chemscore.Rot.Weighted>
6.3524

> <Gold.Chemscore.Internal.Correction.Weighted>
   9.000000E+99

> <Gold.Protein.RotatedTorsions>
[ 6907 6896 6895 6894 ] final   55.56 input  -60.11 | X-H torsion
[ 7974 7965 7964 7962 ] final  159.54 input  175.53 | X-H torsion
[ 8008 7997 7996 7995 ] final -164.18 input   59.86 | X-H torsion
[ 10167 10162 10161 10158 ] final  -20.77 input  -65.29 | X-H torsion
[ 10718 10713 10712 10709 ] final -171.96 input   66.30 | X-H torsion
[ 10763 10752 10751 10750 ] final   81.81 input  -60.55 | X-H torsion
[ 11005 11000 10999 10996 ] final  -23.13 input  -57.11 | X-H torsion

> <Gold.Protein.ActiveResidues>
 VAL166  LYS551  ARG553  GLY616  TRP617  ASP618  TYR619  PRO620  LYS621  CYS622 
 ASP623  PHE694  ASN695  SER759  ASP760  ASP761  ALA762  ILE779  LEU786  VAL792 
 PHE793  MET794  SER795  GLU796  ALA797  LYS798  CYS799  TRP800  GLU811  SER814 

> <Gold.Protein.RotatedAtoms>
  152.3550  134.6952  160.0224 H   0  0  0  0  0  0  0  0  0  0  0  0  # atno 6907 bound_to 6896
  151.7294  133.3312  159.3344 H   0  0  0  0  0  0  0  0  0  0  0  0  # atno 6908 bound_to 6896
  150.7565  134.6310  159.6231 H   0  0  0  0  0  0  0  0  0  0  0  0  # atno 6909 bound_to 6896
  144.7785  139.7631  143.6269 H   0  0  0  0  0  0  0  0  0  0  0  0  # atno 7974 bound_to 7965
  155.8320  140.0935  157.1787 H   0  0  0  0  0  0  0  0  0  0  0  0  # atno 8008 bound_to 7997
  154.3980  140.1417  156.3686 H   0  0  0  0  0  0  0  0  0  0  0  0  # atno 8009 bound_to 7997
  155.8156  140.3448  155.5486 H   0  0  0  0  0  0  0  0  0  0  0  0  # atno 8010 bound_to 7997
  140.7278  143.4691  151.0272 H   0  0  0  0  0  0  0  0  0  0  0  0  # atno 10167 bound_to 10162
  156.7486  130.9369  151.3113 H   0  0  0  0  0  0  0  0  0  0  0  0  # atno 10718 bound_to 10713
  153.1148  135.4751  154.9097 H   0  0  0  0  0  0  0  0  0  0  0  0  # atno 10763 bound_to 10752
  154.7518  135.3108  154.8546 H   0  0  0  0  0  0  0  0  0  0  0  0  # atno 10764 bound_to 10752
  153.9126  135.6863  153.4804 H   0  0  0  0  0  0  0  0  0  0  0  0  # atno 10765 bound_to 10752
  140.8722  133.7712  156.0201 H   0  0  0  0  0  0  0  0  0  0  0  0  # atno 11005 bound_to 11000
  146.1979  139.5256  142.9762 LP  0  0  0  0  0  0  0  0  0  0  0  0  # atno 17320 bound_to 7965
  145.6118  141.0338  143.1962 LP  0  0  0  0  0  0  0  0  0  0  0  0  # atno 17321 bound_to 7965
  139.8381  143.7600  152.3180 LP  0  0  0  0  0  0  0  0  0  0  0  0  # atno 17342 bound_to 10162
  139.7739  144.7467  151.0184 LP  0  0  0  0  0  0  0  0  0  0  0  0  # atno 17343 bound_to 10162
  157.6787  130.9119  150.0213 LP  0  0  0  0  0  0  0  0  0  0  0  0  # atno 17370 bound_to 10713
  156.1416  130.3642  149.9573 LP  0  0  0  0  0  0  0  0  0  0  0  0  # atno 17371 bound_to 10713
  140.8559  134.2898  157.5255 LP  0  0  0  0  0  0  0  0  0  0  0  0  # atno 17394 bound_to 11000
  139.8713  134.9493  156.4020 LP  0  0  0  0  0  0  0  0  0  0  0  0  # atno 17395 bound_to 11000

$$$$
