#       Name:                AV-unprocessed.smi:3323
#       Creating user name   scv26
#       Creation time:       Fri Mar 27 19:12:26 2020


#       File generated by GOLD software.
#

@<TRIPOS>MOLECULE
AV-unprocessed.smi:3323
    42    43     1
SMALL
NO_CHARGES


@<TRIPOS>ATOM
      1 ****        -3.3781  -2.7115   1.0765 C.3            1 S1                 0.0000
      2 ****        -2.7777  -2.0259  -0.1559 C.3            1 S1                 0.0000
      3 ****        -1.2419  -1.9389  -0.0794 C.3            1 S1                 0.0000
      4 ****        -0.6620  -1.3144  -1.3619 C.3            1 S1                 0.0000
      5 ****         0.8803  -1.2747  -1.3656 C.3            1 S1                 0.0000
      6 ****         1.4224  -0.5201  -0.2403 N.am           1 S1                 0.0000
      7 ****         1.5124   0.8156  -0.1782 C.2            1 S1                 0.0000
      8 ****         1.1501   1.5619  -1.0871 O.2            1 S1                 0.0000
      9 ****         2.0526   1.2079   0.9885 N.am           1 S1                 0.0000
     10 ****         2.3461   2.5231   1.4417 C.ar           1 S1                 0.0000
     11 ****         1.8012   3.7067   0.8865 C.ar           1 S1                 0.0000
     12 ****         2.1705   4.9486   1.4383 C.ar           1 S1                 0.0000
     13 ****         3.0633   4.9631   2.5272 C.ar           1 S1                 0.0000
     14 ****         3.5797   3.8432   3.0752 N.ar           1 S1                 0.0000
     15 ****         3.2212   2.6564   2.5408 C.ar           1 S1                 0.0000
     16 ****        -1.2030  -2.0872  -2.5749 C.3            1 S1                 0.0000
     17 ****        -2.7368  -2.1734  -2.5291 C.3            1 S1                 0.0000
     18 ****        -3.1538  -2.7746  -1.3081 O.3            1 S1                 0.0000
     19 ****        -3.1273  -2.1692   1.9884 H              1 S1                 0.0000
     20 ****        -3.0082  -3.7320   1.1807 H              1 S1                 0.0000
     21 ****        -4.4651  -2.7565   1.0063 H              1 S1                 0.0000
     22 ****        -3.1977  -1.0213  -0.2316 H              1 S1                 0.0000
     23 ****        -0.9542  -1.3517   0.7933 H              1 S1                 0.0000
     24 ****        -0.8246  -2.9366   0.0642 H              1 S1                 0.0000
     25 ****        -1.0288  -0.2892  -1.4331 H              1 S1                 0.0000
     26 ****         1.2786  -2.2883  -1.3122 H              1 S1                 0.0000
     27 ****         1.2467  -0.8514  -2.3023 H              1 S1                 0.0000
     28 ****         1.7485  -1.0560   0.5506 H              1 S1                 0.0000
     29 ****         2.3447   0.4666   1.6082 H              1 S1                 0.0000
     30 ****         1.1049   3.6923   0.0630 H              1 S1                 0.0000
     31 ****         1.7753   5.8699   1.0369 H              1 S1                 0.0000
     32 ****         3.3673   5.8988   2.9729 H              1 S1                 0.0000
     33 ****         3.6532   1.7816   3.0049 H              1 S1                 0.0000
     34 ****        -0.8866  -1.6058  -3.5008 H              1 S1                 0.0000
     35 ****        -0.7859  -3.0951  -2.5885 H              1 S1                 0.0000
     36 ****        -3.1863  -1.1847  -2.6336 H              1 S1                 0.0000
     37 ****        -3.1018  -2.7773  -3.3600 H              1 S1                 0.0000
     38 ****         0.7651   1.1776  -1.9262 LP             1 S1                 0.0000
     39 ****         1.2407   2.5527  -0.9866 LP             1 S1                 0.0000
     40 ****         4.2076   3.8909   3.8520 LP             1 S1                 0.0000
     41 ****        -4.1500  -2.8602  -1.3202 LP             1 S1                 0.0000
     42 ****        -2.7419  -3.6836  -1.2447 LP             1 S1                 0.0000
@<TRIPOS>BOND
    1    1    2 1     
    2    1   19 1     
    3    1   20 1     
    4    1   21 1     
    5    2   18 1     
    6    2    3 1     
    7    2   22 1     
    8    3    4 1     
    9    3   23 1     
   10    3   24 1     
   11    4    5 1     
   12    4   16 1     
   13    4   25 1     
   14    5    6 1     
   15    5   26 1     
   16    5   27 1     
   17    6    7 am    
   18    6   28 1     
   19    7    8 2     
   20    7    9 am    
   21    9   10 1     
   22    9   29 1     
   23   10   15 ar    
   24   10   11 ar    
   25   11   12 ar    
   26   11   30 1     
   27   12   13 ar    
   28   12   31 1     
   29   13   14 ar    
   30   13   32 1     
   31   14   15 ar    
   32   15   33 1     
   33   16   17 1     
   34   16   34 1     
   35   16   35 1     
   36   17   18 1     
   37   17   36 1     
   38   17   37 1     
   39    8   38 1     
   40    8   39 1     
   41   14   40 1     
   42   18   41 1     
   43   18   42 1     
@<TRIPOS>SUBSTRUCTURE
      1 S1             1
@<TRIPOS>SET
LONE_PAIRS      STATIC     ATOMS    <user>   **** ""
5 38 39 40 41 42
DONOR_HYDROGENS      STATIC     ATOMS    <user>   **** ""
2 28 29
ATOM$BLUE        STATIC     ATOMS    COLORGROUP SYSTEM
5 38 39 40 41 42
ATOM$RED        STATIC     ATOMS    COLORGROUP SYSTEM
2 28 29
