#       Name:                AV-unprocessed.smi:1179
#       Creating user name   scv26
#       Creation time:       Fri Mar 27 03:55:05 2020


#       File generated by GOLD software.
#

@<TRIPOS>MOLECULE
AV-unprocessed.smi:1179
    50    51     1
SMALL
NO_CHARGES


@<TRIPOS>ATOM
      1 ****        -5.6876   1.5771  -0.6848 C.3            1 S1                 0.0000
      2 ****        -4.7720   0.6525  -1.4314 C.2            1 S1                 0.0000
      3 ****        -4.2161   0.8223  -2.7300 C.2            1 S1                 0.0000
      4 ****        -3.4619  -0.3003  -2.9246 C.2            1 S1                 0.0000
      5 ****        -2.6290  -0.7099  -4.0945 C.3            1 S1                 0.0000
      6 ****        -3.5887  -1.0717  -1.7827 N.pl3          1 S1                 0.0000
      7 ****        -2.9848  -2.3584  -1.4718 C.3            1 S1                 0.0000
      8 ****        -1.5726  -2.1870  -0.9097 C.2            1 S1                 0.0000
      9 ****        -0.5959  -2.5092  -1.5858 O.2            1 S1                 0.0000
     10 ****        -1.4772  -1.6765   0.3280 N.am           1 S1                 0.0000
     11 ****        -0.2273  -1.4199   1.0318 C.3            1 S1                 0.0000
     12 ****         0.4489  -0.1319   0.5231 C.3            1 S1                 0.0000
     13 ****         1.7048   0.1752   1.2522 N.4            1 S1                 1.0000
     14 ****         2.0587   1.6163   1.1750 C.3            1 S1                 0.0000
     15 ****         3.2843   1.9369   2.0470 C.3            1 S1                 0.0000
     16 ****         4.4920   1.0704   1.6532 C.3            1 S1                 0.0000
     17 ****         5.7126   1.3592   2.5383 C.3            1 S1                 0.0000
     18 ****         4.0880  -0.4124   1.7062 C.3            1 S1                 0.0000
     19 ****         2.8459  -0.6860   0.8413 C.3            1 S1                 0.0000
     20 ****        -4.3906  -0.4823  -0.8684 N.2            1 S1                 0.0000
     21 ****        -5.9922   2.4178  -1.3083 H              1 S1                 0.0000
     22 ****        -5.1990   1.9814   0.2019 H              1 S1                 0.0000
     23 ****        -6.5919   1.0604  -0.3620 H              1 S1                 0.0000
     24 ****        -4.3512   1.6453  -3.4161 H              1 S1                 0.0000
     25 ****        -2.6574   0.0491  -4.8765 H              1 S1                 0.0000
     26 ****        -2.9913  -1.6447  -4.5220 H              1 S1                 0.0000
     27 ****        -1.5885  -0.8499  -3.8019 H              1 S1                 0.0000
     28 ****        -3.6080  -2.8896  -0.7504 H              1 S1                 0.0000
     29 ****        -2.9585  -2.9679  -2.3758 H              1 S1                 0.0000
     30 ****        -2.3338  -1.4385   0.8080 H              1 S1                 0.0000
     31 ****        -0.4507  -1.3269   2.0948 H              1 S1                 0.0000
     32 ****         0.4252  -2.2870   0.9262 H              1 S1                 0.0000
     33 ****         0.6537  -0.1892  -0.5471 H              1 S1                 0.0000
     34 ****        -0.2559   0.6903   0.6559 H              1 S1                 0.0000
     35 ****         2.2527   1.8894   0.1362 H              1 S1                 0.0000
     36 ****         1.2163   2.2223   1.5105 H              1 S1                 0.0000
     37 ****         3.5353   2.9939   1.9505 H              1 S1                 0.0000
     38 ****         3.0370   1.7732   3.0970 H              1 S1                 0.0000
     39 ****         4.7638   1.3130   0.6246 H              1 S1                 0.0000
     40 ****         5.5082   1.1315   3.5850 H              1 S1                 0.0000
     41 ****         6.0029   2.4085   2.4770 H              1 S1                 0.0000
     42 ****         6.5708   0.7620   2.2293 H              1 S1                 0.0000
     43 ****         4.9150  -1.0367   1.3661 H              1 S1                 0.0000
     44 ****         3.8846  -0.7050   2.7374 H              1 S1                 0.0000
     45 ****         2.5814  -1.7387   0.9318 H              1 S1                 0.0000
     46 ****         3.0764  -0.5097  -0.2105 H              1 S1                 0.0000
     47 ****         1.5246  -0.0177   2.2271 H              1 S1                 0.0000
     48 ****        -0.7250  -2.8837  -2.5040 LP             1 S1                 0.0000
     49 ****         0.3267  -2.3966  -1.2169 LP             1 S1                 0.0000
     50 ****        -4.6409  -0.8283   0.0358 LP             1 S1                 0.0000
@<TRIPOS>BOND
    1    1    2 1     
    2    1   21 1     
    3    1   22 1     
    4    1   23 1     
    5    2   20 2     
    6    2    3 1     
    7    3    4 2     
    8    3   24 1     
    9    4    5 1     
   10    4    6 1     
   11    5   25 1     
   12    5   26 1     
   13    5   27 1     
   14    6    7 1     
   15    6   20 1     
   16    7    8 1     
   17    7   28 1     
   18    7   29 1     
   19    8    9 2     
   20    8   10 am    
   21   10   11 1     
   22   10   30 1     
   23   11   12 1     
   24   11   31 1     
   25   11   32 1     
   26   12   13 1     
   27   12   33 1     
   28   12   34 1     
   29   13   19 1     
   30   13   14 1     
   31   13   47 1     
   32   14   15 1     
   33   14   35 1     
   34   14   36 1     
   35   15   16 1     
   36   15   37 1     
   37   15   38 1     
   38   16   17 1     
   39   16   18 1     
   40   16   39 1     
   41   17   40 1     
   42   17   41 1     
   43   17   42 1     
   44   18   19 1     
   45   18   43 1     
   46   18   44 1     
   47   19   45 1     
   48   19   46 1     
   49    9   48 1     
   50    9   49 1     
   51   20   50 1     
@<TRIPOS>SUBSTRUCTURE
      1 S1             1
@<TRIPOS>SET
LONE_PAIRS      STATIC     ATOMS    <user>   **** ""
3 48 49 50
DONOR_HYDROGENS      STATIC     ATOMS    <user>   **** ""
2 30 47
ATOM$BLUE        STATIC     ATOMS    COLORGROUP SYSTEM
3 48 49 50
ATOM$RED        STATIC     ATOMS    COLORGROUP SYSTEM
2 30 47
