AV-unprocessed.smi:1550|AV-procd|sdf|6226|dock7
  -GOLD-   22720 6403D 1   1.00000     0.00000
 Structure written by MMmdl.
 43 44  0  0  0  0  0  0  0  0  1 V2000
  151.4403  137.9531  157.7344 C   0  0  0  0  0  0  0  0  0  0  0  0
  152.1685  138.8890  156.7585 C   0  0  2  0  0  0  0  0  0  0  0  0
  152.5792  140.0388  157.4934 O   0  0  0  0  0  0  0  0  0  0  0  0
  151.5311  140.9040  157.9165 C   0  0  0  0  0  0  0  0  0  0  0  0
  152.1507  142.1147  158.6257 C   0  0  1  0  0  0  0  0  0  0  0  0
  151.5744  143.4450  158.1021 C   0  0  0  0  0  0  0  0  0  0  0  0
  152.1436  144.6281  158.8938 C   0  0  0  0  0  0  0  0  0  0  0  0
  151.9258  144.3987  160.3931 C   0  0  0  0  0  0  0  0  0  0  0  0
  152.4679  143.0214  160.8068 C   0  0  0  0  0  0  0  0  0  0  0  0
  151.8582  142.0049  160.0173 O   0  0  0  0  0  0  0  0  0  0  0  0
  151.2538  139.3014  155.5936 C   0  0  0  0  0  0  0  0  0  0  0  0
  151.7343  139.8868  154.6231 O   0  0  0  0  0  0  0  0  0  0  0  0
  149.9534  138.9779  155.7355 N   0  0  0  0  0  0  0  0  0  0  0  0
  148.8940  139.1565  154.8312 C   0  0  0  0  0  0  0  0  0  0  0  0
  147.9695  138.2080  154.5289 C   0  0  0  0  0  0  0  0  0  0  0  0
  146.8843  138.4587  153.5954 C   0  0  0  0  0  0  0  0  0  0  0  0
  145.8205  137.4092  153.3122 C   0  0  0  0  0  0  0  0  0  0  0  0
  144.6295  137.7879  153.7780 F   0  0  0  0  0  0  0  0  0  0  0  0
  145.7108  137.2178  151.9983 F   0  0  0  0  0  0  0  0  0  0  0  0
  146.1387  136.2435  153.8755 F   0  0  0  0  0  0  0  0  0  0  0  0
  146.8232  139.6940  153.0645 C   0  0  0  0  0  0  0  0  0  0  0  0
  147.7699  140.6745  153.3700 N   0  0  0  0  0  0  0  0  0  0  0  0
  148.8022  140.4943  154.2239 C   0  0  0  0  0  0  0  0  0  0  0  0
  149.5894  141.4127  154.4505 O   0  0  0  0  0  0  0  0  0  0  0  0
  147.6592  141.5736  152.9237 H   0  0  0  0  0  0  0  0  0  0  0  0
  151.0857  137.0530  157.2309 H   0  0  0  0  0  0  0  0  0  0  0  0
  150.5801  138.4420  158.1936 H   0  0  0  0  0  0  0  0  0  0  0  0
  152.1067  137.6394  158.5382 H   0  0  0  0  0  0  0  0  0  0  0  0
  153.0502  138.3697  156.3774 H   0  0  0  0  0  0  0  0  0  0  0  0
  150.9710  141.2339  157.0403 H   0  0  0  0  0  0  0  0  0  0  0  0
  150.8289  140.4024  158.5834 H   0  0  0  0  0  0  0  0  0  0  0  0
  153.2315  142.1015  158.4729 H   0  0  0  0  0  0  0  0  0  0  0  0
  151.7989  143.5649  157.0419 H   0  0  0  0  0  0  0  0  0  0  0  0
  150.4873  143.4357  158.1927 H   0  0  0  0  0  0  0  0  0  0  0  0
  153.2100  144.7293  158.6884 H   0  0  0  0  0  0  0  0  0  0  0  0
  151.6726  145.5595  158.5790 H   0  0  0  0  0  0  0  0  0  0  0  0
  152.4106  145.1858  160.9710 H   0  0  0  0  0  0  0  0  0  0  0  0
  150.8605  144.4527  160.6211 H   0  0  0  0  0  0  0  0  0  0  0  0
  153.5527  142.9796  160.6985 H   0  0  0  0  0  0  0  0  0  0  0  0
  152.2456  142.8314  161.8567 H   0  0  0  0  0  0  0  0  0  0  0  0
  149.6863  138.5790  156.6240 H   0  0  0  0  0  0  0  0  0  0  0  0
  148.0041  137.2354  154.9929 H   0  0  0  0  0  0  0  0  0  0  0  0
  146.0547  140.0256  152.3819 H   0  0  0  0  0  0  0  0  0  0  0  0
  1  2  1  0  0  0  0
  1 26  1  0  0  0  0
  1 27  1  0  0  0  0
  1 28  1  0  0  0  0
  2  3  1  0  0  0  0
  2 11  1  0  0  0  0
  2 29  1  0  0  0  0
  3  4  1  0  0  0  0
  4  5  1  0  0  0  0
  4 30  1  0  0  0  0
  4 31  1  0  0  0  0
  5 10  1  0  0  0  0
  5  6  1  0  0  0  0
  5 32  1  0  0  0  0
  6  7  1  0  0  0  0
  6 33  1  0  0  0  0
  6 34  1  0  0  0  0
  7  8  1  0  0  0  0
  7 35  1  0  0  0  0
  7 36  1  0  0  0  0
  8  9  1  0  0  0  0
  8 37  1  0  0  0  0
  8 38  1  0  0  0  0
  9 10  1  0  0  0  0
  9 39  1  0  0  0  0
  9 40  1  0  0  0  0
 11 12  2  0  0  0  0
 11 13  1  0  0  0  0
 13 14  1  0  0  0  0
 13 41  1  0  0  0  0
 14 23  1  0  0  0  0
 14 15  2  0  0  0  0
 15 16  1  0  0  0  0
 15 42  1  0  0  0  0
 16 17  1  0  0  0  0
 16 21  2  0  0  0  0
 17 18  1  0  0  0  0
 17 19  1  0  0  0  0
 17 20  1  0  0  0  0
 21 22  1  0  0  0  0
 21 43  1  0  0  0  0
 22 25  1  0  0  0  0
 22 23  1  0  0  0  0
 23 24  2  0  0  0  0
M  END
> <s_m_source_file>
AV-unprocessed.smi

> <i_m_source_file_index>
1550

> <i_lp_mmshare_version>
43012

> <i_f3d_flags>
0

> <s_epik_input>
TzFbQ0gyXVtDSDJdW0NIMl1bQ0gyXVtDQEhdMVtDSDJdT1tDQEBIXShbQ0gzXSlDKD1PKVtOSF1jMltjSF1jKEMoRikoRilGKVtjSF1bbkhdYzI9Tw==

> <s_epik_cmdline>
J2VwaWtfcHl0aG9uJywgJy1waCcsICc3LjAnLCAnLXRuJywgJzgnLCAnLW1hJywgJzIwMCcsICctbWV0YWxfYmluZGluZycsICctaW1hZScsICc8aW5maWxlLm1hZT4nLCAnLW9tYWUnLCAnPG91dGZpbGUubWFlPic=

> <r_lp_tautomer_probability>
0.999

> <r_epik_Ionization_Penalty>
0.00891333

> <r_epik_Ionization_Penalty_Charging>
0.00891323

> <r_epik_Ionization_Penalty_Neutral>
1.00146e-07

> <r_epik_State_Penalty>
0.00674197

> <r_epik_Charging_Adjusted_Penalty>
0.0156552

> <i_epik_Tot_Q>
0

> <i_epik_Tot_abs_Q>
0

> <r_epik_Metal_State_Penalty>
0.321024

> <b_epik_Metal_Only>
0

> <s_lp_Force_Field>
OPLS_2005

> <r_lp_Energy>
25.8894

> <b_lp_Chiralities_Consistent>
1

> <s_lp_Variant>
AV-unprocessed.smi:1550-3

> <Gold.Version>
5.8.1

> <Gold.Id.Protein>
6NUR|6NUR_protein|mol2

> <Gold.PLP.Fitness>
44.7378

> <Gold.PLP.PLP>
-39.6872

> <Gold.PLP.part.hbond>
-4.8916

> <Gold.PLP.part.metal>
0.0000

> <Gold.PLP.part.buried>
-3.7166

> <Gold.PLP.part.nonpolar>
-32.8343

> <Gold.PLP.part.repulsive>
0.3787

> <Gold.PLP.ligand.clash>
2.0205

> <Gold.PLP.ligand.torsion>
1.4702

> <Gold.PLP.Chemscore.Hbond>
2.3009

> <Gold.PLP.Chemscore.CHOScore>
1.0000

> <Gold.PLP.Chemscore.Metal>
0.0000

> <Gold.Chemscore.Hbonds>
donor molecule, donor type, donor heavy atom, donor atom, acceptor molecule, acceptor atom, score
      P1  H  7989  7998       L1    12  0.89
      P1  H  7997  8010       L1     3  0.89
      P1  H  8011  8017       L1    24  0.13
      L1  C    21    43       P1 10175  1.00

> <Gold.PLP.Chemscore.Internal.Correction>
0.1088

> <Gold.Rescore>
     Score         DG    S(hbond)    S(metal)    S(lipo)     H(rot)  DE(clash)    DE(int)     intcor
     16.35     -18.01       1.94        0.00      92.27       1.86       0.11       1.54       ----

> <Gold.Chemscore.Fitness>
16.3509

> <Gold.Chemscore.DG>
-18.0080

> <Gold.Chemscore.ZeroCoef>
-5.4800

> <Gold.Chemscore.Hbond>
1.9420

> <Gold.Chemscore.Metal>
0.0000

> <Gold.Chemscore.Lipo>
92.2709

> <Gold.Chemscore.Internal_Hbond>
0.0000

> <Gold.Chemscore.DEClash>
0.1130

> <Gold.Chemscore.DEInternal>
1.5441

> <Gold.Chemscore.Rot>
1.8571

> <Gold.Chemscore.Internal.Correction>
   9.000000E+99

> <Gold.Chemscore.Hbonds>
donor molecule, donor type, donor heavy atom, donor atom, acceptor molecule, acceptor atom, score
      P1  H  7989  7998       L1    12  0.83
      P1  H  7997  8010       L1     3  0.16
      P1  H  8011  8017       L1    24  0.05

> <Gold.Chemscore.Hbond.Weighted>
-6.4864

> <Gold.Chemscore.Metal.Weighted>
-0.0000

> <Gold.Chemscore.Lipo.Weighted>
-10.7957

> <Gold.Chemscore.Internal_Hbond.Weighted>
0.0000

> <Gold.Chemscore.DEClash.Weighted>
0.1130

> <Gold.Chemscore.DEInternal.Weighted>
1.5441

> <Gold.Chemscore.Rot.Weighted>
4.7541

> <Gold.Chemscore.Internal.Correction.Weighted>
   9.000000E+99

> <Gold.Protein.RotatedTorsions>
[ 6907 6896 6895 6894 ] final    3.78 input  -60.11 | X-H torsion
[ 7974 7965 7964 7962 ] final -119.68 input  175.53 | X-H torsion
[ 8008 7997 7996 7995 ] final   41.70 input   59.86 | X-H torsion
[ 10167 10162 10161 10158 ] final  115.99 input  -65.29 | X-H torsion
[ 10718 10713 10712 10709 ] final  113.61 input   66.30 | X-H torsion
[ 10763 10752 10751 10750 ] final  -38.06 input  -60.55 | X-H torsion
[ 11005 11000 10999 10996 ] final    7.74 input  -57.11 | X-H torsion

> <Gold.Protein.ActiveResidues>
 VAL166  LYS551  ARG553  GLY616  TRP617  ASP618  TYR619  PRO620  LYS621  CYS622 
 ASP623  PHE694  ASN695  SER759  ASP760  ASP761  ALA762  ILE779  LEU786  VAL792 
 PHE793  MET794  SER795  GLU796  ALA797  LYS798  CYS799  TRP800  GLU811  SER814 

> <Gold.Protein.RotatedAtoms>
  151.6306  135.1023  160.0120 H   0  0  0  0  0  0  0  0  0  0  0  0  # atno 6907 bound_to 6896
  152.4108  133.6956  159.6405 H   0  0  0  0  0  0  0  0  0  0  0  0  # atno 6908 bound_to 6896
  150.7999  133.8544  159.3255 H   0  0  0  0  0  0  0  0  0  0  0  0  # atno 6909 bound_to 6896
  145.0599  140.8282  143.4159 H   0  0  0  0  0  0  0  0  0  0  0  0  # atno 7974 bound_to 7965
  155.2739  140.3368  155.4263 H   0  0  0  0  0  0  0  0  0  0  0  0  # atno 8008 bound_to 7997
  156.2120  140.1774  156.7715 H   0  0  0  0  0  0  0  0  0  0  0  0  # atno 8009 bound_to 7997
  154.5700  140.0672  156.8934 H   0  0  0  0  0  0  0  0  0  0  0  0  # atno 8010 bound_to 7997
  139.6278  144.7111  151.2496 H   0  0  0  0  0  0  0  0  0  0  0  0  # atno 10167 bound_to 10162
  157.6328  131.0986  150.7066 H   0  0  0  0  0  0  0  0  0  0  0  0  # atno 10718 bound_to 10713
  153.9066  135.6797  153.4753 H   0  0  0  0  0  0  0  0  0  0  0  0  # atno 10763 bound_to 10752
  153.1101  135.4787  154.9017 H   0  0  0  0  0  0  0  0  0  0  0  0  # atno 10764 bound_to 10752
  154.7548  135.3194  154.8445 H   0  0  0  0  0  0  0  0  0  0  0  0  # atno 10765 bound_to 10752
  140.5449  134.0339  155.7916 H   0  0  0  0  0  0  0  0  0  0  0  0  # atno 11005 bound_to 11000
  145.1422  139.2565  143.5484 LP  0  0  0  0  0  0  0  0  0  0  0  0  # atno 17320 bound_to 7965
  146.3523  140.1102  142.8604 LP  0  0  0  0  0  0  0  0  0  0  0  0  # atno 17321 bound_to 7965
  140.7421  143.6535  150.8227 LP  0  0  0  0  0  0  0  0  0  0  0  0  # atno 17342 bound_to 10162
  140.0156  143.5597  152.2821 LP  0  0  0  0  0  0  0  0  0  0  0  0  # atno 17343 bound_to 10162
  156.7403  130.4737  149.5479 LP  0  0  0  0  0  0  0  0  0  0  0  0  # atno 17370 bound_to 10713
  156.1544  130.6332  151.0638 LP  0  0  0  0  0  0  0  0  0  0  0  0  # atno 17371 bound_to 10713
  141.1206  133.9468  157.2737 LP  0  0  0  0  0  0  0  0  0  0  0  0  # atno 17394 bound_to 11000
  139.9485  135.0180  156.8923 LP  0  0  0  0  0  0  0  0  0  0  0  0  # atno 17395 bound_to 11000

$$$$
