#       Name:                AV-unprocessed.smi:726
#       Creating user name   scv26
#       Creation time:       Fri Mar 27 00:51:08 2020


#       File generated by GOLD software.
#

@<TRIPOS>MOLECULE
AV-unprocessed.smi:726
    29    29     1
SMALL
NO_CHARGES


@<TRIPOS>ATOM
      1 ****        -0.0318   2.2871  -0.2516 C.3            1 S1                 0.0000
      2 ****        -0.8068   0.9825  -0.1007 C.2            1 S1                 0.0000
      3 ****        -2.1569   1.0209  -0.0381 C.2            1 S1                 0.0000
      4 ****        -2.9206  -0.1320   0.0579 C.2            1 S1                 0.0000
      5 ****        -4.1694  -0.0987   0.1264 O.co2          1 S1                -1.0000
      6 ****        -2.2119  -1.3233   0.0645 C.2            1 S1                 0.0000
      7 ****        -0.7607  -1.4342  -0.0223 C.2            1 S1                 0.0000
      8 ****        -0.2106  -2.5350  -0.0602 O.2            1 S1                 0.0000
      9 ****        -0.0810  -0.2469  -0.0613 N.am           1 S1                 0.0000
     10 ****         1.4135  -0.2413   0.0050 C.3            1 S1                 0.0000
     11 ****         1.9824  -0.9897   1.2368 C.3            1 S1                 0.0000
     12 ****         2.0676  -0.6255  -1.3352 C.2            1 S1                 0.0000
     13 ****         2.5446  -1.7768  -1.4463 O.co2          1 S1                 0.0000
     14 ****         2.0884   0.2477  -2.2307 O.co2          1 S1                -1.0000
     15 ****        -0.7039   3.1152  -0.4784 H              1 S1                 0.0000
     16 ****         0.6852   2.2372  -1.0707 H              1 S1                 0.0000
     17 ****         0.4888   2.5365   0.6732 H              1 S1                 0.0000
     18 ****        -2.6557   1.9791  -0.0668 H              1 S1                 0.0000
     19 ****        -2.7663  -2.2483   0.1333 H              1 S1                 0.0000
     20 ****         1.7847   0.7619   0.1878 H              1 S1                 0.0000
     21 ****         3.0508  -0.7976   1.3398 H              1 S1                 0.0000
     22 ****         1.8663  -2.0712   1.1831 H              1 S1                 0.0000
     23 ****         1.5033  -0.6474   2.1544 H              1 S1                 0.0000
     24 ****        -0.7603  -3.3699  -0.0315 LP             1 S1                 0.0000
     25 ****         0.7859  -2.5942  -0.1197 LP             1 S1                 0.0000
     26 ****         2.9833  -2.0560  -2.3005 LP             1 S1                 0.0000
     27 ****         2.4872  -2.4178  -0.6809 LP             1 S1                 0.0000
     28 ****         2.5094   0.0468  -3.1152 LP             1 S1                 0.0000
     29 ****         1.6840   1.1466  -2.0620 LP             1 S1                 0.0000
@<TRIPOS>BOND
    1    1    2 1     
    2    1   15 1     
    3    1   16 1     
    4    1   17 1     
    5    2    9 1     
    6    2    3 2     
    7    3    4 1     
    8    3   18 1     
    9    4    5 ar    
   10    4    6 2     
   11    6    7 1     
   12    6   19 1     
   13    7    8 2     
   14    7    9 am    
   15    9   10 1     
   16   10   11 1     
   17   10   12 1     
   18   10   20 1     
   19   11   21 1     
   20   11   22 1     
   21   11   23 1     
   22   12   13 ar    
   23   12   14 ar    
   24    8   24 1     
   25    8   25 1     
   26   13   26 1     
   27   13   27 1     
   28   14   28 1     
   29   14   29 1     
@<TRIPOS>SUBSTRUCTURE
      1 S1             1
@<TRIPOS>SET
LONE_PAIRS      STATIC     ATOMS    <user>   **** ""
7 5 24 25 26 27 28 29
ATOM$BLUE        STATIC     ATOMS    COLORGROUP SYSTEM
7 5 24 25 26 27 28 29
