AV-unprocessed.smi:227|AV-procd|sdf|1742|dock1
  -GOLD-   2262020243D 1   1.00000     0.00000
 Structure written by MMmdl.
 54 58  0  0  0  0  0  0  0  0  1 V2000
  147.0152  137.4916  160.4672 O   0  0  0  0  0  0  0  0  0  0  0  0
  148.0437  136.8329  159.7558 C   0  0  0  0  0  0  0  0  0  0  0  0
  147.6103  135.4172  159.2942 C   0  0  1  0  0  0  0  0  0  0  0  0
  148.3567  134.9612  158.0124 C   0  0  0  0  0  0  0  0  0  0  0  0
  147.4736  134.5761  156.9260 N   0  0  0  0  0  0  0  0  0  0  0  0
  146.1024  134.4953  156.9755 C   0  0  0  0  0  0  0  0  0  0  0  0
  145.5295  134.1295  155.8622 N   0  0  0  0  0  0  0  0  0  0  0  0
  146.5818  133.9492  154.9702 C   0  0  0  0  0  0  0  0  0  0  0  0
  146.6830  133.5738  153.5966 C   0  0  0  0  0  0  0  0  0  0  0  0
  145.6296  133.2786  152.7843 N   0  0  0  0  0  0  0  0  0  0  0  0
  144.5209  134.2032  152.5943 C   0  0  1  0  0  0  0  0  0  0  0  0
  145.1132  135.3170  151.7082 C   0  0  0  0  0  0  0  0  0  0  0  0
  146.0876  134.5133  150.8338 C   0  0  0  0  0  0  0  0  0  0  0  0
  145.8563  133.0772  151.3587 C   0  0  2  0  0  0  0  0  0  0  0  0
  144.4887  132.5152  150.9092 C   0  0  2  0  0  0  0  0  0  0  0  0
  144.1873  132.5073  149.3988 C   0  0  0  0  0  0  0  0  0  0  0  0
  142.8650  132.0730  149.1641 O   0  0  0  0  0  0  0  0  0  0  0  0
  143.5317  133.3750  151.7532 C   0  0  0  0  0  0  0  0  0  0  0  0
  147.9332  133.4874  153.0693 N   0  0  0  0  0  0  0  0  0  0  0  0
  149.0077  133.7641  153.8121 C   0  0  0  0  0  0  0  0  0  0  0  0
  149.0625  134.1363  155.0907 N   0  0  0  0  0  0  0  0  0  0  0  0
  147.8149  134.2146  155.6347 C   0  0  0  0  0  0  0  0  0  0  0  0
  147.8007  134.3806  160.4321 C   0  0  1  0  0  0  0  0  0  0  0  0
  146.9811  134.6549  161.6940 C   0  0  0  0  0  0  0  0  0  0  0  0
  146.5350  133.2746  162.1857 C   0  0  0  0  0  0  0  0  0  0  0  0
  147.2110  132.3442  161.3551 O   0  0  0  0  0  0  0  0  0  0  0  0
  147.3685  132.9528  160.0863 C   0  0  0  0  0  0  0  0  0  0  0  0
  146.2061  137.3898  159.9893 H   0  0  0  0  0  0  0  0  0  0  0  0
  148.3488  137.4417  158.9041 H   0  0  0  0  0  0  0  0  0  0  0  0
  148.9009  136.7893  160.4264 H   0  0  0  0  0  0  0  0  0  0  0  0
  146.5430  135.4493  159.0675 H   0  0  0  0  0  0  0  0  0  0  0  0
  149.0157  135.7555  157.6594 H   0  0  0  0  0  0  0  0  0  0  0  0
  148.9967  134.1046  158.2233 H   0  0  0  0  0  0  0  0  0  0  0  0
  145.5375  134.7219  157.8680 H   0  0  0  0  0  0  0  0  0  0  0  0
  144.0522  134.5728  153.5043 H   0  0  0  0  0  0  0  0  0  0  0  0
  144.3541  135.8412  151.1265 H   0  0  0  0  0  0  0  0  0  0  0  0
  145.6502  136.0544  152.3063 H   0  0  0  0  0  0  0  0  0  0  0  0
  145.9083  134.6303  149.7663 H   0  0  0  0  0  0  0  0  0  0  0  0
  147.1136  134.8308  151.0247 H   0  0  0  0  0  0  0  0  0  0  0  0
  146.6751  132.3980  151.1185 H   0  0  0  0  0  0  0  0  0  0  0  0
  144.4196  131.4862  151.2676 H   0  0  0  0  0  0  0  0  0  0  0  0
  144.2939  133.5148  148.9963 H   0  0  0  0  0  0  0  0  0  0  0  0
  144.8833  131.8783  148.8449 H   0  0  0  0  0  0  0  0  0  0  0  0
  142.2759  132.7861  149.3579 H   0  0  0  0  0  0  0  0  0  0  0  0
  142.9103  132.7421  152.3880 H   0  0  0  0  0  0  0  0  0  0  0  0
  142.8698  134.0022  151.1547 H   0  0  0  0  0  0  0  0  0  0  0  0
  149.9594  133.6753  153.3092 H   0  0  0  0  0  0  0  0  0  0  0  0
  148.8547  134.3487  160.7133 H   0  0  0  0  0  0  0  0  0  0  0  0
  147.5811  135.1720  162.4437 H   0  0  0  0  0  0  0  0  0  0  0  0
  146.1071  135.2735  161.4856 H   0  0  0  0  0  0  0  0  0  0  0  0
  146.7757  133.1064  163.2356 H   0  0  0  0  0  0  0  0  0  0  0  0
  145.4583  133.1528  162.0599 H   0  0  0  0  0  0  0  0  0  0  0  0
  146.4160  132.9416  159.5537 H   0  0  0  0  0  0  0  0  0  0  0  0
  148.1065  132.4192  159.4871 H   0  0  0  0  0  0  0  0  0  0  0  0
  1  2  1  0  0  0  0
  1 28  1  0  0  0  0
  2  3  1  0  0  0  0
  2 29  1  0  0  0  0
  2 30  1  0  0  0  0
  3  4  1  0  0  0  0
  3 23  1  0  0  0  0
  3 31  1  0  0  0  0
  4  5  1  0  0  0  0
  4 32  1  0  0  0  0
  4 33  1  0  0  0  0
  5 22  1  0  0  0  0
  5  6  1  0  0  0  0
  6  7  2  0  0  0  0
  6 34  1  0  0  0  0
  7  8  1  0  0  0  0
  8 22  2  0  0  0  0
  8  9  1  0  0  0  0
  9 10  1  0  0  0  0
  9 19  2  0  0  0  0
 10 14  1  0  0  0  0
 10 11  1  0  0  0  0
 11 18  1  0  0  0  0
 11 12  1  0  0  0  0
 11 35  1  0  0  0  0
 12 13  1  0  0  0  0
 12 36  1  0  0  0  0
 12 37  1  0  0  0  0
 13 14  1  0  0  0  0
 13 38  1  0  0  0  0
 13 39  1  0  0  0  0
 14 15  1  0  0  0  0
 14 40  1  0  0  0  0
 15 16  1  0  0  0  0
 15 18  1  0  0  0  0
 15 41  1  0  0  0  0
 16 17  1  0  0  0  0
 16 42  1  0  0  0  0
 16 43  1  0  0  0  0
 17 44  1  0  0  0  0
 18 45  1  0  0  0  0
 18 46  1  0  0  0  0
 19 20  1  0  0  0  0
 20 21  2  0  0  0  0
 20 47  1  0  0  0  0
 21 22  1  0  0  0  0
 23 27  1  0  0  0  0
 23 24  1  0  0  0  0
 23 48  1  0  0  0  0
 24 25  1  0  0  0  0
 24 49  1  0  0  0  0
 24 50  1  0  0  0  0
 25 26  1  0  0  0  0
 25 51  1  0  0  0  0
 25 52  1  0  0  0  0
 26 27  1  0  0  0  0
 27 53  1  0  0  0  0
 27 54  1  0  0  0  0
M  END
> <s_m_source_file>
AV-unprocessed.smi

> <i_m_source_file_index>
227

> <i_lp_mmshare_version>
43012

> <i_f3d_flags>
0

> <s_epik_input>
W0NIMl0xT1tDSDJdW0NIMl1bQ0BIXTFbQ0BIXShbQ0gyXVtPSF0pW0NIMl1uKFtjSF1uMiljKGMyMyluW2NIXW5jM04oW0NASF00NSlbQ0BASF0oW0NIMl1bQ0gyXTQpW0NASF0oW0NIMl01KVtDSDJdW09IXQ==

> <s_epik_cmdline>
J2VwaWtfcHl0aG9uJywgJy1waCcsICc3LjAnLCAnLXRuJywgJzgnLCAnLW1hJywgJzIwMCcsICctbWV0YWxfYmluZGluZycsICctaW1hZScsICc8aW5maWxlLm1hZT4nLCAnLW9tYWUnLCAnPG91dGZpbGUubWFlPic=

> <r_lp_tautomer_probability>
1

> <r_epik_Ionization_Penalty>
0.0055791

> <r_epik_Ionization_Penalty_Charging>
0

> <r_epik_Ionization_Penalty_Neutral>
0.0055791

> <r_epik_State_Penalty>
0.00401299

> <r_epik_Charging_Adjusted_Penalty>
0.00401299

> <i_epik_Tot_Q>
0

> <i_epik_Tot_abs_Q>
0

> <r_epik_Metal_State_Penalty>
-0

> <b_epik_Metal_Only>
0

> <s_lp_Force_Field>
OPLS_2005

> <r_lp_Energy>
88.534

> <b_lp_Chiralities_Consistent>
1

> <s_lp_Variant>
AV-unprocessed.smi:227-16

> <Gold.Version>
5.8.1

> <Gold.Id.Protein>
6NUR|6NUR_protein|mol2

> <Gold.PLP.Fitness>
45.7608

> <Gold.PLP.PLP>
-39.0310

> <Gold.PLP.part.hbond>
-4.0888

> <Gold.PLP.part.metal>
0.0000

> <Gold.PLP.part.buried>
-7.6102

> <Gold.PLP.part.nonpolar>
-27.2245

> <Gold.PLP.part.repulsive>
0.4046

> <Gold.PLP.ligand.clash>
0.0000

> <Gold.PLP.ligand.torsion>
1.1569

> <Gold.PLP.Chemscore.Hbond>
2.9250

> <Gold.PLP.Chemscore.CHOScore>
0.0000

> <Gold.PLP.Chemscore.Metal>
0.0000

> <Gold.Chemscore.Hbonds>
donor molecule, donor type, donor heavy atom, donor atom, acceptor molecule, acceptor atom, score
      L1  H    17    44       P1 10186  0.91
      P1  H  6934  6947       L1     1  1.00
      P1  H 10785 10796       L1    17  1.00

> <Gold.PLP.Chemscore.Internal.Correction>
0.2687

> <Gold.Rescore>
     Score         DG    S(hbond)    S(metal)    S(lipo)     H(rot)  DE(clash)    DE(int)     intcor
     12.88     -14.44       2.63        0.00      80.40       3.61       0.00       1.56       ----

> <Gold.Chemscore.Fitness>
12.8786

> <Gold.Chemscore.DG>
-14.4429

> <Gold.Chemscore.ZeroCoef>
-5.4800

> <Gold.Chemscore.Hbond>
2.6318

> <Gold.Chemscore.Metal>
0.0000

> <Gold.Chemscore.Lipo>
80.3998

> <Gold.Chemscore.Internal_Hbond>
0.0000

> <Gold.Chemscore.DEClash>
0.0000

> <Gold.Chemscore.DEInternal>
1.5643

> <Gold.Chemscore.Rot>
3.6071

> <Gold.Chemscore.Internal.Correction>
   9.000000E+99

> <Gold.Chemscore.Hbonds>
donor molecule, donor type, donor heavy atom, donor atom, acceptor molecule, acceptor atom, score
      L1  H    17    44       P1 10186  0.87
      P1  H  6934  6947       L1     1  0.68
      P1  H 10785 10796       L1    17  0.25

> <Gold.Chemscore.Hbond.Weighted>
-8.7903

> <Gold.Chemscore.Metal.Weighted>
-0.0000

> <Gold.Chemscore.Lipo.Weighted>
-9.4068

> <Gold.Chemscore.Internal_Hbond.Weighted>
0.0000

> <Gold.Chemscore.DEClash.Weighted>
0.0000

> <Gold.Chemscore.DEInternal.Weighted>
1.5643

> <Gold.Chemscore.Rot.Weighted>
9.2342

> <Gold.Chemscore.Internal.Correction.Weighted>
   9.000000E+99

> <Gold.Protein.RotatedTorsions>
[ 6907 6896 6895 6894 ] final   53.87 input  -60.11 | X-H torsion
[ 7974 7965 7964 7962 ] final -161.82 input  175.53 | X-H torsion
[ 8008 7997 7996 7995 ] final -153.28 input   59.86 | X-H torsion
[ 10167 10162 10161 10158 ] final  129.21 input  -65.29 | X-H torsion
[ 10718 10713 10712 10709 ] final  128.10 input   66.30 | X-H torsion
[ 10763 10752 10751 10750 ] final   14.53 input  -60.55 | X-H torsion
[ 11005 11000 10999 10996 ] final  -86.08 input  -57.11 | X-H torsion

> <Gold.Protein.ActiveResidues>
 VAL166  LYS551  ARG553  GLY616  TRP617  ASP618  TYR619  PRO620  LYS621  CYS622 
 ASP623  PHE694  ASN695  SER759  ASP760  ASP761  ALA762  ILE779  LEU786  VAL792 
 PHE793  MET794  SER795  GLU796  ALA797  LYS798  CYS799  TRP800  GLU811  SER814 

> <Gold.Protein.RotatedAtoms>
  152.3381  134.7171  160.0271 H   0  0  0  0  0  0  0  0  0  0  0  0  # atno 6907 bound_to 6896
  151.7565  133.3325  159.3414 H   0  0  0  0  0  0  0  0  0  0  0  0  # atno 6908 bound_to 6896
  150.7463  134.6077  159.6114 H   0  0  0  0  0  0  0  0  0  0  0  0  # atno 6909 bound_to 6896
  144.7378  140.3342  143.6147 H   0  0  0  0  0  0  0  0  0  0  0  0  # atno 7974 bound_to 7965
  155.6683  140.0730  157.2529 H   0  0  0  0  0  0  0  0  0  0  0  0  # atno 8008 bound_to 7997
  154.4128  140.1703  156.1902 H   0  0  0  0  0  0  0  0  0  0  0  0  # atno 8009 bound_to 7997
  155.9638  140.3367  155.6517 H   0  0  0  0  0  0  0  0  0  0  0  0  # atno 8010 bound_to 7997
  139.5489  144.6797  151.4386 H   0  0  0  0  0  0  0  0  0  0  0  0  # atno 10167 bound_to 10162
  157.5274  131.1098  150.9061 H   0  0  0  0  0  0  0  0  0  0  0  0  # atno 10718 bound_to 10713
  153.1613  135.6796  153.8738 H   0  0  0  0  0  0  0  0  0  0  0  0  # atno 10763 bound_to 10752
  153.8132  135.3140  155.3404 H   0  0  0  0  0  0  0  0  0  0  0  0  # atno 10764 bound_to 10752
  154.7934  135.4821  154.0195 H   0  0  0  0  0  0  0  0  0  0  0  0  # atno 10765 bound_to 10752
  141.1634  133.7435  156.9110 H   0  0  0  0  0  0  0  0  0  0  0  0  # atno 11005 bound_to 11000
  145.7441  139.1773  143.2359 LP  0  0  0  0  0  0  0  0  0  0  0  0  # atno 17320 bound_to 7965
  146.1111  140.7426  142.9502 LP  0  0  0  0  0  0  0  0  0  0  0  0  # atno 17321 bound_to 7965
  140.6746  143.8219  150.7042 LP  0  0  0  0  0  0  0  0  0  0  0  0  # atno 17342 bound_to 10162
  140.1653  143.4240  152.2038 LP  0  0  0  0  0  0  0  0  0  0  0  0  # atno 17343 bound_to 10162
  156.9653  130.5470  149.5288 LP  0  0  0  0  0  0  0  0  0  0  0  0  # atno 17370 bound_to 10713
  156.0397  130.5481  150.8741 LP  0  0  0  0  0  0  0  0  0  0  0  0  # atno 17371 bound_to 10713
  140.1517  134.9225  157.2601 LP  0  0  0  0  0  0  0  0  0  0  0  0  # atno 17394 bound_to 11000
  140.2715  134.3455  155.7372 LP  0  0  0  0  0  0  0  0  0  0  0  0  # atno 17395 bound_to 11000

$$$$
