AV-unprocessed.smi:1754|AV-procd|sdf|7068|dock3
  -GOLD-   22720 8283D 1   1.00000     0.00000
 Structure written by MMmdl.
 44 45  0  0  0  0  0  0  0  0  3 V2000
  152.8129  142.7305  161.7608 C   0  0  0  0  0  0  0  0  0  0  0  0
  153.4154  142.0328  160.5315 C   0  0  0  0  0  0  0  0  0  0  0  0
  152.7416  142.3961  159.2850 N   0  0  0  0  0  0  0  0  0  0  0  0
  152.0813  143.7031  159.2432 C   0  0  0  0  0  0  0  0  0  0  0  0
  152.7767  144.6989  158.3011 C   0  0  0  0  0  0  0  0  0  0  0  0
  152.1570  141.3169  158.5835 C   0  0  0  0  0  0  0  0  0  0  0  0
  152.6058  139.9838  158.7408 C   0  0  0  0  0  0  0  0  0  0  0  0
  151.9761  138.9424  158.0294 C   0  0  0  0  0  0  0  0  0  0  0  0
  150.8931  139.2340  157.1756 C   0  0  0  0  0  0  0  0  0  0  0  0
  150.3010  138.1589  156.4615 N   0  0  0  0  0  0  0  0  0  0  0  0
  150.8840  137.0474  155.9478 C   0  0  0  0  0  0  0  0  0  0  0  0
  152.1067  136.9321  156.0152 O   0  0  0  0  0  0  0  0  0  0  0  0
  150.1126  136.0926  155.3439 N   0  5  0  0  0  0  0  0  0  0  0  0
  150.4364  134.6863  155.0556 C   0  0  2  0  0  0  0  0  0  0  0  0
  149.2961  133.9973  154.2778 C   0  0  0  0  0  0  0  0  0  0  0  0
  149.5193  132.4790  154.3208 C   0  0  0  0  0  0  0  0  0  0  0  0
  150.3404  132.1405  155.9266 S   0  0  0  0  0  0  0  0  0  0  0  0
  149.3619  131.5801  156.8713 O   0  0  0  0  0  0  0  0  0  0  0  0
  151.6188  131.4574  155.6736 O   0  0  0  0  0  0  0  0  0  0  0  0
  150.6516  133.8986  156.3550 C   0  0  0  0  0  0  0  0  0  0  0  0
  150.4914  140.5829  157.0376 C   0  0  0  0  0  0  0  0  0  0  0  0
  151.1246  141.5497  157.7360 N   0  3  0  0  0  0  0  0  0  0  0  0
  153.3517  142.4476  162.6652 H   0  0  0  0  0  0  0  0  0  0  0  0
  151.7667  142.4574  161.9019 H   0  0  0  0  0  0  0  0  0  0  0  0
  152.8675  143.8156  161.6710 H   0  0  0  0  0  0  0  0  0  0  0  0
  154.4680  142.3043  160.4457 H   0  0  0  0  0  0  0  0  0  0  0  0
  153.4075  140.9536  160.6778 H   0  0  0  0  0  0  0  0  0  0  0  0
  151.0355  143.5818  158.9586 H   0  0  0  0  0  0  0  0  0  0  0  0
  152.0699  144.1261  160.2484 H   0  0  0  0  0  0  0  0  0  0  0  0
  152.2784  145.6679  158.3336 H   0  0  0  0  0  0  0  0  0  0  0  0
  152.7682  144.3632  157.2644 H   0  0  0  0  0  0  0  0  0  0  0  0
  153.8157  144.8532  158.5936 H   0  0  0  0  0  0  0  0  0  0  0  0
  153.4362  139.7478  159.3891 H   0  0  0  0  0  0  0  0  0  0  0  0
  152.3223  137.9255  158.1445 H   0  0  0  0  0  0  0  0  0  0  0  0
  149.3146  138.2550  156.2699 H   0  0  0  0  0  0  0  0  0  0  0  0
  151.3471  134.5935  154.4614 H   0  0  0  0  0  0  0  0  0  0  0  0
  148.3425  134.2226  154.7583 H   0  0  0  0  0  0  0  0  0  0  0  0
  149.2273  134.3593  153.2517 H   0  0  0  0  0  0  0  0  0  0  0  0
  148.5895  131.9148  154.2486 H   0  0  0  0  0  0  0  0  0  0  0  0
  150.1855  132.1519  153.5211 H   0  0  0  0  0  0  0  0  0  0  0  0
  151.6548  134.0171  156.7639 H   0  0  0  0  0  0  0  0  0  0  0  0
  149.9275  134.1872  157.1179 H   0  0  0  0  0  0  0  0  0  0  0  0
  149.7000  140.9298  156.3899 H   0  0  0  0  0  0  0  0  0  0  0  0
  150.8055  142.5110  157.6168 H   0  0  0  0  0  0  0  0  0  0  0  0
  1  2  1  0  0  0  0
  1 23  1  0  0  0  0
  1 24  1  0  0  0  0
  1 25  1  0  0  0  0
  2  3  1  0  0  0  0
  2 26  1  0  0  0  0
  2 27  1  0  0  0  0
  3  4  1  0  0  0  0
  3  6  1  0  0  0  0
  4  5  1  0  0  0  0
  4 28  1  0  0  0  0
  4 29  1  0  0  0  0
  5 30  1  0  0  0  0
  5 31  1  0  0  0  0
  5 32  1  0  0  0  0
  6 22  1  0  0  0  0
  6  7  2  0  0  0  0
  7  8  1  0  0  0  0
  7 33  1  0  0  0  0
  8  9  2  0  0  0  0
  8 34  1  0  0  0  0
  9 10  1  0  0  0  0
  9 21  1  0  0  0  0
 10 11  1  0  0  0  0
 10 35  1  0  0  0  0
 11 12  2  0  0  0  0
 11 13  1  0  0  0  0
 13 14  1  0  0  0  0
 14 20  1  0  0  0  0
 14 15  1  0  0  0  0
 14 36  1  0  0  0  0
 15 16  1  0  0  0  0
 15 37  1  0  0  0  0
 15 38  1  0  0  0  0
 16 17  1  0  0  0  0
 16 39  1  0  0  0  0
 16 40  1  0  0  0  0
 17 18  2  0  0  0  0
 17 19  2  0  0  0  0
 17 20  1  0  0  0  0
 20 41  1  0  0  0  0
 20 42  1  0  0  0  0
 21 22  2  0  0  0  0
 21 43  1  0  0  0  0
 22 44  1  0  0  0  0
M  CHG  1  13  -1
M  CHG  1  22   1
M  END
> <s_m_source_file>
AV-unprocessed.smi

> <i_m_source_file_index>
1754

> <i_lp_mmshare_version>
43012

> <i_f3d_flags>
0

> <s_epik_input>
W0NIM11bQ0gyXU4oW0NIMl1bQ0gzXSljMVtjSF1bY0hdYyhbY0hdbjEpW05IXUMoPU8pW05IXVtDQEBIXShbQ0gyXTIpW0NIMl1bQ0gyXVMyKD1PKT1P

> <s_epik_cmdline>
J2VwaWtfcHl0aG9uJywgJy1waCcsICc3LjAnLCAnLXRuJywgJzgnLCAnLW1hJywgJzIwMCcsICctbWV0YWxfYmluZGluZycsICctaW1hZScsICc8aW5maWxlLm1hZT4nLCAnLW9tYWUnLCAnPG91dGZpbGUubWFlPic=

> <r_lp_tautomer_probability>
0.999994

> <r_epik_Ionization_Penalty>
7.1175

> <r_epik_Ionization_Penalty_Charging>
7.11749

> <r_epik_Ionization_Penalty_Neutral>
3.13064e-06

> <r_epik_State_Penalty>
6.65299

> <r_epik_Charging_Adjusted_Penalty>
13.7705

> <i_epik_Tot_Q>
0

> <i_epik_Tot_abs_Q>
2

> <r_epik_Metal_State_Penalty>
2.60496

> <b_epik_Metal_Only>
1

> <s_lp_Force_Field>
OPLS_2005

> <r_lp_Energy>
20.9126

> <b_lp_Chiralities_Consistent>
1

> <s_lp_Variant>
AV-unprocessed.smi:1754-5

> <Gold.Version>
5.8.1

> <Gold.Id.Protein>
6NUR|6NUR_protein|mol2

> <Gold.PLP.Fitness>
44.1935

> <Gold.PLP.PLP>
-41.9022

> <Gold.PLP.part.hbond>
-1.0000

> <Gold.PLP.part.metal>
0.0000

> <Gold.PLP.part.buried>
-5.2900

> <Gold.PLP.part.nonpolar>
-35.7028

> <Gold.PLP.part.repulsive>
0.1866

> <Gold.PLP.ligand.clash>
0.0000

> <Gold.PLP.ligand.torsion>
0.8231

> <Gold.PLP.Chemscore.Hbond>
1.0000

> <Gold.PLP.Chemscore.CHOScore>
0.0000

> <Gold.PLP.Chemscore.Metal>
0.0000

> <Gold.Chemscore.Hbonds>
donor molecule, donor type, donor heavy atom, donor atom, acceptor molecule, acceptor atom, score
      P1  H 10752 10763       L1    12  1.00

> <Gold.PLP.Chemscore.Internal.Correction>
0.9374

> <Gold.Rescore>
     Score         DG    S(hbond)    S(metal)    S(lipo)     H(rot)  DE(clash)    DE(int)     intcor
     13.89     -16.16       0.97        0.00      93.80       1.39       0.08       2.19       ----

> <Gold.Chemscore.Fitness>
13.8875

> <Gold.Chemscore.DG>
-16.1560

> <Gold.Chemscore.ZeroCoef>
-5.4800

> <Gold.Chemscore.Hbond>
0.9740

> <Gold.Chemscore.Metal>
0.0000

> <Gold.Chemscore.Lipo>
93.8045

> <Gold.Chemscore.Internal_Hbond>
0.0000

> <Gold.Chemscore.DEClash>
0.0751

> <Gold.Chemscore.DEInternal>
2.1934

> <Gold.Chemscore.Rot>
1.3876

> <Gold.Chemscore.Internal.Correction>
   9.000000E+99

> <Gold.Chemscore.Hbonds>
donor molecule, donor type, donor heavy atom, donor atom, acceptor molecule, acceptor atom, score
      P1  H 10752 10763       L1    12  0.88

> <Gold.Chemscore.Hbond.Weighted>
-3.2533

> <Gold.Chemscore.Metal.Weighted>
-0.0000

> <Gold.Chemscore.Lipo.Weighted>
-10.9751

> <Gold.Chemscore.Internal_Hbond.Weighted>
0.0000

> <Gold.Chemscore.DEClash.Weighted>
0.0751

> <Gold.Chemscore.DEInternal.Weighted>
2.1934

> <Gold.Chemscore.Rot.Weighted>
3.5524

> <Gold.Chemscore.Internal.Correction.Weighted>
   9.000000E+99

> <Gold.Protein.RotatedTorsions>
[ 6907 6896 6895 6894 ] final   12.73 input  -60.11 | X-H torsion
[ 7974 7965 7964 7962 ] final   -2.64 input  175.53 | X-H torsion
[ 8008 7997 7996 7995 ] final -171.28 input   59.86 | X-H torsion
[ 10167 10162 10161 10158 ] final  -15.45 input  -65.29 | X-H torsion
[ 10718 10713 10712 10709 ] final  -26.14 input   66.30 | X-H torsion
[ 10763 10752 10751 10750 ] final   79.03 input  -60.55 | X-H torsion
[ 11005 11000 10999 10996 ] final  -89.44 input  -57.11 | X-H torsion

> <Gold.Protein.ActiveResidues>
 VAL166  LYS551  ARG553  GLY616  TRP617  ASP618  TYR619  PRO620  LYS621  CYS622 
 ASP623  PHE694  ASN695  SER759  ASP760  ASP761  ALA762  ILE779  LEU786  VAL792 
 PHE793  MET794  SER795  GLU796  ALA797  LYS798  CYS799  TRP800  GLU811  SER814 

> <Gold.Protein.RotatedAtoms>
  151.7751  135.0776  160.0365 H   0  0  0  0  0  0  0  0  0  0  0  0  # atno 6907 bound_to 6896
  152.3262  133.5903  159.5786 H   0  0  0  0  0  0  0  0  0  0  0  0  # atno 6908 bound_to 6896
  150.7397  133.9853  159.3631 H   0  0  0  0  0  0  0  0  0  0  0  0  # atno 6909 bound_to 6896
  146.2401  140.1601  142.8333 H   0  0  0  0  0  0  0  0  0  0  0  0  # atno 7974 bound_to 7965
  155.9295  140.1088  157.1143 H   0  0  0  0  0  0  0  0  0  0  0  0  # atno 8008 bound_to 7997
  154.4068  140.1240  156.4850 H   0  0  0  0  0  0  0  0  0  0  0  0  # atno 8009 bound_to 7997
  155.7097  140.3471  155.4971 H   0  0  0  0  0  0  0  0  0  0  0  0  # atno 8010 bound_to 7997
  140.7218  143.5217  150.9626 H   0  0  0  0  0  0  0  0  0  0  0  0  # atno 10167 bound_to 10162
  156.4551  130.4492  149.6965 H   0  0  0  0  0  0  0  0  0  0  0  0  # atno 10718 bound_to 10713
  153.0920  135.4855  154.8708 H   0  0  0  0  0  0  0  0  0  0  0  0  # atno 10763 bound_to 10752
  154.7280  135.3054  154.8940 H   0  0  0  0  0  0  0  0  0  0  0  0  # atno 10764 bound_to 10752
  153.9584  135.6815  153.4798 H   0  0  0  0  0  0  0  0  0  0  0  0  # atno 10765 bound_to 10752
  141.1584  133.7630  156.9595 H   0  0  0  0  0  0  0  0  0  0  0  0  # atno 11005 bound_to 11000
  145.0096  140.8703  143.5232 LP  0  0  0  0  0  0  0  0  0  0  0  0  # atno 17320 bound_to 7965
  145.1632  139.2446  143.5380 LP  0  0  0  0  0  0  0  0  0  0  0  0  # atno 17321 bound_to 7965
  139.8934  143.6925  152.3142 LP  0  0  0  0  0  0  0  0  0  0  0  0  # atno 17342 bound_to 10162
  139.7249  144.7595  151.0896 LP  0  0  0  0  0  0  0  0  0  0  0  0  # atno 17343 bound_to 10162
  156.3775  130.7562  151.2552 LP  0  0  0  0  0  0  0  0  0  0  0  0  # atno 17370 bound_to 10713
  157.7501  131.0305  150.4140 LP  0  0  0  0  0  0  0  0  0  0  0  0  # atno 17371 bound_to 10713
  140.1203  134.9421  157.2193 LP  0  0  0  0  0  0  0  0  0  0  0  0  # atno 17394 bound_to 11000
  140.3081  134.3055  155.7273 LP  0  0  0  0  0  0  0  0  0  0  0  0  # atno 17395 bound_to 11000

$$$$
