AV-unprocessed.smi:2995|AV-procd|sdf|11407|dock9
  -GOLD-   2272016333D 1   1.00000     0.00000
 Structure written by MMmdl.
 49 51  0  0  0  0  0  0  0  0  2 V2000
  146.1303  132.8224  161.6572 C   0  0  0  0  0  0  0  0  0  0  0  0
  146.8900  134.1293  161.5146 C   0  0  0  0  0  0  0  0  0  0  0  0
  147.0272  134.9853  162.6267 C   0  0  0  0  0  0  0  0  0  0  0  0
  147.7388  136.1897  162.4683 C   0  0  0  0  0  0  0  0  0  0  0  0
  148.3061  136.5660  161.3043 N   0  0  0  0  0  0  0  0  0  0  0  0
  148.1722  135.7464  160.2403 C   0  0  0  0  0  0  0  0  0  0  0  0
  147.4641  134.5190  160.2804 C   0  0  0  0  0  0  0  0  0  0  0  0
  147.3472  133.6526  159.1577 N   0  0  0  0  0  0  0  0  0  0  0  0
  148.1727  133.5433  158.1029 C   0  0  0  0  0  0  0  0  0  0  0  0
  149.1976  134.2024  157.9294 O   0  0  0  0  0  0  0  0  0  0  0  0
  147.7263  132.6292  157.2291 N   0  0  0  0  0  0  0  0  0  0  0  0
  148.3793  132.2852  155.9695 C   0  0  2  0  0  0  0  0  0  0  0  0
  148.4228  133.5019  155.0241 C   0  0  0  0  0  0  0  0  0  0  0  0
  148.9922  133.1170  153.6456 C   0  0  0  0  0  0  0  0  0  0  0  0
  148.2326  131.9994  153.0198 N   0  3  2  0  0  0  0  0  0  0  0  0
  146.8877  132.3823  152.4935 C   0  0  0  0  0  0  0  0  0  0  0  0
  146.0866  131.1985  151.9338 C   0  0  0  0  0  0  0  0  0  0  0  0
  145.0289  131.8256  151.0210 C   0  0  0  0  0  0  0  0  0  0  0  0
  145.5926  133.1850  150.5862 C   0  0  0  0  0  0  0  0  0  0  0  0
  146.9473  133.3309  151.2875 C   0  0  0  0  0  0  0  0  0  0  0  0
  148.2332  130.8055  153.9103 C   0  0  0  0  0  0  0  0  0  0  0  0
  147.6373  131.1177  155.2966 C   0  0  0  0  0  0  0  0  0  0  0  0
  145.7470  132.6944  162.6699 H   0  0  0  0  0  0  0  0  0  0  0  0
  146.7822  131.9776  161.4342 H   0  0  0  0  0  0  0  0  0  0  0  0
  145.2836  132.7972  160.9708 H   0  0  0  0  0  0  0  0  0  0  0  0
  146.5981  134.7294  163.5842 H   0  0  0  0  0  0  0  0  0  0  0  0
  147.8602  136.8664  163.3013 H   0  0  0  0  0  0  0  0  0  0  0  0
  148.6708  136.0865  159.3460 H   0  0  0  0  0  0  0  0  0  0  0  0
  146.4972  133.1099  159.1169 H   0  0  0  0  0  0  0  0  0  0  0  0
  146.8726  132.1375  157.4508 H   0  0  0  0  0  0  0  0  0  0  0  0
  149.4015  131.9611  156.1753 H   0  0  0  0  0  0  0  0  0  0  0  0
  147.4242  133.9249  154.9092 H   0  0  0  0  0  0  0  0  0  0  0  0
  149.0363  134.2913  155.4598 H   0  0  0  0  0  0  0  0  0  0  0  0
  149.0302  133.9868  152.9910 H   0  0  0  0  0  0  0  0  0  0  0  0
  150.0287  132.7983  153.7648 H   0  0  0  0  0  0  0  0  0  0  0  0
  146.2990  132.8574  153.2791 H   0  0  0  0  0  0  0  0  0  0  0  0
  146.7380  130.5539  151.3416 H   0  0  0  0  0  0  0  0  0  0  0  0
  145.6319  130.5865  152.7135 H   0  0  0  0  0  0  0  0  0  0  0  0
  144.8042  131.1828  150.1690 H   0  0  0  0  0  0  0  0  0  0  0  0
  144.0991  131.9728  151.5719 H   0  0  0  0  0  0  0  0  0  0  0  0
  145.6986  133.2540  149.5030 H   0  0  0  0  0  0  0  0  0  0  0  0
  144.9165  133.9819  150.8985 H   0  0  0  0  0  0  0  0  0  0  0  0
  147.1429  134.3653  151.5717 H   0  0  0  0  0  0  0  0  0  0  0  0
  147.7402  133.0189  150.6057 H   0  0  0  0  0  0  0  0  0  0  0  0
  147.7134  129.9664  153.4498 H   0  0  0  0  0  0  0  0  0  0  0  0
  149.2655  130.4746  154.0324 H   0  0  0  0  0  0  0  0  0  0  0  0
  147.6970  130.2296  155.9271 H   0  0  0  0  0  0  0  0  0  0  0  0
  146.5760  131.3500  155.2006 H   0  0  0  0  0  0  0  0  0  0  0  0
  148.7632  131.7315  152.2030 H   0  0  0  0  0  0  0  0  0  0  0  0
  1  2  1  0  0  0  0
  1 23  1  0  0  0  0
  1 24  1  0  0  0  0
  1 25  1  0  0  0  0
  2  7  1  0  0  0  0
  2  3  2  0  0  0  0
  3  4  1  0  0  0  0
  3 26  1  0  0  0  0
  4  5  2  0  0  0  0
  4 27  1  0  0  0  0
  5  6  1  0  0  0  0
  6  7  2  0  0  0  0
  6 28  1  0  0  0  0
  7  8  1  0  0  0  0
  8  9  1  0  0  0  0
  8 29  1  0  0  0  0
  9 10  2  0  0  0  0
  9 11  1  0  0  0  0
 11 12  1  0  0  0  0
 11 30  1  0  0  0  0
 12 22  1  0  0  0  0
 12 13  1  0  0  0  0
 12 31  1  0  0  0  0
 13 14  1  0  0  0  0
 13 32  1  0  0  0  0
 13 33  1  0  0  0  0
 14 15  1  0  0  0  0
 14 34  1  0  0  0  0
 14 35  1  0  0  0  0
 15 16  1  0  0  0  0
 15 21  1  0  0  0  0
 15 49  1  0  0  0  0
 16 20  1  0  0  0  0
 16 17  1  0  0  0  0
 16 36  1  0  0  0  0
 17 18  1  0  0  0  0
 17 37  1  0  0  0  0
 17 38  1  0  0  0  0
 18 19  1  0  0  0  0
 18 39  1  0  0  0  0
 18 40  1  0  0  0  0
 19 20  1  0  0  0  0
 19 41  1  0  0  0  0
 19 42  1  0  0  0  0
 20 43  1  0  0  0  0
 20 44  1  0  0  0  0
 21 22  1  0  0  0  0
 21 45  1  0  0  0  0
 21 46  1  0  0  0  0
 22 47  1  0  0  0  0
 22 48  1  0  0  0  0
M  CHG  1  15   1
M  END
> <s_m_source_file>
AV-unprocessed.smi

> <i_m_source_file_index>
2995

> <i_lp_mmshare_version>
43012

> <i_f3d_flags>
0

> <s_epik_input>
W0NIM11jMVtjSF1bY0hdbltjSF1jMVtOSF1DKD1PKVtOSF1bQ0hdMltDSDJdW0NIMl1OKFtDSDJdW0NIMl0yKVtDSF0zW0NIMl1bQ0gyXVtDSDJdW0NIMl0z

> <s_epik_cmdline>
J2VwaWtfcHl0aG9uJywgJy1waCcsICc3LjAnLCAnLXRuJywgJzgnLCAnLW1hJywgJzIwMCcsICctbWV0YWxfYmluZGluZycsICctaW1hZScsICc8aW5maWxlLm1hZT4nLCAnLW9tYWUnLCAnPG91dGZpbGUubWFlPic=

> <r_epik_Ionization_Penalty>
0.0196897

> <r_epik_Ionization_Penalty_Charging>
0.00179121

> <r_epik_Ionization_Penalty_Neutral>
0.0178985

> <r_epik_State_Penalty>
0.014187

> <r_epik_Charging_Adjusted_Penalty>
0.0159782

> <i_epik_Tot_Q>
1

> <i_epik_Tot_abs_Q>
1

> <r_epik_Metal_State_Penalty>
0.013703

> <b_epik_Metal_Only>
0

> <s_lp_Force_Field>
OPLS_2005

> <r_lp_Energy>
42.3495

> <b_lp_Chiralities_Consistent>
1

> <s_lp_Variant>
AV-unprocessed.smi:2995-2

> <Gold.Version>
5.8.1

> <Gold.Id.Protein>
6NUR|6NUR_protein|mol2

> <Gold.PLP.Fitness>
46.9939

> <Gold.PLP.PLP>
-39.3632

> <Gold.PLP.part.hbond>
-2.8661

> <Gold.PLP.part.metal>
0.0000

> <Gold.PLP.part.buried>
-5.8924

> <Gold.PLP.part.nonpolar>
-31.8681

> <Gold.PLP.part.repulsive>
0.0579

> <Gold.PLP.ligand.clash>
0.0000

> <Gold.PLP.ligand.torsion>
0.2846

> <Gold.PLP.Chemscore.Hbond>
2.7150

> <Gold.PLP.Chemscore.CHOScore>
0.0000

> <Gold.PLP.Chemscore.Metal>
0.0000

> <Gold.Chemscore.Hbonds>
donor molecule, donor type, donor heavy atom, donor atom, acceptor molecule, acceptor atom, score
      L1  H    15    49       P1 10747  0.81
      P1  H  6896  6908       L1    10  0.98
      P1  H  6931  6943       L1     5  0.90

> <Gold.PLP.Chemscore.Internal.Correction>
0.0549

> <Gold.Rescore>
     Score         DG    S(hbond)    S(metal)    S(lipo)     H(rot)  DE(clash)    DE(int)     intcor
     20.12     -21.44       2.10        0.00     102.10       1.17       0.00       1.31       ----

> <Gold.Chemscore.Fitness>
20.1185

> <Gold.Chemscore.DG>
-21.4361

> <Gold.Chemscore.ZeroCoef>
-5.4800

> <Gold.Chemscore.Hbond>
2.0999

> <Gold.Chemscore.Metal>
0.0000

> <Gold.Chemscore.Lipo>
102.0979

> <Gold.Chemscore.Internal_Hbond>
0.0000

> <Gold.Chemscore.DEClash>
0.0036

> <Gold.Chemscore.DEInternal>
1.3141

> <Gold.Chemscore.Rot>
1.1731

> <Gold.Chemscore.Internal.Correction>
   9.000000E+99

> <Gold.Chemscore.Hbonds>
donor molecule, donor type, donor heavy atom, donor atom, acceptor molecule, acceptor atom, score
      L1  H    15    49       P1 10747  0.74
      P1  H  6896  6908       L1    10  0.87
      P1  H  6931  6943       L1     5  0.18

> <Gold.Chemscore.Hbond.Weighted>
-7.0137

> <Gold.Chemscore.Metal.Weighted>
-0.0000

> <Gold.Chemscore.Lipo.Weighted>
-11.9455

> <Gold.Chemscore.Internal_Hbond.Weighted>
0.0000

> <Gold.Chemscore.DEClash.Weighted>
0.0036

> <Gold.Chemscore.DEInternal.Weighted>
1.3141

> <Gold.Chemscore.Rot.Weighted>
3.0030

> <Gold.Chemscore.Internal.Correction.Weighted>
   9.000000E+99

> <Gold.Protein.RotatedTorsions>
[ 6907 6896 6895 6894 ] final  135.91 input  -60.11 | X-H torsion
[ 7974 7965 7964 7962 ] final   26.82 input  175.53 | X-H torsion
[ 8008 7997 7996 7995 ] final  -80.58 input   59.86 | X-H torsion
[ 10167 10162 10161 10158 ] final  -49.95 input  -65.29 | X-H torsion
[ 10718 10713 10712 10709 ] final  111.06 input   66.30 | X-H torsion
[ 10763 10752 10751 10750 ] final -110.26 input  -60.55 | X-H torsion
[ 11005 11000 10999 10996 ] final -139.10 input  -57.11 | X-H torsion

> <Gold.Protein.ActiveResidues>
 VAL166  LYS551  ARG553  GLY616  TRP617  ASP618  TYR619  PRO620  LYS621  CYS622 
 ASP623  PHE694  ASN695  SER759  ASP760  ASP761  ALA762  ILE779  LEU786  VAL792 
 PHE793  MET794  SER795  GLU796  ALA797  LYS798  CYS799  TRP800  GLU811  SER814 

> <Gold.Protein.RotatedAtoms>
  152.2952  133.5600  159.5582 H   0  0  0  0  0  0  0  0  0  0  0  0  # atno 6907 bound_to 6896
  150.7253  134.0371  159.3762 H   0  0  0  0  0  0  0  0  0  0  0  0  # atno 6908 bound_to 6896
  151.8275  135.0632  160.0483 H   0  0  0  0  0  0  0  0  0  0  0  0  # atno 6909 bound_to 6896
  146.1817  139.7275  142.8896 H   0  0  0  0  0  0  0  0  0  0  0  0  # atno 7974 bound_to 7965
  154.5897  140.0661  156.9221 H   0  0  0  0  0  0  0  0  0  0  0  0  # atno 8008 bound_to 7997
  155.2317  140.3338  155.4284 H   0  0  0  0  0  0  0  0  0  0  0  0  # atno 8009 bound_to 7997
  156.2247  140.1814  156.7376 H   0  0  0  0  0  0  0  0  0  0  0  0  # atno 8010 bound_to 7997
  140.6661  143.2677  151.4289 H   0  0  0  0  0  0  0  0  0  0  0  0  # atno 10167 bound_to 10162
  157.6464  131.0944  150.6692 H   0  0  0  0  0  0  0  0  0  0  0  0  # atno 10718 bound_to 10713
  154.8238  135.4571  154.0857 H   0  0  0  0  0  0  0  0  0  0  0  0  # atno 10763 bound_to 10752
  153.2189  135.6891  153.8031 H   0  0  0  0  0  0  0  0  0  0  0  0  # atno 10764 bound_to 10752
  153.7455  135.3306  155.3288 H   0  0  0  0  0  0  0  0  0  0  0  0  # atno 10765 bound_to 10752
  140.8552  134.2236  157.4738 H   0  0  0  0  0  0  0  0  0  0  0  0  # atno 11005 bound_to 11000
  145.4057  141.0390  143.3045 LP  0  0  0  0  0  0  0  0  0  0  0  0  # atno 17320 bound_to 7965
  144.8326  139.5602  143.6936 LP  0  0  0  0  0  0  0  0  0  0  0  0  # atno 17321 bound_to 7965
  139.5910  144.1499  152.2088 LP  0  0  0  0  0  0  0  0  0  0  0  0  # atno 17342 bound_to 10162
  140.0853  144.5666  150.7093 LP  0  0  0  0  0  0  0  0  0  0  0  0  # atno 17343 bound_to 10162
  156.7009  130.4623  149.5573 LP  0  0  0  0  0  0  0  0  0  0  0  0  # atno 17370 bound_to 10713
  156.1796  130.6490  151.0935 LP  0  0  0  0  0  0  0  0  0  0  0  0  # atno 17371 bound_to 10713
  139.8705  134.9703  156.4696 LP  0  0  0  0  0  0  0  0  0  0  0  0  # atno 17394 bound_to 11000
  140.8745  133.7964  155.9399 LP  0  0  0  0  0  0  0  0  0  0  0  0  # atno 17395 bound_to 11000

$$$$
