AV-unprocessed.smi:1159|AV-procd|sdf|4914|dock5
  -GOLD-   22720 3493D 1   1.00000     0.00000
 Structure written by MMmdl.
 41 42  0  0  0  0  0  0  0  0  1 V2000
  147.3010  137.7901  155.8882 O   0  0  0  0  0  0  0  0  0  0  0  0
  148.0070  137.5534  154.9086 C   0  0  0  0  0  0  0  0  0  0  0  0
  149.3306  137.7746  154.8255 N   0  0  0  0  0  0  0  0  0  0  0  0
  150.2102  138.3466  155.7861 C   0  0  0  0  0  0  0  0  0  0  0  0
  149.9600  138.4031  157.1787 C   0  0  0  0  0  0  0  0  0  0  0  0
  150.9125  139.0134  158.0174 C   0  0  0  0  0  0  0  0  0  0  0  0
  152.0803  139.5542  157.4446 C   0  0  0  0  0  0  0  0  0  0  0  0
  153.0059  140.1523  158.2744 O   0  0  0  0  0  0  0  0  0  0  0  0
  152.6046  140.5137  159.5934 C   0  0  0  0  0  0  0  0  0  0  0  0
  153.4170  141.7303  160.0531 C   0  0  0  0  0  0  0  0  0  0  0  0
  154.7161  141.4390  159.9974 F   0  0  0  0  0  0  0  0  0  0  0  0
  153.1783  142.7716  159.2563 F   0  0  0  0  0  0  0  0  0  0  0  0
  153.1030  142.0467  161.3090 F   0  0  0  0  0  0  0  0  0  0  0  0
  152.3234  139.5119  156.1115 N   0  0  0  0  0  0  0  0  0  0  0  0
  151.4067  138.9249  155.3133 C   0  0  0  0  0  0  0  0  0  0  0  0
  147.5360  137.0195  153.7715 N   0  0  0  0  0  0  0  0  0  0  0  0
  146.1348  136.6822  153.5075 C   0  0  2  0  0  0  0  0  0  0  0  0
  146.0185  135.1406  153.5083 C   0  0  0  0  0  0  0  0  0  0  0  0
  144.5942  134.6247  153.7776 C   0  0  0  0  0  0  0  0  0  0  0  0
  143.5624  134.9752  152.6948 C   0  0  0  0  0  0  0  0  0  0  0  0
  143.3340  136.4866  152.5253 C   0  0  0  0  0  0  0  0  0  0  0  0
  144.4054  137.1218  151.7691 N   0  0  0  0  0  0  0  0  0  0  0  0
  145.6943  137.2252  152.1275 C   0  0  0  0  0  0  0  0  0  0  0  0
  146.5113  137.7407  151.3645 O   0  0  0  0  0  0  0  0  0  0  0  0
  149.7720  137.4729  153.9692 H   0  0  0  0  0  0  0  0  0  0  0  0
  149.0615  138.0066  157.6235 H   0  0  0  0  0  0  0  0  0  0  0  0
  150.7465  139.0699  159.0832 H   0  0  0  0  0  0  0  0  0  0  0  0
  151.5404  140.7549  159.6119 H   0  0  0  0  0  0  0  0  0  0  0  0
  152.7711  139.6819  160.2800 H   0  0  0  0  0  0  0  0  0  0  0  0
  151.6393  138.9168  154.2584 H   0  0  0  0  0  0  0  0  0  0  0  0
  148.1877  136.8597  153.0177 H   0  0  0  0  0  0  0  0  0  0  0  0
  145.5097  137.1067  154.2951 H   0  0  0  0  0  0  0  0  0  0  0  0
  146.4034  134.7182  152.5785 H   0  0  0  0  0  0  0  0  0  0  0  0
  146.6563  134.7374  154.2968 H   0  0  0  0  0  0  0  0  0  0  0  0
  144.6322  133.5398  153.8794 H   0  0  0  0  0  0  0  0  0  0  0  0
  144.2495  134.9997  154.7419 H   0  0  0  0  0  0  0  0  0  0  0  0
  143.8488  134.5281  151.7420 H   0  0  0  0  0  0  0  0  0  0  0  0
  142.6140  134.5119  152.9685 H   0  0  0  0  0  0  0  0  0  0  0  0
  142.4106  136.6488  151.9690 H   0  0  0  0  0  0  0  0  0  0  0  0
  143.2016  136.9786  153.4899 H   0  0  0  0  0  0  0  0  0  0  0  0
  144.1503  137.4962  150.8665 H   0  0  0  0  0  0  0  0  0  0  0  0
  1  2  2  0  0  0  0
  2  3  1  0  0  0  0
  2 16  1  0  0  0  0
  3  4  1  0  0  0  0
  3 25  1  0  0  0  0
  4 15  1  0  0  0  0
  4  5  2  0  0  0  0
  5  6  1  0  0  0  0
  5 26  1  0  0  0  0
  6  7  2  0  0  0  0
  6 27  1  0  0  0  0
  7  8  1  0  0  0  0
  7 14  1  0  0  0  0
  8  9  1  0  0  0  0
  9 10  1  0  0  0  0
  9 28  1  0  0  0  0
  9 29  1  0  0  0  0
 10 11  1  0  0  0  0
 10 12  1  0  0  0  0
 10 13  1  0  0  0  0
 14 15  2  0  0  0  0
 15 30  1  0  0  0  0
 16 17  1  0  0  0  0
 16 31  1  0  0  0  0
 17 23  1  0  0  0  0
 17 18  1  0  0  0  0
 17 32  1  0  0  0  0
 18 19  1  0  0  0  0
 18 33  1  0  0  0  0
 18 34  1  0  0  0  0
 19 20  1  0  0  0  0
 19 35  1  0  0  0  0
 19 36  1  0  0  0  0
 20 21  1  0  0  0  0
 20 37  1  0  0  0  0
 20 38  1  0  0  0  0
 21 22  1  0  0  0  0
 21 39  1  0  0  0  0
 21 40  1  0  0  0  0
 22 23  1  0  0  0  0
 22 41  1  0  0  0  0
 23 24  2  0  0  0  0
M  END
> <s_m_source_file>
AV-unprocessed.smi

> <i_m_source_file_index>
1159

> <i_lp_mmshare_version>
43012

> <i_f3d_flags>
0

> <s_epik_input>
Tz1DMVtOSF1bQ0gyXVtDSDJdW0NIMl1bQ0gyXVtDQEhdMVtOSF1DKD1PKVtOSF1jMltjSF1bY0hdYyhuW2NIXTIpT1tDSDJdQyhGKShGKUY=

> <s_epik_cmdline>
J2VwaWtfcHl0aG9uJywgJy1waCcsICc3LjAnLCAnLXRuJywgJzgnLCAnLW1hJywgJzIwMCcsICctbWV0YWxfYmluZGluZycsICctaW1hZScsICc8aW5maWxlLm1hZT4nLCAnLW9tYWUnLCAnPG91dGZpbGUubWFlPic=

> <r_lp_tautomer_probability>
1

> <r_epik_Ionization_Penalty>
3.53205e-05

> <r_epik_Ionization_Penalty_Charging>
0

> <r_epik_Ionization_Penalty_Neutral>
3.53205e-05

> <r_epik_State_Penalty>
-0

> <r_epik_Charging_Adjusted_Penalty>
0

> <i_epik_Tot_Q>
0

> <i_epik_Tot_abs_Q>
0

> <r_epik_Metal_State_Penalty>
-0

> <b_epik_Metal_Only>
0

> <s_lp_Force_Field>
OPLS_2005

> <r_lp_Energy>
13.2476

> <b_lp_Chiralities_Consistent>
1

> <s_lp_Variant>
AV-unprocessed.smi:1159-1

> <Gold.Version>
5.8.1

> <Gold.Id.Protein>
6NUR|6NUR_protein|mol2

> <Gold.PLP.Fitness>
43.0733

> <Gold.PLP.PLP>
-33.8521

> <Gold.PLP.part.hbond>
-3.8910

> <Gold.PLP.part.metal>
0.0000

> <Gold.PLP.part.buried>
-6.5801

> <Gold.PLP.part.nonpolar>
-26.4825

> <Gold.PLP.part.repulsive>
1.8475

> <Gold.PLP.ligand.clash>
0.0000

> <Gold.PLP.ligand.torsion>
0.6365

> <Gold.PLP.Chemscore.Hbond>
3.4873

> <Gold.PLP.Chemscore.CHOScore>
0.0000

> <Gold.PLP.Chemscore.Metal>
0.0000

> <Gold.Chemscore.Hbonds>
donor molecule, donor type, donor heavy atom, donor atom, acceptor molecule, acceptor atom, score
      L1  H    16    31       P1  7948  0.98
      L1  H    22    41       P1 10171  1.00
      P1  H  7954  7966       L1    24  0.54
      P1  H  7997  8009       L1     8  0.96

> <Gold.PLP.Chemscore.Internal.Correction>
0.0324

> <Gold.Rescore>
     Score         DG    S(hbond)    S(metal)    S(lipo)     H(rot)  DE(clash)    DE(int)     intcor
     13.59     -16.65       3.00        0.00      49.35       1.81       1.40       1.65       ----

> <Gold.Chemscore.Fitness>
13.5926

> <Gold.Chemscore.DG>
-16.6468

> <Gold.Chemscore.ZeroCoef>
-5.4800

> <Gold.Chemscore.Hbond>
2.9991

> <Gold.Chemscore.Metal>
0.0000

> <Gold.Chemscore.Lipo>
49.3456

> <Gold.Chemscore.Internal_Hbond>
0.0000

> <Gold.Chemscore.DEClash>
1.3999

> <Gold.Chemscore.DEInternal>
1.6543

> <Gold.Chemscore.Rot>
1.8062

> <Gold.Chemscore.Internal.Correction>
   9.000000E+99

> <Gold.Chemscore.Hbonds>
donor molecule, donor type, donor heavy atom, donor atom, acceptor molecule, acceptor atom, score
      L1  H    16    31       P1  7948  0.91
      L1  H    22    41       P1 10171  0.93
      P1  H  7954  7966       L1    24  0.54
      P1  H  7997  8009       L1     8  0.22

> <Gold.Chemscore.Hbond.Weighted>
-10.0171

> <Gold.Chemscore.Metal.Weighted>
-0.0000

> <Gold.Chemscore.Lipo.Weighted>
-5.7734

> <Gold.Chemscore.Internal_Hbond.Weighted>
0.0000

> <Gold.Chemscore.DEClash.Weighted>
1.3999

> <Gold.Chemscore.DEInternal.Weighted>
1.6543

> <Gold.Chemscore.Rot.Weighted>
4.6238

> <Gold.Chemscore.Internal.Correction.Weighted>
   9.000000E+99

> <Gold.Protein.RotatedTorsions>
[ 6907 6896 6895 6894 ] final -103.56 input  -60.11 | X-H torsion
[ 7974 7965 7964 7962 ] final  -96.13 input  175.53 | X-H torsion
[ 8008 7997 7996 7995 ] final  149.17 input   59.86 | X-H torsion
[ 10167 10162 10161 10158 ] final  107.96 input  -65.29 | X-H torsion
[ 10718 10713 10712 10709 ] final  119.48 input   66.30 | X-H torsion
[ 10763 10752 10751 10750 ] final -157.74 input  -60.55 | X-H torsion
[ 11005 11000 10999 10996 ] final  -29.71 input  -57.11 | X-H torsion

> <Gold.Protein.ActiveResidues>
 VAL166  LYS551  ARG553  GLY616  TRP617  ASP618  TYR619  PRO620  LYS621  CYS622 
 ASP623  PHE694  ASN695  SER759  ASP760  ASP761  ALA762  ILE779  LEU786  VAL792 
 PHE793  MET794  SER795  GLU796  ALA797  LYS798  CYS799  TRP800  GLU811  SER814 

> <Gold.Protein.RotatedAtoms>
  150.7246  134.0411  159.3765 H   0  0  0  0  0  0  0  0  0  0  0  0  # atno 6907 bound_to 6896
  151.8384  135.0596  160.0454 H   0  0  0  0  0  0  0  0  0  0  0  0  # atno 6908 bound_to 6896
  152.2881  133.5498  159.5576 H   0  0  0  0  0  0  0  0  0  0  0  0  # atno 6909 bound_to 6896
  145.3509  140.9476  143.2555 H   0  0  0  0  0  0  0  0  0  0  0  0  # atno 7974 bound_to 7965
  156.2765  140.2109  156.5815 H   0  0  0  0  0  0  0  0  0  0  0  0  # atno 8008 bound_to 7997
  154.7055  140.0517  157.0522 H   0  0  0  0  0  0  0  0  0  0  0  0  # atno 8009 bound_to 7997
  155.0677  140.3173  155.4643 H   0  0  0  0  0  0  0  0  0  0  0  0  # atno 8010 bound_to 7997
  139.6884  144.7111  151.1391 H   0  0  0  0  0  0  0  0  0  0  0  0  # atno 10167 bound_to 10162
  157.5958  131.1058  150.7902 H   0  0  0  0  0  0  0  0  0  0  0  0  # atno 10718 bound_to 10713
  154.7612  135.3118  154.8375 H   0  0  0  0  0  0  0  0  0  0  0  0  # atno 10763 bound_to 10752
  153.9135  135.6803  153.4754 H   0  0  0  0  0  0  0  0  0  0  0  0  # atno 10764 bound_to 10752
  153.1213  135.4821  154.9131 H   0  0  0  0  0  0  0  0  0  0  0  0  # atno 10765 bound_to 10752
  140.9320  133.7332  156.0950 H   0  0  0  0  0  0  0  0  0  0  0  0  # atno 11005 bound_to 11000
  144.8718  139.5027  143.6764 LP  0  0  0  0  0  0  0  0  0  0  0  0  # atno 17320 bound_to 7965
  146.2968  139.7303  142.9120 LP  0  0  0  0  0  0  0  0  0  0  0  0  # atno 17321 bound_to 7965
  140.7675  143.5595  150.9115 LP  0  0  0  0  0  0  0  0  0  0  0  0  # atno 17342 bound_to 10162
  139.9271  143.6537  152.3084 LP  0  0  0  0  0  0  0  0  0  0  0  0  # atno 17343 bound_to 10162
  156.8313  130.5017  149.5331 LP  0  0  0  0  0  0  0  0  0  0  0  0  # atno 17370 bound_to 10713
  156.1021  130.5977  150.9911 LP  0  0  0  0  0  0  0  0  0  0  0  0  # atno 17371 bound_to 10713
  140.7849  134.3683  157.5478 LP  0  0  0  0  0  0  0  0  0  0  0  0  # atno 17394 bound_to 11000
  139.8798  134.9105  156.3015 LP  0  0  0  0  0  0  0  0  0  0  0  0  # atno 17395 bound_to 11000

$$$$
