AV-unprocessed.smi:1006|AV-procd|sdf|4390|dock10
  -GOLD-   22720 2323D 1   1.00000     0.00000
 Structure written by MMmdl.
 45 47  0  0  0  0  0  0  0  0  1 V2000
  145.1684  136.1397  154.7373 C   0  0  0  0  0  0  0  0  0  0  0  0
  146.0128  137.1544  153.9960 C   0  0  0  0  0  0  0  0  0  0  0  0
  145.6108  137.6714  152.7457 C   0  0  0  0  0  0  0  0  0  0  0  0
  146.4746  138.6175  152.1554 C   0  0  0  0  0  0  0  0  0  0  0  0
  146.1698  139.1877  150.9223 N   0  0  0  0  0  0  0  0  0  0  0  0
  147.6198  139.0075  152.7550 N   0  0  0  0  0  0  0  0  0  0  0  0
  147.8961  138.4467  153.9347 C   0  0  0  0  0  0  0  0  0  0  0  0
  149.4012  139.0026  154.7108 S   0  0  0  0  0  0  0  0  0  0  0  0
  148.7729  139.8357  156.2014 C   0  0  0  0  0  0  0  0  0  0  0  0
  149.1247  141.3317  156.2202 C   0  0  2  0  0  0  0  0  0  0  0  0
  148.3189  142.0183  155.2807 O   0  0  0  0  0  0  0  0  0  0  0  0
  150.6107  141.5780  155.8982 C   0  0  0  0  0  0  0  0  0  0  0  0
  151.4916  141.0641  156.9311 N   0  0  0  0  0  0  0  0  0  0  0  0
  152.1785  139.9054  156.9178 C   0  0  0  0  0  0  0  0  0  0  0  0
  152.9320  139.6323  157.9794 N   0  0  0  0  0  0  0  0  0  0  0  0
  152.7082  140.7442  158.7736 C   0  0  0  0  0  0  0  0  0  0  0  0
  153.2158  141.0789  160.0482 C   0  0  0  0  0  0  0  0  0  0  0  0
  152.8451  142.2865  160.6819 C   0  0  0  0  0  0  0  0  0  0  0  0
  153.4151  142.6067  162.0526 C   0  0  0  0  0  0  0  0  0  0  0  0
  151.9532  143.1821  160.0388 C   0  0  0  0  0  0  0  0  0  0  0  0
  151.5404  144.4853  160.7001 C   0  0  0  0  0  0  0  0  0  0  0  0
  151.4368  142.8631  158.7655 C   0  0  0  0  0  0  0  0  0  0  0  0
  151.8124  141.6582  158.1461 C   0  0  0  0  0  0  0  0  0  0  0  0
  147.1606  137.5455  154.5929 N   0  0  0  0  0  0  0  0  0  0  0  0
  144.5630  135.5577  154.0419 H   0  0  0  0  0  0  0  0  0  0  0  0
  144.4999  136.6457  155.4342 H   0  0  0  0  0  0  0  0  0  0  0  0
  145.7952  135.4481  155.3014 H   0  0  0  0  0  0  0  0  0  0  0  0
  144.6918  137.3610  152.2702 H   0  0  0  0  0  0  0  0  0  0  0  0
  145.3293  138.9428  150.4190 H   0  0  0  0  0  0  0  0  0  0  0  0
  146.7889  139.8557  150.4862 H   0  0  0  0  0  0  0  0  0  0  0  0
  147.6892  139.7195  156.2304 H   0  0  0  0  0  0  0  0  0  0  0  0
  149.1734  139.3378  157.0853 H   0  0  0  0  0  0  0  0  0  0  0  0
  148.9046  141.7335  157.2104 H   0  0  0  0  0  0  0  0  0  0  0  0
  148.5689  142.9295  155.2774 H   0  0  0  0  0  0  0  0  0  0  0  0
  150.8766  141.0951  154.9572 H   0  0  0  0  0  0  0  0  0  0  0  0
  150.8060  142.6434  155.7670 H   0  0  0  0  0  0  0  0  0  0  0  0
  152.1241  139.2252  156.0802 H   0  0  0  0  0  0  0  0  0  0  0  0
  153.8956  140.3969  160.5375 H   0  0  0  0  0  0  0  0  0  0  0  0
  152.6130  142.7315  162.7804 H   0  0  0  0  0  0  0  0  0  0  0  0
  153.9986  143.5271  162.0176 H   0  0  0  0  0  0  0  0  0  0  0  0
  154.0685  141.8097  162.4086 H   0  0  0  0  0  0  0  0  0  0  0  0
  150.8786  145.0656  160.0565 H   0  0  0  0  0  0  0  0  0  0  0  0
  152.4154  145.0981  160.9178 H   0  0  0  0  0  0  0  0  0  0  0  0
  151.0129  144.2890  161.6337 H   0  0  0  0  0  0  0  0  0  0  0  0
  150.7569  143.5355  158.2635 H   0  0  0  0  0  0  0  0  0  0  0  0
  1  2  1  0  0  0  0
  1 25  1  0  0  0  0
  1 26  1  0  0  0  0
  1 27  1  0  0  0  0
  2 24  1  0  0  0  0
  2  3  2  0  0  0  0
  3  4  1  0  0  0  0
  3 28  1  0  0  0  0
  4  5  1  0  0  0  0
  4  6  2  0  0  0  0
  5 29  1  0  0  0  0
  5 30  1  0  0  0  0
  6  7  1  0  0  0  0
  7  8  1  0  0  0  0
  7 24  2  0  0  0  0
  8  9  1  0  0  0  0
  9 10  1  0  0  0  0
  9 31  1  0  0  0  0
  9 32  1  0  0  0  0
 10 11  1  0  0  0  0
 10 12  1  0  0  0  0
 10 33  1  0  0  0  0
 11 34  1  0  0  0  0
 12 13  1  0  0  0  0
 12 35  1  0  0  0  0
 12 36  1  0  0  0  0
 13 23  1  0  0  0  0
 13 14  1  0  0  0  0
 14 15  2  0  0  0  0
 14 37  1  0  0  0  0
 15 16  1  0  0  0  0
 16 23  2  0  0  0  0
 16 17  1  0  0  0  0
 17 18  2  0  0  0  0
 17 38  1  0  0  0  0
 18 19  1  0  0  0  0
 18 20  1  0  0  0  0
 19 39  1  0  0  0  0
 19 40  1  0  0  0  0
 19 41  1  0  0  0  0
 20 21  1  0  0  0  0
 20 22  2  0  0  0  0
 21 42  1  0  0  0  0
 21 43  1  0  0  0  0
 21 44  1  0  0  0  0
 22 23  1  0  0  0  0
 22 45  1  0  0  0  0
M  END
> <s_m_source_file>
AV-unprocessed.smi

> <i_m_source_file_index>
1006

> <i_lp_mmshare_version>
43012

> <i_f3d_flags>
0

> <s_epik_input>
W0NIM11jMVtjSF1jKFtOSDJdKW5jKG4xKVNbQ0gyXVtDQEhdKFtPSF0pW0NIMl1uKFtjSF1uMiljKGMyMylbY0hdYyhbQ0gzXSljKFtjSF0zKVtDSDNd

> <s_epik_cmdline>
J2VwaWtfcHl0aG9uJywgJy1waCcsICc3LjAnLCAnLXRuJywgJzgnLCAnLW1hJywgJzIwMCcsICctbWV0YWxfYmluZGluZycsICctaW1hZScsICc8aW5maWxlLm1hZT4nLCAnLW9tYWUnLCAnPG91dGZpbGUubWFlPic=

> <r_lp_tautomer_probability>
1

> <r_epik_Ionization_Penalty>
0.490208

> <r_epik_Ionization_Penalty_Charging>
0

> <r_epik_Ionization_Penalty_Neutral>
0.490208

> <r_epik_State_Penalty>
0.473203

> <r_epik_Charging_Adjusted_Penalty>
0.473203

> <i_epik_Tot_Q>
0

> <i_epik_Tot_abs_Q>
0

> <r_epik_Metal_State_Penalty>
0.354099

> <b_epik_Metal_Only>
0

> <s_lp_Force_Field>
OPLS_2005

> <r_lp_Energy>
3.13918

> <b_lp_Chiralities_Consistent>
1

> <s_lp_Variant>
AV-unprocessed.smi:1006-1

> <Gold.Version>
5.8.1

> <Gold.Id.Protein>
6NUR|6NUR_protein|mol2

> <Gold.PLP.Fitness>
49.2480

> <Gold.PLP.PLP>
-42.0823

> <Gold.PLP.part.hbond>
-3.4388

> <Gold.PLP.part.metal>
0.0000

> <Gold.PLP.part.buried>
-6.0618

> <Gold.PLP.part.nonpolar>
-34.7227

> <Gold.PLP.part.repulsive>
3.3107

> <Gold.PLP.ligand.clash>
0.0000

> <Gold.PLP.ligand.torsion>
0.7890

> <Gold.PLP.Chemscore.Hbond>
2.9000

> <Gold.PLP.Chemscore.CHOScore>
0.0000

> <Gold.PLP.Chemscore.Metal>
0.0000

> <Gold.Chemscore.Hbonds>
donor molecule, donor type, donor heavy atom, donor atom, acceptor molecule, acceptor atom, score
      L1  H     5    29       P1 10171  1.00
      L1  H    11    34       P1  8028  1.00
      P1  H  7997  8009       L1    15  0.85

> <Gold.PLP.Chemscore.Internal.Correction>
0.0437

> <Gold.Rescore>
     Score         DG    S(hbond)    S(metal)    S(lipo)     H(rot)  DE(clash)    DE(int)     intcor
     16.08     -16.88       2.02        0.00     101.61       2.82       0.00       0.79       ----

> <Gold.Chemscore.Fitness>
16.0812

> <Gold.Chemscore.DG>
-16.8775

> <Gold.Chemscore.ZeroCoef>
-5.4800

> <Gold.Chemscore.Hbond>
2.0152

> <Gold.Chemscore.Metal>
0.0000

> <Gold.Chemscore.Lipo>
101.6089

> <Gold.Chemscore.Internal_Hbond>
0.0000

> <Gold.Chemscore.DEClash>
0.0048

> <Gold.Chemscore.DEInternal>
0.7914

> <Gold.Chemscore.Rot>
2.8209

> <Gold.Chemscore.Internal.Correction>
   9.000000E+99

> <Gold.Chemscore.Hbonds>
donor molecule, donor type, donor heavy atom, donor atom, acceptor molecule, acceptor atom, score
      L1  H     5    29       P1 10171  0.98
      L1  H    11    34       P1  8028  1.00
      P1  H  7997  8009       L1    15  0.05

> <Gold.Chemscore.Hbond.Weighted>
-6.7307

> <Gold.Chemscore.Metal.Weighted>
-0.0000

> <Gold.Chemscore.Lipo.Weighted>
-11.8882

> <Gold.Chemscore.Internal_Hbond.Weighted>
0.0000

> <Gold.Chemscore.DEClash.Weighted>
0.0048

> <Gold.Chemscore.DEInternal.Weighted>
0.7914

> <Gold.Chemscore.Rot.Weighted>
7.2215

> <Gold.Chemscore.Internal.Correction.Weighted>
   9.000000E+99

> <Gold.Protein.RotatedTorsions>
[ 6907 6896 6895 6894 ] final -177.18 input  -60.11 | X-H torsion
[ 7974 7965 7964 7962 ] final  -48.45 input  175.53 | X-H torsion
[ 8008 7997 7996 7995 ] final  144.03 input   59.86 | X-H torsion
[ 10167 10162 10161 10158 ] final  -86.14 input  -65.29 | X-H torsion
[ 10718 10713 10712 10709 ] final   87.80 input   66.30 | X-H torsion
[ 10763 10752 10751 10750 ] final   92.43 input  -60.55 | X-H torsion
[ 11005 11000 10999 10996 ] final -137.55 input  -57.11 | X-H torsion

> <Gold.Protein.ActiveResidues>
 VAL166  LYS551  ARG553  GLY616  TRP617  ASP618  TYR619  PRO620  LYS621  CYS622 
 ASP623  PHE694  ASN695  SER759  ASP760  ASP761  ALA762  ILE779  LEU786  VAL792 
 PHE793  MET794  SER795  GLU796  ALA797  LYS798  CYS799  TRP800  GLU811  SER814 

> <Gold.Protein.RotatedAtoms>
  151.6168  133.3342  159.3079 H   0  0  0  0  0  0  0  0  0  0  0  0  # atno 6907 bound_to 6896
  150.8127  134.7295  159.6714 H   0  0  0  0  0  0  0  0  0  0  0  0  # atno 6908 bound_to 6896
  152.4224  134.5936  160.0032 H   0  0  0  0  0  0  0  0  0  0  0  0  # atno 6909 bound_to 6896
  145.9510  140.7572  142.9504 H   0  0  0  0  0  0  0  0  0  0  0  0  # atno 7974 bound_to 7965
  156.2917  140.2247  156.4986 H   0  0  0  0  0  0  0  0  0  0  0  0  # atno 8008 bound_to 7997
  154.7709  140.0466  157.1072 H   0  0  0  0  0  0  0  0  0  0  0  0  # atno 8009 bound_to 7997
  154.9875  140.3086  155.4923 H   0  0  0  0  0  0  0  0  0  0  0  0  # atno 8010 bound_to 7997
  140.3970  143.2679  151.9192 H   0  0  0  0  0  0  0  0  0  0  0  0  # atno 10167 bound_to 10162
  157.6943  131.0270  150.3178 H   0  0  0  0  0  0  0  0  0  0  0  0  # atno 10718 bound_to 10713
  153.2191  135.4361  155.0469 H   0  0  0  0  0  0  0  0  0  0  0  0  # atno 10763 bound_to 10752
  154.8241  135.3352  154.6953 H   0  0  0  0  0  0  0  0  0  0  0  0  # atno 10764 bound_to 10752
  153.7386  135.7006  153.5028 H   0  0  0  0  0  0  0  0  0  0  0  0  # atno 10765 bound_to 10752
  140.8700  134.2062  157.4656 H   0  0  0  0  0  0  0  0  0  0  0  0  # atno 11005 bound_to 11000
  144.6796  140.2435  143.7340 LP  0  0  0  0  0  0  0  0  0  0  0  0  # atno 17320 bound_to 7965
  145.8170  139.2027  143.1960 LP  0  0  0  0  0  0  0  0  0  0  0  0  # atno 17321 bound_to 7965
  139.4786  144.5671  151.8147 LP  0  0  0  0  0  0  0  0  0  0  0  0  # atno 17342 bound_to 10162
  140.4780  144.1491  150.5928 LP  0  0  0  0  0  0  0  0  0  0  0  0  # atno 17343 bound_to 10162
  156.3670  130.3857  149.7206 LP  0  0  0  0  0  0  0  0  0  0  0  0  # atno 17370 bound_to 10713
  156.4633  130.7962  151.2982 LP  0  0  0  0  0  0  0  0  0  0  0  0  # atno 17371 bound_to 10713
  139.8711  134.9770  156.4942 LP  0  0  0  0  0  0  0  0  0  0  0  0  # atno 17394 bound_to 11000
  140.8584  133.8079  155.9239 LP  0  0  0  0  0  0  0  0  0  0  0  0  # atno 17395 bound_to 11000

$$$$
