AV-unprocessed.smi:2949|AV-procd|sdf|11287|dock5
  -GOLD-   2272016183D 1   1.00000     0.00000
 Structure written by MMmdl.
 34 35  0  0  0  0  0  0  0  0  1 V2000
  147.1978  133.1275  151.6979 N   0  0  0  0  0  0  0  0  0  0  0  0
  146.0283  132.8273  151.2534 C   0  0  0  0  0  0  0  0  0  0  0  0
  145.2549  131.1717  151.2586 S   0  0  0  0  0  0  0  0  0  0  0  0
  143.8191  131.8496  150.5215 C   0  0  0  0  0  0  0  0  0  0  0  0
  143.9359  133.1586  150.3048 C   0  0  0  0  0  0  0  0  0  0  0  0
  145.1319  133.7340  150.6829 N   0  0  0  0  0  0  0  0  0  0  0  0
  145.3746  135.1727  150.5765 C   0  0  0  0  0  0  0  0  0  0  0  0
  145.1018  135.9885  151.8467 C   0  0  0  0  0  0  0  0  0  0  0  0
  143.9616  136.0303  152.3156 O   0  0  0  0  0  0  0  0  0  0  0  0
  146.1860  136.6182  152.3552 N   0  0  0  0  0  0  0  0  0  0  0  0
  146.3251  137.4135  153.4427 C   0  0  0  0  0  0  0  0  0  0  0  0
  145.3368  137.8105  154.0578 O   0  0  0  0  0  0  0  0  0  0  0  0
  147.5786  137.7423  153.8076 N   0  0  0  0  0  0  0  0  0  0  0  0
  147.9376  138.8035  154.7439 C   0  0  0  0  0  0  0  0  0  0  0  0
  147.8551  140.1985  154.0888 C   0  0  0  0  0  0  0  0  0  0  0  0
  149.1899  140.8863  154.3811 C   0  0  0  0  0  0  0  0  0  0  0  0
  150.1870  139.7393  154.5080 C   0  0  0  0  0  0  0  0  0  0  0  0
  149.3952  138.6358  155.2091 C   0  0  0  0  0  0  0  0  0  0  0  0
  147.3788  134.1131  151.5769 H   0  0  0  0  0  0  0  0  0  0  0  0
  142.9623  131.2332  150.2933 H   0  0  0  0  0  0  0  0  0  0  0  0
  143.1889  133.8044  149.8667 H   0  0  0  0  0  0  0  0  0  0  0  0
  146.4022  135.3520  150.2557 H   0  0  0  0  0  0  0  0  0  0  0  0
  144.7475  135.5732  149.7787 H   0  0  0  0  0  0  0  0  0  0  0  0
  147.0392  136.4740  151.8351 H   0  0  0  0  0  0  0  0  0  0  0  0
  148.3401  137.2129  153.4066 H   0  0  0  0  0  0  0  0  0  0  0  0
  147.2804  138.7529  155.6141 H   0  0  0  0  0  0  0  0  0  0  0  0
  147.7307  140.1113  153.0081 H   0  0  0  0  0  0  0  0  0  0  0  0
  147.0102  140.7775  154.4625 H   0  0  0  0  0  0  0  0  0  0  0  0
  149.4703  141.6035  153.6094 H   0  0  0  0  0  0  0  0  0  0  0  0
  149.1280  141.4231  155.3286 H   0  0  0  0  0  0  0  0  0  0  0  0
  150.4888  139.4025  153.5153 H   0  0  0  0  0  0  0  0  0  0  0  0
  151.0873  140.0222  155.0540 H   0  0  0  0  0  0  0  0  0  0  0  0
  149.4474  138.7896  156.2876 H   0  0  0  0  0  0  0  0  0  0  0  0
  149.8043  137.6447  155.0076 H   0  0  0  0  0  0  0  0  0  0  0  0
  1  2  2  0  0  0  0
  1 19  1  0  0  0  0
  2  6  1  0  0  0  0
  2  3  1  0  0  0  0
  3  4  1  0  0  0  0
  4  5  2  0  0  0  0
  4 20  1  0  0  0  0
  5  6  1  0  0  0  0
  5 21  1  0  0  0  0
  6  7  1  0  0  0  0
  7  8  1  0  0  0  0
  7 22  1  0  0  0  0
  7 23  1  0  0  0  0
  8  9  2  0  0  0  0
  8 10  1  0  0  0  0
 10 11  1  0  0  0  0
 10 24  1  0  0  0  0
 11 12  2  0  0  0  0
 11 13  1  0  0  0  0
 13 14  1  0  0  0  0
 13 25  1  0  0  0  0
 14 18  1  0  0  0  0
 14 15  1  0  0  0  0
 14 26  1  0  0  0  0
 15 16  1  0  0  0  0
 15 27  1  0  0  0  0
 15 28  1  0  0  0  0
 16 17  1  0  0  0  0
 16 29  1  0  0  0  0
 16 30  1  0  0  0  0
 17 18  1  0  0  0  0
 17 31  1  0  0  0  0
 17 32  1  0  0  0  0
 18 33  1  0  0  0  0
 18 34  1  0  0  0  0
M  END
> <s_m_source_file>
AV-unprocessed.smi

> <i_m_source_file_index>
2949

> <i_lp_mmshare_version>
43012

> <i_f3d_flags>
0

> <s_epik_input>
W0hdL049YzFcc1tjSF1bY0hdbjFbQ0gyXUMoPU8pW05IXUMoPU8pW05IXVtDSF0yW0NIMl1bQ0gyXVtDSDJdW0NIMl0y

> <s_epik_cmdline>
J2VwaWtfcHl0aG9uJywgJy1waCcsICc3LjAnLCAnLXRuJywgJzgnLCAnLW1hJywgJzIwMCcsICctbWV0YWxfYmluZGluZycsICctaW1hZScsICc8aW5maWxlLm1hZT4nLCAnLW9tYWUnLCAnPG91dGZpbGUubWFlPic=

> <r_epik_Ionization_Penalty>
2.0346

> <r_epik_Ionization_Penalty_Charging>
2.03458

> <r_epik_Ionization_Penalty_Neutral>
2.61125e-05

> <r_epik_State_Penalty>
2.18096

> <r_epik_Charging_Adjusted_Penalty>
4.21554

> <i_epik_Tot_Q>
0

> <i_epik_Tot_abs_Q>
0

> <r_epik_Metal_State_Penalty>
2.18096

> <b_epik_Metal_Only>
0

> <s_lp_Force_Field>
OPLS_2005

> <r_lp_Energy>
19.3427

> <b_lp_Chiralities_Consistent>
1

> <s_lp_Variant>
AV-unprocessed.smi:2949-3

> <Gold.Version>
5.8.1

> <Gold.Id.Protein>
6NUR|6NUR_protein|mol2

> <Gold.PLP.Fitness>
40.8350

> <Gold.PLP.PLP>
-30.3224

> <Gold.PLP.part.hbond>
-2.6026

> <Gold.PLP.part.metal>
0.0000

> <Gold.PLP.part.buried>
-3.1875

> <Gold.PLP.part.nonpolar>
-25.2319

> <Gold.PLP.part.repulsive>
0.2617

> <Gold.PLP.ligand.clash>
0.0000

> <Gold.PLP.ligand.torsion>
0.6124

> <Gold.PLP.Chemscore.Hbond>
1.9040

> <Gold.PLP.Chemscore.CHOScore>
2.0000

> <Gold.PLP.Chemscore.Metal>
0.0000

> <Gold.Chemscore.Hbonds>
donor molecule, donor type, donor heavy atom, donor atom, acceptor molecule, acceptor atom, score
      L1  H    10    24       P1  7948  0.99
      L1  H    13    25       P1  7948  0.91
      L1  C     4    20       P1 10952  1.00
      L1  C     5    21       P1 10186  1.00

> <Gold.PLP.Chemscore.Internal.Correction>
0.0254

> <Gold.Rescore>
     Score         DG    S(hbond)    S(metal)    S(lipo)     H(rot)  DE(clash)    DE(int)     intcor
     12.70     -14.64       1.86        0.00      62.24       1.69       0.01       1.93       ----

> <Gold.Chemscore.Fitness>
12.7037

> <Gold.Chemscore.DG>
-14.6424

> <Gold.Chemscore.ZeroCoef>
-5.4800

> <Gold.Chemscore.Hbond>
1.8559

> <Gold.Chemscore.Metal>
0.0000

> <Gold.Chemscore.Lipo>
62.2448

> <Gold.Chemscore.Internal_Hbond>
0.0000

> <Gold.Chemscore.DEClash>
0.0106

> <Gold.Chemscore.DEInternal>
1.9280

> <Gold.Chemscore.Rot>
1.6871

> <Gold.Chemscore.Internal.Correction>
   9.000000E+99

> <Gold.Chemscore.Hbonds>
donor molecule, donor type, donor heavy atom, donor atom, acceptor molecule, acceptor atom, score
      L1  H    10    24       P1  7948  0.94
      L1  H    13    25       P1  7948  0.89

> <Gold.Chemscore.Hbond.Weighted>
-6.1988

> <Gold.Chemscore.Metal.Weighted>
-0.0000

> <Gold.Chemscore.Lipo.Weighted>
-7.2826

> <Gold.Chemscore.Internal_Hbond.Weighted>
0.0000

> <Gold.Chemscore.DEClash.Weighted>
0.0106

> <Gold.Chemscore.DEInternal.Weighted>
1.9280

> <Gold.Chemscore.Rot.Weighted>
4.3191

> <Gold.Chemscore.Internal.Correction.Weighted>
   9.000000E+99

> <Gold.Protein.RotatedTorsions>
[ 6907 6896 6895 6894 ] final -125.51 input  -60.11 | X-H torsion
[ 7974 7965 7964 7962 ] final   98.74 input  175.53 | X-H torsion
[ 8008 7997 7996 7995 ] final   17.40 input   59.86 | X-H torsion
[ 10167 10162 10161 10158 ] final   88.36 input  -65.29 | X-H torsion
[ 10718 10713 10712 10709 ] final   90.70 input   66.30 | X-H torsion
[ 10763 10752 10751 10750 ] final    3.98 input  -60.55 | X-H torsion
[ 11005 11000 10999 10996 ] final  174.57 input  -57.11 | X-H torsion

> <Gold.Protein.ActiveResidues>
 VAL166  LYS551  ARG553  GLY616  TRP617  ASP618  TYR619  PRO620  LYS621  CYS622 
 ASP623  PHE694  ASN695  SER759  ASP760  ASP761  ALA762  ILE779  LEU786  VAL792 
 PHE793  MET794  SER795  GLU796  ALA797  LYS798  CYS799  TRP800  GLU811  SER814 

> <Gold.Protein.RotatedAtoms>
  150.8874  133.7288  159.2914 H   0  0  0  0  0  0  0  0  0  0  0  0  # atno 6907 bound_to 6896
  151.4850  135.1053  159.9797 H   0  0  0  0  0  0  0  0  0  0  0  0  # atno 6908 bound_to 6896
  152.4799  133.8182  159.7095 H   0  0  0  0  0  0  0  0  0  0  0  0  # atno 6909 bound_to 6896
  145.4081  139.2337  143.3263 H   0  0  0  0  0  0  0  0  0  0  0  0  # atno 7974 bound_to 7965
  154.8909  140.2986  155.5371 H   0  0  0  0  0  0  0  0  0  0  0  0  # atno 8008 bound_to 7997
  156.3021  140.2425  156.3858 H   0  0  0  0  0  0  0  0  0  0  0  0  # atno 8009 bound_to 7997
  154.8620  140.0405  157.1660 H   0  0  0  0  0  0  0  0  0  0  0  0  # atno 8010 bound_to 7997
  139.8680  144.6508  150.8982 H   0  0  0  0  0  0  0  0  0  0  0  0  # atno 10167 bound_to 10162
  157.6959  131.0380  150.3618 H   0  0  0  0  0  0  0  0  0  0  0  0  # atno 10718 bound_to 10713
  153.2768  135.6937  153.7425 H   0  0  0  0  0  0  0  0  0  0  0  0  # atno 10763 bound_to 10752
  153.6428  135.3390  155.3077 H   0  0  0  0  0  0  0  0  0  0  0  0  # atno 10764 bound_to 10752
  154.8482  135.4435  154.1808 H   0  0  0  0  0  0  0  0  0  0  0  0  # atno 10765 bound_to 10752
  140.3528  134.7180  157.4279 H   0  0  0  0  0  0  0  0  0  0  0  0  # atno 11005 bound_to 11000
  146.2718  140.4789  142.8811 LP  0  0  0  0  0  0  0  0  0  0  0  0  # atno 17320 bound_to 7965
  144.8328  140.6733  143.6280 LP  0  0  0  0  0  0  0  0  0  0  0  0  # atno 17321 bound_to 7965
  140.7765  143.3687  151.1689 LP  0  0  0  0  0  0  0  0  0  0  0  0  # atno 17342 bound_to 10162
  139.7310  143.9072  152.3019 LP  0  0  0  0  0  0  0  0  0  0  0  0  # atno 17343 bound_to 10162
  156.4053  130.3923  149.6930 LP  0  0  0  0  0  0  0  0  0  0  0  0  # atno 17370 bound_to 10713
  156.4233  130.7779  151.2797 LP  0  0  0  0  0  0  0  0  0  0  0  0  # atno 17371 bound_to 10713
  140.0689  134.5890  155.8664 LP  0  0  0  0  0  0  0  0  0  0  0  0  # atno 17394 bound_to 11000
  141.2007  133.6614  156.5911 LP  0  0  0  0  0  0  0  0  0  0  0  0  # atno 17395 bound_to 11000

$$$$
