AV-unprocessed.smi:1809|AV-procd|sdf|7325|dock4
  -GOLD-   22720 8583D 1   1.00000     0.00000
 Structure written by MMmdl.
 39 41  0  0  0  0  0  0  0  0  3 V2000
  153.9894  136.9433  162.6495 C   0  0  0  0  0  0  0  0  0  0  0  0
  154.0477  137.6583  161.3436 C   0  0  0  0  0  0  0  0  0  0  0  0
  155.0817  138.4230  160.9843 N   0  0  0  0  0  0  0  0  0  0  0  0
  154.9054  138.9833  159.7274 N   0  0  0  0  0  0  0  0  0  0  0  0
  153.7381  138.6461  159.1607 C   0  0  0  0  0  0  0  0  0  0  0  0
  153.3750  139.0834  157.9435 N   0  5  0  0  0  0  0  0  0  0  0  0
  152.0937  139.4471  157.7114 C   0  0  0  0  0  0  0  0  0  0  0  0
  151.1594  139.3952  158.5145 O   0  0  0  0  0  0  0  0  0  0  0  0
  151.8797  139.8996  156.4698 N   0  0  0  0  0  0  0  0  0  0  0  0
  150.5964  140.3576  155.9556 C   0  0  0  0  0  0  0  0  0  0  0  0
  150.2156  141.7078  156.5773 C   0  0  2  0  0  0  0  0  0  0  0  0
  151.4325  142.6364  156.7174 C   0  0  0  0  0  0  0  0  0  0  0  0
  151.0651  143.9204  157.3662 N   0  3  2  0  0  0  0  0  0  0  0  0
  152.2525  144.7006  157.7772 C   0  0  0  0  0  0  0  0  0  0  0  0
  152.4988  144.3768  159.2620 C   0  0  0  0  0  0  0  0  0  0  0  0
  151.3068  143.5186  159.7036 C   0  0  0  0  0  0  0  0  0  0  0  0
  150.2704  143.7392  158.6005 C   0  0  2  0  0  0  0  0  0  0  0  0
  149.1811  142.6551  158.4691 C   0  0  0  0  0  0  0  0  0  0  0  0
  149.7042  141.4723  157.8834 O   0  0  0  0  0  0  0  0  0  0  0  0
  152.7596  137.5668  160.1544 S   0  0  0  0  0  0  0  0  0  0  0  0
  153.6923  137.6338  163.4389 H   0  0  0  0  0  0  0  0  0  0  0  0
  154.9662  136.5258  162.8956 H   0  0  0  0  0  0  0  0  0  0  0  0
  153.2644  136.1304  162.6041 H   0  0  0  0  0  0  0  0  0  0  0  0
  152.6675  139.9243  155.8394 H   0  0  0  0  0  0  0  0  0  0  0  0
  150.6406  140.4393  154.8682 H   0  0  0  0  0  0  0  0  0  0  0  0
  149.8374  139.6108  156.1935 H   0  0  0  0  0  0  0  0  0  0  0  0
  149.4555  142.1845  155.9548 H   0  0  0  0  0  0  0  0  0  0  0  0
  152.2045  142.1333  157.3024 H   0  0  0  0  0  0  0  0  0  0  0  0
  151.8649  142.8450  155.7381 H   0  0  0  0  0  0  0  0  0  0  0  0
  153.1244  144.4989  157.1532 H   0  0  0  0  0  0  0  0  0  0  0  0
  152.0167  145.7601  157.6697 H   0  0  0  0  0  0  0  0  0  0  0  0
  153.4363  143.8378  159.4035 H   0  0  0  0  0  0  0  0  0  0  0  0
  152.5574  145.2961  159.8455 H   0  0  0  0  0  0  0  0  0  0  0  0
  151.6013  142.4688  159.7409 H   0  0  0  0  0  0  0  0  0  0  0  0
  150.9335  143.7935  160.6905 H   0  0  0  0  0  0  0  0  0  0  0  0
  149.7768  144.6910  158.8048 H   0  0  0  0  0  0  0  0  0  0  0  0
  148.7638  142.4168  159.4476 H   0  0  0  0  0  0  0  0  0  0  0  0
  148.3533  143.0220  157.8601 H   0  0  0  0  0  0  0  0  0  0  0  0
  150.5216  144.4521  156.7011 H   0  0  0  0  0  0  0  0  0  0  0  0
  1  2  1  0  0  0  0
  1 21  1  0  0  0  0
  1 22  1  0  0  0  0
  1 23  1  0  0  0  0
  2 20  1  0  0  0  0
  2  3  2  0  0  0  0
  3  4  1  0  0  0  0
  4  5  2  0  0  0  0
  5  6  1  0  0  0  0
  5 20  1  0  0  0  0
  6  7  1  0  0  0  0
  7  8  2  0  0  0  0
  7  9  1  0  0  0  0
  9 10  1  0  0  0  0
  9 24  1  0  0  0  0
 10 11  1  0  0  0  0
 10 25  1  0  0  0  0
 10 26  1  0  0  0  0
 11 19  1  0  0  0  0
 11 12  1  0  0  0  0
 11 27  1  0  0  0  0
 12 13  1  0  0  0  0
 12 28  1  0  0  0  0
 12 29  1  0  0  0  0
 13 17  1  0  0  0  0
 13 14  1  0  0  0  0
 13 39  1  0  0  0  0
 14 15  1  0  0  0  0
 14 30  1  0  0  0  0
 14 31  1  0  0  0  0
 15 16  1  0  0  0  0
 15 32  1  0  0  0  0
 15 33  1  0  0  0  0
 16 17  1  0  0  0  0
 16 34  1  0  0  0  0
 16 35  1  0  0  0  0
 17 18  1  0  0  0  0
 17 36  1  0  0  0  0
 18 19  1  0  0  0  0
 18 37  1  0  0  0  0
 18 38  1  0  0  0  0
M  CHG  1   6  -1
M  CHG  1  13   1
M  END
> <s_m_source_file>
AV-unprocessed.smi

> <i_m_source_file_index>
1809

> <i_lp_mmshare_version>
43012

> <i_f3d_flags>
0

> <s_epik_input>
W0NIM11jMW5uYyhzMSlbTkhdQyg9TylbTkhdW0NIMl1bQ0BIXShbQ0gyXTIpT1tDSDJdW0NAQEhdKE4yMylbQ0gyXVtDSDJdW0NIMl0z

> <s_epik_cmdline>
J2VwaWtfcHl0aG9uJywgJy1waCcsICc3LjAnLCAnLXRuJywgJzgnLCAnLW1hJywgJzIwMCcsICctbWV0YWxfYmluZGluZycsICctaW1hZScsICc8aW5maWxlLm1hZT4nLCAnLW9tYWUnLCAnPG91dGZpbGUubWFlPic=

> <r_lp_tautomer_probability>
1

> <r_epik_Ionization_Penalty>
3.2601

> <r_epik_Ionization_Penalty_Charging>
3.1406

> <r_epik_Ionization_Penalty_Neutral>
0.119497

> <r_epik_State_Penalty>
3.08894

> <r_epik_Charging_Adjusted_Penalty>
6.22954

> <i_epik_Tot_Q>
0

> <i_epik_Tot_abs_Q>
2

> <r_epik_Metal_State_Penalty>
0.510807

> <b_epik_Metal_Only>
1

> <s_lp_Force_Field>
OPLS_2005

> <r_lp_Energy>
31.3106

> <b_lp_Chiralities_Consistent>
1

> <s_lp_Variant>
AV-unprocessed.smi:1809-17

> <Gold.Version>
5.8.1

> <Gold.Id.Protein>
6NUR|6NUR_protein|mol2

> <Gold.PLP.Fitness>
43.1255

> <Gold.PLP.PLP>
-32.2269

> <Gold.PLP.part.hbond>
-2.0000

> <Gold.PLP.part.metal>
0.0000

> <Gold.PLP.part.buried>
-6.3411

> <Gold.PLP.part.nonpolar>
-24.4201

> <Gold.PLP.part.repulsive>
0.2053

> <Gold.PLP.ligand.clash>
0.0000

> <Gold.PLP.ligand.torsion>
0.5581

> <Gold.PLP.Chemscore.Hbond>
4.0000

> <Gold.PLP.Chemscore.CHOScore>
0.0000

> <Gold.PLP.Chemscore.Metal>
0.0000

> <Gold.Chemscore.Hbonds>
donor molecule, donor type, donor heavy atom, donor atom, acceptor molecule, acceptor atom, score
      L1  H    13    39       P1  8028  2.00
      P1  H  7997  8008       L1     6  2.00

> <Gold.PLP.Chemscore.Internal.Correction>
0.0149

> <Gold.Rescore>
     Score         DG    S(hbond)    S(metal)    S(lipo)     H(rot)  DE(clash)    DE(int)     intcor
     14.92     -18.46       1.77        0.00      89.33       1.32       0.16       3.38       ----

> <Gold.Chemscore.Fitness>
14.9219

> <Gold.Chemscore.DG>
-18.4593

> <Gold.Chemscore.ZeroCoef>
-5.4800

> <Gold.Chemscore.Hbond>
1.7720

> <Gold.Chemscore.Metal>
0.0000

> <Gold.Chemscore.Lipo>
89.3321

> <Gold.Chemscore.Internal_Hbond>
0.0000

> <Gold.Chemscore.DEClash>
0.1610

> <Gold.Chemscore.DEInternal>
3.3764

> <Gold.Chemscore.Rot>
1.3246

> <Gold.Chemscore.Internal.Correction>
   9.000000E+99

> <Gold.Chemscore.Hbonds>
donor molecule, donor type, donor heavy atom, donor atom, acceptor molecule, acceptor atom, score
      L1  H    13    39       P1  8028  0.93
      P1  H  7997  8008       L1     6  0.59

> <Gold.Chemscore.Hbond.Weighted>
-5.9184

> <Gold.Chemscore.Metal.Weighted>
-0.0000

> <Gold.Chemscore.Lipo.Weighted>
-10.4519

> <Gold.Chemscore.Internal_Hbond.Weighted>
0.0000

> <Gold.Chemscore.DEClash.Weighted>
0.1610

> <Gold.Chemscore.DEInternal.Weighted>
3.3764

> <Gold.Chemscore.Rot.Weighted>
3.3910

> <Gold.Chemscore.Internal.Correction.Weighted>
   9.000000E+99

> <Gold.Protein.RotatedTorsions>
[ 6907 6896 6895 6894 ] final   41.70 input  -60.11 | X-H torsion
[ 7974 7965 7964 7962 ] final  143.48 input  175.53 | X-H torsion
[ 8008 7997 7996 7995 ] final  -68.00 input   59.86 | X-H torsion
[ 10167 10162 10161 10158 ] final  157.69 input  -65.29 | X-H torsion
[ 10718 10713 10712 10709 ] final   42.20 input   66.30 | X-H torsion
[ 10763 10752 10751 10750 ] final  -48.93 input  -60.55 | X-H torsion
[ 11005 11000 10999 10996 ] final  -98.02 input  -57.11 | X-H torsion

> <Gold.Protein.ActiveResidues>
 VAL166  LYS551  ARG553  GLY616  TRP617  ASP618  TYR619  PRO620  LYS621  CYS622 
 ASP623  PHE694  ASN695  SER759  ASP760  ASP761  ALA762  ILE779  LEU786  VAL792 
 PHE793  MET794  SER795  GLU796  ALA797  LYS798  CYS799  TRP800  GLU811  SER814 

> <Gold.Protein.RotatedAtoms>
  152.1986  134.8608  160.0510 H   0  0  0  0  0  0  0  0  0  0  0  0  # atno 6907 bound_to 6896
  151.9471  133.3650  159.3994 H   0  0  0  0  0  0  0  0  0  0  0  0  # atno 6908 bound_to 6896
  150.6950  134.4303  159.5289 H   0  0  0  0  0  0  0  0  0  0  0  0  # atno 6909 bound_to 6896
  144.8917  139.5548  143.5795 H   0  0  0  0  0  0  0  0  0  0  0  0  # atno 7974 bound_to 7965
  154.4837  140.0881  156.7438 H   0  0  0  0  0  0  0  0  0  0  0  0  # atno 8008 bound_to 7997
  155.4403  140.3453  155.4271 H   0  0  0  0  0  0  0  0  0  0  0  0  # atno 8009 bound_to 7997
  156.1230  140.1479  156.9165 H   0  0  0  0  0  0  0  0  0  0  0  0  # atno 8010 bound_to 7997
  139.4824  144.4894  151.8330 H   0  0  0  0  0  0  0  0  0  0  0  0  # atno 10167 bound_to 10162
  157.4022  130.7866  149.7358 H   0  0  0  0  0  0  0  0  0  0  0  0  # atno 10718 bound_to 10713
  154.0858  135.6584  153.4845 H   0  0  0  0  0  0  0  0  0  0  0  0  # atno 10763 bound_to 10752
  153.0339  135.5190  154.7429 H   0  0  0  0  0  0  0  0  0  0  0  0  # atno 10764 bound_to 10752
  154.6538  135.3005  154.9922 H   0  0  0  0  0  0  0  0  0  0  0  0  # atno 10765 bound_to 10752
  141.1359  133.8214  157.0784 H   0  0  0  0  0  0  0  0  0  0  0  0  # atno 11005 bound_to 11000
  146.3058  139.7574  142.9057 LP  0  0  0  0  0  0  0  0  0  0  0  0  # atno 17320 bound_to 7965
  145.3771  141.0352  143.3198 LP  0  0  0  0  0  0  0  0  0  0  0  0  # atno 17321 bound_to 7965
  140.4377  144.2029  150.5890 LP  0  0  0  0  0  0  0  0  0  0  0  0  # atno 17342 bound_to 10162
  140.4715  143.2411  151.9082 LP  0  0  0  0  0  0  0  0  0  0  0  0  # atno 17343 bound_to 10162
  155.9826  130.4008  150.3406 LP  0  0  0  0  0  0  0  0  0  0  0  0  # atno 17370 bound_to 10713
  157.1535  131.0327  151.2874 LP  0  0  0  0  0  0  0  0  0  0  0  0  # atno 17371 bound_to 10713
  140.0467  134.9827  157.1061 LP  0  0  0  0  0  0  0  0  0  0  0  0  # atno 17394 bound_to 11000
  140.4052  134.2040  155.7163 LP  0  0  0  0  0  0  0  0  0  0  0  0  # atno 17395 bound_to 11000

$$$$
