AV-unprocessed.smi:2104|AV-procd|sdf|8586|dock4
  -GOLD-   2272011313D 1   1.00000     0.00000
 Structure written by MMmdl.
 43 44  0  0  0  0  0  0  0  0  1 V2000
  151.7306  139.5910  157.1900 C   0  0  0  0  0  0  0  0  0  0  0  0
  151.9385  138.4058  156.3110 C   0  0  0  0  0  0  0  0  0  0  0  0
  151.0801  137.6000  155.6170 C   0  0  0  0  0  0  0  0  0  0  0  0
  151.9508  136.6650  154.9962 C   0  0  0  0  0  0  0  0  0  0  0  0
  151.4399  135.6335  154.1681 N   0  0  0  0  0  0  0  0  0  0  0  0
  150.9686  134.4345  154.5504 C   0  0  0  0  0  0  0  0  0  0  0  0
  150.9045  134.0347  155.7135 O   0  0  0  0  0  0  0  0  0  0  0  0
  150.5730  133.7082  153.4955 N   0  0  0  0  0  0  0  0  0  0  0  0
  150.0466  132.3490  153.5629 C   0  0  0  0  0  0  0  0  0  0  0  0
  148.5152  132.3290  153.4519 C   0  0  0  0  0  0  0  0  0  0  0  0
  148.1542  132.5574  152.0974 O   0  0  0  0  0  0  0  0  0  0  0  0
  146.7647  132.4271  151.8247 C   0  0  1  0  0  0  0  0  0  0  0  0
  146.3007  133.5899  150.9225 C   0  0  0  0  0  0  0  0  0  0  0  0
  144.8398  133.4149  150.4833 C   0  0  0  0  0  0  0  0  0  0  0  0
  144.6331  132.0642  149.7845 C   0  0  0  0  0  0  0  0  0  0  0  0
  145.0828  130.9037  150.6845 C   0  0  0  0  0  0  0  0  0  0  0  0
  146.5495  131.0619  151.1332 C   0  0  2  0  0  0  0  0  0  0  0  0
  146.9691  129.8935  152.0412 C   0  0  0  0  0  0  0  0  0  0  0  0
  153.2251  136.8816  155.2840 N   0  0  0  0  0  0  0  0  0  0  0  0
  153.2237  137.9979  156.1286 O   0  0  0  0  0  0  0  0  0  0  0  0
  150.6892  139.9123  157.1707 H   0  0  0  0  0  0  0  0  0  0  0  0
  152.3484  140.4281  156.8642 H   0  0  0  0  0  0  0  0  0  0  0  0
  151.9932  139.3567  158.2219 H   0  0  0  0  0  0  0  0  0  0  0  0
  150.0036  137.6699  155.5652 H   0  0  0  0  0  0  0  0  0  0  0  0
  151.4342  135.8282  153.1780 H   0  0  0  0  0  0  0  0  0  0  0  0
  150.6639  134.1133  152.5753 H   0  0  0  0  0  0  0  0  0  0  0  0
  150.4903  131.7390  152.7745 H   0  0  0  0  0  0  0  0  0  0  0  0
  150.3559  131.9060  154.5098 H   0  0  0  0  0  0  0  0  0  0  0  0
  148.1248  131.3707  153.7973 H   0  0  0  0  0  0  0  0  0  0  0  0
  148.0912  133.1021  154.0925 H   0  0  0  0  0  0  0  0  0  0  0  0
  146.1929  132.4342  152.7550 H   0  0  0  0  0  0  0  0  0  0  0  0
  146.4073  134.5430  151.4401 H   0  0  0  0  0  0  0  0  0  0  0  0
  146.9401  133.6449  150.0406 H   0  0  0  0  0  0  0  0  0  0  0  0
  144.1855  133.4821  151.3534 H   0  0  0  0  0  0  0  0  0  0  0  0
  144.5520  134.2273  149.8153 H   0  0  0  0  0  0  0  0  0  0  0  0
  143.5835  131.9414  149.5156 H   0  0  0  0  0  0  0  0  0  0  0  0
  145.1967  132.0436  148.8509 H   0  0  0  0  0  0  0  0  0  0  0  0
  144.4335  130.8525  151.5598 H   0  0  0  0  0  0  0  0  0  0  0  0
  144.9557  129.9606  150.1515 H   0  0  0  0  0  0  0  0  0  0  0  0
  147.1770  131.0307  150.2410 H   0  0  0  0  0  0  0  0  0  0  0  0
  146.3893  129.8817  152.9647 H   0  0  0  0  0  0  0  0  0  0  0  0
  148.0232  129.9583  152.3127 H   0  0  0  0  0  0  0  0  0  0  0  0
  146.8195  128.9357  151.5424 H   0  0  0  0  0  0  0  0  0  0  0  0
  1  2  1  0  0  0  0
  1 21  1  0  0  0  0
  1 22  1  0  0  0  0
  1 23  1  0  0  0  0
  2 20  1  0  0  0  0
  2  3  2  0  0  0  0
  3  4  1  0  0  0  0
  3 24  1  0  0  0  0
  4  5  1  0  0  0  0
  4 19  2  0  0  0  0
  5  6  1  0  0  0  0
  5 25  1  0  0  0  0
  6  7  2  0  0  0  0
  6  8  1  0  0  0  0
  8  9  1  0  0  0  0
  8 26  1  0  0  0  0
  9 10  1  0  0  0  0
  9 27  1  0  0  0  0
  9 28  1  0  0  0  0
 10 11  1  0  0  0  0
 10 29  1  0  0  0  0
 10 30  1  0  0  0  0
 11 12  1  0  0  0  0
 12 17  1  0  0  0  0
 12 13  1  0  0  0  0
 12 31  1  0  0  0  0
 13 14  1  0  0  0  0
 13 32  1  0  0  0  0
 13 33  1  0  0  0  0
 14 15  1  0  0  0  0
 14 34  1  0  0  0  0
 14 35  1  0  0  0  0
 15 16  1  0  0  0  0
 15 36  1  0  0  0  0
 15 37  1  0  0  0  0
 16 17  1  0  0  0  0
 16 38  1  0  0  0  0
 16 39  1  0  0  0  0
 17 18  1  0  0  0  0
 17 40  1  0  0  0  0
 18 41  1  0  0  0  0
 18 42  1  0  0  0  0
 18 43  1  0  0  0  0
 19 20  1  0  0  0  0
M  END
> <s_m_source_file>
AV-unprocessed.smi

> <i_m_source_file_index>
2104

> <i_lp_mmshare_version>
43012

> <i_f3d_flags>
0

> <s_epik_input>
W0NIM11jMVtjSF1jKG5vMSlbTkhdQyg9TylbTkhdW0NIMl1bQ0gyXU9bQ0BASF0yW0NIMl1bQ0gyXVtDSDJdW0NIMl1bQ0BIXTJbQ0gzXQ==

> <s_epik_cmdline>
J2VwaWtfcHl0aG9uJywgJy1waCcsICc3LjAnLCAnLXRuJywgJzgnLCAnLW1hJywgJzIwMCcsICctbWV0YWxfYmluZGluZycsICctaW1hZScsICc8aW5maWxlLm1hZT4nLCAnLW9tYWUnLCAnPG91dGZpbGUubWFlPic=

> <r_lp_tautomer_probability>
1

> <r_epik_Ionization_Penalty>
2.94418e-05

> <r_epik_Ionization_Penalty_Charging>
0

> <r_epik_Ionization_Penalty_Neutral>
2.94418e-05

> <r_epik_State_Penalty>
-0

> <r_epik_Charging_Adjusted_Penalty>
0

> <i_epik_Tot_Q>
0

> <i_epik_Tot_abs_Q>
0

> <r_epik_Metal_State_Penalty>
0.0104148

> <b_epik_Metal_Only>
0

> <s_lp_Force_Field>
OPLS_2005

> <r_lp_Energy>
8.17473

> <b_lp_Chiralities_Consistent>
1

> <s_lp_Variant>
AV-unprocessed.smi:2104-4

> <Gold.Version>
5.8.1

> <Gold.Id.Protein>
6NUR|6NUR_protein|mol2

> <Gold.PLP.Fitness>
41.2596

> <Gold.PLP.PLP>
-38.2914

> <Gold.PLP.part.hbond>
-6.0000

> <Gold.PLP.part.metal>
0.0000

> <Gold.PLP.part.buried>
-1.1661

> <Gold.PLP.part.nonpolar>
-30.7256

> <Gold.PLP.part.repulsive>
0.4722

> <Gold.PLP.ligand.clash>
0.0000

> <Gold.PLP.ligand.torsion>
1.5619

> <Gold.PLP.Chemscore.Hbond>
2.0203

> <Gold.PLP.Chemscore.CHOScore>
0.0000

> <Gold.PLP.Chemscore.Metal>
0.0000

> <Gold.Chemscore.Hbonds>
donor molecule, donor type, donor heavy atom, donor atom, acceptor molecule, acceptor atom, score
      L1  H     5    25       P1  7949  1.00
      P1  H  7997  8010       L1    20  0.08

> <Gold.PLP.Chemscore.Internal.Correction>
0.0311

> <Gold.Rescore>
     Score         DG    S(hbond)    S(metal)    S(lipo)     H(rot)  DE(clash)    DE(int)     intcor
     12.97     -15.63       1.58        0.00      80.11       1.75       0.87       1.80       ----

> <Gold.Chemscore.Fitness>
12.9679

> <Gold.Chemscore.DG>
-15.6291

> <Gold.Chemscore.ZeroCoef>
-5.4800

> <Gold.Chemscore.Hbond>
1.5757

> <Gold.Chemscore.Metal>
0.0000

> <Gold.Chemscore.Lipo>
80.1074

> <Gold.Chemscore.Internal_Hbond>
0.0000

> <Gold.Chemscore.DEClash>
0.8660

> <Gold.Chemscore.DEInternal>
1.7952

> <Gold.Chemscore.Rot>
1.7524

> <Gold.Chemscore.Internal.Correction>
   9.000000E+99

> <Gold.Chemscore.Hbonds>
donor molecule, donor type, donor heavy atom, donor atom, acceptor molecule, acceptor atom, score
      L1  H     5    25       P1  7949  0.74
      P1  H  7997  8010       L1    20  0.03

> <Gold.Chemscore.Hbond.Weighted>
-5.2627

> <Gold.Chemscore.Metal.Weighted>
-0.0000

> <Gold.Chemscore.Lipo.Weighted>
-9.3726

> <Gold.Chemscore.Internal_Hbond.Weighted>
0.0000

> <Gold.Chemscore.DEClash.Weighted>
0.8660

> <Gold.Chemscore.DEInternal.Weighted>
1.7952

> <Gold.Chemscore.Rot.Weighted>
4.4861

> <Gold.Chemscore.Internal.Correction.Weighted>
   9.000000E+99

> <Gold.Protein.RotatedTorsions>
[ 6907 6896 6895 6894 ] final -152.99 input  -60.11 | X-H torsion
[ 7974 7965 7964 7962 ] final -135.76 input  175.53 | X-H torsion
[ 8008 7997 7996 7995 ] final   67.11 input   59.86 | X-H torsion
[ 10167 10162 10161 10158 ] final  121.85 input  -65.29 | X-H torsion
[ 10718 10713 10712 10709 ] final -105.04 input   66.30 | X-H torsion
[ 10763 10752 10751 10750 ] final  -51.14 input  -60.55 | X-H torsion
[ 11005 11000 10999 10996 ] final -144.62 input  -57.11 | X-H torsion

> <Gold.Protein.ActiveResidues>
 VAL166  LYS551  ARG553  GLY616  TRP617  ASP618  TYR619  PRO620  LYS621  CYS622 
 ASP623  PHE694  ASN695  SER759  ASP760  ASP761  ALA762  ILE779  LEU786  VAL792 
 PHE793  MET794  SER795  GLU796  ALA797  LYS798  CYS799  TRP800  GLU811  SER814 

> <Gold.Protein.RotatedAtoms>
  151.2360  133.4425  159.2605 H   0  0  0  0  0  0  0  0  0  0  0  0  # atno 6907 bound_to 6896
  151.0750  134.9822  159.8337 H   0  0  0  0  0  0  0  0  0  0  0  0  # atno 6908 bound_to 6896
  152.5417  134.2303  159.8875 H   0  0  0  0  0  0  0  0  0  0  0  0  # atno 6909 bound_to 6896
  144.8986  140.6740  143.5099 H   0  0  0  0  0  0  0  0  0  0  0  0  # atno 7974 bound_to 7965
  155.6877  140.3496  155.4881 H   0  0  0  0  0  0  0  0  0  0  0  0  # atno 8008 bound_to 7997
  155.9551  140.1126  157.0966 H   0  0  0  0  0  0  0  0  0  0  0  0  # atno 8009 bound_to 7997
  154.4130  140.1186  156.5091 H   0  0  0  0  0  0  0  0  0  0  0  0  # atno 8010 bound_to 7997
  139.5894  144.7019  151.3327 H   0  0  0  0  0  0  0  0  0  0  0  0  # atno 10167 bound_to 10162
  156.0329  130.5544  150.7482 H   0  0  0  0  0  0  0  0  0  0  0  0  # atno 10718 bound_to 10713
  154.1217  135.6533  153.4904 H   0  0  0  0  0  0  0  0  0  0  0  0  # atno 10763 bound_to 10752
  153.0223  135.5272  154.7090 H   0  0  0  0  0  0  0  0  0  0  0  0  # atno 10764 bound_to 10752
  154.6300  135.2975  155.0198 H   0  0  0  0  0  0  0  0  0  0  0  0  # atno 10765 bound_to 10752
  140.8005  134.2862  157.4980 H   0  0  0  0  0  0  0  0  0  0  0  0  # atno 11005 bound_to 11000
  145.3656  139.1671  143.4360 LP  0  0  0  0  0  0  0  0  0  0  0  0  # atno 17320 bound_to 7965
  146.3095  140.3723  142.8675 LP  0  0  0  0  0  0  0  0  0  0  0  0  # atno 17321 bound_to 7965
  140.7160  143.7264  150.7656 LP  0  0  0  0  0  0  0  0  0  0  0  0  # atno 17342 bound_to 10162
  140.0817  143.4963  152.2527 LP  0  0  0  0  0  0  0  0  0  0  0  0  # atno 17343 bound_to 10162
  157.5033  131.0920  151.0287 LP  0  0  0  0  0  0  0  0  0  0  0  0  # atno 17370 bound_to 10713
  157.0662  130.5845  149.5394 LP  0  0  0  0  0  0  0  0  0  0  0  0  # atno 17371 bound_to 10713
  139.8722  134.9427  156.3832 LP  0  0  0  0  0  0  0  0  0  0  0  0  # atno 17394 bound_to 11000
  140.9299  133.7586  156.0011 LP  0  0  0  0  0  0  0  0  0  0  0  0  # atno 17395 bound_to 11000

$$$$
