AV-unprocessed.smi:3185|AV-procd|sdf|12168|dock10
  -GOLD-   2272018 03D 1   1.00000     0.00000
 Structure written by MMmdl.
 38 39  0  0  0  0  0  0  0  0  2 V2000
  151.6448  136.5700  154.4796 N   0  0  0  0  0  0  0  0  0  0  0  0
  151.1612  137.6068  154.6489 C   0  0  0  0  0  0  0  0  0  0  0  0
  150.5469  138.9273  154.8597 C   0  0  0  0  0  0  0  0  0  0  0  0
  151.4361  139.8841  155.6661 C   0  0  0  0  0  0  0  0  0  0  0  0
  150.6304  140.8996  156.4881 C   0  0  0  0  0  0  0  0  0  0  0  0
  151.5241  141.7850  157.2636 N   0  3  0  0  0  0  0  0  0  0  0  0
  151.8997  141.2929  158.6105 C   0  0  1  0  0  0  0  0  0  0  0  0
  152.5073  139.8828  158.4682 C   0  0  0  0  0  0  0  0  0  0  0  0
  152.9734  139.3162  159.8171 C   0  0  0  0  0  0  0  0  0  0  0  0
  153.9835  140.2570  160.4867 C   0  0  0  0  0  0  0  0  0  0  0  0
  153.3892  141.6618  160.6581 C   0  0  0  0  0  0  0  0  0  0  0  0
  152.9068  142.2475  159.3123 C   0  0  2  0  0  0  0  0  0  0  0  0
  152.3671  143.5884  159.5028 N   0  0  0  0  0  0  0  0  0  0  0  0
  152.2131  144.2851  160.6839 C   0  0  0  0  0  0  0  0  0  0  0  0
  151.6898  145.5071  160.3730 C   0  0  0  0  0  0  0  0  0  0  0  0
  151.5512  145.4663  158.9580 C   0  0  0  0  0  0  0  0  0  0  0  0
  151.9581  144.3189  158.4401 N   0  0  0  0  0  0  0  0  0  0  0  0
  150.3218  139.3510  153.8808 H   0  0  0  0  0  0  0  0  0  0  0  0
  149.5959  138.7744  155.3705 H   0  0  0  0  0  0  0  0  0  0  0  0
  152.0811  139.3048  156.3280 H   0  0  0  0  0  0  0  0  0  0  0  0
  152.0964  140.4146  154.9789 H   0  0  0  0  0  0  0  0  0  0  0  0
  150.0085  141.4951  155.8233 H   0  0  0  0  0  0  0  0  0  0  0  0
  149.9586  140.3773  157.1703 H   0  0  0  0  0  0  0  0  0  0  0  0
  152.3745  141.8886  156.7287 H   0  0  0  0  0  0  0  0  0  0  0  0
  150.9993  141.2013  159.2210 H   0  0  0  0  0  0  0  0  0  0  0  0
  151.7758  139.2059  158.0250 H   0  0  0  0  0  0  0  0  0  0  0  0
  153.3542  139.9123  157.7808 H   0  0  0  0  0  0  0  0  0  0  0  0
  152.1137  139.1722  160.4731 H   0  0  0  0  0  0  0  0  0  0  0  0
  153.4214  138.3326  159.6728 H   0  0  0  0  0  0  0  0  0  0  0  0
  154.2780  139.8569  161.4575 H   0  0  0  0  0  0  0  0  0  0  0  0
  154.8919  140.3118  159.8853 H   0  0  0  0  0  0  0  0  0  0  0  0
  152.5604  141.6097  161.3658 H   0  0  0  0  0  0  0  0  0  0  0  0
  154.1341  142.3209  161.1058 H   0  0  0  0  0  0  0  0  0  0  0  0
  153.7815  142.3465  158.6668 H   0  0  0  0  0  0  0  0  0  0  0  0
  152.4885  143.8603  161.6381 H   0  0  0  0  0  0  0  0  0  0  0  0
  151.4422  146.3090  161.0527 H   0  0  0  0  0  0  0  0  0  0  0  0
  151.1728  146.2316  158.2964 H   0  0  0  0  0  0  0  0  0  0  0  0
  151.0959  142.6946  157.3596 H   0  0  0  0  0  0  0  0  0  0  0  0
  1  2  3  0  0  0  0
  2  3  1  0  0  0  0
  3  4  1  0  0  0  0
  3 18  1  0  0  0  0
  3 19  1  0  0  0  0
  4  5  1  0  0  0  0
  4 20  1  0  0  0  0
  4 21  1  0  0  0  0
  5  6  1  0  0  0  0
  5 22  1  0  0  0  0
  5 23  1  0  0  0  0
  6  7  1  0  0  0  0
  6 24  1  0  0  0  0
  6 38  1  0  0  0  0
  7 12  1  0  0  0  0
  7  8  1  0  0  0  0
  7 25  1  0  0  0  0
  8  9  1  0  0  0  0
  8 26  1  0  0  0  0
  8 27  1  0  0  0  0
  9 10  1  0  0  0  0
  9 28  1  0  0  0  0
  9 29  1  0  0  0  0
 10 11  1  0  0  0  0
 10 30  1  0  0  0  0
 10 31  1  0  0  0  0
 11 12  1  0  0  0  0
 11 32  1  0  0  0  0
 11 33  1  0  0  0  0
 12 13  1  0  0  0  0
 12 34  1  0  0  0  0
 13 17  1  0  0  0  0
 13 14  1  0  0  0  0
 14 15  2  0  0  0  0
 14 35  1  0  0  0  0
 15 16  1  0  0  0  0
 15 36  1  0  0  0  0
 16 17  2  0  0  0  0
 16 37  1  0  0  0  0
M  CHG  1   6   1
M  END
> <s_m_source_file>
AV-unprocessed.smi

> <i_m_source_file_index>
3185

> <i_lp_mmshare_version>
43012

> <i_f3d_flags>
0

> <s_epik_input>
TiNDW0NIMl1bQ0gyXVtDSDJdW05IXVtDQEBIXTFbQ0gyXVtDSDJdW0NIMl1bQ0gyXVtDQEhdMW4yW2NIXVtjSF1bY0hdbjI=

> <s_epik_cmdline>
J2VwaWtfcHl0aG9uJywgJy1waCcsICc3LjAnLCAnLXRuJywgJzgnLCAnLW1hJywgJzIwMCcsICctbWV0YWxfYmluZGluZycsICctaW1hZScsICc8aW5maWxlLm1hZT4nLCAnLW9tYWUnLCAnPG91dGZpbGUubWFlPic=

> <r_lp_tautomer_probability>
1

> <r_epik_Ionization_Penalty>
0.0143465

> <r_epik_Ionization_Penalty_Charging>
0.0143338

> <r_epik_Ionization_Penalty_Neutral>
1.27047e-05

> <r_epik_State_Penalty>
0.0112058

> <r_epik_Charging_Adjusted_Penalty>
0.0255397

> <i_epik_Tot_Q>
1

> <i_epik_Tot_abs_Q>
1

> <r_epik_Metal_State_Penalty>
0.0112253

> <b_epik_Metal_Only>
0

> <s_lp_Force_Field>
OPLS_2005

> <r_lp_Energy>
15.0666

> <b_lp_Chiralities_Consistent>
1

> <s_lp_Variant>
AV-unprocessed.smi:3185-4

> <Gold.Version>
5.8.1

> <Gold.Id.Protein>
6NUR|6NUR_protein|mol2

> <Gold.PLP.Fitness>
44.5451

> <Gold.PLP.PLP>
-42.1893

> <Gold.PLP.part.hbond>
-0.8614

> <Gold.PLP.part.metal>
0.0000

> <Gold.PLP.part.buried>
-3.5472

> <Gold.PLP.part.nonpolar>
-38.4107

> <Gold.PLP.part.repulsive>
0.9135

> <Gold.PLP.ligand.clash>
0.0049

> <Gold.PLP.ligand.torsion>
0.3828

> <Gold.PLP.Chemscore.Hbond>
1.0000

> <Gold.PLP.Chemscore.CHOScore>
0.0000

> <Gold.PLP.Chemscore.Metal>
0.0000

> <Gold.Chemscore.Hbonds>
donor molecule, donor type, donor heavy atom, donor atom, acceptor molecule, acceptor atom, score
      P1  H 10752 10763       L1     1  1.00

> <Gold.PLP.Chemscore.Internal.Correction>
0.1262

> <Gold.Rescore>
     Score         DG    S(hbond)    S(metal)    S(lipo)     H(rot)  DE(clash)    DE(int)     intcor
     13.25     -16.10       0.98        0.00     103.88       1.88       0.28       2.58       ----

> <Gold.Chemscore.Fitness>
13.2461

> <Gold.Chemscore.DG>
-16.1033

> <Gold.Chemscore.ZeroCoef>
-5.4800

> <Gold.Chemscore.Hbond>
0.9802

> <Gold.Chemscore.Metal>
0.0000

> <Gold.Chemscore.Lipo>
103.8834

> <Gold.Chemscore.Internal_Hbond>
0.0000

> <Gold.Chemscore.DEClash>
0.2822

> <Gold.Chemscore.DEInternal>
2.5751

> <Gold.Chemscore.Rot>
1.8769

> <Gold.Chemscore.Internal.Correction>
   9.000000E+99

> <Gold.Chemscore.Hbonds>
donor molecule, donor type, donor heavy atom, donor atom, acceptor molecule, acceptor atom, score
      P1  H 10752 10763       L1     1  0.97

> <Gold.Chemscore.Hbond.Weighted>
-3.2739

> <Gold.Chemscore.Metal.Weighted>
-0.0000

> <Gold.Chemscore.Lipo.Weighted>
-12.1544

> <Gold.Chemscore.Internal_Hbond.Weighted>
0.0000

> <Gold.Chemscore.DEClash.Weighted>
0.2822

> <Gold.Chemscore.DEInternal.Weighted>
2.5751

> <Gold.Chemscore.Rot.Weighted>
4.8049

> <Gold.Chemscore.Internal.Correction.Weighted>
   9.000000E+99

> <Gold.Protein.RotatedTorsions>
[ 6907 6896 6895 6894 ] final  -81.20 input  -60.11 | X-H torsion
[ 7974 7965 7964 7962 ] final -120.25 input  175.53 | X-H torsion
[ 8008 7997 7996 7995 ] final  143.10 input   59.86 | X-H torsion
[ 10167 10162 10161 10158 ] final   54.53 input  -65.29 | X-H torsion
[ 10718 10713 10712 10709 ] final  -85.52 input   66.30 | X-H torsion
[ 10763 10752 10751 10750 ] final   30.10 input  -60.55 | X-H torsion
[ 11005 11000 10999 10996 ] final  172.18 input  -57.11 | X-H torsion

> <Gold.Protein.ActiveResidues>
 VAL166  LYS551  ARG553  GLY616  TRP617  ASP618  TYR619  PRO620  LYS621  CYS622 
 ASP623  PHE694  ASN695  SER759  ASP760  ASP761  ALA762  ILE779  LEU786  VAL792 
 PHE793  MET794  SER795  GLU796  ALA797  LYS798  CYS799  TRP800  GLU811  SER814 

> <Gold.Protein.RotatedAtoms>
  150.6916  134.3854  159.5052 H   0  0  0  0  0  0  0  0  0  0  0  0  # atno 6907 bound_to 6896
  152.1650  134.8878  160.0548 H   0  0  0  0  0  0  0  0  0  0  0  0  # atno 6908 bound_to 6896
  151.9925  133.3761  159.4187 H   0  0  0  0  0  0  0  0  0  0  0  0  # atno 6909 bound_to 6896
  145.0535  140.8236  143.4195 H   0  0  0  0  0  0  0  0  0  0  0  0  # atno 7974 bound_to 7965
  156.2937  140.2271  156.4835 H   0  0  0  0  0  0  0  0  0  0  0  0  # atno 8008 bound_to 7997
  154.7832  140.0459  157.1165 H   0  0  0  0  0  0  0  0  0  0  0  0  # atno 8009 bound_to 7997
  154.9733  140.3069  155.4981 H   0  0  0  0  0  0  0  0  0  0  0  0  # atno 8010 bound_to 7997
  140.2291  144.3706  150.6421 H   0  0  0  0  0  0  0  0  0  0  0  0  # atno 10167 bound_to 10162
  155.9996  130.4734  150.4576 H   0  0  0  0  0  0  0  0  0  0  0  0  # atno 10718 bound_to 10713
  153.0391  135.6472  154.0992 H   0  0  0  0  0  0  0  0  0  0  0  0  # atno 10763 bound_to 10752
  154.0702  135.2881  155.3311 H   0  0  0  0  0  0  0  0  0  0  0  0  # atno 10764 bound_to 10752
  154.6599  135.5395  153.8070 H   0  0  0  0  0  0  0  0  0  0  0  0  # atno 10765 bound_to 10752
  140.3269  134.7390  157.4106 H   0  0  0  0  0  0  0  0  0  0  0  0  # atno 11005 bound_to 11000
  145.1497  139.2522  143.5447 LP  0  0  0  0  0  0  0  0  0  0  0  0  # atno 17320 bound_to 7965
  146.3519  140.1197  142.8601 LP  0  0  0  0  0  0  0  0  0  0  0  0  # atno 17321 bound_to 7965
  140.6198  143.2175  151.6717 LP  0  0  0  0  0  0  0  0  0  0  0  0  # atno 17342 bound_to 10162
  139.5116  144.3503  152.0658 LP  0  0  0  0  0  0  0  0  0  0  0  0  # atno 17343 bound_to 10162
  157.2603  131.0565  151.2324 LP  0  0  0  0  0  0  0  0  0  0  0  0  # atno 17370 bound_to 10713
  157.3442  130.7048  149.6400 LP  0  0  0  0  0  0  0  0  0  0  0  0  # atno 17371 bound_to 10713
  140.0893  134.5622  155.8460 LP  0  0  0  0  0  0  0  0  0  0  0  0  # atno 17394 bound_to 11000
  141.2073  133.6663  156.6296 LP  0  0  0  0  0  0  0  0  0  0  0  0  # atno 17395 bound_to 11000

$$$$
