AV-unprocessed.smi:498|AV-procd|sdf|2728|dock2
  -GOLD-   2262023173D 1   1.00000     0.00000
 Structure written by MMmdl.
 42 44  0  0  0  0  0  0  0  0  1 V2000
  147.0981  140.5917  153.0216 C   0  0  0  0  0  0  0  0  0  0  0  0
  147.7739  140.3754  154.3770 C   0  0  0  0  0  0  0  0  0  0  0  0
  148.1827  141.6323  154.8871 O   0  0  0  0  0  0  0  0  0  0  0  0
  148.7864  141.5364  156.1670 C   0  0  0  0  0  0  0  0  0  0  0  0
  149.9832  140.5775  156.1050 C   0  0  0  0  0  0  0  0  0  0  0  0
  150.6819  140.4829  157.3798 N   0  0  0  0  0  0  0  0  0  0  0  0
  150.8313  139.4036  158.1915 C   0  0  0  0  0  0  0  0  0  0  0  0
  150.2474  138.0540  157.8759 C   0  0  0  0  0  0  0  0  0  0  0  0
  149.5149  137.5788  159.0462 N   0  0  0  0  0  0  0  0  0  0  0  0
  149.0589  136.3310  159.2364 C   0  0  0  0  0  0  0  0  0  0  0  0
  149.2715  135.4008  158.4597 O   0  0  0  0  0  0  0  0  0  0  0  0
  148.2712  136.1175  160.4650 C   0  0  0  0  0  0  0  0  0  0  0  0
  147.7871  134.9742  161.0452 C   0  0  0  0  0  0  0  0  0  0  0  0
  147.1111  135.3741  162.2309 C   0  0  0  0  0  0  0  0  0  0  0  0
  147.2317  136.7325  162.2921 C   0  0  0  0  0  0  0  0  0  0  0  0
  147.9372  137.1998  161.2265 O   0  0  0  0  0  0  0  0  0  0  0  0
  151.5487  139.6113  159.2987 N   0  0  0  0  0  0  0  0  0  0  0  0
  151.8730  140.9498  159.2096 C   0  0  0  0  0  0  0  0  0  0  0  0
  152.6153  141.7744  160.0848 C   0  0  0  0  0  0  0  0  0  0  0  0
  152.8174  143.1369  159.7821 C   0  0  0  0  0  0  0  0  0  0  0  0
  152.2806  143.6926  158.6028 C   0  0  0  0  0  0  0  0  0  0  0  0
  151.5398  142.8872  157.7167 C   0  0  0  0  0  0  0  0  0  0  0  0
  151.3425  141.5268  158.0221 C   0  0  0  0  0  0  0  0  0  0  0  0
  146.7694  139.6440  152.5947 H   0  0  0  0  0  0  0  0  0  0  0  0
  147.7826  141.0594  152.3133 H   0  0  0  0  0  0  0  0  0  0  0  0
  146.2240  141.2362  153.1194 H   0  0  0  0  0  0  0  0  0  0  0  0
  147.0763  139.8977  155.0668 H   0  0  0  0  0  0  0  0  0  0  0  0
  148.6357  139.7158  154.2652 H   0  0  0  0  0  0  0  0  0  0  0  0
  149.1186  142.5197  156.4954 H   0  0  0  0  0  0  0  0  0  0  0  0
  148.0595  141.1818  156.8987 H   0  0  0  0  0  0  0  0  0  0  0  0
  149.6715  139.5835  155.7847 H   0  0  0  0  0  0  0  0  0  0  0  0
  150.6891  140.9256  155.3505 H   0  0  0  0  0  0  0  0  0  0  0  0
  149.6128  138.0803  156.9910 H   0  0  0  0  0  0  0  0  0  0  0  0
  151.0609  137.3605  157.6625 H   0  0  0  0  0  0  0  0  0  0  0  0
  149.2873  138.2719  159.7441 H   0  0  0  0  0  0  0  0  0  0  0  0
  147.9058  133.9701  160.6655 H   0  0  0  0  0  0  0  0  0  0  0  0
  146.6028  134.7477  162.9489 H   0  0  0  0  0  0  0  0  0  0  0  0
  146.8958  137.4858  162.9894 H   0  0  0  0  0  0  0  0  0  0  0  0
  153.0289  141.3585  160.9916 H   0  0  0  0  0  0  0  0  0  0  0  0
  153.3856  143.7583  160.4585 H   0  0  0  0  0  0  0  0  0  0  0  0
  152.4375  144.7376  158.3783 H   0  0  0  0  0  0  0  0  0  0  0  0
  151.1254  143.3119  156.8147 H   0  0  0  0  0  0  0  0  0  0  0  0
  1  2  1  0  0  0  0
  1 24  1  0  0  0  0
  1 25  1  0  0  0  0
  1 26  1  0  0  0  0
  2  3  1  0  0  0  0
  2 27  1  0  0  0  0
  2 28  1  0  0  0  0
  3  4  1  0  0  0  0
  4  5  1  0  0  0  0
  4 29  1  0  0  0  0
  4 30  1  0  0  0  0
  5  6  1  0  0  0  0
  5 31  1  0  0  0  0
  5 32  1  0  0  0  0
  6 23  1  0  0  0  0
  6  7  1  0  0  0  0
  7  8  1  0  0  0  0
  7 17  2  0  0  0  0
  8  9  1  0  0  0  0
  8 33  1  0  0  0  0
  8 34  1  0  0  0  0
  9 10  1  0  0  0  0
  9 35  1  0  0  0  0
 10 11  2  0  0  0  0
 10 12  1  0  0  0  0
 12 16  1  0  0  0  0
 12 13  2  0  0  0  0
 13 14  1  0  0  0  0
 13 36  1  0  0  0  0
 14 15  2  0  0  0  0
 14 37  1  0  0  0  0
 15 16  1  0  0  0  0
 15 38  1  0  0  0  0
 17 18  1  0  0  0  0
 18 23  2  0  0  0  0
 18 19  1  0  0  0  0
 19 20  2  0  0  0  0
 19 39  1  0  0  0  0
 20 21  1  0  0  0  0
 20 40  1  0  0  0  0
 21 22  2  0  0  0  0
 21 41  1  0  0  0  0
 22 23  1  0  0  0  0
 22 42  1  0  0  0  0
M  END
> <s_m_source_file>
AV-unprocessed.smi

> <i_m_source_file_index>
498

> <i_lp_mmshare_version>
43012

> <i_f3d_flags>
0

> <s_epik_input>
W0NIM11bQ0gyXU9bQ0gyXVtDSDJdbihjKGMxMilbY0hdW2NIXVtjSF1bY0hdMiljKG4xKVtDSDJdW05IXUMoPU8pYzNbY0hdW2NIXVtjSF1vMw==

> <s_epik_cmdline>
J2VwaWtfcHl0aG9uJywgJy1waCcsICc3LjAnLCAnLXRuJywgJzgnLCAnLW1hJywgJzIwMCcsICctbWV0YWxfYmluZGluZycsICctaW1hZScsICc8aW5maWxlLm1hZT4nLCAnLW9tYWUnLCAnPG91dGZpbGUubWFlPic=

> <r_epik_Ionization_Penalty>
0.0701438

> <r_epik_Ionization_Penalty_Charging>
0

> <r_epik_Ionization_Penalty_Neutral>
0.0701438

> <r_epik_State_Penalty>
0.061475

> <r_epik_Charging_Adjusted_Penalty>
0.061475

> <i_epik_Tot_Q>
0

> <i_epik_Tot_abs_Q>
0

> <r_epik_Metal_State_Penalty>
0.0666689

> <b_epik_Metal_Only>
0

> <s_lp_Force_Field>
OPLS_2005

> <r_lp_Energy>
6.14226

> <b_lp_Chiralities_Consistent>
1

> <s_lp_Variant>
AV-unprocessed.smi:498-1

> <Gold.Version>
5.8.1

> <Gold.Id.Protein>
6NUR|6NUR_protein|mol2

> <Gold.PLP.Fitness>
51.3195

> <Gold.PLP.PLP>
-43.4531

> <Gold.PLP.part.hbond>
-3.0000

> <Gold.PLP.part.metal>
0.0000

> <Gold.PLP.part.buried>
-4.8620

> <Gold.PLP.part.nonpolar>
-36.3536

> <Gold.PLP.part.repulsive>
0.3459

> <Gold.PLP.ligand.clash>
0.0000

> <Gold.PLP.ligand.torsion>
0.1963

> <Gold.PLP.Chemscore.Hbond>
2.7360

> <Gold.PLP.Chemscore.CHOScore>
0.0000

> <Gold.PLP.Chemscore.Metal>
0.0000

> <Gold.Chemscore.Hbonds>
donor molecule, donor type, donor heavy atom, donor atom, acceptor molecule, acceptor atom, score
      P1  H  6896  6908       L1    11  1.00
      P1  H  6931  6943       L1    16  1.00
      P1  H  6934  6947       L1    16  0.72

> <Gold.PLP.Chemscore.Internal.Correction>
0.0510

> <Gold.Rescore>
     Score         DG    S(hbond)    S(metal)    S(lipo)     H(rot)  DE(clash)    DE(int)     intcor
     20.57     -20.90       2.00        0.00     118.13       1.98       0.10       0.23       ----

> <Gold.Chemscore.Fitness>
20.5703

> <Gold.Chemscore.DG>
-20.8999

> <Gold.Chemscore.ZeroCoef>
-5.4800

> <Gold.Chemscore.Hbond>
1.9971

> <Gold.Chemscore.Metal>
0.0000

> <Gold.Chemscore.Lipo>
118.1334

> <Gold.Chemscore.Internal_Hbond>
0.0000

> <Gold.Chemscore.DEClash>
0.1042

> <Gold.Chemscore.DEInternal>
0.2254

> <Gold.Chemscore.Rot>
1.9813

> <Gold.Chemscore.Internal.Correction>
   9.000000E+99

> <Gold.Chemscore.Hbonds>
donor molecule, donor type, donor heavy atom, donor atom, acceptor molecule, acceptor atom, score
      P1  H  6896  6908       L1    11  0.42
      P1  H  6931  6943       L1    16  0.43
      P1  H  6934  6947       L1    16  0.31

> <Gold.Chemscore.Hbond.Weighted>
-6.6704

> <Gold.Chemscore.Metal.Weighted>
-0.0000

> <Gold.Chemscore.Lipo.Weighted>
-13.8216

> <Gold.Chemscore.Internal_Hbond.Weighted>
0.0000

> <Gold.Chemscore.DEClash.Weighted>
0.1042

> <Gold.Chemscore.DEInternal.Weighted>
0.2254

> <Gold.Chemscore.Rot.Weighted>
5.0720

> <Gold.Chemscore.Internal.Correction.Weighted>
   9.000000E+99

> <Gold.Protein.RotatedTorsions>
[ 6907 6896 6895 6894 ] final  149.99 input  -60.11 | X-H torsion
[ 7974 7965 7964 7962 ] final -178.87 input  175.53 | X-H torsion
[ 8008 7997 7996 7995 ] final    0.15 input   59.86 | X-H torsion
[ 10167 10162 10161 10158 ] final   90.16 input  -65.29 | X-H torsion
[ 10718 10713 10712 10709 ] final  -24.35 input   66.30 | X-H torsion
[ 10763 10752 10751 10750 ] final  130.05 input  -60.55 | X-H torsion
[ 11005 11000 10999 10996 ] final  -19.78 input  -57.11 | X-H torsion

> <Gold.Protein.ActiveResidues>
 VAL166  LYS551  ARG553  GLY616  TRP617  ASP618  TYR619  PRO620  LYS621  CYS622 
 ASP623  PHE694  ASN695  SER759  ASP760  ASP761  ALA762  ILE779  LEU786  VAL792 
 PHE793  MET794  SER795  GLU796  ALA797  LYS798  CYS799  TRP800  GLU811  SER814 

> <Gold.Protein.RotatedAtoms>
  152.1205  133.4351  159.4673 H   0  0  0  0  0  0  0  0  0  0  0  0  # atno 6907 bound_to 6896
  150.6872  134.2540  159.4531 H   0  0  0  0  0  0  0  0  0  0  0  0  # atno 6908 bound_to 6896
  152.0416  134.9707  160.0624 H   0  0  0  0  0  0  0  0  0  0  0  0  # atno 6909 bound_to 6896
  144.7133  140.0804  143.6426 H   0  0  0  0  0  0  0  0  0  0  0  0  # atno 7974 bound_to 7965
  154.6648  140.2599  155.7070 H   0  0  0  0  0  0  0  0  0  0  0  0  # atno 8008 bound_to 7997
  156.2634  140.2841  156.1056 H   0  0  0  0  0  0  0  0  0  0  0  0  # atno 8009 bound_to 7997
  155.1255  140.0377  157.2751 H   0  0  0  0  0  0  0  0  0  0  0  0  # atno 8010 bound_to 7997
  139.8501  144.6598  150.9180 H   0  0  0  0  0  0  0  0  0  0  0  0  # atno 10167 bound_to 10162
  156.4789  130.4540  149.6824 H   0  0  0  0  0  0  0  0  0  0  0  0  # atno 10718 bound_to 10713
  153.7518  135.3209  155.3322 H   0  0  0  0  0  0  0  0  0  0  0  0  # atno 10763 bound_to 10752
  154.8260  135.4569  154.0925 H   0  0  0  0  0  0  0  0  0  0  0  0  # atno 10764 bound_to 10752
  153.2129  135.6938  153.8174 H   0  0  0  0  0  0  0  0  0  0  0  0  # atno 10765 bound_to 10752
  140.8400  133.7933  155.9851 H   0  0  0  0  0  0  0  0  0  0  0  0  # atno 11005 bound_to 11000
  145.9707  139.2868  143.1100 LP  0  0  0  0  0  0  0  0  0  0  0  0  # atno 17320 bound_to 7965
  145.9119  140.9174  143.0449 LP  0  0  0  0  0  0  0  0  0  0  0  0  # atno 17321 bound_to 7965
  140.7788  143.3835  151.1435 LP  0  0  0  0  0  0  0  0  0  0  0  0  # atno 17342 bound_to 10162
  139.7474  143.8831  152.3067 LP  0  0  0  0  0  0  0  0  0  0  0  0  # atno 17343 bound_to 10162
  156.3542  130.7448  151.2411 LP  0  0  0  0  0  0  0  0  0  0  0  0  # atno 17370 bound_to 10713
  157.7485  131.0368  150.4428 LP  0  0  0  0  0  0  0  0  0  0  0  0  # atno 17371 bound_to 10713
  140.8905  134.2501  157.5097 LP  0  0  0  0  0  0  0  0  0  0  0  0  # atno 17394 bound_to 11000
  139.8703  134.9659  156.4544 LP  0  0  0  0  0  0  0  0  0  0  0  0  # atno 17395 bound_to 11000

$$$$
