AV-unprocessed.smi:2563|AV-procd|sdf|10061|dock10
  -GOLD-   2272014103D 1   1.00000     0.00000
 Structure written by MMmdl.
 34 35  0  0  0  0  0  0  0  0  1 V2000
  151.4660  144.1828  157.7887 C   0  0  0  0  0  0  0  0  0  0  0  0
  150.5892  142.9302  157.9196 C   0  0  0  0  0  0  0  0  0  0  0  0
  151.3827  141.7022  157.9901 N   0  0  0  0  0  0  0  0  0  0  0  0
  151.2610  140.7311  156.9033 C   0  0  0  0  0  0  0  0  0  0  0  0
  150.3617  141.2344  155.7599 C   0  0  1  0  0  0  0  0  0  0  0  0
  150.5156  140.3611  154.4978 C   0  0  0  0  0  0  0  0  0  0  0  0
  149.6081  140.8157  153.4453 N   0  0  0  0  0  0  0  0  0  0  0  0
  148.2245  140.8499  153.9149 C   0  0  0  0  0  0  0  0  0  0  0  0
  148.1179  141.6962  155.1946 C   0  0  0  0  0  0  0  0  0  0  0  0
  149.0010  141.1721  156.1797 O   0  0  0  0  0  0  0  0  0  0  0  0
  152.3102  141.5096  159.0440 C   0  0  0  0  0  0  0  0  0  0  0  0
  152.5269  142.4886  160.0453 C   0  0  0  0  0  0  0  0  0  0  0  0
  153.4664  142.2125  161.0530 C   0  0  0  0  0  0  0  0  0  0  0  0
  154.1298  140.9758  160.9977 C   0  0  0  0  0  0  0  0  0  0  0  0
  153.8936  140.0706  160.0248 N   0  0  0  0  0  0  0  0  0  0  0  0
  152.9993  140.3382  159.0676 N   0  0  0  0  0  0  0  0  0  0  0  0
  150.8495  145.0800  157.7348 H   0  0  0  0  0  0  0  0  0  0  0  0
  152.0783  144.1470  156.8874 H   0  0  0  0  0  0  0  0  0  0  0  0
  152.1339  144.2916  158.6434 H   0  0  0  0  0  0  0  0  0  0  0  0
  149.9273  143.0168  158.7816 H   0  0  0  0  0  0  0  0  0  0  0  0
  149.9289  142.8697  157.0542 H   0  0  0  0  0  0  0  0  0  0  0  0
  152.2627  140.5656  156.5054 H   0  0  0  0  0  0  0  0  0  0  0  0
  150.9384  139.7539  157.2600 H   0  0  0  0  0  0  0  0  0  0  0  0
  150.6260  142.2661  155.5198 H   0  0  0  0  0  0  0  0  0  0  0  0
  151.5448  140.3976  154.1400 H   0  0  0  0  0  0  0  0  0  0  0  0
  150.3060  139.3190  154.7422 H   0  0  0  0  0  0  0  0  0  0  0  0
  149.6800  140.1977  152.6433 H   0  0  0  0  0  0  0  0  0  0  0  0
  147.5750  141.2569  153.1398 H   0  0  0  0  0  0  0  0  0  0  0  0
  147.8759  139.8363  154.1169 H   0  0  0  0  0  0  0  0  0  0  0  0
  148.3509  142.7433  154.9945 H   0  0  0  0  0  0  0  0  0  0  0  0
  147.0993  141.6652  155.5814 H   0  0  0  0  0  0  0  0  0  0  0  0
  152.0100  143.4351  160.0598 H   0  0  0  0  0  0  0  0  0  0  0  0
  153.6722  142.9242  161.8388 H   0  0  0  0  0  0  0  0  0  0  0  0
  154.8629  140.7072  161.7437 H   0  0  0  0  0  0  0  0  0  0  0  0
  1  2  1  0  0  0  0
  1 17  1  0  0  0  0
  1 18  1  0  0  0  0
  1 19  1  0  0  0  0
  2  3  1  0  0  0  0
  2 20  1  0  0  0  0
  2 21  1  0  0  0  0
  3  4  1  0  0  0  0
  3 11  1  0  0  0  0
  4  5  1  0  0  0  0
  4 22  1  0  0  0  0
  4 23  1  0  0  0  0
  5 10  1  0  0  0  0
  5  6  1  0  0  0  0
  5 24  1  0  0  0  0
  6  7  1  0  0  0  0
  6 25  1  0  0  0  0
  6 26  1  0  0  0  0
  7  8  1  0  0  0  0
  7 27  1  0  0  0  0
  8  9  1  0  0  0  0
  8 28  1  0  0  0  0
  8 29  1  0  0  0  0
  9 10  1  0  0  0  0
  9 30  1  0  0  0  0
  9 31  1  0  0  0  0
 11 16  1  0  0  0  0
 11 12  2  0  0  0  0
 12 13  1  0  0  0  0
 12 32  1  0  0  0  0
 13 14  2  0  0  0  0
 13 33  1  0  0  0  0
 14 15  1  0  0  0  0
 14 34  1  0  0  0  0
 15 16  2  0  0  0  0
M  END
> <s_m_source_file>
AV-unprocessed.smi

> <i_m_source_file_index>
2563

> <i_lp_mmshare_version>
43012

> <i_f3d_flags>
0

> <s_epik_input>
bjFuW2NIXVtjSF1bY0hdYzFOKFtDSDJdW0NIM10pW0NIMl1bQ0BASF0yW0NIMl1bTkhdW0NIMl1bQ0gyXU8y

> <s_epik_cmdline>
J2VwaWtfcHl0aG9uJywgJy1waCcsICc3LjAnLCAnLXRuJywgJzgnLCAnLW1hJywgJzIwMCcsICctbWV0YWxfYmluZGluZycsICctaW1hZScsICc8aW5maWxlLm1hZT4nLCAnLW9tYWUnLCAnPG91dGZpbGUubWFlPic=

> <r_lp_tautomer_probability>
1

> <r_epik_Ionization_Penalty>
2.34719

> <r_epik_Ionization_Penalty_Charging>
0

> <r_epik_Ionization_Penalty_Neutral>
2.34719

> <r_epik_State_Penalty>
2.60452

> <r_epik_Charging_Adjusted_Penalty>
2.60452

> <i_epik_Tot_Q>
0

> <i_epik_Tot_abs_Q>
0

> <r_epik_Metal_State_Penalty>
2.56937

> <b_epik_Metal_Only>
0

> <s_lp_Force_Field>
OPLS_2005

> <r_lp_Energy>
25.3459

> <b_lp_Chiralities_Consistent>
1

> <s_lp_Variant>
AV-unprocessed.smi:2563-6

> <Gold.Version>
5.8.1

> <Gold.Id.Protein>
6NUR|6NUR_protein|mol2

> <Gold.PLP.Fitness>
39.3522

> <Gold.PLP.PLP>
-34.7647

> <Gold.PLP.part.hbond>
-2.6286

> <Gold.PLP.part.metal>
0.0000

> <Gold.PLP.part.buried>
0.3990

> <Gold.PLP.part.nonpolar>
-33.0633

> <Gold.PLP.part.repulsive>
0.0877

> <Gold.PLP.ligand.clash>
0.0000

> <Gold.PLP.ligand.torsion>
0.1661

> <Gold.PLP.Chemscore.Hbond>
1.6320

> <Gold.PLP.Chemscore.CHOScore>
0.0000

> <Gold.PLP.Chemscore.Metal>
0.0000

> <Gold.Chemscore.Hbonds>
donor molecule, donor type, donor heavy atom, donor atom, acceptor molecule, acceptor atom, score
      L1  H     7    27       P1  7957  0.84
      P1  H  8011  8017       L1     7  0.60

> <Gold.PLP.Chemscore.Internal.Correction>
0.0237

> <Gold.Rescore>
     Score         DG    S(hbond)    S(metal)    S(lipo)     H(rot)  DE(clash)    DE(int)     intcor
     12.31     -14.20       0.97        0.00      76.69       1.36       0.61       1.27       ----

> <Gold.Chemscore.Fitness>
12.3117

> <Gold.Chemscore.DG>
-14.1976

> <Gold.Chemscore.ZeroCoef>
-5.4800

> <Gold.Chemscore.Hbond>
0.9673

> <Gold.Chemscore.Metal>
0.0000

> <Gold.Chemscore.Lipo>
76.6920

> <Gold.Chemscore.Internal_Hbond>
0.0000

> <Gold.Chemscore.DEClash>
0.6122

> <Gold.Chemscore.DEInternal>
1.2737

> <Gold.Chemscore.Rot>
1.3618

> <Gold.Chemscore.Internal.Correction>
   9.000000E+99

> <Gold.Chemscore.Hbonds>
donor molecule, donor type, donor heavy atom, donor atom, acceptor molecule, acceptor atom, score
      L1  H     7    27       P1  7957  0.80
      P1  H  8011  8017       L1     7  0.02

> <Gold.Chemscore.Hbond.Weighted>
-3.2307

> <Gold.Chemscore.Metal.Weighted>
-0.0000

> <Gold.Chemscore.Lipo.Weighted>
-8.9730

> <Gold.Chemscore.Internal_Hbond.Weighted>
0.0000

> <Gold.Chemscore.DEClash.Weighted>
0.6122

> <Gold.Chemscore.DEInternal.Weighted>
1.2737

> <Gold.Chemscore.Rot.Weighted>
3.4861

> <Gold.Chemscore.Internal.Correction.Weighted>
   9.000000E+99

> <Gold.Protein.RotatedTorsions>
[ 6907 6896 6895 6894 ] final    8.90 input  -60.11 | X-H torsion
[ 7974 7965 7964 7962 ] final -122.50 input  175.53 | X-H torsion
[ 8008 7997 7996 7995 ] final  -86.79 input   59.86 | X-H torsion
[ 10167 10162 10161 10158 ] final  154.82 input  -65.29 | X-H torsion
[ 10718 10713 10712 10709 ] final   57.75 input   66.30 | X-H torsion
[ 10763 10752 10751 10750 ] final -129.33 input  -60.55 | X-H torsion
[ 11005 11000 10999 10996 ] final -115.05 input  -57.11 | X-H torsion

> <Gold.Protein.ActiveResidues>
 VAL166  LYS551  ARG553  GLY616  TRP617  ASP618  TYR619  PRO620  LYS621  CYS622 
 ASP623  PHE694  ASN695  SER759  ASP760  ASP761  ALA762  ILE779  LEU786  VAL792 
 PHE793  MET794  SER795  GLU796  ALA797  LYS798  CYS799  TRP800  GLU811  SER814 

> <Gold.Protein.RotatedAtoms>
  151.7135  135.0908  160.0271 H   0  0  0  0  0  0  0  0  0  0  0  0  # atno 6907 bound_to 6896
  152.3647  133.6337  159.6050 H   0  0  0  0  0  0  0  0  0  0  0  0  # atno 6908 bound_to 6896
  150.7629  133.9284  159.3461 H   0  0  0  0  0  0  0  0  0  0  0  0  # atno 6909 bound_to 6896
  145.0287  140.8050  143.4336 H   0  0  0  0  0  0  0  0  0  0  0  0  # atno 7974 bound_to 7965
  154.6559  140.0574  157.0007 H   0  0  0  0  0  0  0  0  0  0  0  0  # atno 8008 bound_to 7997
  155.1302  140.3256  155.4457 H   0  0  0  0  0  0  0  0  0  0  0  0  # atno 8009 bound_to 7997
  156.2597  140.1982  156.6421 H   0  0  0  0  0  0  0  0  0  0  0  0  # atno 8010 bound_to 7997
  139.4822  144.5153  151.7961 H   0  0  0  0  0  0  0  0  0  0  0  0  # atno 10167 bound_to 10162
  157.5540  130.8786  149.9007 H   0  0  0  0  0  0  0  0  0  0  0  0  # atno 10718 bound_to 10713
  154.8757  135.3899  154.3903 H   0  0  0  0  0  0  0  0  0  0  0  0  # atno 10763 bound_to 10752
  153.4639  135.7029  153.6039 H   0  0  0  0  0  0  0  0  0  0  0  0  # atno 10764 bound_to 10752
  153.4525  135.3830  155.2260 H   0  0  0  0  0  0  0  0  0  0  0  0  # atno 10765 bound_to 10752
  141.0512  133.9683  157.2832 H   0  0  0  0  0  0  0  0  0  0  0  0  # atno 11005 bound_to 11000
  145.1799  139.2358  143.5298 LP  0  0  0  0  0  0  0  0  0  0  0  0  # atno 17320 bound_to 7965
  146.3496  140.1570  142.8591 LP  0  0  0  0  0  0  0  0  0  0  0  0  # atno 17321 bound_to 7965
  140.4661  144.1653  150.5912 LP  0  0  0  0  0  0  0  0  0  0  0  0  # atno 17342 bound_to 10162
  140.4433  143.2517  151.9445 LP  0  0  0  0  0  0  0  0  0  0  0  0  # atno 17343 bound_to 10162
  156.0602  130.3701  150.1000 LP  0  0  0  0  0  0  0  0  0  0  0  0  # atno 17370 bound_to 10713
  156.9170  130.9670  151.3554 LP  0  0  0  0  0  0  0  0  0  0  0  0  # atno 17371 bound_to 10713
  139.9352  135.0197  156.8533 LP  0  0  0  0  0  0  0  0  0  0  0  0  # atno 17394 bound_to 11000
  140.6051  134.0135  155.7553 LP  0  0  0  0  0  0  0  0  0  0  0  0  # atno 17395 bound_to 11000

$$$$
