AV-unprocessed.smi:3277|AV-procd|sdf|12537|dock2
  -GOLD-   2272018453D 1   1.00000     0.00000
 Structure written by MMmdl.
 35 37  0  0  0  0  0  0  0  0  1 V2000
  152.9796  137.1065  158.6833 C   0  0  0  0  0  0  0  0  0  0  0  0
  152.8571  138.0604  157.5924 N   0  0  0  0  0  0  0  0  0  0  0  0
  152.4421  137.7466  156.3557 C   0  0  0  0  0  0  0  0  0  0  0  0
  152.1048  136.6105  156.0226 O   0  0  0  0  0  0  0  0  0  0  0  0
  152.3997  138.8872  155.3369 C   0  0  0  0  0  0  0  0  0  0  0  0
  151.5339  139.9701  155.8954 C   0  0  0  0  0  0  0  0  0  0  0  0
  151.7629  140.5641  157.0692 N   0  0  0  0  0  0  0  0  0  0  0  0
  150.8333  141.5670  157.3679 C   0  0  0  0  0  0  0  0  0  0  0  0
  150.9399  142.3899  158.6281 C   0  0  1  0  0  0  0  0  0  0  0  0
  152.2625  142.2295  159.4102 C   0  0  0  0  0  0  0  0  0  0  0  0
  152.6797  143.6924  159.6604 C   0  0  1  0  0  0  0  0  0  0  0  0
  153.1783  144.3147  158.3408 C   0  0  0  0  0  0  0  0  0  0  0  0
  151.8732  144.5356  157.5525 C   0  0  0  0  0  0  0  0  0  0  0  0
  150.8066  143.9273  158.4859 C   0  0  2  0  0  0  0  0  0  0  0  0
  151.3329  144.3847  159.8439 C   0  0  0  0  0  0  0  0  0  0  0  0
  149.8737  141.7056  156.3952 C   0  0  0  0  0  0  0  0  0  0  0  0
  150.1119  140.5971  155.0719 S   0  0  0  0  0  0  0  0  0  0  0  0
  153.3661  137.6062  159.5713 H   0  0  0  0  0  0  0  0  0  0  0  0
  153.6664  136.3014  158.4198 H   0  0  0  0  0  0  0  0  0  0  0  0
  152.0102  136.6719  158.9299 H   0  0  0  0  0  0  0  0  0  0  0  0
  153.1202  139.0170  157.7819 H   0  0  0  0  0  0  0  0  0  0  0  0
  153.4024  139.2746  155.1540 H   0  0  0  0  0  0  0  0  0  0  0  0
  151.9968  138.5399  154.3844 H   0  0  0  0  0  0  0  0  0  0  0  0
  150.1386  142.0697  159.2965 H   0  0  0  0  0  0  0  0  0  0  0  0
  152.0921  141.6993  160.3480 H   0  0  0  0  0  0  0  0  0  0  0  0
  153.0324  141.6847  158.8626 H   0  0  0  0  0  0  0  0  0  0  0  0
  153.3774  143.8114  160.4898 H   0  0  0  0  0  0  0  0  0  0  0  0
  153.6819  145.2652  158.5208 H   0  0  0  0  0  0  0  0  0  0  0  0
  153.8751  143.6611  157.8147 H   0  0  0  0  0  0  0  0  0  0  0  0
  151.6917  145.6037  157.4252 H   0  0  0  0  0  0  0  0  0  0  0  0
  151.8916  144.1015  156.5547 H   0  0  0  0  0  0  0  0  0  0  0  0
  149.7931  144.2560  158.2539 H   0  0  0  0  0  0  0  0  0  0  0  0
  150.7590  143.9972  160.6877 H   0  0  0  0  0  0  0  0  0  0  0  0
  151.4129  145.4694  159.9372 H   0  0  0  0  0  0  0  0  0  0  0  0
  149.0461  142.3990  156.3729 H   0  0  0  0  0  0  0  0  0  0  0  0
  1  2  1  0  0  0  0
  1 18  1  0  0  0  0
  1 19  1  0  0  0  0
  1 20  1  0  0  0  0
  2  3  1  0  0  0  0
  2 21  1  0  0  0  0
  3  4  2  0  0  0  0
  3  5  1  0  0  0  0
  5  6  1  0  0  0  0
  5 22  1  0  0  0  0
  5 23  1  0  0  0  0
  6 17  1  0  0  0  0
  6  7  2  0  0  0  0
  7  8  1  0  0  0  0
  8  9  1  0  0  0  0
  8 16  2  0  0  0  0
  9 14  1  0  0  0  0
  9 10  1  0  0  0  0
  9 24  1  0  0  0  0
 10 11  1  0  0  0  0
 10 25  1  0  0  0  0
 10 26  1  0  0  0  0
 11 15  1  0  0  0  0
 11 12  1  0  0  0  0
 11 27  1  0  0  0  0
 12 13  1  0  0  0  0
 12 28  1  0  0  0  0
 12 29  1  0  0  0  0
 13 14  1  0  0  0  0
 13 30  1  0  0  0  0
 13 31  1  0  0  0  0
 14 15  1  0  0  0  0
 14 32  1  0  0  0  0
 15 33  1  0  0  0  0
 15 34  1  0  0  0  0
 16 17  1  0  0  0  0
 16 35  1  0  0  0  0
M  END
> <s_m_source_file>
AV-unprocessed.smi

> <i_m_source_file_index>
3277

> <i_lp_mmshare_version>
43012

> <i_f3d_flags>
0

> <s_epik_input>
W0NIM11bTkhdQyg9TylbQ0gyXWMxbmMoW2NIXXMxKVtDQEhdKFtDSDJdW0NAQEhdMjMpW0NAQEhdKFtDSDJdMylbQ0gyXVtDSDJdMg==

> <s_epik_cmdline>
J2VwaWtfcHl0aG9uJywgJy1waCcsICc3LjAnLCAnLXRuJywgJzgnLCAnLW1hJywgJzIwMCcsICctbWV0YWxfYmluZGluZycsICctaW1hZScsICc8aW5maWxlLm1hZT4nLCAnLW9tYWUnLCAnPG91dGZpbGUubWFlPic=

> <r_lp_tautomer_probability>
1

> <r_epik_Ionization_Penalty>
8.50008e-05

> <r_epik_Ionization_Penalty_Charging>
0

> <r_epik_Ionization_Penalty_Neutral>
8.50008e-05

> <r_epik_State_Penalty>
-0

> <r_epik_Charging_Adjusted_Penalty>
0

> <i_epik_Tot_Q>
0

> <i_epik_Tot_abs_Q>
0

> <r_epik_Metal_State_Penalty>
-0

> <b_epik_Metal_Only>
0

> <s_lp_Force_Field>
OPLS_2005

> <r_lp_Energy>
45.709

> <b_lp_Chiralities_Consistent>
1

> <s_lp_Variant>
AV-unprocessed.smi:3277-2

> <Gold.Version>
5.8.1

> <Gold.Id.Protein>
6NUR|6NUR_protein|mol2

> <Gold.PLP.Fitness>
42.6164

> <Gold.PLP.PLP>
-37.2202

> <Gold.PLP.part.hbond>
-1.0000

> <Gold.PLP.part.metal>
0.0000

> <Gold.PLP.part.buried>
-3.2722

> <Gold.PLP.part.nonpolar>
-32.7410

> <Gold.PLP.part.repulsive>
0.1338

> <Gold.PLP.ligand.clash>
0.0000

> <Gold.PLP.ligand.torsion>
0.2807

> <Gold.PLP.Chemscore.Hbond>
1.0000

> <Gold.PLP.Chemscore.CHOScore>
0.9837

> <Gold.PLP.Chemscore.Metal>
0.0000

> <Gold.Chemscore.Hbonds>
donor molecule, donor type, donor heavy atom, donor atom, acceptor molecule, acceptor atom, score
      P1  H 10752 10765       L1     4  1.00
      L1  C    16    35       P1  8028  1.00

> <Gold.PLP.Chemscore.Internal.Correction>
0.0064

> <Gold.Rescore>
     Score         DG    S(hbond)    S(metal)    S(lipo)     H(rot)  DE(clash)    DE(int)     intcor
     17.43     -19.02       0.98        0.00     118.76       1.41       0.08       1.51       ----

> <Gold.Chemscore.Fitness>
17.4296

> <Gold.Chemscore.DG>
-19.0221

> <Gold.Chemscore.ZeroCoef>
-5.4800

> <Gold.Chemscore.Hbond>
0.9768

> <Gold.Chemscore.Metal>
0.0000

> <Gold.Chemscore.Lipo>
118.7583

> <Gold.Chemscore.Internal_Hbond>
0.0000

> <Gold.Chemscore.DEClash>
0.0803

> <Gold.Chemscore.DEInternal>
1.5122

> <Gold.Chemscore.Rot>
1.4122

> <Gold.Chemscore.Internal.Correction>
   9.000000E+99

> <Gold.Chemscore.Hbonds>
donor molecule, donor type, donor heavy atom, donor atom, acceptor molecule, acceptor atom, score
      P1  H 10752 10765       L1     4  0.99

> <Gold.Chemscore.Hbond.Weighted>
-3.2625

> <Gold.Chemscore.Metal.Weighted>
-0.0000

> <Gold.Chemscore.Lipo.Weighted>
-13.8947

> <Gold.Chemscore.Internal_Hbond.Weighted>
0.0000

> <Gold.Chemscore.DEClash.Weighted>
0.0803

> <Gold.Chemscore.DEInternal.Weighted>
1.5122

> <Gold.Chemscore.Rot.Weighted>
3.6151

> <Gold.Chemscore.Internal.Correction.Weighted>
   9.000000E+99

> <Gold.Protein.RotatedTorsions>
[ 6907 6896 6895 6894 ] final -111.62 input  -60.11 | X-H torsion
[ 7974 7965 7964 7962 ] final  133.35 input  175.53 | X-H torsion
[ 8008 7997 7996 7995 ] final  -38.44 input   59.86 | X-H torsion
[ 10167 10162 10161 10158 ] final   12.04 input  -65.29 | X-H torsion
[ 10718 10713 10712 10709 ] final   93.90 input   66.30 | X-H torsion
[ 10763 10752 10751 10750 ] final -160.63 input  -60.55 | X-H torsion
[ 11005 11000 10999 10996 ] final  144.62 input  -57.11 | X-H torsion

> <Gold.Protein.ActiveResidues>
 VAL166  LYS551  ARG553  GLY616  TRP617  ASP618  TYR619  PRO620  LYS621  CYS622 
 ASP623  PHE694  ASN695  SER759  ASP760  ASP761  ALA762  ILE779  LEU786  VAL792 
 PHE793  MET794  SER795  GLU796  ALA797  LYS798  CYS799  TRP800  GLU811  SER814 

> <Gold.Protein.RotatedAtoms>
  150.7702  133.9209  159.3397 H   0  0  0  0  0  0  0  0  0  0  0  0  # atno 6907 bound_to 6896
  151.7097  135.0913  160.0275 H   0  0  0  0  0  0  0  0  0  0  0  0  # atno 6908 bound_to 6896
  152.3717  133.6389  159.6128 H   0  0  0  0  0  0  0  0  0  0  0  0  # atno 6909 bound_to 6896
  144.9874  139.4441  143.5356 H   0  0  0  0  0  0  0  0  0  0  0  0  # atno 7974 bound_to 7965
  154.4037  140.1578  156.2700 H   0  0  0  0  0  0  0  0  0  0  0  0  # atno 8008 bound_to 7997
  155.8962  140.3436  155.5970 H   0  0  0  0  0  0  0  0  0  0  0  0  # atno 8009 bound_to 7997
  155.7501  140.0804  157.2195 H   0  0  0  0  0  0  0  0  0  0  0  0  # atno 8010 bound_to 7997
  140.6093  143.8441  150.7048 H   0  0  0  0  0  0  0  0  0  0  0  0  # atno 10167 bound_to 10162
  157.6952  131.0494  150.4104 H   0  0  0  0  0  0  0  0  0  0  0  0  # atno 10718 bound_to 10713
  154.7374  135.3060  154.8788 H   0  0  0  0  0  0  0  0  0  0  0  0  # atno 10763 bound_to 10752
  153.9612  135.6752  153.4749 H   0  0  0  0  0  0  0  0  0  0  0  0  # atno 10764 bound_to 10752
  153.0975  135.4928  154.8730 H   0  0  0  0  0  0  0  0  0  0  0  0  # atno 10765 bound_to 10752
  140.0646  134.9185  157.1243 H   0  0  0  0  0  0  0  0  0  0  0  0  # atno 11005 bound_to 11000
  146.3423  139.9184  142.8770 LP  0  0  0  0  0  0  0  0  0  0  0  0  # atno 17320 bound_to 7965
  145.2334  140.9982  143.3977 LP  0  0  0  0  0  0  0  0  0  0  0  0  # atno 17321 bound_to 7965
  140.2006  143.3962  152.1794 LP  0  0  0  0  0  0  0  0  0  0  0  0  # atno 17342 bound_to 10162
  139.5349  144.7199  151.4928 LP  0  0  0  0  0  0  0  0  0  0  0  0  # atno 17343 bound_to 10162
  156.4488  130.4007  149.6649 LP  0  0  0  0  0  0  0  0  0  0  0  0  # atno 17370 bound_to 10713
  156.3806  130.7577  151.2569 LP  0  0  0  0  0  0  0  0  0  0  0  0  # atno 17371 bound_to 10713
  140.3718  134.2382  155.7177 LP  0  0  0  0  0  0  0  0  0  0  0  0  # atno 17394 bound_to 11000
  141.1987  133.8028  157.0568 LP  0  0  0  0  0  0  0  0  0  0  0  0  # atno 17395 bound_to 11000

$$$$
