AV-unprocessed.smi:2397|AV-procd|sdf|9493|dock9
  -GOLD-   2272013123D 1   1.00000     0.00000
 Structure written by MMmdl.
 36 37  0  0  0  0  0  0  0  0  1 V2000
  151.7248  143.9548  161.2902 C   0  0  0  0  0  0  0  0  0  0  0  0
  152.3248  143.7727  159.8872 C   0  0  0  0  0  0  0  0  0  0  0  0
  151.8423  144.8326  158.8850 C   0  0  0  0  0  0  0  0  0  0  0  0
  152.1235  142.3579  159.3607 C   0  0  0  0  0  0  0  0  0  0  0  0
  152.6041  141.3609  160.1097 N   0  0  0  0  0  0  0  0  0  0  0  0
  152.4238  140.1072  159.6443 C   0  0  0  0  0  0  0  0  0  0  0  0
  151.7629  139.8534  158.4263 C   0  0  0  0  0  0  0  0  0  0  0  0
  151.3009  140.9823  157.7069 C   0  0  0  0  0  0  0  0  0  0  0  0
  150.6160  140.8847  156.4787 N   0  0  0  0  0  0  0  0  0  0  0  0
  149.3109  141.5398  156.5384 C   0  0  0  0  0  0  0  0  0  0  0  0
  148.6800  141.6234  155.1412 C   0  0  0  0  0  0  0  0  0  0  0  0
  148.6084  140.3189  154.5827 O   0  0  0  0  0  0  0  0  0  0  0  0
  149.9028  139.7557  154.4073 C   0  0  0  0  0  0  0  0  0  0  0  0
  150.6155  139.5953  155.7710 C   0  0  1  0  0  0  0  0  0  0  0  0
  152.0108  138.9968  155.5133 C   0  0  0  0  0  0  0  0  0  0  0  0
  152.0575  137.8117  154.8998 N   0  0  0  0  0  0  0  0  0  0  0  0
  153.0294  139.5984  155.8498 O   0  0  0  0  0  0  0  0  0  0  0  0
  151.4830  142.2310  158.1939 N   0  0  0  0  0  0  0  0  0  0  0  0
  152.1447  143.2336  161.9918 H   0  0  0  0  0  0  0  0  0  0  0  0
  150.6428  143.8205  161.2813 H   0  0  0  0  0  0  0  0  0  0  0  0
  151.9310  144.9523  161.6785 H   0  0  0  0  0  0  0  0  0  0  0  0
  153.4002  143.9254  159.9953 H   0  0  0  0  0  0  0  0  0  0  0  0
  152.3406  144.7160  157.9224 H   0  0  0  0  0  0  0  0  0  0  0  0
  152.0535  145.8391  159.2468 H   0  0  0  0  0  0  0  0  0  0  0  0
  150.7678  144.7604  158.7150 H   0  0  0  0  0  0  0  0  0  0  0  0
  152.8068  139.2991  160.2496 H   0  0  0  0  0  0  0  0  0  0  0  0
  151.6234  138.8414  158.0779 H   0  0  0  0  0  0  0  0  0  0  0  0
  148.6575  140.9784  157.2079 H   0  0  0  0  0  0  0  0  0  0  0  0
  149.3979  142.5464  156.9500 H   0  0  0  0  0  0  0  0  0  0  0  0
  147.6737  142.0374  155.2071 H   0  0  0  0  0  0  0  0  0  0  0  0
  149.2550  142.2843  154.4903 H   0  0  0  0  0  0  0  0  0  0  0  0
  149.7883  138.7860  153.9209 H   0  0  0  0  0  0  0  0  0  0  0  0
  150.4841  140.3814  153.7268 H   0  0  0  0  0  0  0  0  0  0  0  0
  150.0351  138.8878  156.3657 H   0  0  0  0  0  0  0  0  0  0  0  0
  152.9482  137.3768  154.7080 H   0  0  0  0  0  0  0  0  0  0  0  0
  151.1987  137.3546  154.6298 H   0  0  0  0  0  0  0  0  0  0  0  0
  1  2  1  0  0  0  0
  1 19  1  0  0  0  0
  1 20  1  0  0  0  0
  1 21  1  0  0  0  0
  2  3  1  0  0  0  0
  2  4  1  0  0  0  0
  2 22  1  0  0  0  0
  3 23  1  0  0  0  0
  3 24  1  0  0  0  0
  3 25  1  0  0  0  0
  4 18  1  0  0  0  0
  4  5  2  0  0  0  0
  5  6  1  0  0  0  0
  6  7  2  0  0  0  0
  6 26  1  0  0  0  0
  7  8  1  0  0  0  0
  7 27  1  0  0  0  0
  8  9  1  0  0  0  0
  8 18  2  0  0  0  0
  9 14  1  0  0  0  0
  9 10  1  0  0  0  0
 10 11  1  0  0  0  0
 10 28  1  0  0  0  0
 10 29  1  0  0  0  0
 11 12  1  0  0  0  0
 11 30  1  0  0  0  0
 11 31  1  0  0  0  0
 12 13  1  0  0  0  0
 13 14  1  0  0  0  0
 13 32  1  0  0  0  0
 13 33  1  0  0  0  0
 14 15  1  0  0  0  0
 14 34  1  0  0  0  0
 15 16  1  0  0  0  0
 15 17  2  0  0  0  0
 16 35  1  0  0  0  0
 16 36  1  0  0  0  0
M  END
> <s_m_source_file>
AV-unprocessed.smi

> <i_m_source_file_index>
2397

> <i_lp_mmshare_version>
43012

> <i_f3d_flags>
0

> <s_epik_input>
W0NIM11bQ0hdKFtDSDNdKWMxbltjSF1bY0hdYyhuMSlOMltDSDJdW0NIMl1PW0NIMl1bQ0BIXTJDKD1PKVtOSDJd

> <s_epik_cmdline>
J2VwaWtfcHl0aG9uJywgJy1waCcsICc3LjAnLCAnLXRuJywgJzgnLCAnLW1hJywgJzIwMCcsICctbWV0YWxfYmluZGluZycsICctaW1hZScsICc8aW5maWxlLm1hZT4nLCAnLW9tYWUnLCAnPG91dGZpbGUubWFlPic=

> <r_lp_tautomer_probability>
1

> <r_epik_Ionization_Penalty>
0.0323151

> <r_epik_Ionization_Penalty_Charging>
0

> <r_epik_Ionization_Penalty_Neutral>
0.0323151

> <r_epik_State_Penalty>
0.0267324

> <r_epik_Charging_Adjusted_Penalty>
0.0267324

> <i_epik_Tot_Q>
0

> <i_epik_Tot_abs_Q>
0

> <r_epik_Metal_State_Penalty>
0.0253461

> <b_epik_Metal_Only>
0

> <s_lp_Force_Field>
OPLS_2005

> <r_lp_Energy>
6.33426

> <b_lp_Chiralities_Consistent>
1

> <s_lp_Variant>
AV-unprocessed.smi:2397-1

> <Gold.Version>
5.8.1

> <Gold.Id.Protein>
6NUR|6NUR_protein|mol2

> <Gold.PLP.Fitness>
38.6229

> <Gold.PLP.PLP>
-35.6725

> <Gold.PLP.part.hbond>
-0.9803

> <Gold.PLP.part.metal>
0.0000

> <Gold.PLP.part.buried>
-4.0247

> <Gold.PLP.part.nonpolar>
-30.4529

> <Gold.PLP.part.repulsive>
0.3180

> <Gold.PLP.ligand.clash>
0.0000

> <Gold.PLP.ligand.torsion>
0.1896

> <Gold.PLP.Chemscore.Hbond>
1.0000

> <Gold.PLP.Chemscore.CHOScore>
0.0000

> <Gold.PLP.Chemscore.Metal>
0.0000

> <Gold.Chemscore.Hbonds>
donor molecule, donor type, donor heavy atom, donor atom, acceptor molecule, acceptor atom, score
      P1  H  7997  8008       L1    17  0.86

> <Gold.PLP.Chemscore.Internal.Correction>
0.3297

> <Gold.Rescore>
     Score         DG    S(hbond)    S(metal)    S(lipo)     H(rot)  DE(clash)    DE(int)     intcor
     11.63     -13.30       0.99        0.00      76.59       1.74       0.03       1.64       ----

> <Gold.Chemscore.Fitness>
11.6340

> <Gold.Chemscore.DG>
-13.2994

> <Gold.Chemscore.ZeroCoef>
-5.4800

> <Gold.Chemscore.Hbond>
0.9937

> <Gold.Chemscore.Metal>
0.0000

> <Gold.Chemscore.Lipo>
76.5930

> <Gold.Chemscore.Internal_Hbond>
0.0000

> <Gold.Chemscore.DEClash>
0.0261

> <Gold.Chemscore.DEInternal>
1.6393

> <Gold.Chemscore.Rot>
1.7426

> <Gold.Chemscore.Internal.Correction>
   9.000000E+99

> <Gold.Chemscore.Hbonds>
donor molecule, donor type, donor heavy atom, donor atom, acceptor molecule, acceptor atom, score
      P1  H  7997  8008       L1    17  0.84

> <Gold.Chemscore.Hbond.Weighted>
-3.3190

> <Gold.Chemscore.Metal.Weighted>
-0.0000

> <Gold.Chemscore.Lipo.Weighted>
-8.9614

> <Gold.Chemscore.Internal_Hbond.Weighted>
0.0000

> <Gold.Chemscore.DEClash.Weighted>
0.0261

> <Gold.Chemscore.DEInternal.Weighted>
1.6393

> <Gold.Chemscore.Rot.Weighted>
4.4610

> <Gold.Chemscore.Internal.Correction.Weighted>
   9.000000E+99

> <Gold.Protein.RotatedTorsions>
[ 6907 6896 6895 6894 ] final  162.00 input  -60.11 | X-H torsion
[ 7974 7965 7964 7962 ] final  137.03 input  175.53 | X-H torsion
[ 8008 7997 7996 7995 ] final  -39.33 input   59.86 | X-H torsion
[ 10167 10162 10161 10158 ] final  -23.60 input  -65.29 | X-H torsion
[ 10718 10713 10712 10709 ] final   -5.02 input   66.30 | X-H torsion
[ 10763 10752 10751 10750 ] final -137.11 input  -60.55 | X-H torsion
[ 11005 11000 10999 10996 ] final  125.18 input  -57.11 | X-H torsion

> <Gold.Protein.ActiveResidues>
 VAL166  LYS551  ARG553  GLY616  TRP617  ASP618  TYR619  PRO620  LYS621  CYS622 
 ASP623  PHE694  ASN695  SER759  ASP760  ASP761  ALA762  ILE779  LEU786  VAL792 
 PHE793  MET794  SER795  GLU796  ALA797  LYS798  CYS799  TRP800  GLU811  SER814 

> <Gold.Protein.RotatedAtoms>
  151.9470  133.3654  159.3985 H   0  0  0  0  0  0  0  0  0  0  0  0  # atno 6907 bound_to 6896
  150.6987  134.4380  159.5288 H   0  0  0  0  0  0  0  0  0  0  0  0  # atno 6908 bound_to 6896
  152.2046  134.8556  160.0555 H   0  0  0  0  0  0  0  0  0  0  0  0  # atno 6909 bound_to 6896
  144.9507  139.4822  143.5527 H   0  0  0  0  0  0  0  0  0  0  0  0  # atno 7974 bound_to 7965
  154.4024  140.1554  156.2846 H   0  0  0  0  0  0  0  0  0  0  0  0  # atno 8008 bound_to 7997
  155.8839  140.3442  155.5885 H   0  0  0  0  0  0  0  0  0  0  0  0  # atno 8009 bound_to 7997
  155.7636  140.0821  157.2134 H   0  0  0  0  0  0  0  0  0  0  0  0  # atno 8010 bound_to 7997
  140.7288  143.4428  151.0631 H   0  0  0  0  0  0  0  0  0  0  0  0  # atno 10167 bound_to 10162
  156.7528  130.5245  149.5800 H   0  0  0  0  0  0  0  0  0  0  0  0  # atno 10718 bound_to 10713
  154.8669  135.3652  154.5170 H   0  0  0  0  0  0  0  0  0  0  0  0  # atno 10763 bound_to 10752
  153.5802  135.7018  153.5471 H   0  0  0  0  0  0  0  0  0  0  0  0  # atno 10764 bound_to 10752
  153.3464  135.4084  155.1574 H   0  0  0  0  0  0  0  0  0  0  0  0  # atno 10765 bound_to 10752
  139.9394  134.9637  156.8520 H   0  0  0  0  0  0  0  0  0  0  0  0  # atno 11005 bound_to 11000
  146.3320  139.8591  142.8859 LP  0  0  0  0  0  0  0  0  0  0  0  0  # atno 17320 bound_to 7965
  145.2848  141.0149  143.3697 LP  0  0  0  0  0  0  0  0  0  0  0  0  # atno 17321 bound_to 7965
  139.8097  143.7968  152.3170 LP  0  0  0  0  0  0  0  0  0  0  0  0  # atno 17342 bound_to 10162
  139.8013  144.7373  150.9820 LP  0  0  0  0  0  0  0  0  0  0  0  0  # atno 17343 bound_to 10162
  156.1390  130.6231  151.0441 LP  0  0  0  0  0  0  0  0  0  0  0  0  # atno 17370 bound_to 10713
  157.6769  131.0848  150.7470 LP  0  0  0  0  0  0  0  0  0  0  0  0  # atno 17371 bound_to 10713
  140.5991  134.0189  155.7530 LP  0  0  0  0  0  0  0  0  0  0  0  0  # atno 17394 bound_to 11000
  141.1022  133.9750  157.3059 LP  0  0  0  0  0  0  0  0  0  0  0  0  # atno 17395 bound_to 11000

$$$$
