#       Name:                AV-unprocessed.smi:1305
#       Creating user name   scv26
#       Creation time:       Fri Mar 27 04:59:39 2020


#       File generated by GOLD software.
#

@<TRIPOS>MOLECULE
AV-unprocessed.smi:1305
    36    37     1
SMALL
NO_CHARGES


@<TRIPOS>ATOM
      1 ****        -3.6561   3.6482   1.9794 C.3            1 S1                 0.0000
      2 ****        -3.4222   2.5043   0.9870 C.3            1 S1                 0.0000
      3 ****        -1.9402   2.1321   0.8576 C.3            1 S1                 0.0000
      4 ****        -1.7010   0.7661  -0.3165 S.3            1 S1                 0.0000
      5 ****         0.0559   0.5706  -0.2218 C.2            1 S1                 0.0000
      6 ****         0.8689   1.3630   0.4841 N.2            1 S1                 0.0000
      7 ****         2.1395   0.8795   0.2733 N.2            1 S1                 0.0000
      8 ****         1.9870  -0.1770  -0.5269 C.2            1 S1                 0.0000
      9 ****         3.1311  -0.9907  -1.0446 C.3            1 S1                 0.0000
     10 ****         3.3761  -2.3973  -0.5451 C.3            1 S1                 0.0000
     11 ****         4.3358  -1.2959  -0.1805 C.3            1 S1                 0.0000
     12 ****         0.7064  -0.4124  -0.8819 N.pl3          1 S1                 0.0000
     13 ****         0.1719  -1.4505  -1.7571 C.3            1 S1                 0.0000
     14 ****        -0.1499  -2.7388  -0.9942 C.2            1 S1                 0.0000
     15 ****        -1.1047  -2.6836  -0.0618 N.am           1 S1                 0.0000
     16 ****         0.4504  -3.7791  -1.2539 O.2            1 S1                 0.0000
     17 ****        -4.7163   3.8923   2.0483 H              1 S1                 0.0000
     18 ****        -3.1263   4.5502   1.6725 H              1 S1                 0.0000
     19 ****        -3.3108   3.3797   2.9780 H              1 S1                 0.0000
     20 ****        -3.9922   1.6308   1.3051 H              1 S1                 0.0000
     21 ****        -3.8134   2.7902   0.0101 H              1 S1                 0.0000
     22 ****        -1.3686   2.9972   0.5199 H              1 S1                 0.0000
     23 ****        -1.5449   1.8371   1.8302 H              1 S1                 0.0000
     24 ****         3.3035  -0.7852  -2.0993 H              1 S1                 0.0000
     25 ****         2.7314  -2.7762   0.2452 H              1 S1                 0.0000
     26 ****         3.7059  -3.1360  -1.2727 H              1 S1                 0.0000
     27 ****         5.3109  -1.2990  -0.6627 H              1 S1                 0.0000
     28 ****         4.3272  -0.9483   0.8506 H              1 S1                 0.0000
     29 ****        -0.7251  -1.0837  -2.2562 H              1 S1                 0.0000
     30 ****         0.8971  -1.6586  -2.5447 H              1 S1                 0.0000
     31 ****        -1.3467  -3.5118   0.4632 H              1 S1                 0.0000
     32 ****        -1.5823  -1.8118   0.1148 H              1 S1                 0.0000
     33 ****         0.6074   2.1457   1.0488 LP             1 S1                 0.0000
     34 ****         2.9954   1.2427   0.6415 LP             1 S1                 0.0000
     35 ****         1.1524  -3.7869  -1.9660 LP             1 S1                 0.0000
     36 ****         0.2369  -4.6180  -0.7531 LP             1 S1                 0.0000
@<TRIPOS>BOND
    1    1    2 1     
    2    1   17 1     
    3    1   18 1     
    4    1   19 1     
    5    2    3 1     
    6    2   20 1     
    7    2   21 1     
    8    3    4 1     
    9    3   22 1     
   10    3   23 1     
   11    4    5 1     
   12    5   12 1     
   13    5    6 2     
   14    6    7 1     
   15    7    8 2     
   16    8    9 1     
   17    8   12 1     
   18    9   11 1     
   19    9   10 1     
   20    9   24 1     
   21   10   11 1     
   22   10   25 1     
   23   10   26 1     
   24   11   27 1     
   25   11   28 1     
   26   12   13 1     
   27   13   14 1     
   28   13   29 1     
   29   13   30 1     
   30   14   15 am    
   31   14   16 2     
   32   15   31 1     
   33   15   32 1     
   34    6   33 1     
   35    7   34 1     
   36   16   35 1     
   37   16   36 1     
@<TRIPOS>SUBSTRUCTURE
      1 S1             1
@<TRIPOS>SET
LONE_PAIRS      STATIC     ATOMS    <user>   **** ""
4 33 34 35 36
DONOR_HYDROGENS      STATIC     ATOMS    <user>   **** ""
2 31 32
ATOM$BLUE        STATIC     ATOMS    COLORGROUP SYSTEM
4 33 34 35 36
ATOM$RED        STATIC     ATOMS    COLORGROUP SYSTEM
2 31 32
