AV-unprocessed.smi:1873|AV-procd|sdf|7608|dock1
  -GOLD-   22720 9323D 1   1.00000     0.00000
 Structure written by MMmdl.
 36 38  0  0  0  0  0  0  0  0  1 V2000
  151.4059  139.8335  154.7551 O   0  0  0  0  0  0  0  0  0  0  0  0
  151.7005  140.0140  156.1271 C   0  0  1  0  0  0  0  0  0  0  0  0
  151.3542  141.4553  156.5504 C   0  0  0  0  0  0  0  0  0  0  0  0
  151.8777  141.7913  157.8622 N   0  0  0  0  0  0  0  0  0  0  0  0
  152.5429  140.9785  158.7054 C   0  0  0  0  0  0  0  0  0  0  0  0
  152.9347  141.4944  159.8671 N   0  0  0  0  0  0  0  0  0  0  0  0
  152.4701  142.7945  159.7658 C   0  0  0  0  0  0  0  0  0  0  0  0
  152.5589  143.8740  160.6739 C   0  0  0  0  0  0  0  0  0  0  0  0
  152.0022  145.1286  160.3489 C   0  0  0  0  0  0  0  0  0  0  0  0
  151.3501  145.3236  159.1138 C   0  0  0  0  0  0  0  0  0  0  0  0
  151.2488  144.2631  158.1928 C   0  0  0  0  0  0  0  0  0  0  0  0
  151.8051  143.0129  158.5215 C   0  0  0  0  0  0  0  0  0  0  0  0
  150.9902  138.9935  157.0025 C   0  0  0  0  0  0  0  0  0  0  0  0
  151.7368  138.1083  157.8076 C   0  0  0  0  0  0  0  0  0  0  0  0
  151.0806  137.1676  158.6246 C   0  0  0  0  0  0  0  0  0  0  0  0
  149.6732  137.0926  158.6473 C   0  0  0  0  0  0  0  0  0  0  0  0
  149.0920  136.1609  159.4779 O   0  0  0  0  0  0  0  0  0  0  0  0
  147.8471  136.3919  159.9741 C   0  0  0  0  0  0  0  0  0  0  0  0
  146.9175  136.0973  159.0334 F   0  0  0  0  0  0  0  0  0  0  0  0
  147.6092  135.5975  161.0465 F   0  0  0  0  0  0  0  0  0  0  0  0
  148.9255  137.9916  157.8495 C   0  0  0  0  0  0  0  0  0  0  0  0
  149.5807  138.9316  157.0311 C   0  0  0  0  0  0  0  0  0  0  0  0
  151.2582  138.9131  154.5993 H   0  0  0  0  0  0  0  0  0  0  0  0
  152.7761  139.8673  156.2355 H   0  0  0  0  0  0  0  0  0  0  0  0
  151.7433  142.1724  155.8259 H   0  0  0  0  0  0  0  0  0  0  0  0
  150.2720  141.5909  156.5730 H   0  0  0  0  0  0  0  0  0  0  0  0
  152.7485  139.9482  158.4533 H   0  0  0  0  0  0  0  0  0  0  0  0
  153.0561  143.7365  161.6227 H   0  0  0  0  0  0  0  0  0  0  0  0
  152.0760  145.9461  161.0509 H   0  0  0  0  0  0  0  0  0  0  0  0
  150.9278  146.2883  158.8738 H   0  0  0  0  0  0  0  0  0  0  0  0
  150.7497  144.4081  157.2463 H   0  0  0  0  0  0  0  0  0  0  0  0
  152.8162  138.1477  157.8041 H   0  0  0  0  0  0  0  0  0  0  0  0
  151.6633  136.4959  159.2381 H   0  0  0  0  0  0  0  0  0  0  0  0
  147.7127  137.4359  160.2580 H   0  0  0  0  0  0  0  0  0  0  0  0
  147.8460  137.9767  157.8599 H   0  0  0  0  0  0  0  0  0  0  0  0
  148.9963  139.6112  156.4283 H   0  0  0  0  0  0  0  0  0  0  0  0
  1  2  1  0  0  0  0
  1 23  1  0  0  0  0
  2  3  1  0  0  0  0
  2 13  1  0  0  0  0
  2 24  1  0  0  0  0
  3  4  1  0  0  0  0
  3 25  1  0  0  0  0
  3 26  1  0  0  0  0
  4 12  1  0  0  0  0
  4  5  1  0  0  0  0
  5  6  2  0  0  0  0
  5 27  1  0  0  0  0
  6  7  1  0  0  0  0
  7 12  2  0  0  0  0
  7  8  1  0  0  0  0
  8  9  2  0  0  0  0
  8 28  1  0  0  0  0
  9 10  1  0  0  0  0
  9 29  1  0  0  0  0
 10 11  2  0  0  0  0
 10 30  1  0  0  0  0
 11 12  1  0  0  0  0
 11 31  1  0  0  0  0
 13 22  1  0  0  0  0
 13 14  2  0  0  0  0
 14 15  1  0  0  0  0
 14 32  1  0  0  0  0
 15 16  2  0  0  0  0
 15 33  1  0  0  0  0
 16 17  1  0  0  0  0
 16 21  1  0  0  0  0
 17 18  1  0  0  0  0
 18 19  1  0  0  0  0
 18 20  1  0  0  0  0
 18 34  1  0  0  0  0
 21 22  2  0  0  0  0
 21 35  1  0  0  0  0
 22 36  1  0  0  0  0
M  END
> <s_m_source_file>
AV-unprocessed.smi

> <i_m_source_file_index>
1873

> <i_lp_mmshare_version>
43012

> <i_f3d_flags>
0

> <s_epik_input>
RltDSF0oRilPYyhbY0hdW2NIXTEpW2NIXVtjSF1jMVtDQEhdKFtPSF0pW0NIMl1uKFtjSF1uMiljKGMyMylbY0hdW2NIXVtjSF1bY0hdMw==

> <s_epik_cmdline>
J2VwaWtfcHl0aG9uJywgJy1waCcsICc3LjAnLCAnLXRuJywgJzgnLCAnLW1hJywgJzIwMCcsICctbWV0YWxfYmluZGluZycsICctaW1hZScsICc8aW5maWxlLm1hZT4nLCAnLW9tYWUnLCAnPG91dGZpbGUubWFlPic=

> <r_lp_tautomer_probability>
1

> <r_epik_Ionization_Penalty>
0.0696507

> <r_epik_Ionization_Penalty_Charging>
0

> <r_epik_Ionization_Penalty_Neutral>
0.0696507

> <r_epik_State_Penalty>
0.0610247

> <r_epik_Charging_Adjusted_Penalty>
0.0610247

> <i_epik_Tot_Q>
0

> <i_epik_Tot_abs_Q>
0

> <r_epik_Metal_State_Penalty>
6.42746e-05

> <b_epik_Metal_Only>
0

> <s_lp_Force_Field>
OPLS_2005

> <r_lp_Energy>
11.6076

> <b_lp_Chiralities_Consistent>
1

> <s_lp_Variant>
AV-unprocessed.smi:1873-2

> <Gold.Version>
5.8.1

> <Gold.Id.Protein>
6NUR|6NUR_protein|mol2

> <Gold.PLP.Fitness>
47.2816

> <Gold.PLP.PLP>
-42.3747

> <Gold.PLP.part.hbond>
-2.0000

> <Gold.PLP.part.metal>
0.0000

> <Gold.PLP.part.buried>
-7.4570

> <Gold.PLP.part.nonpolar>
-33.1340

> <Gold.PLP.part.repulsive>
0.0000

> <Gold.PLP.ligand.clash>
0.0000

> <Gold.PLP.ligand.torsion>
0.5957

> <Gold.PLP.Chemscore.Hbond>
2.0000

> <Gold.PLP.Chemscore.CHOScore>
0.0000

> <Gold.PLP.Chemscore.Metal>
0.0000

> <Gold.Chemscore.Hbonds>
donor molecule, donor type, donor heavy atom, donor atom, acceptor molecule, acceptor atom, score
      P1  H  6896  6907       L1    17  0.60
      P1  H  7989  7998       L1     1  1.00

> <Gold.PLP.Chemscore.Internal.Correction>
0.0983

> <Gold.Rescore>
     Score         DG    S(hbond)    S(metal)    S(lipo)     H(rot)  DE(clash)    DE(int)     intcor
     16.17     -17.88       1.77        0.00     108.06       2.40       0.17       1.54       ----

> <Gold.Chemscore.Fitness>
16.1656

> <Gold.Chemscore.DG>
-17.8822

> <Gold.Chemscore.ZeroCoef>
-5.4800

> <Gold.Chemscore.Hbond>
1.7662

> <Gold.Chemscore.Metal>
0.0000

> <Gold.Chemscore.Lipo>
108.0640

> <Gold.Chemscore.Internal_Hbond>
0.0000

> <Gold.Chemscore.DEClash>
0.1741

> <Gold.Chemscore.DEInternal>
1.5425

> <Gold.Chemscore.Rot>
2.3986

> <Gold.Chemscore.Internal.Correction>
   9.000000E+99

> <Gold.Chemscore.Hbonds>
donor molecule, donor type, donor heavy atom, donor atom, acceptor molecule, acceptor atom, score
      P1  H  6896  6907       L1    17  0.14
      P1  H  7989  7998       L1     1  0.97

> <Gold.Chemscore.Hbond.Weighted>
-5.8992

> <Gold.Chemscore.Metal.Weighted>
-0.0000

> <Gold.Chemscore.Lipo.Weighted>
-12.6435

> <Gold.Chemscore.Internal_Hbond.Weighted>
0.0000

> <Gold.Chemscore.DEClash.Weighted>
0.1741

> <Gold.Chemscore.DEInternal.Weighted>
1.5425

> <Gold.Chemscore.Rot.Weighted>
6.1405

> <Gold.Chemscore.Internal.Correction.Weighted>
   9.000000E+99

> <Gold.Protein.RotatedTorsions>
[ 6907 6896 6895 6894 ] final  -55.06 input  -60.11 | X-H torsion
[ 7974 7965 7964 7962 ] final  127.77 input  175.53 | X-H torsion
[ 8008 7997 7996 7995 ] final   93.67 input   59.86 | X-H torsion
[ 10167 10162 10161 10158 ] final  -74.52 input  -65.29 | X-H torsion
[ 10718 10713 10712 10709 ] final   84.58 input   66.30 | X-H torsion
[ 10763 10752 10751 10750 ] final  -16.27 input  -60.55 | X-H torsion
[ 11005 11000 10999 10996 ] final  -45.17 input  -57.11 | X-H torsion

> <Gold.Protein.ActiveResidues>
 VAL166  LYS551  ARG553  GLY616  TRP617  ASP618  TYR619  PRO620  LYS621  CYS622 
 ASP623  PHE694  ASN695  SER759  ASP760  ASP761  ALA762  ILE779  LEU786  VAL792 
 PHE793  MET794  SER795  GLU796  ALA797  LYS798  CYS799  TRP800  GLU811  SER814 

> <Gold.Protein.RotatedAtoms>
  150.8284  134.7526  159.6832 H   0  0  0  0  0  0  0  0  0  0  0  0  # atno 6907 bound_to 6896
  152.4392  134.5622  159.9907 H   0  0  0  0  0  0  0  0  0  0  0  0  # atno 6908 bound_to 6896
  151.5789  133.3342  159.3040 H   0  0  0  0  0  0  0  0  0  0  0  0  # atno 6909 bound_to 6896
  145.0469  139.3916  143.5074 H   0  0  0  0  0  0  0  0  0  0  0  0  # atno 7974 bound_to 7965
  156.0494  140.3310  155.7333 H   0  0  0  0  0  0  0  0  0  0  0  0  # atno 8008 bound_to 7997
  155.5624  140.0620  157.2843 H   0  0  0  0  0  0  0  0  0  0  0  0  # atno 8009 bound_to 7997
  154.4429  140.1875  156.0784 H   0  0  0  0  0  0  0  0  0  0  0  0  # atno 8010 bound_to 7997
  140.5020  143.2359  151.7736 H   0  0  0  0  0  0  0  0  0  0  0  0  # atno 10167 bound_to 10162
  157.6900  131.0139  150.2694 H   0  0  0  0  0  0  0  0  0  0  0  0  # atno 10718 bound_to 10713
  153.5559  135.7010  153.5569 H   0  0  0  0  0  0  0  0  0  0  0  0  # atno 10763 bound_to 10752
  153.3473  135.4005  155.1618 H   0  0  0  0  0  0  0  0  0  0  0  0  # atno 10764 bound_to 10752
  154.8655  135.3757  154.5073 H   0  0  0  0  0  0  0  0  0  0  0  0  # atno 10765 bound_to 10752
  141.0498  133.6747  156.2975 H   0  0  0  0  0  0  0  0  0  0  0  0  # atno 11005 bound_to 11000
  146.3514  140.0098  142.8668 LP  0  0  0  0  0  0  0  0  0  0  0  0  # atno 17320 bound_to 7965
  145.1577  140.9656  143.4395 LP  0  0  0  0  0  0  0  0  0  0  0  0  # atno 17321 bound_to 7965
  139.4874  144.4509  151.9655 LP  0  0  0  0  0  0  0  0  0  0  0  0  # atno 17342 bound_to 10162
  140.3598  144.2987  150.5935 LP  0  0  0  0  0  0  0  0  0  0  0  0  # atno 17343 bound_to 10162
  156.3260  130.3793  149.7533 LP  0  0  0  0  0  0  0  0  0  0  0  0  # atno 17370 bound_to 10713
  156.5088  130.8162  151.3161 LP  0  0  0  0  0  0  0  0  0  0  0  0  # atno 17371 bound_to 10713
  140.6077  134.5490  157.5528 LP  0  0  0  0  0  0  0  0  0  0  0  0  # atno 17394 bound_to 11000
  139.9341  134.7908  156.0851 LP  0  0  0  0  0  0  0  0  0  0  0  0  # atno 17395 bound_to 11000

$$$$
