AV-unprocessed.smi:43|AV-procd|sdf|391|dock3
  -GOLD-   2262016243D 1   1.00000     0.00000
 Structure written by MMmdl.
 25 26  0  0  0  0  0  0  0  0  2 V2000
  153.4297  140.1205  160.3433 C   0  0  0  0  0  0  0  0  0  0  0  0
  152.5607  139.1205  159.7495 N   0  0  0  0  0  0  0  0  0  0  0  0
  152.6084  137.8442  160.2079 N   0  0  0  0  0  0  0  0  0  0  0  0
  151.7443  137.1593  159.5188 N   0  0  0  0  0  0  0  0  0  0  0  0
  151.1022  137.9535  158.5915 N   0  0  0  0  0  0  0  0  0  0  0  0
  151.6398  139.1556  158.7672 C   0  0  0  0  0  0  0  0  0  0  0  0
  151.2939  140.3065  158.0440 N   0  0  0  0  0  0  0  0  0  0  0  0
  151.4816  141.7146  158.4035 C   0  0  0  0  0  0  0  0  0  0  0  0
  151.0768  142.5774  157.2080 C   0  0  2  0  0  0  0  0  0  0  0  0
  150.5713  143.8376  157.5962 O   0  0  0  0  0  0  0  0  0  0  0  0
  150.0356  141.7126  156.5261 C   0  0  0  0  0  0  0  0  0  0  0  0
  150.5866  140.3013  156.7571 C   0  0  1  0  0  0  0  0  0  0  0  0
  151.4950  139.8335  155.6055 C   0  0  0  0  0  0  0  0  0  0  0  0
  150.9800  139.7874  154.4674 O   0  0  0  0  0  0  0  0  0  0  0  0
  152.6808  139.5356  155.8740 O   0  5  0  0  0  0  0  0  0  0  0  0
  151.9305  142.7223  156.5448 H   0  0  0  0  0  0  0  0  0  0  0  0
  149.7488  139.6054  156.8222 H   0  0  0  0  0  0  0  0  0  0  0  0
  152.8393  140.9607  160.7069 H   0  0  0  0  0  0  0  0  0  0  0  0
  154.1524  140.4670  159.6050 H   0  0  0  0  0  0  0  0  0  0  0  0
  153.9769  139.6971  161.1865 H   0  0  0  0  0  0  0  0  0  0  0  0
  150.8475  141.9305  159.2645 H   0  0  0  0  0  0  0  0  0  0  0  0
  152.5140  141.9251  158.6789 H   0  0  0  0  0  0  0  0  0  0  0  0
  150.3523  144.3243  156.8165 H   0  0  0  0  0  0  0  0  0  0  0  0
  149.0697  141.8119  157.0239 H   0  0  0  0  0  0  0  0  0  0  0  0
  149.8966  141.9665  155.4741 H   0  0  0  0  0  0  0  0  0  0  0  0
  1  2  1  0  0  0  0
  1 18  1  0  0  0  0
  1 19  1  0  0  0  0
  1 20  1  0  0  0  0
  2  6  1  0  0  0  0
  2  3  1  0  0  0  0
  3  4  2  0  0  0  0
  4  5  1  0  0  0  0
  5  6  2  0  0  0  0
  6  7  1  0  0  0  0
  7 12  1  0  0  0  0
  7  8  1  0  0  0  0
  8  9  1  0  0  0  0
  8 21  1  0  0  0  0
  8 22  1  0  0  0  0
  9 16  1  0  0  0  0
  9 10  1  0  0  0  0
  9 11  1  0  0  0  0
 10 23  1  0  0  0  0
 11 12  1  0  0  0  0
 11 24  1  0  0  0  0
 11 25  1  0  0  0  0
 12 17  1  0  0  0  0
 12 13  1  0  0  0  0
 13 14  2  0  0  0  0
 13 15  1  0  0  0  0
M  CHG  1  15  -1
M  END
> <s_m_source_file>
AV-unprocessed.smi

> <i_m_source_file_index>
43

> <i_lp_mmshare_version>
43012

> <i_f3d_flags>
0

> <s_epik_input>
W0NIM11uMW5ubmMxTjJbQ0gyXVtDQEhdKFtPSF0pW0NIMl1bQ0BIXTJDKD1PKVtPSF0=

> <s_epik_cmdline>
J2VwaWtfcHl0aG9uJywgJy1waCcsICc3LjAnLCAnLXRuJywgJzgnLCAnLW1hJywgJzIwMCcsICctbWV0YWxfYmluZGluZycsICctaW1hZScsICc8aW5maWxlLm1hZT4nLCAnLW9tYWUnLCAnPG91dGZpbGUubWFlPic=

> <r_lp_tautomer_probability>
1

> <r_epik_Ionization_Penalty>
0.000193127

> <r_epik_Ionization_Penalty_Charging>
0.000192933

> <r_epik_Ionization_Penalty_Neutral>
1.93728e-07

> <r_epik_State_Penalty>
-0

> <r_epik_Charging_Adjusted_Penalty>
0.000192933

> <i_epik_Tot_Q>
-1

> <i_epik_Tot_abs_Q>
1

> <r_epik_Metal_State_Penalty>
-0

> <b_epik_Metal_Only>
0

> <s_lp_Force_Field>
OPLS_2005

> <r_lp_Energy>
20.0938

> <b_lp_Chiralities_Consistent>
1

> <s_lp_Variant>
AV-unprocessed.smi:43-1

> <Gold.Version>
5.8.1

> <Gold.Id.Protein>
6NUR|6NUR_protein|mol2

> <Gold.PLP.Fitness>
39.4109

> <Gold.PLP.PLP>
-24.7666

> <Gold.PLP.part.hbond>
-4.0000

> <Gold.PLP.part.metal>
0.0000

> <Gold.PLP.part.buried>
-5.4651

> <Gold.PLP.part.nonpolar>
-16.0240

> <Gold.PLP.part.repulsive>
0.1035

> <Gold.PLP.ligand.clash>
0.0000

> <Gold.PLP.ligand.torsion>
0.1668

> <Gold.PLP.Chemscore.Hbond>
4.9913

> <Gold.PLP.Chemscore.CHOScore>
0.0000

> <Gold.PLP.Chemscore.Metal>
0.0000

> <Gold.Chemscore.Hbonds>
donor molecule, donor type, donor heavy atom, donor atom, acceptor molecule, acceptor atom, score
      L1  H    10    23       P1  8028  0.85
      P1  H  6896  6908       L1     4  0.89
      P1  H  7989  7998       L1    14  1.00
      P1  H  7997  8009       L1    15  2.00

> <Gold.PLP.Chemscore.Internal.Correction>
0.0041

> <Gold.Rescore>
     Score         DG    S(hbond)    S(metal)    S(lipo)     H(rot)  DE(clash)    DE(int)     intcor
     17.85     -17.94       3.83        0.00      34.00       1.69       0.00       0.09       ----

> <Gold.Chemscore.Fitness>
17.8537

> <Gold.Chemscore.DG>
-17.9402

> <Gold.Chemscore.ZeroCoef>
-5.4800

> <Gold.Chemscore.Hbond>
3.8339

> <Gold.Chemscore.Metal>
0.0000

> <Gold.Chemscore.Lipo>
34.0017

> <Gold.Chemscore.Internal_Hbond>
0.0000

> <Gold.Chemscore.DEClash>
0.0015

> <Gold.Chemscore.DEInternal>
0.0851

> <Gold.Chemscore.Rot>
1.6887

> <Gold.Chemscore.Internal.Correction>
   9.000000E+99

> <Gold.Chemscore.Hbonds>
donor molecule, donor type, donor heavy atom, donor atom, acceptor molecule, acceptor atom, score
      L1  H    10    23       P1  8028  0.81
      P1  H  6896  6908       L1     4  0.71
      P1  H  7989  7998       L1    14  0.77
      P1  H  7997  8009       L1    15  0.97

> <Gold.Chemscore.Hbond.Weighted>
-12.8052

> <Gold.Chemscore.Metal.Weighted>
-0.0000

> <Gold.Chemscore.Lipo.Weighted>
-3.9782

> <Gold.Chemscore.Internal_Hbond.Weighted>
0.0000

> <Gold.Chemscore.DEClash.Weighted>
0.0015

> <Gold.Chemscore.DEInternal.Weighted>
0.0851

> <Gold.Chemscore.Rot.Weighted>
4.3232

> <Gold.Chemscore.Internal.Correction.Weighted>
   9.000000E+99

> <Gold.Protein.RotatedTorsions>
[ 6907 6896 6895 6894 ] final -108.73 input  -60.11 | X-H torsion
[ 7974 7965 7964 7962 ] final   -6.93 input  175.53 | X-H torsion
[ 8008 7997 7996 7995 ] final -136.61 input   59.86 | X-H torsion
[ 10167 10162 10161 10158 ] final  108.13 input  -65.29 | X-H torsion
[ 10718 10713 10712 10709 ] final -146.87 input   66.30 | X-H torsion
[ 10763 10752 10751 10750 ] final  -24.69 input  -60.55 | X-H torsion
[ 11005 11000 10999 10996 ] final  -83.63 input  -57.11 | X-H torsion

> <Gold.Protein.ActiveResidues>
 VAL166  LYS551  ARG553  GLY616  TRP617  ASP618  TYR619  PRO620  LYS621  CYS622 
 ASP623  PHE694  ASN695  SER759  ASP760  ASP761  ALA762  ILE779  LEU786  VAL792 
 PHE793  MET794  SER795  GLU796  ALA797  LYS798  CYS799  TRP800  GLU811  SER814 

> <Gold.Protein.RotatedAtoms>
  150.7519  133.9633  159.3522 H   0  0  0  0  0  0  0  0  0  0  0  0  # atno 6907 bound_to 6896
  151.7561  135.0819  160.0348 H   0  0  0  0  0  0  0  0  0  0  0  0  # atno 6908 bound_to 6896
  152.3434  133.6056  159.5929 H   0  0  0  0  0  0  0  0  0  0  0  0  # atno 6909 bound_to 6896
  146.2319  140.2244  142.8338 H   0  0  0  0  0  0  0  0  0  0  0  0  # atno 7974 bound_to 7965
  155.3980  140.0504  157.3038 H   0  0  0  0  0  0  0  0  0  0  0  0  # atno 8008 bound_to 7997
  154.5004  140.2154  155.9319 H   0  0  0  0  0  0  0  0  0  0  0  0  # atno 8009 bound_to 7997
  156.1460  140.3145  155.8576 H   0  0  0  0  0  0  0  0  0  0  0  0  # atno 8010 bound_to 7997
  139.6871  144.7112  151.1413 H   0  0  0  0  0  0  0  0  0  0  0  0  # atno 10167 bound_to 10162
  156.4003  130.7930  151.2140 H   0  0  0  0  0  0  0  0  0  0  0  0  # atno 10718 bound_to 10713
  153.6878  135.6963  153.5099 H   0  0  0  0  0  0  0  0  0  0  0  0  # atno 10763 bound_to 10752
  153.2436  135.4298  155.0723 H   0  0  0  0  0  0  0  0  0  0  0  0  # atno 10764 bound_to 10752
  154.8381  135.3514  154.6420 H   0  0  0  0  0  0  0  0  0  0  0  0  # atno 10765 bound_to 10752
  141.1656  133.7304  156.8748 H   0  0  0  0  0  0  0  0  0  0  0  0  # atno 11005 bound_to 11000
  144.9607  140.8272  143.5515 LP  0  0  0  0  0  0  0  0  0  0  0  0  # atno 17320 bound_to 7965
  145.2214  139.2157  143.5091 LP  0  0  0  0  0  0  0  0  0  0  0  0  # atno 17321 bound_to 7965
  140.7671  143.5613  150.9096 LP  0  0  0  0  0  0  0  0  0  0  0  0  # atno 17342 bound_to 10162
  139.9289  143.6517  152.3081 LP  0  0  0  0  0  0  0  0  0  0  0  0  # atno 17343 bound_to 10162
  157.7503  131.0288  150.4067 LP  0  0  0  0  0  0  0  0  0  0  0  0  # atno 17370 bound_to 10713
  156.4346  130.3979  149.6737 LP  0  0  0  0  0  0  0  0  0  0  0  0  # atno 17371 bound_to 10713
  140.1756  134.9069  157.2886 LP  0  0  0  0  0  0  0  0  0  0  0  0  # atno 17394 bound_to 11000
  140.2453  134.3747  155.7464 LP  0  0  0  0  0  0  0  0  0  0  0  0  # atno 17395 bound_to 11000

$$$$
