AV-unprocessed.smi:3287|AV-procd|sdf|12592|dock5
  -GOLD-   2272018513D 1   1.00000     0.00000
 Structure written by MMmdl.
 43 44  0  0  0  0  0  0  0  0  2 V2000
  152.2711  142.9630  162.3847 C   0  0  0  0  0  0  0  0  0  0  0  0
  152.5016  143.6854  161.0453 C   0  0  2  0  0  0  0  0  0  0  0  0
  151.2694  144.5448  160.6966 C   0  0  0  0  0  0  0  0  0  0  0  0
  151.4410  145.2978  159.3673 C   0  0  0  0  0  0  0  0  0  0  0  0
  151.7695  144.3474  158.2038 C   0  0  2  0  0  0  0  0  0  0  0  0
  150.5868  143.5257  157.8570 N   0  3  0  0  0  0  0  0  0  0  0  0
  150.8773  142.1571  157.3777 C   0  0  0  0  0  0  0  0  0  0  0  0
  149.9264  141.7500  156.2391 C   0  0  2  0  0  0  0  0  0  0  0  0
  148.6300  141.5662  156.7752 O   0  0  0  0  0  0  0  0  0  0  0  0
  150.4249  140.5020  155.5278 C   0  0  0  0  0  0  0  0  0  0  0  0
  149.7073  139.9654  154.4383 C   0  0  0  0  0  0  0  0  0  0  0  0
  150.2090  138.8115  153.8035 C   0  0  0  0  0  0  0  0  0  0  0  0
  151.3465  138.1915  154.1835 N   0  0  0  0  0  0  0  0  0  0  0  0
  152.0313  138.7101  155.2252 C   0  0  0  0  0  0  0  0  0  0  0  0
  151.6171  139.8593  155.9275 C   0  0  0  0  0  0  0  0  0  0  0  0
  153.0009  143.4870  158.5563 C   0  0  0  0  0  0  0  0  0  0  0  0
  152.8385  142.7136  159.8834 C   0  0  1  0  0  0  0  0  0  0  0  0
  154.0989  141.8721  160.1522 C   0  0  0  0  0  0  0  0  0  0  0  0
  151.4836  142.2134  162.3019 H   0  0  0  0  0  0  0  0  0  0  0  0
  151.9764  143.6675  163.1630 H   0  0  0  0  0  0  0  0  0  0  0  0
  153.1737  142.4649  162.7376 H   0  0  0  0  0  0  0  0  0  0  0  0
  153.3482  144.3608  161.1791 H   0  0  0  0  0  0  0  0  0  0  0  0
  150.3820  143.9124  160.6480 H   0  0  0  0  0  0  0  0  0  0  0  0
  151.0834  145.2655  161.4939 H   0  0  0  0  0  0  0  0  0  0  0  0
  150.5421  145.8737  159.1440 H   0  0  0  0  0  0  0  0  0  0  0  0
  152.2470  146.0253  159.4739 H   0  0  0  0  0  0  0  0  0  0  0  0
  152.0063  144.9605  157.3328 H   0  0  0  0  0  0  0  0  0  0  0  0
  149.9840  143.4670  158.6658 H   0  0  0  0  0  0  0  0  0  0  0  0
  151.9084  142.1256  157.0228 H   0  0  0  0  0  0  0  0  0  0  0  0
  150.7997  141.4424  158.1970 H   0  0  0  0  0  0  0  0  0  0  0  0
  149.8663  142.5605  155.5112 H   0  0  0  0  0  0  0  0  0  0  0  0
  148.5573  140.6760  157.0858 H   0  0  0  0  0  0  0  0  0  0  0  0
  148.7925  140.4234  154.0912 H   0  0  0  0  0  0  0  0  0  0  0  0
  149.6825  138.3763  152.9668 H   0  0  0  0  0  0  0  0  0  0  0  0
  152.9379  138.1954  155.5068 H   0  0  0  0  0  0  0  0  0  0  0  0
  152.2051  140.2345  156.7524 H   0  0  0  0  0  0  0  0  0  0  0  0
  153.2338  142.7978  157.7452 H   0  0  0  0  0  0  0  0  0  0  0  0
  153.8698  144.1422  158.6359 H   0  0  0  0  0  0  0  0  0  0  0  0
  152.0052  142.0190  159.7675 H   0  0  0  0  0  0  0  0  0  0  0  0
  154.9641  142.5049  160.3515 H   0  0  0  0  0  0  0  0  0  0  0  0
  154.3400  141.2435  159.2948 H   0  0  0  0  0  0  0  0  0  0  0  0
  153.9672  141.2048  161.0034 H   0  0  0  0  0  0  0  0  0  0  0  0
  150.0855  144.0024  157.1210 H   0  0  0  0  0  0  0  0  0  0  0  0
  1  2  1  0  0  0  0
  1 19  1  0  0  0  0
  1 20  1  0  0  0  0
  1 21  1  0  0  0  0
  2 17  1  0  0  0  0
  2  3  1  0  0  0  0
  2 22  1  0  0  0  0
  3  4  1  0  0  0  0
  3 23  1  0  0  0  0
  3 24  1  0  0  0  0
  4  5  1  0  0  0  0
  4 25  1  0  0  0  0
  4 26  1  0  0  0  0
  5  6  1  0  0  0  0
  5 16  1  0  0  0  0
  5 27  1  0  0  0  0
  6  7  1  0  0  0  0
  6 28  1  0  0  0  0
  6 43  1  0  0  0  0
  7  8  1  0  0  0  0
  7 29  1  0  0  0  0
  7 30  1  0  0  0  0
  8  9  1  0  0  0  0
  8 10  1  0  0  0  0
  8 31  1  0  0  0  0
  9 32  1  0  0  0  0
 10 15  1  0  0  0  0
 10 11  2  0  0  0  0
 11 12  1  0  0  0  0
 11 33  1  0  0  0  0
 12 13  2  0  0  0  0
 12 34  1  0  0  0  0
 13 14  1  0  0  0  0
 14 15  2  0  0  0  0
 14 35  1  0  0  0  0
 15 36  1  0  0  0  0
 16 17  1  0  0  0  0
 16 37  1  0  0  0  0
 16 38  1  0  0  0  0
 17 18  1  0  0  0  0
 17 39  1  0  0  0  0
 18 40  1  0  0  0  0
 18 41  1  0  0  0  0
 18 42  1  0  0  0  0
M  CHG  1   6   1
M  END
> <s_m_source_file>
AV-unprocessed.smi

> <i_m_source_file_index>
3287

> <i_lp_mmshare_version>
43012

> <i_f3d_flags>
0

> <s_epik_input>
W0NIM11bQ0BASF0xW0NIMl1bQ0gyXVtDQEhdKFtDSDJdW0NASF0xW0NIM10pW05IXVtDSDJdW0NASF0oW09IXSljMltjSF1bY0hdbltjSF1bY0hdMg==

> <s_epik_cmdline>
J2VwaWtfcHl0aG9uJywgJy1waCcsICc3LjAnLCAnLXRuJywgJzgnLCAnLW1hJywgJzIwMCcsICctbWV0YWxfYmluZGluZycsICctaW1hZScsICc8aW5maWxlLm1hZT4nLCAnLW9tYWUnLCAnPG91dGZpbGUubWFlPic=

> <r_lp_tautomer_probability>
1

> <r_epik_Ionization_Penalty>
0.00537262

> <r_epik_Ionization_Penalty_Charging>
0.00321624

> <r_epik_Ionization_Penalty_Neutral>
0.00215638

> <r_epik_State_Penalty>
-0

> <r_epik_Charging_Adjusted_Penalty>
0.00321624

> <i_epik_Tot_Q>
1

> <i_epik_Tot_abs_Q>
1

> <r_epik_Metal_State_Penalty>
-0

> <b_epik_Metal_Only>
0

> <s_lp_Force_Field>
OPLS_2005

> <r_lp_Energy>
19.3861

> <b_lp_Chiralities_Consistent>
1

> <s_lp_Variant>
AV-unprocessed.smi:3287-3

> <Gold.Version>
5.8.1

> <Gold.Id.Protein>
6NUR|6NUR_protein|mol2

> <Gold.PLP.Fitness>
55.3465

> <Gold.PLP.PLP>
-46.1982

> <Gold.PLP.part.hbond>
-1.0000

> <Gold.PLP.part.metal>
0.0000

> <Gold.PLP.part.buried>
-0.7984

> <Gold.PLP.part.nonpolar>
-44.1143

> <Gold.PLP.part.repulsive>
0.2056

> <Gold.PLP.ligand.clash>
0.0000

> <Gold.PLP.ligand.torsion>
0.8081

> <Gold.PLP.Chemscore.Hbond>
2.0000

> <Gold.PLP.Chemscore.CHOScore>
1.5777

> <Gold.PLP.Chemscore.Metal>
0.0000

> <Gold.Chemscore.Hbonds>
donor molecule, donor type, donor heavy atom, donor atom, acceptor molecule, acceptor atom, score
      L1  H     6    43       P1  8028  2.00
      L1  C    12    34       P1  7948  1.00
      L1  C    12    34       P1  7957  0.58

> <Gold.PLP.Chemscore.Internal.Correction>
0.0313

> <Gold.Rescore>
     Score         DG    S(hbond)    S(metal)    S(lipo)     H(rot)  DE(clash)    DE(int)     intcor
     19.57     -21.07       0.91        0.00     149.02       1.90       0.74       0.76       ----

> <Gold.Chemscore.Fitness>
19.5719

> <Gold.Chemscore.DG>
-21.0699

> <Gold.Chemscore.ZeroCoef>
-5.4800

> <Gold.Chemscore.Hbond>
0.9065

> <Gold.Chemscore.Metal>
0.0000

> <Gold.Chemscore.Lipo>
149.0166

> <Gold.Chemscore.Internal_Hbond>
0.0000

> <Gold.Chemscore.DEClash>
0.7391

> <Gold.Chemscore.DEInternal>
0.7589

> <Gold.Chemscore.Rot>
1.9035

> <Gold.Chemscore.Internal.Correction>
   9.000000E+99

> <Gold.Chemscore.Hbonds>
donor molecule, donor type, donor heavy atom, donor atom, acceptor molecule, acceptor atom, score
      L1  H     6    43       P1  8028  0.87

> <Gold.Chemscore.Hbond.Weighted>
-3.0278

> <Gold.Chemscore.Metal.Weighted>
-0.0000

> <Gold.Chemscore.Lipo.Weighted>
-17.4349

> <Gold.Chemscore.Internal_Hbond.Weighted>
0.0000

> <Gold.Chemscore.DEClash.Weighted>
0.7391

> <Gold.Chemscore.DEInternal.Weighted>
0.7589

> <Gold.Chemscore.Rot.Weighted>
4.8729

> <Gold.Chemscore.Internal.Correction.Weighted>
   9.000000E+99

> <Gold.Protein.RotatedTorsions>
[ 6907 6896 6895 6894 ] final  -23.19 input  -60.11 | X-H torsion
[ 7974 7965 7964 7962 ] final   73.44 input  175.53 | X-H torsion
[ 8008 7997 7996 7995 ] final   92.45 input   59.86 | X-H torsion
[ 10167 10162 10161 10158 ] final   55.91 input  -65.29 | X-H torsion
[ 10718 10713 10712 10709 ] final  -73.37 input   66.30 | X-H torsion
[ 10763 10752 10751 10750 ] final  -72.13 input  -60.55 | X-H torsion
[ 11005 11000 10999 10996 ] final  -52.76 input  -57.11 | X-H torsion

> <Gold.Protein.ActiveResidues>
 VAL166  LYS551  ARG553  GLY616  TRP617  ASP618  TYR619  PRO620  LYS621  CYS622 
 ASP623  PHE694  ASN695  SER759  ASP760  ASP761  ALA762  ILE779  LEU786  VAL792 
 PHE793  MET794  SER795  GLU796  ALA797  LYS798  CYS799  TRP800  GLU811  SER814 

> <Gold.Protein.RotatedAtoms>
  151.2076  135.0468  159.8897 H   0  0  0  0  0  0  0  0  0  0  0  0  # atno 6907 bound_to 6896
  152.5427  134.0781  159.8233 H   0  0  0  0  0  0  0  0  0  0  0  0  # atno 6908 bound_to 6896
  151.0930  133.5254  159.2646 H   0  0  0  0  0  0  0  0  0  0  0  0  # atno 6909 bound_to 6896
  145.7408  139.2720  143.1487 H   0  0  0  0  0  0  0  0  0  0  0  0  # atno 7974 bound_to 7965
  156.0355  140.3325  155.7186 H   0  0  0  0  0  0  0  0  0  0  0  0  # atno 8008 bound_to 7997
  155.5822  140.0638  157.2798 H   0  0  0  0  0  0  0  0  0  0  0  0  # atno 8009 bound_to 7997
  154.4371  140.1842  156.0977 H   0  0  0  0  0  0  0  0  0  0  0  0  # atno 8010 bound_to 7997
  140.2144  144.3855  150.6475 H   0  0  0  0  0  0  0  0  0  0  0  0  # atno 10167 bound_to 10162
  156.0283  130.4392  150.2732 H   0  0  0  0  0  0  0  0  0  0  0  0  # atno 10718 bound_to 10713
  154.4415  135.5940  153.6132 H   0  0  0  0  0  0  0  0  0  0  0  0  # atno 10763 bound_to 10752
  152.9806  135.5999  154.3717 H   0  0  0  0  0  0  0  0  0  0  0  0  # atno 10764 bound_to 10752
  154.3567  135.2841  155.2321 H   0  0  0  0  0  0  0  0  0  0  0  0  # atno 10765 bound_to 10752
  141.0941  133.6627  156.4072 H   0  0  0  0  0  0  0  0  0  0  0  0  # atno 11005 bound_to 11000
  146.0449  140.8127  142.9810 LP  0  0  0  0  0  0  0  0  0  0  0  0  # atno 17320 bound_to 7965
  144.6871  140.2966  143.7270 LP  0  0  0  0  0  0  0  0  0  0  0  0  # atno 17321 bound_to 7965
  140.6300  143.2186  151.6515 LP  0  0  0  0  0  0  0  0  0  0  0  0  # atno 17342 bound_to 10162
  139.5167  144.3337  152.0803 LP  0  0  0  0  0  0  0  0  0  0  0  0  # atno 17343 bound_to 10162
  157.0835  131.0150  151.3148 LP  0  0  0  0  0  0  0  0  0  0  0  0  # atno 17370 bound_to 10713
  157.4909  130.7821  149.7507 LP  0  0  0  0  0  0  0  0  0  0  0  0  # atno 17371 bound_to 10713
  140.5182  134.6330  157.5309 LP  0  0  0  0  0  0  0  0  0  0  0  0  # atno 17394 bound_to 11000
  139.9773  134.7194  155.9925 LP  0  0  0  0  0  0  0  0  0  0  0  0  # atno 17395 bound_to 11000

$$$$
