AV-unprocessed.smi:1986|AV-procd|sdf|8047|dock4
  -GOLD-   2272010243D 1   1.00000     0.00000
 Structure written by MMmdl.
 46 47  0  0  0  0  0  0  0  0  2 V2000
  146.6399  140.7292  155.0910 C   0  0  0  0  0  0  0  0  0  0  0  0
  148.1509  140.5910  155.3456 C   0  0  0  0  0  0  0  0  0  0  0  0
  148.6428  139.1459  155.6849 C   0  0  2  0  0  0  0  0  0  0  0  0
  148.1271  138.2204  154.5511 C   0  0  0  0  0  0  0  0  0  0  0  0
  147.9595  138.6906  157.0153 C   0  0  0  0  0  0  0  0  0  0  0  0
  148.6620  137.6101  157.7020 N   0  0  0  0  0  0  0  0  0  0  0  0
  148.3137  137.1113  158.8961 C   0  0  0  0  0  0  0  0  0  0  0  0
  147.3558  137.5342  159.5457 O   0  0  0  0  0  0  0  0  0  0  0  0
  149.1998  135.9720  159.4247 C   0  0  0  0  0  0  0  0  0  0  0  0
  148.6284  135.2424  160.5664 N   0  0  0  0  0  0  0  0  0  0  0  0
  148.4965  133.8050  160.3424 N   0  5  0  0  0  0  0  0  0  0  0  0
  147.9897  133.0241  161.3330 C   0  0  0  0  0  0  0  0  0  0  0  0
  147.8631  131.8067  161.2229 O   0  0  0  0  0  0  0  0  0  0  0  0
  147.5791  133.6681  162.5698 C   0  0  0  0  0  0  0  0  0  0  0  0
  147.6907  135.0002  162.7403 C   0  0  0  0  0  0  0  0  0  0  0  0
  148.2308  135.8756  161.7071 C   0  0  0  0  0  0  0  0  0  0  0  0
  148.3239  137.0949  161.8509 O   0  0  0  0  0  0  0  0  0  0  0  0
  150.1309  139.0997  155.8169 N   0  0  0  0  0  0  0  0  0  0  0  0
  150.8765  139.3438  154.5744 C   0  0  0  0  0  0  0  0  0  0  0  0
  152.3933  139.1633  154.7569 C   0  0  0  0  0  0  0  0  0  0  0  0
  152.8584  140.0193  155.7920 O   0  0  0  0  0  0  0  0  0  0  0  0
  152.2112  139.7645  157.0317 C   0  0  0  0  0  0  0  0  0  0  0  0
  150.6934  139.9545  156.8719 C   0  0  0  0  0  0  0  0  0  0  0  0
  146.3781  141.7709  154.9054 H   0  0  0  0  0  0  0  0  0  0  0  0
  146.0543  140.3925  155.9465 H   0  0  0  0  0  0  0  0  0  0  0  0
  146.3231  140.1565  154.2196 H   0  0  0  0  0  0  0  0  0  0  0  0
  148.6751  140.9763  154.4708 H   0  0  0  0  0  0  0  0  0  0  0  0
  148.4388  141.2874  156.1321 H   0  0  0  0  0  0  0  0  0  0  0  0
  147.0431  138.2771  154.4484 H   0  0  0  0  0  0  0  0  0  0  0  0
  148.3684  137.1735  154.7340 H   0  0  0  0  0  0  0  0  0  0  0  0
  148.5394  138.4898  153.5792 H   0  0  0  0  0  0  0  0  0  0  0  0
  147.9071  139.5179  157.7238 H   0  0  0  0  0  0  0  0  0  0  0  0
  146.9308  138.3793  156.8268 H   0  0  0  0  0  0  0  0  0  0  0  0
  149.4624  137.2114  157.2334 H   0  0  0  0  0  0  0  0  0  0  0  0
  149.4010  135.2712  158.6123 H   0  0  0  0  0  0  0  0  0  0  0  0
  150.1696  136.3962  159.6908 H   0  0  0  0  0  0  0  0  0  0  0  0
  147.1735  133.0650  163.3688 H   0  0  0  0  0  0  0  0  0  0  0  0
  147.3713  135.4359  163.6754 H   0  0  0  0  0  0  0  0  0  0  0  0
  150.5664  138.6577  153.7892 H   0  0  0  0  0  0  0  0  0  0  0  0
  150.6842  140.3532  154.2107 H   0  0  0  0  0  0  0  0  0  0  0  0
  152.6326  138.1259  154.9966 H   0  0  0  0  0  0  0  0  0  0  0  0
  152.9171  139.4064  153.8324 H   0  0  0  0  0  0  0  0  0  0  0  0
  152.4409  138.7534  157.3715 H   0  0  0  0  0  0  0  0  0  0  0  0
  152.6007  140.4513  157.7834 H   0  0  0  0  0  0  0  0  0  0  0  0
  150.4960  141.0041  156.6539 H   0  0  0  0  0  0  0  0  0  0  0  0
  150.2391  139.7391  157.8364 H   0  0  0  0  0  0  0  0  0  0  0  0
  1  2  1  0  0  0  0
  1 24  1  0  0  0  0
  1 25  1  0  0  0  0
  1 26  1  0  0  0  0
  2  3  1  0  0  0  0
  2 27  1  0  0  0  0
  2 28  1  0  0  0  0
  3  4  1  0  0  0  0
  3  5  1  0  0  0  0
  3 18  1  0  0  0  0
  4 29  1  0  0  0  0
  4 30  1  0  0  0  0
  4 31  1  0  0  0  0
  5  6  1  0  0  0  0
  5 32  1  0  0  0  0
  5 33  1  0  0  0  0
  6  7  1  0  0  0  0
  6 34  1  0  0  0  0
  7  8  2  0  0  0  0
  7  9  1  0  0  0  0
  9 35  1  0  0  0  0
  9 36  1  0  0  0  0
  9 10  1  0  0  0  0
 10 11  1  0  0  0  0
 10 16  1  0  0  0  0
 11 12  1  0  0  0  0
 12 13  2  0  0  0  0
 12 14  1  0  0  0  0
 14 37  1  0  0  0  0
 14 15  2  0  0  0  0
 15 38  1  0  0  0  0
 15 16  1  0  0  0  0
 16 17  2  0  0  0  0
 18 23  1  0  0  0  0
 18 19  1  0  0  0  0
 19 20  1  0  0  0  0
 19 39  1  0  0  0  0
 19 40  1  0  0  0  0
 20 21  1  0  0  0  0
 20 41  1  0  0  0  0
 20 42  1  0  0  0  0
 21 22  1  0  0  0  0
 22 23  1  0  0  0  0
 22 43  1  0  0  0  0
 22 44  1  0  0  0  0
 23 45  1  0  0  0  0
 23 46  1  0  0  0  0
M  CHG  1  11  -1
M  END
> <s_m_source_file>
AV-unprocessed.smi

> <i_m_source_file_index>
1986

> <i_lp_mmshare_version>
43012

> <i_f3d_flags>
0

> <s_epik_input>
W0NIMl0xW0NIMl1PW0NIMl1bQ0gyXU4xW0NAQF0oW0NIM10pKFtDSDJdW0NIM10pW0NIMl1bTkhdQyg9TylbQ0gyXW4yW25IXWMoPU8pW2NIXVtjSF1jMj1P

> <s_epik_cmdline>
J2VwaWtfcHl0aG9uJywgJy1waCcsICc3LjAnLCAnLXRuJywgJzgnLCAnLW1hJywgJzIwMCcsICctbWV0YWxfYmluZGluZycsICctaW1hZScsICc8aW5maWxlLm1hZT4nLCAnLW9tYWUnLCAnPG91dGZpbGUubWFlPic=

> <r_lp_tautomer_probability>
1

> <r_epik_Ionization_Penalty>
0.416475

> <r_epik_Ionization_Penalty_Charging>
0.0978085

> <r_epik_Ionization_Penalty_Neutral>
0.318667

> <r_epik_State_Penalty>
0.355037

> <r_epik_Charging_Adjusted_Penalty>
0.452845

> <i_epik_Tot_Q>
-1

> <i_epik_Tot_abs_Q>
1

> <r_epik_Metal_State_Penalty>
0.355037

> <b_epik_Metal_Only>
0

> <s_lp_Force_Field>
OPLS_2005

> <r_lp_Energy>
59.1038

> <b_lp_Chiralities_Consistent>
1

> <s_lp_Variant>
AV-unprocessed.smi:1986-2

> <Gold.Version>
5.8.1

> <Gold.Id.Protein>
6NUR|6NUR_protein|mol2

> <Gold.PLP.Fitness>
41.5487

> <Gold.PLP.PLP>
-34.1692

> <Gold.PLP.part.hbond>
-4.0000

> <Gold.PLP.part.metal>
0.0000

> <Gold.PLP.part.buried>
-3.2712

> <Gold.PLP.part.nonpolar>
-26.8507

> <Gold.PLP.part.repulsive>
0.0656

> <Gold.PLP.ligand.clash>
0.0000

> <Gold.PLP.ligand.torsion>
0.6176

> <Gold.PLP.Chemscore.Hbond>
2.8080

> <Gold.PLP.Chemscore.CHOScore>
0.0000

> <Gold.PLP.Chemscore.Metal>
0.0000

> <Gold.Chemscore.Hbonds>
donor molecule, donor type, donor heavy atom, donor atom, acceptor molecule, acceptor atom, score
      P1  H  6896  6909       L1    11  0.01
      P1  H  6931  6943       L1    17  0.55
      P1  H  6934  6947       L1     8  0.78
      P1  H  7997  8010       L1    21  1.00

> <Gold.PLP.Chemscore.Internal.Correction>
0.1906

> <Gold.Rescore>
     Score         DG    S(hbond)    S(metal)    S(lipo)     H(rot)  DE(clash)    DE(int)     intcor
     14.71     -15.45       2.72        0.00      60.48       2.42       0.00       0.74       ----

> <Gold.Chemscore.Fitness>
14.7105

> <Gold.Chemscore.DG>
-15.4484

> <Gold.Chemscore.ZeroCoef>
-5.4800

> <Gold.Chemscore.Hbond>
2.7207

> <Gold.Chemscore.Metal>
0.0000

> <Gold.Chemscore.Lipo>
60.4758

> <Gold.Chemscore.Internal_Hbond>
0.0000

> <Gold.Chemscore.DEClash>
0.0009

> <Gold.Chemscore.DEInternal>
0.7370

> <Gold.Chemscore.Rot>
2.4197

> <Gold.Chemscore.Internal.Correction>
   9.000000E+99

> <Gold.Chemscore.Hbonds>
donor molecule, donor type, donor heavy atom, donor atom, acceptor molecule, acceptor atom, score
      P1  H  6931  6943       L1    17  0.56
      P1  H  6934  6947       L1     8  0.73
      P1  H  7997  8010       L1    21  0.52

> <Gold.Chemscore.Hbond.Weighted>
-9.0870

> <Gold.Chemscore.Metal.Weighted>
-0.0000

> <Gold.Chemscore.Lipo.Weighted>
-7.0757

> <Gold.Chemscore.Internal_Hbond.Weighted>
0.0000

> <Gold.Chemscore.DEClash.Weighted>
0.0009

> <Gold.Chemscore.DEInternal.Weighted>
0.7370

> <Gold.Chemscore.Rot.Weighted>
6.1943

> <Gold.Chemscore.Internal.Correction.Weighted>
   9.000000E+99

> <Gold.Protein.RotatedTorsions>
[ 6907 6896 6895 6894 ] final   21.40 input  -60.11 | X-H torsion
[ 7974 7965 7964 7962 ] final   66.60 input  175.53 | X-H torsion
[ 8008 7997 7996 7995 ] final   89.80 input   59.86 | X-H torsion
[ 10167 10162 10161 10158 ] final   93.64 input  -65.29 | X-H torsion
[ 10718 10713 10712 10709 ] final  127.10 input   66.30 | X-H torsion
[ 10763 10752 10751 10750 ] final  166.81 input  -60.55 | X-H torsion
[ 11005 11000 10999 10996 ] final  -63.12 input  -57.11 | X-H torsion

> <Gold.Protein.ActiveResidues>
 VAL166  LYS551  ARG553  GLY616  TRP617  ASP618  TYR619  PRO620  LYS621  CYS622 
 ASP623  PHE694  ASN695  SER759  ASP760  ASP761  ALA762  ILE779  LEU786  VAL792 
 PHE793  MET794  SER795  GLU796  ALA797  LYS798  CYS799  TRP800  GLU811  SER814 

> <Gold.Protein.RotatedAtoms>
  151.9112  135.0338  160.0514 H   0  0  0  0  0  0  0  0  0  0  0  0  # atno 6907 bound_to 6896
  152.2278  133.5029  159.5207 H   0  0  0  0  0  0  0  0  0  0  0  0  # atno 6908 bound_to 6896
  150.7017  134.1173  159.4065 H   0  0  0  0  0  0  0  0  0  0  0  0  # atno 6909 bound_to 6896
  145.8246  139.3104  143.1023 H   0  0  0  0  0  0  0  0  0  0  0  0  # atno 7974 bound_to 7965
  156.0044  140.3356  155.6877 H   0  0  0  0  0  0  0  0  0  0  0  0  # atno 8008 bound_to 7997
  155.6246  140.0678  157.2685 H   0  0  0  0  0  0  0  0  0  0  0  0  # atno 8009 bound_to 7997
  154.4260  140.1770  156.1395 H   0  0  0  0  0  0  0  0  0  0  0  0  # atno 8010 bound_to 7997
  139.8160  144.6752  150.9579 H   0  0  0  0  0  0  0  0  0  0  0  0  # atno 10167 bound_to 10162
  157.5362  131.1097  150.8931 H   0  0  0  0  0  0  0  0  0  0  0  0  # atno 10718 bound_to 10713
  154.3446  135.2753  155.2404 H   0  0  0  0  0  0  0  0  0  0  0  0  # atno 10763 bound_to 10752
  154.4660  135.5895  153.6292 H   0  0  0  0  0  0  0  0  0  0  0  0  # atno 10764 bound_to 10752
  152.9855  135.6076  154.3650 H   0  0  0  0  0  0  0  0  0  0  0  0  # atno 10765 bound_to 10752
  141.1383  133.6648  156.5632 H   0  0  0  0  0  0  0  0  0  0  0  0  # atno 11005 bound_to 11000
  145.9637  140.8815  143.0197 LP  0  0  0  0  0  0  0  0  0  0  0  0  # atno 17320 bound_to 7965
  144.6744  140.1849  143.7402 LP  0  0  0  0  0  0  0  0  0  0  0  0  # atno 17321 bound_to 7965
  140.7816  143.4138  151.0950 LP  0  0  0  0  0  0  0  0  0  0  0  0  # atno 17342 bound_to 10162
  139.7801  143.8367  152.3136 LP  0  0  0  0  0  0  0  0  0  0  0  0  # atno 17343 bound_to 10162
  156.9498  130.5415  149.5282 LP  0  0  0  0  0  0  0  0  0  0  0  0  # atno 17370 bound_to 10713
  156.0460  130.5537  150.8882 LP  0  0  0  0  0  0  0  0  0  0  0  0  # atno 17371 bound_to 10713
  140.3972  134.7389  157.4757 LP  0  0  0  0  0  0  0  0  0  0  0  0  # atno 17394 bound_to 11000
  140.0523  134.6113  155.8847 LP  0  0  0  0  0  0  0  0  0  0  0  0  # atno 17395 bound_to 11000

$$$$
