AV-unprocessed.smi:1824|AV-procd|sdf|7402|dock9
  -GOLD-   22720 9 73D 1   1.00000     0.00000
 Structure written by MMmdl.
 45 47  0  0  0  0  0  0  0  0  2 V2000
  146.8426  142.8881  158.4677 C   0  0  0  0  0  0  0  0  0  0  0  0
  146.7792  142.9790  156.9393 C   0  0  1  0  0  0  0  0  0  0  0  0
  146.7054  141.5847  156.2801 C   0  0  0  0  0  0  0  0  0  0  0  0
  146.5107  141.6805  154.8106 N   0  3  2  0  0  0  0  0  0  0  0  0
  147.7398  141.9997  154.0342 C   0  0  0  0  0  0  0  0  0  0  0  0
  148.9942  141.3164  154.6137 C   0  0  1  0  0  0  0  0  0  0  0  0
  149.6898  140.6716  153.5633 O   0  0  0  0  0  0  0  0  0  0  0  0
  149.9345  142.3244  155.3022 C   0  0  0  0  0  0  0  0  0  0  0  0
  150.8561  141.6808  156.2213 N   0  0  0  0  0  0  0  0  0  0  0  0
  151.4451  140.4779  156.0769 C   0  0  0  0  0  0  0  0  0  0  0  0
  152.2556  140.0754  157.0513 N   0  0  0  0  0  0  0  0  0  0  0  0
  152.1885  141.1428  157.9302 C   0  0  0  0  0  0  0  0  0  0  0  0
  152.8236  141.3474  159.1758 C   0  0  0  0  0  0  0  0  0  0  0  0
  152.6027  142.5346  159.9048 C   0  0  0  0  0  0  0  0  0  0  0  0
  153.2214  142.7155  161.0955 F   0  0  0  0  0  0  0  0  0  0  0  0
  151.7430  143.5331  159.4002 C   0  0  0  0  0  0  0  0  0  0  0  0
  151.5366  144.6702  160.1058 F   0  0  0  0  0  0  0  0  0  0  0  0
  151.0969  143.3506  158.1625 C   0  0  0  0  0  0  0  0  0  0  0  0
  151.3218  142.1652  157.4386 C   0  0  0  0  0  0  0  0  0  0  0  0
  145.3583  142.5595  154.4953 C   0  0  0  0  0  0  0  0  0  0  0  0
  145.4933  143.9308  155.1874 C   0  0  1  0  0  0  0  0  0  0  0  0
  144.2704  144.8224  154.9447 C   0  0  0  0  0  0  0  0  0  0  0  0
  145.6190  143.7265  156.5902 O   0  0  0  0  0  0  0  0  0  0  0  0
  147.7213  142.3303  158.7923 H   0  0  0  0  0  0  0  0  0  0  0  0
  145.9608  142.3892  158.8709 H   0  0  0  0  0  0  0  0  0  0  0  0
  146.8957  143.8812  158.9147 H   0  0  0  0  0  0  0  0  0  0  0  0
  147.6653  143.5138  156.5953 H   0  0  0  0  0  0  0  0  0  0  0  0
  147.5907  140.9983  156.5226 H   0  0  0  0  0  0  0  0  0  0  0  0
  145.8576  141.0360  156.6929 H   0  0  0  0  0  0  0  0  0  0  0  0
  147.6173  141.6716  153.0009 H   0  0  0  0  0  0  0  0  0  0  0  0
  147.8838  143.0793  153.9896 H   0  0  0  0  0  0  0  0  0  0  0  0
  148.7076  140.5592  155.3430 H   0  0  0  0  0  0  0  0  0  0  0  0
  149.5882  139.7367  153.6596 H   0  0  0  0  0  0  0  0  0  0  0  0
  150.5104  142.8824  154.5622 H   0  0  0  0  0  0  0  0  0  0  0  0
  149.3548  143.0585  155.8634 H   0  0  0  0  0  0  0  0  0  0  0  0
  151.2649  139.8603  155.2091 H   0  0  0  0  0  0  0  0  0  0  0  0
  153.4833  140.5897  159.5722 H   0  0  0  0  0  0  0  0  0  0  0  0
  150.4385  144.1134  157.7749 H   0  0  0  0  0  0  0  0  0  0  0  0
  145.2478  142.6743  153.4164 H   0  0  0  0  0  0  0  0  0  0  0  0
  144.4498  142.0651  154.8422 H   0  0  0  0  0  0  0  0  0  0  0  0
  146.3777  144.4520  154.8172 H   0  0  0  0  0  0  0  0  0  0  0  0
  144.1322  145.0182  153.8811 H   0  0  0  0  0  0  0  0  0  0  0  0
  144.3830  145.7837  155.4468 H   0  0  0  0  0  0  0  0  0  0  0  0
  143.3591  144.3564  155.3207 H   0  0  0  0  0  0  0  0  0  0  0  0
  146.2438  140.7580  154.4958 H   0  0  0  0  0  0  0  0  0  0  0  0
  1  2  1  0  0  0  0
  1 24  1  0  0  0  0
  1 25  1  0  0  0  0
  1 26  1  0  0  0  0
  2 23  1  0  0  0  0
  2  3  1  0  0  0  0
  2 27  1  0  0  0  0
  3  4  1  0  0  0  0
  3 28  1  0  0  0  0
  3 29  1  0  0  0  0
  4  5  1  0  0  0  0
  4 20  1  0  0  0  0
  4 45  1  0  0  0  0
  5  6  1  0  0  0  0
  5 30  1  0  0  0  0
  5 31  1  0  0  0  0
  6  7  1  0  0  0  0
  6  8  1  0  0  0  0
  6 32  1  0  0  0  0
  7 33  1  0  0  0  0
  8  9  1  0  0  0  0
  8 34  1  0  0  0  0
  8 35  1  0  0  0  0
  9 19  1  0  0  0  0
  9 10  1  0  0  0  0
 10 11  2  0  0  0  0
 10 36  1  0  0  0  0
 11 12  1  0  0  0  0
 12 19  2  0  0  0  0
 12 13  1  0  0  0  0
 13 14  2  0  0  0  0
 13 37  1  0  0  0  0
 14 15  1  0  0  0  0
 14 16  1  0  0  0  0
 16 17  1  0  0  0  0
 16 18  2  0  0  0  0
 18 19  1  0  0  0  0
 18 38  1  0  0  0  0
 20 21  1  0  0  0  0
 20 39  1  0  0  0  0
 20 40  1  0  0  0  0
 21 22  1  0  0  0  0
 21 23  1  0  0  0  0
 21 41  1  0  0  0  0
 22 42  1  0  0  0  0
 22 43  1  0  0  0  0
 22 44  1  0  0  0  0
M  CHG  1   4   1
M  END
> <s_m_source_file>
AV-unprocessed.smi

> <i_m_source_file_index>
1824

> <i_lp_mmshare_version>
43012

> <i_f3d_flags>
0

> <s_epik_input>
W0NIM11bQ0BASF0xW0NIMl1OKFtDSDJdW0NASF0oTzEpW0NIM10pW0NIMl1bQ0BIXShbT0hdKVtDSDJdbihbY0hdbjIpYyhjMjMpW2NIXWMoRiljKEYpW2NIXTM=

> <s_epik_cmdline>
J2VwaWtfcHl0aG9uJywgJy1waCcsICc3LjAnLCAnLXRuJywgJzgnLCAnLW1hJywgJzIwMCcsICctbWV0YWxfYmluZGluZycsICctaW1hZScsICc8aW5maWxlLm1hZT4nLCAnLW9tYWUnLCAnPG91dGZpbGUubWFlPic=

> <r_epik_Ionization_Penalty>
0.61967

> <r_epik_Ionization_Penalty_Charging>
0.608065

> <r_epik_Ionization_Penalty_Neutral>
0.0116057

> <r_epik_State_Penalty>
0.664205

> <r_epik_Charging_Adjusted_Penalty>
1.27227

> <i_epik_Tot_Q>
1

> <i_epik_Tot_abs_Q>
1

> <r_epik_Metal_State_Penalty>
0.654947

> <b_epik_Metal_Only>
0

> <s_lp_Force_Field>
OPLS_2005

> <r_lp_Energy>
21.9473

> <b_lp_Chiralities_Consistent>
1

> <s_lp_Variant>
AV-unprocessed.smi:1824-10

> <Gold.Version>
5.8.1

> <Gold.Id.Protein>
6NUR|6NUR_protein|mol2

> <Gold.PLP.Fitness>
48.4878

> <Gold.PLP.PLP>
-44.2795

> <Gold.PLP.part.hbond>
-3.6948

> <Gold.PLP.part.metal>
0.0000

> <Gold.PLP.part.buried>
-2.5905

> <Gold.PLP.part.nonpolar>
-37.3535

> <Gold.PLP.part.repulsive>
0.1578

> <Gold.PLP.ligand.clash>
0.0000

> <Gold.PLP.ligand.torsion>
1.3650

> <Gold.PLP.Chemscore.Hbond>
2.2953

> <Gold.PLP.Chemscore.CHOScore>
0.0000

> <Gold.PLP.Chemscore.Metal>
0.0000

> <Gold.Chemscore.Hbonds>
donor molecule, donor type, donor heavy atom, donor atom, acceptor molecule, acceptor atom, score
      P1  H  7989  7998       L1     7  0.43
      P1  H  7997  8010       L1    11  0.65
      P1  H  8011  8017       L1     7  0.56

> <Gold.PLP.Chemscore.Internal.Correction>
0.0524

> <Gold.Rescore>
     Score         DG    S(hbond)    S(metal)    S(lipo)     H(rot)  DE(clash)    DE(int)     intcor
     12.84     -14.43       0.96        0.00      99.81       2.33       0.08       1.51       ----

> <Gold.Chemscore.Fitness>
12.8365

> <Gold.Chemscore.DG>
-14.4258

> <Gold.Chemscore.ZeroCoef>
-5.4800

> <Gold.Chemscore.Hbond>
0.9642

> <Gold.Chemscore.Metal>
0.0000

> <Gold.Chemscore.Lipo>
99.8104

> <Gold.Chemscore.Internal_Hbond>
0.0000

> <Gold.Chemscore.DEClash>
0.0831

> <Gold.Chemscore.DEInternal>
1.5062

> <Gold.Chemscore.Rot>
2.3251

> <Gold.Chemscore.Internal.Correction>
   9.000000E+99

> <Gold.Chemscore.Hbonds>
donor molecule, donor type, donor heavy atom, donor atom, acceptor molecule, acceptor atom, score
      P1  H  7989  7998       L1     7  0.16
      P1  H  7997  8010       L1    11  0.14
      P1  H  8011  8017       L1     7  0.07

> <Gold.Chemscore.Hbond.Weighted>
-3.2203

> <Gold.Chemscore.Metal.Weighted>
-0.0000

> <Gold.Chemscore.Lipo.Weighted>
-11.6778

> <Gold.Chemscore.Internal_Hbond.Weighted>
0.0000

> <Gold.Chemscore.DEClash.Weighted>
0.0831

> <Gold.Chemscore.DEInternal.Weighted>
1.5062

> <Gold.Chemscore.Rot.Weighted>
5.9523

> <Gold.Chemscore.Internal.Correction.Weighted>
   9.000000E+99

> <Gold.Protein.RotatedTorsions>
[ 6907 6896 6895 6894 ] final -112.61 input  -60.11 | X-H torsion
[ 7974 7965 7964 7962 ] final   12.65 input  175.53 | X-H torsion
[ 8008 7997 7996 7995 ] final   60.86 input   59.86 | X-H torsion
[ 10167 10162 10161 10158 ] final  -35.05 input  -65.29 | X-H torsion
[ 10718 10713 10712 10709 ] final  122.16 input   66.30 | X-H torsion
[ 10763 10752 10751 10750 ] final   56.06 input  -60.55 | X-H torsion
[ 11005 11000 10999 10996 ] final  169.73 input  -57.11 | X-H torsion

> <Gold.Protein.ActiveResidues>
 VAL166  LYS551  ARG553  GLY616  TRP617  ASP618  TYR619  PRO620  LYS621  CYS622 
 ASP623  PHE694  ASN695  SER759  ASP760  ASP761  ALA762  ILE779  LEU786  VAL792 
 PHE793  MET794  SER795  GLU796  ALA797  LYS798  CYS799  TRP800  GLU811  SER814 

> <Gold.Protein.RotatedAtoms>
  150.7770  133.9064  159.3356 H   0  0  0  0  0  0  0  0  0  0  0  0  # atno 6907 bound_to 6896
  151.6936  135.0940  160.0247 H   0  0  0  0  0  0  0  0  0  0  0  0  # atno 6908 bound_to 6896
  152.3810  133.6507  159.6196 H   0  0  0  0  0  0  0  0  0  0  0  0  # atno 6909 bound_to 6896
  146.2346  139.9305  142.8497 H   0  0  0  0  0  0  0  0  0  0  0  0  # atno 7974 bound_to 7965
  155.5890  140.3492  155.4561 H   0  0  0  0  0  0  0  0  0  0  0  0  # atno 8008 bound_to 7997
  156.0315  140.1275  157.0277 H   0  0  0  0  0  0  0  0  0  0  0  0  # atno 8009 bound_to 7997
  154.4354  140.1042  156.6093 H   0  0  0  0  0  0  0  0  0  0  0  0  # atno 8010 bound_to 7997
  140.7173  143.3504  151.2167 H   0  0  0  0  0  0  0  0  0  0  0  0  # atno 10167 bound_to 10162
  157.5763  131.1079  150.8272 H   0  0  0  0  0  0  0  0  0  0  0  0  # atno 10718 bound_to 10713
  152.9826  135.5689  154.5167 H   0  0  0  0  0  0  0  0  0  0  0  0  # atno 10763 bound_to 10752
  154.4662  135.2783  155.1678 H   0  0  0  0  0  0  0  0  0  0  0  0  # atno 10764 bound_to 10752
  154.3245  135.6262  153.5576 H   0  0  0  0  0  0  0  0  0  0  0  0  # atno 10765 bound_to 10752
  140.3008  134.7597  157.3914 H   0  0  0  0  0  0  0  0  0  0  0  0  # atno 11005 bound_to 11000
  145.2049  140.9871  143.4134 LP  0  0  0  0  0  0  0  0  0  0  0  0  # atno 17320 bound_to 7965
  144.9741  139.3850  143.6294 LP  0  0  0  0  0  0  0  0  0  0  0  0  # atno 17321 bound_to 7965
  139.7034  143.9496  152.2915 LP  0  0  0  0  0  0  0  0  0  0  0  0  # atno 17342 bound_to 10162
  139.9196  144.6807  150.8475 LP  0  0  0  0  0  0  0  0  0  0  0  0  # atno 17343 bound_to 10162
  156.8731  130.5153  149.5295 LP  0  0  0  0  0  0  0  0  0  0  0  0  # atno 17370 bound_to 10713
  156.0808  130.5819  150.9559 LP  0  0  0  0  0  0  0  0  0  0  0  0  # atno 17371 bound_to 10713
  140.1111  134.5345  155.8265 LP  0  0  0  0  0  0  0  0  0  0  0  0  # atno 17394 bound_to 11000
  141.2128  133.6725  156.6690 LP  0  0  0  0  0  0  0  0  0  0  0  0  # atno 17395 bound_to 11000

$$$$
