#       Name:                AV-unprocessed.smi:1107
#       Creating user name   scv26
#       Creation time:       Fri Mar 27 03:32:52 2020


#       File generated by GOLD software.
#

@<TRIPOS>MOLECULE
AV-unprocessed.smi:1107
    54    55     1
SMALL
NO_CHARGES


@<TRIPOS>ATOM
      1 ****        -2.9443   3.3692  -0.9330 C.3            1 S1                 0.0000
      2 ****        -2.6260   2.0776  -0.2126 C.2            1 S1                 0.0000
      3 ****        -2.1518   2.2615   1.0753 N.pl3          1 S1                 0.0000
      4 ****        -1.8184   1.1375   1.8101 C.2            1 S1                 0.0000
      5 ****        -1.2902   1.4327   3.2026 C.3            1 S1                 0.0000
      6 ****        -1.9565  -0.1084   1.2891 C.2            1 S1                 0.0000
      7 ****        -1.5757  -1.3767   2.0502 C.3            1 S1                 0.0000
      8 ****        -0.1141  -1.7877   1.8856 C.2            1 S1                 0.0000
      9 ****         0.7200  -1.4568   2.7269 O.2            1 S1                 0.0000
     10 ****         0.1831  -2.4643   0.7651 N.am           1 S1                 0.0000
     11 ****         1.5279  -2.7806   0.2858 C.3            1 S1                 0.0000
     12 ****         1.7046  -4.3026   0.2017 C.3            1 S1                 0.0000
     13 ****         1.7909  -2.0922  -1.0734 C.3            1 S1                 0.0000
     14 ****         1.3701  -0.6657  -1.1117 N.4            1 S1                 1.0000
     15 ****         1.2365  -0.1528  -2.4998 C.3            1 S1                 0.0000
     16 ****         0.6459   1.2674  -2.5147 C.3            1 S1                 0.0000
     17 ****         1.4733   2.2239  -1.6462 C.3            1 S1                 0.0000
     18 ****         1.6330   1.6492  -0.2329 C.3            1 S1                 0.0000
     19 ****         2.2179   0.2284  -0.2791 C.3            1 S1                 0.0000
     20 ****        -2.4667  -0.2408  -0.0963 C.2            1 S1                 0.0000
     21 ****        -2.5905  -1.3408  -0.6335 O.2            1 S1                 0.0000
     22 ****        -2.7920   0.9306  -0.7978 N.2            1 S1                 0.0000
     23 ****        -2.0344   3.1699   1.5013 H              1 S1                 0.0000
     24 ****        -3.3522   3.1732  -1.9254 H              1 S1                 0.0000
     25 ****        -2.0419   3.9706  -1.0486 H              1 S1                 0.0000
     26 ****        -3.6782   3.9480  -0.3714 H              1 S1                 0.0000
     27 ****        -0.2812   1.0380   3.3206 H              1 S1                 0.0000
     28 ****        -1.9308   0.9782   3.9585 H              1 S1                 0.0000
     29 ****        -1.2527   2.5050   3.3991 H              1 S1                 0.0000
     30 ****        -2.2222  -2.2059   1.7593 H              1 S1                 0.0000
     31 ****        -1.7730  -1.2342   3.1127 H              1 S1                 0.0000
     32 ****        -0.5829  -2.7115   0.1545 H              1 S1                 0.0000
     33 ****         2.2707  -2.4160   0.9968 H              1 S1                 0.0000
     34 ****         2.7077  -4.5619  -0.1381 H              1 S1                 0.0000
     35 ****         0.9920  -4.7496  -0.4923 H              1 S1                 0.0000
     36 ****         1.5572  -4.7690   1.1764 H              1 S1                 0.0000
     37 ****         2.8428  -2.1779  -1.3501 H              1 S1                 0.0000
     38 ****         1.2290  -2.6322  -1.8372 H              1 S1                 0.0000
     39 ****         2.2129  -0.1610  -2.9869 H              1 S1                 0.0000
     40 ****         0.5875  -0.8126  -3.0772 H              1 S1                 0.0000
     41 ****         0.5976   1.6408  -3.5381 H              1 S1                 0.0000
     42 ****        -0.3802   1.2386  -2.1507 H              1 S1                 0.0000
     43 ****         2.4556   2.3734  -2.0962 H              1 S1                 0.0000
     44 ****         0.9952   3.2031  -1.6036 H              1 S1                 0.0000
     45 ****         2.2747   2.2982   0.3635 H              1 S1                 0.0000
     46 ****         0.6643   1.6287   0.2671 H              1 S1                 0.0000
     47 ****         2.2899  -0.1520   0.7389 H              1 S1                 0.0000
     48 ****         3.2327   0.2497  -0.6798 H              1 S1                 0.0000
     49 ****         0.4426  -0.6380  -0.7128 H              1 S1                 0.0000
     50 ****         0.4418  -0.9172   3.5214 LP             1 S1                 0.0000
     51 ****         1.6763  -1.7275   2.6163 LP             1 S1                 0.0000
     52 ****        -2.3446  -2.1716  -0.1342 LP             1 S1                 0.0000
     53 ****        -2.9370  -1.4041  -1.5694 LP             1 S1                 0.0000
     54 ****        -3.1454   0.8825  -1.7321 LP             1 S1                 0.0000
@<TRIPOS>BOND
    1    1   24 1     
    2    1   25 1     
    3    1   26 1     
    4    1    2 1     
    5    2    3 1     
    6    2   22 2     
    7    3    4 1     
    8    3   23 1     
    9    4    6 2     
   10    4    5 1     
   11    5   27 1     
   12    5   28 1     
   13    5   29 1     
   14    6   20 1     
   15    6    7 1     
   16    7    8 1     
   17    7   30 1     
   18    7   31 1     
   19    8    9 2     
   20    8   10 am    
   21   10   11 1     
   22   10   32 1     
   23   11   12 1     
   24   11   13 1     
   25   11   33 1     
   26   12   34 1     
   27   12   35 1     
   28   12   36 1     
   29   13   14 1     
   30   13   37 1     
   31   13   38 1     
   32   14   19 1     
   33   14   15 1     
   34   14   49 1     
   35   15   16 1     
   36   15   39 1     
   37   15   40 1     
   38   16   17 1     
   39   16   41 1     
   40   16   42 1     
   41   17   18 1     
   42   17   43 1     
   43   17   44 1     
   44   18   19 1     
   45   18   45 1     
   46   18   46 1     
   47   19   47 1     
   48   19   48 1     
   49   20   21 2     
   50   20   22 1     
   51    9   50 1     
   52    9   51 1     
   53   21   52 1     
   54   21   53 1     
   55   22   54 1     
@<TRIPOS>SUBSTRUCTURE
      1 S1             1
@<TRIPOS>SET
LONE_PAIRS      STATIC     ATOMS    <user>   **** ""
5 50 51 52 53 54
DONOR_HYDROGENS      STATIC     ATOMS    <user>   **** ""
3 23 32 49
ATOM$BLUE        STATIC     ATOMS    COLORGROUP SYSTEM
5 50 51 52 53 54
ATOM$RED        STATIC     ATOMS    COLORGROUP SYSTEM
3 23 32 49
