AV-unprocessed.smi:240|AV-procd|sdf|1838|dock5
  -GOLD-   2262020453D 1   1.00000     0.00000
 Structure written by MMmdl.
 55 59  0  0  0  0  0  0  0  0  1 V2000
  153.1374  144.3717  158.1660 O   0  0  0  0  0  0  0  0  0  0  0  0
  151.9580  143.5882  158.1768 C   0  0  2  0  0  0  0  0  0  0  0  0
  150.7527  144.5251  158.3115 C   0  0  0  0  0  0  0  0  0  0  0  0
  150.4892  144.6673  159.8151 C   0  0  0  0  0  0  0  0  0  0  0  0
  151.4378  143.6836  160.5102 C   0  0  0  0  0  0  0  0  0  0  0  0
  151.8927  142.6854  159.4295 C   0  0  2  0  0  0  0  0  0  0  0  0
  153.1670  141.8470  159.7877 C   0  0  1  0  0  0  0  0  0  0  0  0
  153.6958  142.2308  161.1954 C   0  0  0  0  0  0  0  0  0  0  0  0
  154.8288  141.4497  161.5549 O   0  0  0  0  0  0  0  0  0  0  0  0
  154.5141  140.0679  161.6254 C   0  0  0  0  0  0  0  0  0  0  0  0
  154.0730  139.6021  160.2346 C   0  0  0  0  0  0  0  0  0  0  0  0
  152.9365  140.3919  159.7703 N   0  0  0  0  0  0  0  0  0  0  0  0
  152.4260  139.8566  158.6409 C   0  0  0  0  0  0  0  0  0  0  0  0
  153.2453  139.0616  157.9102 N   0  0  0  0  0  0  0  0  0  0  0  0
  152.7948  138.4935  156.7874 C   0  0  0  0  0  0  0  0  0  0  0  0
  151.5868  138.5919  156.2282 N   0  0  0  0  0  0  0  0  0  0  0  0
  150.7665  139.4057  156.9536 C   0  0  0  0  0  0  0  0  0  0  0  0
  151.1027  140.0743  158.1637 C   0  0  0  0  0  0  0  0  0  0  0  0
  150.0126  140.8028  158.6231 N   0  0  0  0  0  0  0  0  0  0  0  0
  149.0829  140.5741  157.7365 C   0  0  0  0  0  0  0  0  0  0  0  0
  149.4532  139.7565  156.6921 N   0  0  0  0  0  0  0  0  0  0  0  0
  148.6208  139.3381  155.5738 C   0  0  0  0  0  0  0  0  0  0  0  0
  148.6912  140.2749  154.3400 C   0  0  2  0  0  0  0  0  0  0  0  0
  149.9378  140.1018  153.6917 O   0  0  0  0  0  0  0  0  0  0  0  0
  148.4993  141.7590  154.6640 C   0  0  0  0  0  0  0  0  0  0  0  0
  147.0434  142.0070  154.2969 C   0  0  0  0  0  0  0  0  0  0  0  0
  146.8917  141.2270  153.1251 O   0  0  0  0  0  0  0  0  0  0  0  0
  147.5493  139.9854  153.3441 C   0  0  0  0  0  0  0  0  0  0  0  0
  152.9630  145.1850  158.6155 H   0  0  0  0  0  0  0  0  0  0  0  0
  151.8953  143.0311  157.2437 H   0  0  0  0  0  0  0  0  0  0  0  0
  150.9071  145.4868  157.8202 H   0  0  0  0  0  0  0  0  0  0  0  0
  149.8837  144.0633  157.8411 H   0  0  0  0  0  0  0  0  0  0  0  0
  150.6682  145.6865  160.1589 H   0  0  0  0  0  0  0  0  0  0  0  0
  149.4495  144.4251  160.0379 H   0  0  0  0  0  0  0  0  0  0  0  0
  152.2999  144.2306  160.8948 H   0  0  0  0  0  0  0  0  0  0  0  0
  150.9552  143.1935  161.3564 H   0  0  0  0  0  0  0  0  0  0  0  0
  151.0665  141.9858  159.2885 H   0  0  0  0  0  0  0  0  0  0  0  0
  153.9595  142.0759  159.0748 H   0  0  0  0  0  0  0  0  0  0  0  0
  154.0123  143.2730  161.2219 H   0  0  0  0  0  0  0  0  0  0  0  0
  152.9151  142.1169  161.9497 H   0  0  0  0  0  0  0  0  0  0  0  0
  155.3971  139.5157  161.9467 H   0  0  0  0  0  0  0  0  0  0  0  0
  153.7341  139.8900  162.3676 H   0  0  0  0  0  0  0  0  0  0  0  0
  154.9055  139.7014  159.5371 H   0  0  0  0  0  0  0  0  0  0  0  0
  153.8059  138.5447  160.2696 H   0  0  0  0  0  0  0  0  0  0  0  0
  153.5029  137.8689  156.2630 H   0  0  0  0  0  0  0  0  0  0  0  0
  148.0946  141.0027  157.8190 H   0  0  0  0  0  0  0  0  0  0  0  0
  148.9176  138.3269  155.2916 H   0  0  0  0  0  0  0  0  0  0  0  0
  147.5921  139.2637  155.9289 H   0  0  0  0  0  0  0  0  0  0  0  0
  149.7803  139.7548  152.8268 H   0  0  0  0  0  0  0  0  0  0  0  0
  148.7210  142.0310  155.6944 H   0  0  0  0  0  0  0  0  0  0  0  0
  149.1292  142.3793  154.0239 H   0  0  0  0  0  0  0  0  0  0  0  0
  146.3724  141.6434  155.0770 H   0  0  0  0  0  0  0  0  0  0  0  0
  146.8265  143.0595  154.1130 H   0  0  0  0  0  0  0  0  0  0  0  0
  147.8952  139.5660  152.3983 H   0  0  0  0  0  0  0  0  0  0  0  0
  146.8261  139.2851  153.7646 H   0  0  0  0  0  0  0  0  0  0  0  0
  1  2  1  0  0  0  0
  1 29  1  0  0  0  0
  2  6  1  0  0  0  0
  2  3  1  0  0  0  0
  2 30  1  0  0  0  0
  3  4  1  0  0  0  0
  3 31  1  0  0  0  0
  3 32  1  0  0  0  0
  4  5  1  0  0  0  0
  4 33  1  0  0  0  0
  4 34  1  0  0  0  0
  5  6  1  0  0  0  0
  5 35  1  0  0  0  0
  5 36  1  0  0  0  0
  6  7  1  0  0  0  0
  6 37  1  0  0  0  0
  7 12  1  0  0  0  0
  7  8  1  0  0  0  0
  7 38  1  0  0  0  0
  8  9  1  0  0  0  0
  8 39  1  0  0  0  0
  8 40  1  0  0  0  0
  9 10  1  0  0  0  0
 10 11  1  0  0  0  0
 10 41  1  0  0  0  0
 10 42  1  0  0  0  0
 11 12  1  0  0  0  0
 11 43  1  0  0  0  0
 11 44  1  0  0  0  0
 12 13  1  0  0  0  0
 13 18  1  0  0  0  0
 13 14  2  0  0  0  0
 14 15  1  0  0  0  0
 15 16  2  0  0  0  0
 15 45  1  0  0  0  0
 16 17  1  0  0  0  0
 17 21  1  0  0  0  0
 17 18  2  0  0  0  0
 18 19  1  0  0  0  0
 19 20  2  0  0  0  0
 20 21  1  0  0  0  0
 20 46  1  0  0  0  0
 21 22  1  0  0  0  0
 22 23  1  0  0  0  0
 22 47  1  0  0  0  0
 22 48  1  0  0  0  0
 23 28  1  0  0  0  0
 23 24  1  0  0  0  0
 23 25  1  0  0  0  0
 24 49  1  0  0  0  0
 25 26  1  0  0  0  0
 25 50  1  0  0  0  0
 25 51  1  0  0  0  0
 26 27  1  0  0  0  0
 26 52  1  0  0  0  0
 26 53  1  0  0  0  0
 27 28  1  0  0  0  0
 28 54  1  0  0  0  0
 28 55  1  0  0  0  0
M  END
> <s_m_source_file>
AV-unprocessed.smi

> <i_m_source_file_index>
240

> <i_lp_mmshare_version>
43012

> <i_f3d_flags>
0

> <s_epik_input>
W09IXVtDQEBIXTFbQ0gyXVtDSDJdW0NIMl1bQ0BIXTFbQ0BASF0yW0NIMl1PW0NIMl1bQ0gyXU4yYyhuW2NIXW4zKWMoYzM0KW5bY0hdbjRbQ0gyXVtDQEBdNShbT0hdKVtDSDJdW0NIMl1PW0NIMl01

> <s_epik_cmdline>
J2VwaWtfcHl0aG9uJywgJy1waCcsICc3LjAnLCAnLXRuJywgJzgnLCAnLW1hJywgJzIwMCcsICctbWV0YWxfYmluZGluZycsICctaW1hZScsICc8aW5maWxlLm1hZT4nLCAnLW9tYWUnLCAnPG91dGZpbGUubWFlPic=

> <r_lp_tautomer_probability>
1

> <r_epik_Ionization_Penalty>
0.000130618

> <r_epik_Ionization_Penalty_Charging>
0

> <r_epik_Ionization_Penalty_Neutral>
0.000130618

> <r_epik_State_Penalty>
-0

> <r_epik_Charging_Adjusted_Penalty>
0

> <i_epik_Tot_Q>
0

> <i_epik_Tot_abs_Q>
0

> <r_epik_Metal_State_Penalty>
-0

> <b_epik_Metal_Only>
0

> <s_lp_Force_Field>
OPLS_2005

> <r_lp_Energy>
64.4166

> <b_lp_Chiralities_Consistent>
1

> <s_lp_Variant>
AV-unprocessed.smi:240-15

> <Gold.Version>
5.8.1

> <Gold.Id.Protein>
6NUR|6NUR_protein|mol2

> <Gold.PLP.Fitness>
46.4068

> <Gold.PLP.PLP>
-42.6795

> <Gold.PLP.part.hbond>
-4.2315

> <Gold.PLP.part.metal>
0.0000

> <Gold.PLP.part.buried>
-0.8356

> <Gold.PLP.part.nonpolar>
-38.0006

> <Gold.PLP.part.repulsive>
0.2061

> <Gold.PLP.ligand.clash>
0.0000

> <Gold.PLP.ligand.torsion>
2.3769

> <Gold.PLP.Chemscore.Hbond>
2.7040

> <Gold.PLP.Chemscore.CHOScore>
0.0000

> <Gold.PLP.Chemscore.Metal>
0.0000

> <Gold.Chemscore.Hbonds>
donor molecule, donor type, donor heavy atom, donor atom, acceptor molecule, acceptor atom, score
      L1  H    24    49       P1  7957  0.98
      P1  H  7989  7998       L1    24  0.72
      P1  H  7997  8008       L1    14  0.95

> <Gold.PLP.Chemscore.Internal.Correction>
0.3692

> <Gold.Rescore>
     Score         DG    S(hbond)    S(metal)    S(lipo)     H(rot)  DE(clash)    DE(int)     intcor
     10.66     -17.20       1.54        0.00     121.93       3.00       1.83       4.71       ----

> <Gold.Chemscore.Fitness>
10.6599

> <Gold.Chemscore.DG>
-17.2000

> <Gold.Chemscore.ZeroCoef>
-5.4800

> <Gold.Chemscore.Hbond>
1.5403

> <Gold.Chemscore.Metal>
0.0000

> <Gold.Chemscore.Lipo>
121.9262

> <Gold.Chemscore.Internal_Hbond>
0.0000

> <Gold.Chemscore.DEClash>
1.8325

> <Gold.Chemscore.DEInternal>
4.7076

> <Gold.Chemscore.Rot>
3.0039

> <Gold.Chemscore.Internal.Correction>
   9.000000E+99

> <Gold.Chemscore.Hbonds>
donor molecule, donor type, donor heavy atom, donor atom, acceptor molecule, acceptor atom, score
      L1  H    24    49       P1  7957  0.93
      P1  H  7989  7998       L1    24  0.22
      P1  H  7997  8008       L1    14  0.18

> <Gold.Chemscore.Hbond.Weighted>
-5.1446

> <Gold.Chemscore.Metal.Weighted>
-0.0000

> <Gold.Chemscore.Lipo.Weighted>
-14.2654

> <Gold.Chemscore.Internal_Hbond.Weighted>
0.0000

> <Gold.Chemscore.DEClash.Weighted>
1.8325

> <Gold.Chemscore.DEInternal.Weighted>
4.7076

> <Gold.Chemscore.Rot.Weighted>
7.6899

> <Gold.Chemscore.Internal.Correction.Weighted>
   9.000000E+99

> <Gold.Protein.RotatedTorsions>
[ 6907 6896 6895 6894 ] final   65.43 input  -60.11 | X-H torsion
[ 7974 7965 7964 7962 ] final -147.27 input  175.53 | X-H torsion
[ 8008 7997 7996 7995 ] final -100.52 input   59.86 | X-H torsion
[ 10167 10162 10161 10158 ] final  -90.87 input  -65.29 | X-H torsion
[ 10718 10713 10712 10709 ] final  -28.58 input   66.30 | X-H torsion
[ 10763 10752 10751 10750 ] final -179.96 input  -60.55 | X-H torsion
[ 11005 11000 10999 10996 ] final  158.98 input  -57.11 | X-H torsion

> <Gold.Protein.ActiveResidues>
 VAL166  LYS551  ARG553  GLY616  TRP617  ASP618  TYR619  PRO620  LYS621  CYS622 
 ASP623  PHE694  ASN695  SER759  ASP760  ASP761  ALA762  ILE779  LEU786  VAL792 
 PHE793  MET794  SER795  GLU796  ALA797  LYS798  CYS799  TRP800  GLU811  SER814 

> <Gold.Protein.RotatedAtoms>
  152.4407  134.5597  159.9890 H   0  0  0  0  0  0  0  0  0  0  0  0  # atno 6907 bound_to 6896
  151.5695  133.3386  159.2994 H   0  0  0  0  0  0  0  0  0  0  0  0  # atno 6908 bound_to 6896
  150.8313  134.7600  159.6919 H   0  0  0  0  0  0  0  0  0  0  0  0  # atno 6909 bound_to 6896
  144.8104  140.5349  143.5646 H   0  0  0  0  0  0  0  0  0  0  0  0  # atno 7974 bound_to 7965
  154.8298  140.0440  157.1469 H   0  0  0  0  0  0  0  0  0  0  0  0  # atno 8008 bound_to 7997
  154.9165  140.3021  155.5218 H   0  0  0  0  0  0  0  0  0  0  0  0  # atno 8009 bound_to 7997
  156.2986  140.2348  156.4211 H   0  0  0  0  0  0  0  0  0  0  0  0  # atno 8010 bound_to 7997
  140.3506  143.2893  151.9731 H   0  0  0  0  0  0  0  0  0  0  0  0  # atno 10167 bound_to 10162
  156.4235  130.4431  149.7167 H   0  0  0  0  0  0  0  0  0  0  0  0  # atno 10718 bound_to 10713
  154.5284  135.2798  155.1201 H   0  0  0  0  0  0  0  0  0  0  0  0  # atno 10763 bound_to 10752
  154.2731  135.6300  153.5321 H   0  0  0  0  0  0  0  0  0  0  0  0  # atno 10764 bound_to 10752
  152.9951  135.5633  154.5792 H   0  0  0  0  0  0  0  0  0  0  0  0  # atno 10765 bound_to 10752
  140.1917  134.8402  157.2920 H   0  0  0  0  0  0  0  0  0  0  0  0  # atno 11005 bound_to 11000
  145.5337  139.1475  143.3485 LP  0  0  0  0  0  0  0  0  0  0  0  0  # atno 17320 bound_to 7965
  146.2402  140.5477  142.8937 LP  0  0  0  0  0  0  0  0  0  0  0  0  # atno 17321 bound_to 7965
  139.4827  144.6079  151.7487 LP  0  0  0  0  0  0  0  0  0  0  0  0  # atno 17342 bound_to 10162
  140.5223  144.0860  150.6026 LP  0  0  0  0  0  0  0  0  0  0  0  0  # atno 17343 bound_to 10162
  156.4099  130.7716  151.2729 LP  0  0  0  0  0  0  0  0  0  0  0  0  # atno 17370 bound_to 10713
  157.7508  131.0215  150.3751 LP  0  0  0  0  0  0  0  0  0  0  0  0  # atno 17371 bound_to 10713
  140.2152  134.4090  155.7593 LP  0  0  0  0  0  0  0  0  0  0  0  0  # atno 17394 bound_to 11000
  141.2226  133.7138  156.8402 LP  0  0  0  0  0  0  0  0  0  0  0  0  # atno 17395 bound_to 11000

$$$$
