AV-unprocessed.smi:3188|AV-procd|sdf|12185|dock9
  -GOLD-   2272018 23D 1   1.00000     0.00000
 Structure written by MMmdl.
 40 41  0  0  0  0  0  0  0  0  2 V2000
  151.2467  140.0995  157.4414 C   0  0  0  0  0  0  0  0  0  0  0  0
  151.8247  141.0576  158.4708 C   0  0  0  0  0  0  0  0  0  0  0  0
  152.6637  140.5915  159.4156 C   0  0  0  0  0  0  0  0  0  0  0  0
  153.3571  141.4560  160.4427 C   0  0  0  0  0  0  0  0  0  0  0  0
  153.4034  142.9168  159.9893 C   0  0  0  0  0  0  0  0  0  0  0  0
  152.0191  143.4077  159.5356 C   0  0  1  0  0  0  0  0  0  0  0  0
  152.0984  144.9061  159.1847 C   0  0  0  0  0  0  0  0  0  0  0  0
  151.4381  142.5488  158.3696 C   0  0  2  0  0  0  0  0  0  0  0  0
  149.9057  142.7686  158.2613 C   0  0  0  0  0  0  0  0  0  0  0  0
  149.3752  142.4470  156.9215 N   0  3  0  0  0  0  0  0  0  0  0  0
  148.1267  141.6590  156.9311 C   0  0  0  0  0  0  0  0  0  0  0  0
  147.7100  141.2505  155.5094 C   0  0  0  0  0  0  0  0  0  0  0  0
  148.6997  140.3919  154.8837 N   0  0  0  0  0  0  0  0  0  0  0  0
  148.5296  139.1310  154.3510 C   0  0  0  0  0  0  0  0  0  0  0  0
  149.7846  138.7921  153.9322 C   0  0  0  0  0  0  0  0  0  0  0  0
  150.6521  139.8430  154.2246 N   0  0  0  0  0  0  0  0  0  0  0  0
  149.9878  140.8004  154.7904 N   0  0  0  0  0  0  0  0  0  0  0  0
  151.3973  140.4836  156.4323 H   0  0  0  0  0  0  0  0  0  0  0  0
  150.1809  139.9433  157.6072 H   0  0  0  0  0  0  0  0  0  0  0  0
  151.7274  139.1219  157.4948 H   0  0  0  0  0  0  0  0  0  0  0  0
  152.8903  139.5359  159.4623 H   0  0  0  0  0  0  0  0  0  0  0  0
  152.8316  141.3597  161.3932 H   0  0  0  0  0  0  0  0  0  0  0  0
  154.3709  141.0857  160.5970 H   0  0  0  0  0  0  0  0  0  0  0  0
  153.7810  143.5355  160.8045 H   0  0  0  0  0  0  0  0  0  0  0  0
  154.1145  143.0212  159.1682 H   0  0  0  0  0  0  0  0  0  0  0  0
  151.3532  143.3050  160.3941 H   0  0  0  0  0  0  0  0  0  0  0  0
  152.7400  145.0759  158.3195 H   0  0  0  0  0  0  0  0  0  0  0  0
  152.5119  145.4789  160.0154 H   0  0  0  0  0  0  0  0  0  0  0  0
  151.1228  145.3351  158.9625 H   0  0  0  0  0  0  0  0  0  0  0  0
  151.8997  142.9045  157.4470 H   0  0  0  0  0  0  0  0  0  0  0  0
  149.3971  142.1636  159.0134 H   0  0  0  0  0  0  0  0  0  0  0  0
  149.6367  143.8032  158.4672 H   0  0  0  0  0  0  0  0  0  0  0  0
  149.2188  143.3064  156.4145 H   0  0  0  0  0  0  0  0  0  0  0  0
  148.2608  140.7669  157.5448 H   0  0  0  0  0  0  0  0  0  0  0  0
  147.3375  142.2512  157.3956 H   0  0  0  0  0  0  0  0  0  0  0  0
  146.7633  140.7098  155.5403 H   0  0  0  0  0  0  0  0  0  0  0  0
  147.5471  142.1312  154.8857 H   0  0  0  0  0  0  0  0  0  0  0  0
  147.5830  138.6115  154.3215 H   0  0  0  0  0  0  0  0  0  0  0  0
  150.1330  137.8891  153.4527 H   0  0  0  0  0  0  0  0  0  0  0  0
  150.0782  141.9098  156.4333 H   0  0  0  0  0  0  0  0  0  0  0  0
  1  2  1  0  0  0  0
  1 18  1  0  0  0  0
  1 19  1  0  0  0  0
  1 20  1  0  0  0  0
  2  8  1  0  0  0  0
  2  3  2  0  0  0  0
  3  4  1  0  0  0  0
  3 21  1  0  0  0  0
  4  5  1  0  0  0  0
  4 22  1  0  0  0  0
  4 23  1  0  0  0  0
  5  6  1  0  0  0  0
  5 24  1  0  0  0  0
  5 25  1  0  0  0  0
  6  7  1  0  0  0  0
  6  8  1  0  0  0  0
  6 26  1  0  0  0  0
  7 27  1  0  0  0  0
  7 28  1  0  0  0  0
  7 29  1  0  0  0  0
  8  9  1  0  0  0  0
  8 30  1  0  0  0  0
  9 10  1  0  0  0  0
  9 31  1  0  0  0  0
  9 32  1  0  0  0  0
 10 11  1  0  0  0  0
 10 33  1  0  0  0  0
 10 40  1  0  0  0  0
 11 12  1  0  0  0  0
 11 34  1  0  0  0  0
 11 35  1  0  0  0  0
 12 13  1  0  0  0  0
 12 36  1  0  0  0  0
 12 37  1  0  0  0  0
 13 17  1  0  0  0  0
 13 14  1  0  0  0  0
 14 15  2  0  0  0  0
 14 38  1  0  0  0  0
 15 16  1  0  0  0  0
 15 39  1  0  0  0  0
 16 17  2  0  0  0  0
M  CHG  1  10   1
M  END
> <s_m_source_file>
AV-unprocessed.smi

> <i_m_source_file_index>
3188

> <i_lp_mmshare_version>
43012

> <i_f3d_flags>
0

> <s_epik_input>
W0NIM11DMT1bQ0hdW0NIMl1bQ0gyXVtDQEBIXShbQ0gzXSlbQ0BIXTFbQ0gyXVtOSF1bQ0gyXVtDSDJdbjJbY0hdW2NIXW5uMg==

> <s_epik_cmdline>
J2VwaWtfcHl0aG9uJywgJy1waCcsICc3LjAnLCAnLXRuJywgJzgnLCAnLW1hJywgJzIwMCcsICctbWV0YWxfYmluZGluZycsICctaW1hZScsICc8aW5maWxlLm1hZT4nLCAnLW9tYWUnLCAnPG91dGZpbGUubWFlPic=

> <r_lp_tautomer_probability>
1

> <r_epik_Ionization_Penalty>
0.007268

> <r_epik_Ionization_Penalty_Charging>
0.00726786

> <r_epik_Ionization_Penalty_Neutral>
1.34882e-07

> <r_epik_State_Penalty>
0.00542069

> <r_epik_Charging_Adjusted_Penalty>
0.0126886

> <i_epik_Tot_Q>
1

> <i_epik_Tot_abs_Q>
1

> <r_epik_Metal_State_Penalty>
-0

> <b_epik_Metal_Only>
0

> <s_lp_Force_Field>
OPLS_2005

> <r_lp_Energy>
14.3192

> <b_lp_Chiralities_Consistent>
1

> <s_lp_Variant>
AV-unprocessed.smi:3188-3

> <Gold.Version>
5.8.1

> <Gold.Id.Protein>
6NUR|6NUR_protein|mol2

> <Gold.PLP.Fitness>
45.2783

> <Gold.PLP.PLP>
-35.3341

> <Gold.PLP.part.hbond>
-3.0000

> <Gold.PLP.part.metal>
0.0000

> <Gold.PLP.part.buried>
-3.7569

> <Gold.PLP.part.nonpolar>
-29.9130

> <Gold.PLP.part.repulsive>
0.2600

> <Gold.PLP.ligand.clash>
0.0000

> <Gold.PLP.ligand.torsion>
0.5209

> <Gold.PLP.Chemscore.Hbond>
2.6500

> <Gold.PLP.Chemscore.CHOScore>
0.9877

> <Gold.PLP.Chemscore.Metal>
0.0000

> <Gold.Chemscore.Hbonds>
donor molecule, donor type, donor heavy atom, donor atom, acceptor molecule, acceptor atom, score
      L1  H    10    33       P1  8028  2.00
      P1  H  7989  7998       L1    16  0.65
      L1  C    15    39       P1  7948  0.98
      L1  C    15    39       P1  7949  0.01

> <Gold.PLP.Chemscore.Internal.Correction>
0.0728

> <Gold.Rescore>
     Score         DG    S(hbond)    S(metal)    S(lipo)     H(rot)  DE(clash)    DE(int)     intcor
     16.00     -17.99       1.48        0.00     103.56       1.78       0.04       1.96       ----

> <Gold.Chemscore.Fitness>
15.9980

> <Gold.Chemscore.DG>
-17.9940

> <Gold.Chemscore.ZeroCoef>
-5.4800

> <Gold.Chemscore.Hbond>
1.4841

> <Gold.Chemscore.Metal>
0.0000

> <Gold.Chemscore.Lipo>
103.5571

> <Gold.Chemscore.Internal_Hbond>
0.0000

> <Gold.Chemscore.DEClash>
0.0379

> <Gold.Chemscore.DEInternal>
1.9581

> <Gold.Chemscore.Rot>
1.7809

> <Gold.Chemscore.Internal.Correction>
   9.000000E+99

> <Gold.Chemscore.Hbonds>
donor molecule, donor type, donor heavy atom, donor atom, acceptor molecule, acceptor atom, score
      L1  H    10    33       P1  8028  0.99
      P1  H  7989  7998       L1    16  0.06

> <Gold.Chemscore.Hbond.Weighted>
-4.9568

> <Gold.Chemscore.Metal.Weighted>
-0.0000

> <Gold.Chemscore.Lipo.Weighted>
-12.1162

> <Gold.Chemscore.Internal_Hbond.Weighted>
0.0000

> <Gold.Chemscore.DEClash.Weighted>
0.0379

> <Gold.Chemscore.DEInternal.Weighted>
1.9581

> <Gold.Chemscore.Rot.Weighted>
4.5590

> <Gold.Chemscore.Internal.Correction.Weighted>
   9.000000E+99

> <Gold.Protein.RotatedTorsions>
[ 6907 6896 6895 6894 ] final   80.11 input  -60.11 | X-H torsion
[ 7974 7965 7964 7962 ] final -105.29 input  175.53 | X-H torsion
[ 8008 7997 7996 7995 ] final  -19.15 input   59.86 | X-H torsion
[ 10167 10162 10161 10158 ] final   -9.62 input  -65.29 | X-H torsion
[ 10718 10713 10712 10709 ] final    9.58 input   66.30 | X-H torsion
[ 10763 10752 10751 10750 ] final -127.15 input  -60.55 | X-H torsion
[ 11005 11000 10999 10996 ] final   18.01 input  -57.11 | X-H torsion

> <Gold.Protein.ActiveResidues>
 VAL166  LYS551  ARG553  GLY616  TRP617  ASP618  TYR619  PRO620  LYS621  CYS622 
 ASP623  PHE694  ASN695  SER759  ASP760  ASP761  ALA762  ILE779  LEU786  VAL792 
 PHE793  MET794  SER795  GLU796  ALA797  LYS798  CYS799  TRP800  GLU811  SER814 

> <Gold.Protein.RotatedAtoms>
  152.5223  134.3408  159.9215 H   0  0  0  0  0  0  0  0  0  0  0  0  # atno 6907 bound_to 6896
  151.3357  133.3976  159.2674 H   0  0  0  0  0  0  0  0  0  0  0  0  # atno 6908 bound_to 6896
  150.9844  134.9210  159.7921 H   0  0  0  0  0  0  0  0  0  0  0  0  # atno 6909 bound_to 6896
  145.2324  140.9175  143.3197 H   0  0  0  0  0  0  0  0  0  0  0  0  # atno 7974 bound_to 7965
  154.4856  140.2096  155.9662 H   0  0  0  0  0  0  0  0  0  0  0  0  # atno 8008 bound_to 7997
  156.1231  140.3210  155.8207 H   0  0  0  0  0  0  0  0  0  0  0  0  # atno 8009 bound_to 7997
  155.4431  140.0511  157.2999 H   0  0  0  0  0  0  0  0  0  0  0  0  # atno 8010 bound_to 7997
  140.7092  143.5837  150.8965 H   0  0  0  0  0  0  0  0  0  0  0  0  # atno 10167 bound_to 10162
  156.9684  130.5959  149.5667 H   0  0  0  0  0  0  0  0  0  0  0  0  # atno 10718 bound_to 10713
  154.8750  135.3972  154.3546 H   0  0  0  0  0  0  0  0  0  0  0  0  # atno 10763 bound_to 10752
  153.4327  135.7025  153.6225 H   0  0  0  0  0  0  0  0  0  0  0  0  # atno 10764 bound_to 10752
  153.4840  135.3763  155.2427 H   0  0  0  0  0  0  0  0  0  0  0  0  # atno 10765 bound_to 10752
  140.4295  134.1434  155.7679 H   0  0  0  0  0  0  0  0  0  0  0  0  # atno 11005 bound_to 11000
  144.9664  139.3925  143.6330 LP  0  0  0  0  0  0  0  0  0  0  0  0  # atno 17320 bound_to 7965
  146.3349  139.8742  142.8835 LP  0  0  0  0  0  0  0  0  0  0  0  0  # atno 17321 bound_to 7965
  139.9563  143.6214  152.3015 LP  0  0  0  0  0  0  0  0  0  0  0  0  # atno 17342 bound_to 10162
  139.6751  144.7659  151.1711 LP  0  0  0  0  0  0  0  0  0  0  0  0  # atno 17343 bound_to 10162
  156.0293  130.5385  150.8491 LP  0  0  0  0  0  0  0  0  0  0  0  0  # atno 17370 bound_to 10713
  157.5610  131.0946  150.9559 LP  0  0  0  0  0  0  0  0  0  0  0  0  # atno 17371 bound_to 10713
  141.1751  133.8530  157.1446 LP  0  0  0  0  0  0  0  0  0  0  0  0  # atno 17394 bound_to 11000
  140.0144  134.9974  157.0462 LP  0  0  0  0  0  0  0  0  0  0  0  0  # atno 17395 bound_to 11000

$$$$
