#       Name:                AV-unprocessed.smi:34
#       Creating user name   scv26
#       Creation time:       Thu Mar 26 15:54:11 2020


#       File generated by GOLD software.
#

@<TRIPOS>MOLECULE
AV-unprocessed.smi:34
    66    70     1
SMALL
NO_CHARGES


@<TRIPOS>ATOM
      1 ****        -5.4185   2.5637  -2.3001 O.2            1 S1                 0.0000
      2 ****        -5.1637   1.5300  -1.6813 C.2            1 S1                 0.0000
      3 ****        -3.8017   1.0866  -1.4460 N.am           1 S1                 0.0000
      4 ****        -2.6555   1.6383  -1.9075 C.ar           1 S1                 0.0000
      5 ****        -2.6462   2.6128  -2.8552 N.ar           1 S1                 0.0000
      6 ****        -1.4878   3.1238  -3.2840 C.ar           1 S1                 0.0000
      7 ****        -0.2461   2.8080  -2.9081 N.ar           1 S1                 0.0000
      8 ****        -0.2504   1.8261  -1.9613 C.ar           1 S1                 0.0000
      9 ****        -1.4009   1.1922  -1.4173 C.ar           1 S1                 0.0000
     10 ****        -1.0138   0.2396  -0.4837 N.2            1 S1                 0.0000
     11 ****         0.2904   0.3155  -0.4755 C.2            1 S1                 0.0000
     12 ****         0.8323   1.2439  -1.3407 N.pl3          1 S1                 0.0000
     13 ****         2.2680   1.6041  -1.5813 C.3            1 S1                 0.0000
     14 ****         3.0323   1.1058  -0.5241 O.3            1 S1                 0.0000
     15 ****         3.6594  -0.1028  -0.9329 C.3            1 S1                 0.0000
     16 ****         4.8390  -0.4467  -0.0171 C.3            1 S1                 0.0000
     17 ****         4.3312  -0.9418   1.2108 O.3            1 S1                 0.0000
     18 ****         5.1744  -1.2738   2.2066 C.2            1 S1                 0.0000
     19 ****         6.4005  -1.1781   2.1229 O.2            1 S1                 0.0000
     20 ****         4.4679  -1.7720   3.4220 C.ar           1 S1                 0.0000
     21 ****         5.2238  -2.1586   4.5534 C.ar           1 S1                 0.0000
     22 ****         4.5847  -2.6347   5.7147 C.ar           1 S1                 0.0000
     23 ****         3.1816  -2.7305   5.7588 C.ar           1 S1                 0.0000
     24 ****         2.4180  -2.3487   4.6403 C.ar           1 S1                 0.0000
     25 ****         3.0553  -1.8716   3.4781 C.ar           1 S1                 0.0000
     26 ****         4.0397   0.2047  -2.3796 C.3            1 S1                 0.0000
     27 ****         5.1189   0.9891  -2.4228 F              1 S1                 0.0000
     28 ****         2.8301   0.9794  -2.8828 C.3            1 S1                 0.0000
     29 ****         1.9391   0.1072  -3.5573 O.3            1 S1                 0.0000
     30 ****        -6.2420   0.7068  -1.0401 C.ar           1 S1                 0.0000
     31 ****        -7.4359   1.3227  -0.6025 C.ar           1 S1                 0.0000
     32 ****        -8.4579   0.5554  -0.0101 C.ar           1 S1                 0.0000
     33 ****        -8.2985  -0.8352   0.1404 C.ar           1 S1                 0.0000
     34 ****        -7.1182  -1.4589  -0.3058 C.ar           1 S1                 0.0000
     35 ****        -6.0944  -0.6923  -0.8964 C.ar           1 S1                 0.0000
     36 ****        -3.6966   0.2707  -0.8608 H              1 S1                 0.0000
     37 ****        -1.5681   3.8958  -4.0353 H              1 S1                 0.0000
     38 ****         0.8889  -0.3074   0.1729 H              1 S1                 0.0000
     39 ****         2.2815   2.6948  -1.5751 H              1 S1                 0.0000
     40 ****         2.9324  -0.9166  -0.9256 H              1 S1                 0.0000
     41 ****         5.4573  -1.2168  -0.4803 H              1 S1                 0.0000
     42 ****         5.4676   0.4297   0.1486 H              1 S1                 0.0000
     43 ****         6.3026  -2.0942   4.5433 H              1 S1                 0.0000
     44 ****         5.1727  -2.9270   6.5723 H              1 S1                 0.0000
     45 ****         2.6916  -3.0963   6.6490 H              1 S1                 0.0000
     46 ****         1.3408  -2.4221   4.6727 H              1 S1                 0.0000
     47 ****         2.4390  -1.5871   2.6377 H              1 S1                 0.0000
     48 ****         4.2674  -0.6875  -2.9645 H              1 S1                 0.0000
     49 ****         3.1211   1.7738  -3.5712 H              1 S1                 0.0000
     50 ****         1.1642   0.5960  -3.7912 H              1 S1                 0.0000
     51 ****        -7.5737   2.3890  -0.7120 H              1 S1                 0.0000
     52 ****        -9.3649   1.0341   0.3282 H              1 S1                 0.0000
     53 ****        -9.0828  -1.4232   0.5942 H              1 S1                 0.0000
     54 ****        -6.9983  -2.5267  -0.1972 H              1 S1                 0.0000
     55 ****        -5.2000  -1.1915  -1.2403 H              1 S1                 0.0000
     56 ****        -4.6748   3.1278  -2.6590 LP             1 S1                 0.0000
     57 ****        -6.3690   2.8391  -2.4437 LP             1 S1                 0.0000
     58 ****        -3.5090   2.9487  -3.2329 LP             1 S1                 0.0000
     59 ****         0.5805   3.2362  -3.2736 LP             1 S1                 0.0000
     60 ****        -1.5984  -0.3648   0.0574 LP             1 S1                 0.0000
     61 ****         2.4405   0.9268   0.2618 LP             1 S1                 0.0000
     62 ****         3.7299   1.7759  -0.2702 LP             1 S1                 0.0000
     63 ****         6.8192  -0.8381   1.2808 LP             1 S1                 0.0000
     64 ****         6.9765  -1.4403   2.8971 LP             1 S1                 0.0000
     65 ****         1.6908  -0.6528  -2.9567 LP             1 S1                 0.0000
     66 ****         2.3758  -0.2495  -4.3832 LP             1 S1                 0.0000
@<TRIPOS>BOND
    1    1    2 2     
    2    2    3 am    
    3    2   30 1     
    4    3    4 1     
    5    3   36 1     
    6    4    9 ar    
    7    4    5 ar    
    8    5    6 ar    
    9    6    7 ar    
   10    6   37 1     
   11    7    8 ar    
   12    8   12 1     
   13    8    9 ar    
   14    9   10 1     
   15   10   11 2     
   16   11   12 1     
   17   11   38 1     
   18   12   13 1     
   19   13   28 1     
   20   13   14 1     
   21   13   39 1     
   22   14   15 1     
   23   15   16 1     
   24   15   26 1     
   25   15   40 1     
   26   16   17 1     
   27   16   41 1     
   28   16   42 1     
   29   17   18 1     
   30   18   19 2     
   31   18   20 1     
   32   20   25 ar    
   33   20   21 ar    
   34   21   22 ar    
   35   21   43 1     
   36   22   23 ar    
   37   22   44 1     
   38   23   24 ar    
   39   23   45 1     
   40   24   25 ar    
   41   24   46 1     
   42   25   47 1     
   43   26   27 1     
   44   26   28 1     
   45   26   48 1     
   46   28   29 1     
   47   28   49 1     
   48   29   50 1     
   49   30   35 ar    
   50   30   31 ar    
   51   31   32 ar    
   52   31   51 1     
   53   32   33 ar    
   54   32   52 1     
   55   33   34 ar    
   56   33   53 1     
   57   34   35 ar    
   58   34   54 1     
   59   35   55 1     
   60    1   56 1     
   61    1   57 1     
   62    5   58 1     
   63    7   59 1     
   64   10   60 1     
   65   14   61 1     
   66   14   62 1     
   67   19   63 1     
   68   19   64 1     
   69   29   65 1     
   70   29   66 1     
@<TRIPOS>SUBSTRUCTURE
      1 S1             1
@<TRIPOS>SET
LONE_PAIRS      STATIC     ATOMS    <user>   **** ""
11 56 57 58 59 60 61 62 63 64 65 66
DONOR_HYDROGENS      STATIC     ATOMS    <user>   **** ""
2 36 50
ATOM$BLUE        STATIC     ATOMS    COLORGROUP SYSTEM
11 56 57 58 59 60 61 62 63 64 65 66
ATOM$RED        STATIC     ATOMS    COLORGROUP SYSTEM
2 36 50
