AV-unprocessed.smi:1567|AV-procd|sdf|6306|dock9
  -GOLD-   22720 6503D 1   1.00000     0.00000
 Structure written by MMmdl.
 42 44  0  0  0  0  0  0  0  0  1 V2000
  154.0267  135.3768  159.8724 O   0  0  0  0  0  0  0  0  0  0  0  0
  154.3815  136.5513  159.1742 C   0  0  0  0  0  0  0  0  0  0  0  0
  153.8370  137.7933  159.8937 C   0  0  0  0  0  0  0  0  0  0  0  0
  154.7803  139.0058  159.8178 C   0  0  0  0  0  0  0  0  0  0  0  0
  154.1841  140.2421  160.4304 C   0  0  0  0  0  0  0  0  0  0  0  0
  153.6187  141.1730  159.6597 N   0  0  0  0  0  0  0  0  0  0  0  0
  153.2030  142.1209  160.5714 C   0  0  0  0  0  0  0  0  0  0  0  0
  152.5231  143.3446  160.3782 C   0  0  0  0  0  0  0  0  0  0  0  0
  152.2013  144.1635  161.4802 C   0  0  0  0  0  0  0  0  0  0  0  0
  152.5561  143.7718  162.7873 C   0  0  0  0  0  0  0  0  0  0  0  0
  153.2351  142.5567  163.0005 C   0  0  0  0  0  0  0  0  0  0  0  0
  153.5514  141.7412  161.8970 C   0  0  0  0  0  0  0  0  0  0  0  0
  154.1992  140.5158  161.7644 N   0  0  0  0  0  0  0  0  0  0  0  0
  154.7652  139.7514  162.8712 C   0  0  0  0  0  0  0  0  0  0  0  0
  155.9015  140.4999  163.5957 C   0  0  2  0  0  0  0  0  0  0  0  0
  157.0453  139.6701  163.5834 O   0  0  0  0  0  0  0  0  0  0  0  0
  155.5255  140.9309  165.0079 C   0  0  0  0  0  0  0  0  0  0  0  0
  155.3709  142.3014  165.3143 C   0  0  0  0  0  0  0  0  0  0  0  0
  155.0116  142.7051  166.6145 C   0  0  0  0  0  0  0  0  0  0  0  0
  154.8695  144.0210  166.8994 F   0  0  0  0  0  0  0  0  0  0  0  0
  154.8036  141.7409  167.6187 C   0  0  0  0  0  0  0  0  0  0  0  0
  154.9622  140.3737  167.3225 C   0  0  0  0  0  0  0  0  0  0  0  0
  155.3252  139.9677  166.0233 C   0  0  0  0  0  0  0  0  0  0  0  0
  155.4813  138.6481  165.7599 F   0  0  0  0  0  0  0  0  0  0  0  0
  154.7957  135.0385  160.3052 H   0  0  0  0  0  0  0  0  0  0  0  0
  155.4690  136.6016  159.1148 H   0  0  0  0  0  0  0  0  0  0  0  0
  154.0061  136.4965  158.1521 H   0  0  0  0  0  0  0  0  0  0  0  0
  152.8554  138.0524  159.4948 H   0  0  0  0  0  0  0  0  0  0  0  0
  153.6763  137.5404  160.9403 H   0  0  0  0  0  0  0  0  0  0  0  0
  155.7219  138.7458  160.2934 H   0  0  0  0  0  0  0  0  0  0  0  0
  155.0202  139.2251  158.7770 H   0  0  0  0  0  0  0  0  0  0  0  0
  152.2490  143.6538  159.3804 H   0  0  0  0  0  0  0  0  0  0  0  0
  151.6810  145.0966  161.3216 H   0  0  0  0  0  0  0  0  0  0  0  0
  152.3071  144.4052  163.6260 H   0  0  0  0  0  0  0  0  0  0  0  0
  153.5085  142.2550  164.0006 H   0  0  0  0  0  0  0  0  0  0  0  0
  153.9907  139.4354  163.5663 H   0  0  0  0  0  0  0  0  0  0  0  0
  155.1596  138.8259  162.4492 H   0  0  0  0  0  0  0  0  0  0  0  0
  156.1695  141.3817  163.0135 H   0  0  0  0  0  0  0  0  0  0  0  0
  157.2423  139.4453  162.6868 H   0  0  0  0  0  0  0  0  0  0  0  0
  155.5286  143.0492  164.5509 H   0  0  0  0  0  0  0  0  0  0  0  0
  154.5284  142.0497  168.6164 H   0  0  0  0  0  0  0  0  0  0  0  0
  154.8090  139.6344  168.0946 H   0  0  0  0  0  0  0  0  0  0  0  0
  1  2  1  0  0  0  0
  1 25  1  0  0  0  0
  2  3  1  0  0  0  0
  2 26  1  0  0  0  0
  2 27  1  0  0  0  0
  3  4  1  0  0  0  0
  3 28  1  0  0  0  0
  3 29  1  0  0  0  0
  4  5  1  0  0  0  0
  4 30  1  0  0  0  0
  4 31  1  0  0  0  0
  5 13  1  0  0  0  0
  5  6  2  0  0  0  0
  6  7  1  0  0  0  0
  7 12  2  0  0  0  0
  7  8  1  0  0  0  0
  8  9  2  0  0  0  0
  8 32  1  0  0  0  0
  9 10  1  0  0  0  0
  9 33  1  0  0  0  0
 10 11  2  0  0  0  0
 10 34  1  0  0  0  0
 11 12  1  0  0  0  0
 11 35  1  0  0  0  0
 12 13  1  0  0  0  0
 13 14  1  0  0  0  0
 14 15  1  0  0  0  0
 14 36  1  0  0  0  0
 14 37  1  0  0  0  0
 15 16  1  0  0  0  0
 15 17  1  0  0  0  0
 15 38  1  0  0  0  0
 16 39  1  0  0  0  0
 17 23  1  0  0  0  0
 17 18  2  0  0  0  0
 18 19  1  0  0  0  0
 18 40  1  0  0  0  0
 19 20  1  0  0  0  0
 19 21  2  0  0  0  0
 21 22  1  0  0  0  0
 21 41  1  0  0  0  0
 22 23  2  0  0  0  0
 22 42  1  0  0  0  0
 23 24  1  0  0  0  0
M  END
> <s_m_source_file>
AV-unprocessed.smi

> <i_m_source_file_index>
1567

> <i_lp_mmshare_version>
43012

> <i_f3d_flags>
0

> <s_epik_input>
W09IXVtDSDJdW0NIMl1bQ0gyXWMobjEpbihjKGMxMilbY0hdW2NIXVtjSF1bY0hdMilbQ0gyXVtDQEhdKFtPSF0pYzNbY0hdYyhGKVtjSF1bY0hdYzNG

> <s_epik_cmdline>
J2VwaWtfcHl0aG9uJywgJy1waCcsICc3LjAnLCAnLXRuJywgJzgnLCAnLW1hJywgJzIwMCcsICctbWV0YWxfYmluZGluZycsICctaW1hZScsICc8aW5maWxlLm1hZT4nLCAnLW9tYWUnLCAnPG91dGZpbGUubWFlPic=

> <r_epik_Ionization_Penalty>
0.182562

> <r_epik_Ionization_Penalty_Charging>
0

> <r_epik_Ionization_Penalty_Neutral>
0.182562

> <r_epik_State_Penalty>
0.172086

> <r_epik_Charging_Adjusted_Penalty>
0.172086

> <i_epik_Tot_Q>
0

> <i_epik_Tot_abs_Q>
0

> <r_epik_Metal_State_Penalty>
0.000199649

> <b_epik_Metal_Only>
0

> <s_lp_Force_Field>
OPLS_2005

> <r_lp_Energy>
11.8794

> <b_lp_Chiralities_Consistent>
1

> <s_lp_Variant>
AV-unprocessed.smi:1567-1

> <Gold.Version>
5.8.1

> <Gold.Id.Protein>
6NUR|6NUR_protein|mol2

> <Gold.PLP.Fitness>
52.7291

> <Gold.PLP.PLP>
-52.4663

> <Gold.PLP.part.hbond>
-1.0000

> <Gold.PLP.part.metal>
0.0000

> <Gold.PLP.part.buried>
-1.6095

> <Gold.PLP.part.nonpolar>
-48.7366

> <Gold.PLP.part.repulsive>
0.0000

> <Gold.PLP.ligand.clash>
0.0000

> <Gold.PLP.ligand.torsion>
1.3962

> <Gold.PLP.Chemscore.Hbond>
1.0000

> <Gold.PLP.Chemscore.CHOScore>
0.0000

> <Gold.PLP.Chemscore.Metal>
0.0000

> <Gold.Chemscore.Hbonds>
donor molecule, donor type, donor heavy atom, donor atom, acceptor molecule, acceptor atom, score
      P1  H  6896  6908       L1     1  1.00

> <Gold.PLP.Chemscore.Internal.Correction>
0.0552

> <Gold.Rescore>
     Score         DG    S(hbond)    S(metal)    S(lipo)     H(rot)  DE(clash)    DE(int)     intcor
     13.03     -15.83       0.99        0.00     130.76       3.23       0.16       2.65       ----

> <Gold.Chemscore.Fitness>
13.0265

> <Gold.Chemscore.DG>
-15.8307

> <Gold.Chemscore.ZeroCoef>
-5.4800

> <Gold.Chemscore.Hbond>
0.9927

> <Gold.Chemscore.Metal>
0.0000

> <Gold.Chemscore.Lipo>
130.7597

> <Gold.Chemscore.Internal_Hbond>
0.0000

> <Gold.Chemscore.DEClash>
0.1553

> <Gold.Chemscore.DEInternal>
2.6488

> <Gold.Chemscore.Rot>
3.2281

> <Gold.Chemscore.Internal.Correction>
   9.000000E+99

> <Gold.Chemscore.Hbonds>
donor molecule, donor type, donor heavy atom, donor atom, acceptor molecule, acceptor atom, score
      P1  H  6896  6908       L1     1  0.99

> <Gold.Chemscore.Hbond.Weighted>
-3.3156

> <Gold.Chemscore.Metal.Weighted>
-0.0000

> <Gold.Chemscore.Lipo.Weighted>
-15.2989

> <Gold.Chemscore.Internal_Hbond.Weighted>
0.0000

> <Gold.Chemscore.DEClash.Weighted>
0.1553

> <Gold.Chemscore.DEInternal.Weighted>
2.6488

> <Gold.Chemscore.Rot.Weighted>
8.2639

> <Gold.Chemscore.Internal.Correction.Weighted>
   9.000000E+99

> <Gold.Protein.RotatedTorsions>
[ 6907 6896 6895 6894 ] final  -61.68 input  -60.11 | X-H torsion
[ 7974 7965 7964 7962 ] final    1.78 input  175.53 | X-H torsion
[ 8008 7997 7996 7995 ] final -119.56 input   59.86 | X-H torsion
[ 10167 10162 10161 10158 ] final  -17.00 input  -65.29 | X-H torsion
[ 10718 10713 10712 10709 ] final   47.42 input   66.30 | X-H torsion
[ 10763 10752 10751 10750 ] final  179.95 input  -60.55 | X-H torsion
[ 11005 11000 10999 10996 ] final  -57.51 input  -57.11 | X-H torsion

> <Gold.Protein.ActiveResidues>
 VAL166  LYS551  ARG553  GLY616  TRP617  ASP618  TYR619  PRO620  LYS621  CYS622 
 ASP623  PHE694  ASN695  SER759  ASP760  ASP761  ALA762  ILE779  LEU786  VAL792 
 PHE793  MET794  SER795  GLU796  ALA797  LYS798  CYS799  TRP800  GLU811  SER814 

> <Gold.Protein.RotatedAtoms>
  150.7768  134.6672  159.6371 H   0  0  0  0  0  0  0  0  0  0  0  0  # atno 6907 bound_to 6896
  152.3840  134.6543  160.0141 H   0  0  0  0  0  0  0  0  0  0  0  0  # atno 6908 bound_to 6896
  151.6864  133.3275  159.3268 H   0  0  0  0  0  0  0  0  0  0  0  0  # atno 6909 bound_to 6896
  146.2441  140.0936  142.8351 H   0  0  0  0  0  0  0  0  0  0  0  0  # atno 7974 bound_to 7965
  155.1177  140.0398  157.2741 H   0  0  0  0  0  0  0  0  0  0  0  0  # atno 8008 bound_to 7997
  154.6637  140.2597  155.7055 H   0  0  0  0  0  0  0  0  0  0  0  0  # atno 8009 bound_to 7997
  156.2630  140.2811  156.1120 H   0  0  0  0  0  0  0  0  0  0  0  0  # atno 8010 bound_to 7997
  140.7241  143.5059  150.9810 H   0  0  0  0  0  0  0  0  0  0  0  0  # atno 10167 bound_to 10162
  157.4582  130.8180  149.7859 H   0  0  0  0  0  0  0  0  0  0  0  0  # atno 10718 bound_to 10713
  154.5272  135.2797  155.1211 H   0  0  0  0  0  0  0  0  0  0  0  0  # atno 10763 bound_to 10752
  154.2745  135.6297  153.5327 H   0  0  0  0  0  0  0  0  0  0  0  0  # atno 10764 bound_to 10752
  152.9949  135.5636  154.5776 H   0  0  0  0  0  0  0  0  0  0  0  0  # atno 10765 bound_to 10752
  141.1168  133.6610  156.4780 H   0  0  0  0  0  0  0  0  0  0  0  0  # atno 11005 bound_to 11000
  145.0629  140.9101  143.4928 LP  0  0  0  0  0  0  0  0  0  0  0  0  # atno 17320 bound_to 7965
  145.1055  139.2793  143.5664 LP  0  0  0  0  0  0  0  0  0  0  0  0  # atno 17321 bound_to 7965
  139.8771  143.7119  152.3161 LP  0  0  0  0  0  0  0  0  0  0  0  0  # atno 17342 bound_to 10162
  139.7388  144.7564  151.0685 LP  0  0  0  0  0  0  0  0  0  0  0  0  # atno 17343 bound_to 10162
  156.0017  130.3877  150.2582 LP  0  0  0  0  0  0  0  0  0  0  0  0  # atno 17370 bound_to 10713
  157.0758  131.0129  151.3174 LP  0  0  0  0  0  0  0  0  0  0  0  0  # atno 17371 bound_to 10713
  140.4624  134.6829  157.5091 LP  0  0  0  0  0  0  0  0  0  0  0  0  # atno 17394 bound_to 11000
  140.0095  134.6712  155.9402 LP  0  0  0  0  0  0  0  0  0  0  0  0  # atno 17395 bound_to 11000

$$$$
