AV-unprocessed.smi:1232|AV-procd|sdf|5169|dock7
  -GOLD-   22720 4243D 1   1.00000     0.00000
 Structure written by MMmdl.
 53 54  0  0  0  0  0  0  0  0  1 V2000
  146.1128  134.2596  152.6122 C   0  0  0  0  0  0  0  0  0  0  0  0
  146.7201  134.5686  153.9760 C   0  0  0  0  0  0  0  0  0  0  0  0
  146.1870  134.1433  155.0003 O   0  0  0  0  0  0  0  0  0  0  0  0
  147.8403  135.3085  153.9741 N   0  0  0  0  0  0  0  0  0  0  0  0
  148.5840  135.7294  155.1631 C   0  0  2  0  0  0  0  0  0  0  0  0
  148.6922  137.2663  155.1613 C   0  0  0  0  0  0  0  0  0  0  0  0
  148.2976  137.9223  156.1267 O   0  0  0  0  0  0  0  0  0  0  0  0
  149.2115  137.8239  154.0567 N   0  0  0  0  0  0  0  0  0  0  0  0
  149.3625  139.2584  153.8379 C   0  0  0  0  0  0  0  0  0  0  0  0
  150.0843  139.9742  154.9695 C   0  0  0  0  0  0  0  0  0  0  0  0
  151.3082  139.4820  155.4629 C   0  0  0  0  0  0  0  0  0  0  0  0
  151.9459  140.1670  156.5149 C   0  0  0  0  0  0  0  0  0  0  0  0
  151.3439  141.3327  157.0460 C   0  0  0  0  0  0  0  0  0  0  0  0
  151.9618  142.0306  158.1059 N   0  0  0  0  0  0  0  0  0  0  0  0
  152.2729  141.2892  159.3261 C   0  0  0  0  0  0  0  0  0  0  0  0
  153.1928  142.1196  160.2354 C   0  0  0  0  0  0  0  0  0  0  0  0
  152.5937  143.3849  160.4949 O   0  0  0  0  0  0  0  0  0  0  0  0
  152.3998  144.1420  159.3032 C   0  0  2  0  0  0  0  0  0  0  0  0
  151.8387  145.5140  159.6916 C   0  0  0  0  0  0  0  0  0  0  0  0
  151.4515  143.3752  158.3610 C   0  0  0  0  0  0  0  0  0  0  0  0
  150.1672  141.8051  156.5652 N   0  0  0  0  0  0  0  0  0  0  0  0
  149.5624  141.1468  155.5548 C   0  0  0  0  0  0  0  0  0  0  0  0
  150.0029  135.0879  155.1181 C   0  0  0  0  0  0  0  0  0  0  0  0
  149.9317  133.5623  154.9091 C   0  0  0  0  0  0  0  0  0  0  0  0
  150.8483  135.3866  156.3739 C   0  0  0  0  0  0  0  0  0  0  0  0
  146.1421  135.1381  151.9667 H   0  0  0  0  0  0  0  0  0  0  0  0
  145.0726  133.9487  152.7146 H   0  0  0  0  0  0  0  0  0  0  0  0
  146.6658  133.4550  152.1269 H   0  0  0  0  0  0  0  0  0  0  0  0
  148.2009  135.6173  153.0831 H   0  0  0  0  0  0  0  0  0  0  0  0
  148.0629  135.3935  156.0623 H   0  0  0  0  0  0  0  0  0  0  0  0
  149.5154  137.2122  153.3128 H   0  0  0  0  0  0  0  0  0  0  0  0
  149.8765  139.4365  152.8916 H   0  0  0  0  0  0  0  0  0  0  0  0
  148.3685  139.6943  153.7359 H   0  0  0  0  0  0  0  0  0  0  0  0
  151.7508  138.5874  155.0500 H   0  0  0  0  0  0  0  0  0  0  0  0
  152.8735  139.7822  156.9118 H   0  0  0  0  0  0  0  0  0  0  0  0
  151.3465  141.0506  159.8504 H   0  0  0  0  0  0  0  0  0  0  0  0
  152.7630  140.3460  159.0811 H   0  0  0  0  0  0  0  0  0  0  0  0
  153.3526  141.6011  161.1808 H   0  0  0  0  0  0  0  0  0  0  0  0
  154.1738  142.2550  159.7771 H   0  0  0  0  0  0  0  0  0  0  0  0
  153.3639  144.2882  158.8125 H   0  0  0  0  0  0  0  0  0  0  0  0
  151.6828  146.1378  158.8113 H   0  0  0  0  0  0  0  0  0  0  0  0
  152.5238  146.0416  160.3556 H   0  0  0  0  0  0  0  0  0  0  0  0
  150.8828  145.4176  160.2075 H   0  0  0  0  0  0  0  0  0  0  0  0
  151.3337  143.9412  157.4380 H   0  0  0  0  0  0  0  0  0  0  0  0
  150.4608  143.2930  158.8102 H   0  0  0  0  0  0  0  0  0  0  0  0
  148.6320  141.5714  155.2076 H   0  0  0  0  0  0  0  0  0  0  0  0
  150.5422  135.5013  154.2640 H   0  0  0  0  0  0  0  0  0  0  0  0
  149.3797  133.0793  155.7163 H   0  0  0  0  0  0  0  0  0  0  0  0
  150.9291  133.1226  154.8817 H   0  0  0  0  0  0  0  0  0  0  0  0
  149.4447  133.3004  153.9698 H   0  0  0  0  0  0  0  0  0  0  0  0
  150.3325  135.0739  157.2823 H   0  0  0  0  0  0  0  0  0  0  0  0
  151.0809  136.4470  156.4680 H   0  0  0  0  0  0  0  0  0  0  0  0
  151.8032  134.8614  156.3386 H   0  0  0  0  0  0  0  0  0  0  0  0
  1  2  1  0  0  0  0
  1 26  1  0  0  0  0
  1 27  1  0  0  0  0
  1 28  1  0  0  0  0
  2  3  2  0  0  0  0
  2  4  1  0  0  0  0
  4  5  1  0  0  0  0
  4 29  1  0  0  0  0
  5  6  1  0  0  0  0
  5 23  1  0  0  0  0
  5 30  1  0  0  0  0
  6  7  2  0  0  0  0
  6  8  1  0  0  0  0
  8  9  1  0  0  0  0
  8 31  1  0  0  0  0
  9 10  1  0  0  0  0
  9 32  1  0  0  0  0
  9 33  1  0  0  0  0
 10 22  1  0  0  0  0
 10 11  2  0  0  0  0
 11 12  1  0  0  0  0
 11 34  1  0  0  0  0
 12 13  2  0  0  0  0
 12 35  1  0  0  0  0
 13 14  1  0  0  0  0
 13 21  1  0  0  0  0
 14 20  1  0  0  0  0
 14 15  1  0  0  0  0
 15 16  1  0  0  0  0
 15 36  1  0  0  0  0
 15 37  1  0  0  0  0
 16 17  1  0  0  0  0
 16 38  1  0  0  0  0
 16 39  1  0  0  0  0
 17 18  1  0  0  0  0
 18 19  1  0  0  0  0
 18 20  1  0  0  0  0
 18 40  1  0  0  0  0
 19 41  1  0  0  0  0
 19 42  1  0  0  0  0
 19 43  1  0  0  0  0
 20 44  1  0  0  0  0
 20 45  1  0  0  0  0
 21 22  2  0  0  0  0
 22 46  1  0  0  0  0
 23 24  1  0  0  0  0
 23 25  1  0  0  0  0
 23 47  1  0  0  0  0
 24 48  1  0  0  0  0
 24 49  1  0  0  0  0
 24 50  1  0  0  0  0
 25 51  1  0  0  0  0
 25 52  1  0  0  0  0
 25 53  1  0  0  0  0
M  END
> <s_m_source_file>
AV-unprocessed.smi

> <i_m_source_file_index>
1232

> <i_lp_mmshare_version>
43012

> <i_f3d_flags>
0

> <s_epik_input>
W0NIM11DKD1PKVtOSF1bQ0BASF0oW0NIXShbQ0gzXSlbQ0gzXSlDKD1PKVtOSF1bQ0gyXWMxW2NIXVtjSF1jKG5bY0hdMSlOMltDSDJdW0NIMl1PW0NAQEhdKFtDSDNdKVtDSDJdMg==

> <s_epik_cmdline>
J2VwaWtfcHl0aG9uJywgJy1waCcsICc3LjAnLCAnLXRuJywgJzgnLCAnLW1hJywgJzIwMCcsICctbWV0YWxfYmluZGluZycsICctaW1hZScsICc8aW5maWxlLm1hZT4nLCAnLW9tYWUnLCAnPG91dGZpbGUubWFlPic=

> <r_lp_tautomer_probability>
1

> <r_epik_Ionization_Penalty>
0.00557618

> <r_epik_Ionization_Penalty_Charging>
0

> <r_epik_Ionization_Penalty_Neutral>
0.00557618

> <r_epik_State_Penalty>
0.00408363

> <r_epik_Charging_Adjusted_Penalty>
0.00408363

> <i_epik_Tot_Q>
0

> <i_epik_Tot_abs_Q>
0

> <r_epik_Metal_State_Penalty>
-0

> <b_epik_Metal_Only>
0

> <s_lp_Force_Field>
OPLS_2005

> <r_lp_Energy>
16.2808

> <b_lp_Chiralities_Consistent>
1

> <s_lp_Variant>
AV-unprocessed.smi:1232-3

> <Gold.Version>
5.8.1

> <Gold.Id.Protein>
6NUR|6NUR_protein|mol2

> <Gold.PLP.Fitness>
48.2615

> <Gold.PLP.PLP>
-42.6970

> <Gold.PLP.part.hbond>
-1.9932

> <Gold.PLP.part.metal>
0.0000

> <Gold.PLP.part.buried>
-3.4104

> <Gold.PLP.part.nonpolar>
-38.1031

> <Gold.PLP.part.repulsive>
0.2308

> <Gold.PLP.ligand.clash>
0.0000

> <Gold.PLP.ligand.torsion>
0.4276

> <Gold.PLP.Chemscore.Hbond>
2.0000

> <Gold.PLP.Chemscore.CHOScore>
0.0000

> <Gold.PLP.Chemscore.Metal>
0.0000

> <Gold.Chemscore.Hbonds>
donor molecule, donor type, donor heavy atom, donor atom, acceptor molecule, acceptor atom, score
      L1  H     4    29       P1  7948  1.00
      L1  H     8    31       P1  7948  0.91

> <Gold.PLP.Chemscore.Internal.Correction>
0.4197

> <Gold.Rescore>
     Score         DG    S(hbond)    S(metal)    S(lipo)     H(rot)  DE(clash)    DE(int)     intcor
     17.63     -19.29       1.99        0.00     107.95       2.13       0.00       1.66       ----

> <Gold.Chemscore.Fitness>
17.6269

> <Gold.Chemscore.DG>
-19.2915

> <Gold.Chemscore.ZeroCoef>
-5.4800

> <Gold.Chemscore.Hbond>
1.9877

> <Gold.Chemscore.Metal>
0.0000

> <Gold.Chemscore.Lipo>
107.9481

> <Gold.Chemscore.Internal_Hbond>
0.0000

> <Gold.Chemscore.DEClash>
0.0029

> <Gold.Chemscore.DEInternal>
1.6617

> <Gold.Chemscore.Rot>
2.1317

> <Gold.Chemscore.Internal.Correction>
   9.000000E+99

> <Gold.Chemscore.Hbonds>
donor molecule, donor type, donor heavy atom, donor atom, acceptor molecule, acceptor atom, score
      L1  H     4    29       P1  7948  0.95
      L1  H     8    31       P1  7948  0.76

> <Gold.Chemscore.Hbond.Weighted>
-6.6388

> <Gold.Chemscore.Metal.Weighted>
-0.0000

> <Gold.Chemscore.Lipo.Weighted>
-12.6299

> <Gold.Chemscore.Internal_Hbond.Weighted>
0.0000

> <Gold.Chemscore.DEClash.Weighted>
0.0029

> <Gold.Chemscore.DEInternal.Weighted>
1.6617

> <Gold.Chemscore.Rot.Weighted>
5.4572

> <Gold.Chemscore.Internal.Correction.Weighted>
   9.000000E+99

> <Gold.Protein.RotatedTorsions>
[ 6907 6896 6895 6894 ] final  -42.04 input  -60.11 | X-H torsion
[ 7974 7965 7964 7962 ] final  146.36 input  175.53 | X-H torsion
[ 8008 7997 7996 7995 ] final  132.78 input   59.86 | X-H torsion
[ 10167 10162 10161 10158 ] final  -56.89 input  -65.29 | X-H torsion
[ 10718 10713 10712 10709 ] final -165.39 input   66.30 | X-H torsion
[ 10763 10752 10751 10750 ] final  145.04 input  -60.55 | X-H torsion
[ 11005 11000 10999 10996 ] final -114.01 input  -57.11 | X-H torsion

> <Gold.Protein.ActiveResidues>
 VAL166  LYS551  ARG553  GLY616  TRP617  ASP618  TYR619  PRO620  LYS621  CYS622 
 ASP623  PHE694  ASN695  SER759  ASP760  ASP761  ALA762  ILE779  LEU786  VAL792 
 PHE793  MET794  SER795  GLU796  ALA797  LYS798  CYS799  TRP800  GLU811  SER814 

> <Gold.Protein.RotatedAtoms>
  150.9598  134.8987  159.7722 H   0  0  0  0  0  0  0  0  0  0  0  0  # atno 6907 bound_to 6896
  152.5152  134.3689  159.9321 H   0  0  0  0  0  0  0  0  0  0  0  0  # atno 6908 bound_to 6896
  151.3702  133.3817  159.2733 H   0  0  0  0  0  0  0  0  0  0  0  0  # atno 6909 bound_to 6896
  144.8677  139.5895  143.5901 H   0  0  0  0  0  0  0  0  0  0  0  0  # atno 7974 bound_to 7965
  156.2986  140.2538  156.3145 H   0  0  0  0  0  0  0  0  0  0  0  0  # atno 8008 bound_to 7997
  154.9294  140.0398  157.2059 H   0  0  0  0  0  0  0  0  0  0  0  0  # atno 8009 bound_to 7997
  154.8232  140.2863  155.5776 H   0  0  0  0  0  0  0  0  0  0  0  0  # atno 8010 bound_to 7997
  140.6291  143.2451  151.5288 H   0  0  0  0  0  0  0  0  0  0  0  0  # atno 10167 bound_to 10162
  156.6527  130.9014  151.3016 H   0  0  0  0  0  0  0  0  0  0  0  0  # atno 10718 bound_to 10713
  153.9988  135.2925  155.3404 H   0  0  0  0  0  0  0  0  0  0  0  0  # atno 10763 bound_to 10752
  154.7171  135.5125  153.8758 H   0  0  0  0  0  0  0  0  0  0  0  0  # atno 10764 bound_to 10752
  153.0775  135.6668  154.0232 H   0  0  0  0  0  0  0  0  0  0  0  0  # atno 10765 bound_to 10752
  141.0579  133.9583  157.2721 H   0  0  0  0  0  0  0  0  0  0  0  0  # atno 11005 bound_to 11000
  146.2908  139.7134  142.9162 LP  0  0  0  0  0  0  0  0  0  0  0  0  # atno 17320 bound_to 7965
  145.4189  141.0404  143.2975 LP  0  0  0  0  0  0  0  0  0  0  0  0  # atno 17321 bound_to 7965
  139.5507  144.2403  152.1525 LP  0  0  0  0  0  0  0  0  0  0  0  0  # atno 17342 bound_to 10162
  140.1642  144.4997  150.6615 LP  0  0  0  0  0  0  0  0  0  0  0  0  # atno 17343 bound_to 10162
  157.7135  130.9469  150.1173 LP  0  0  0  0  0  0  0  0  0  0  0  0  # atno 17370 bound_to 10713
  156.2071  130.3664  149.8715 LP  0  0  0  0  0  0  0  0  0  0  0  0  # atno 17371 bound_to 10713
  139.9406  135.0191  156.8696 LP  0  0  0  0  0  0  0  0  0  0  0  0  # atno 17394 bound_to 11000
  140.5928  134.0245  155.7506 LP  0  0  0  0  0  0  0  0  0  0  0  0  # atno 17395 bound_to 11000

$$$$
