AV-unprocessed.smi:2749|AV-procd|sdf|10588|dock8
  -GOLD-   2272015 43D 1   1.00000     0.00000
 Structure written by MMmdl.
 32 34  0  0  0  0  0  0  0  0  1 V2000
  150.4310  140.5633  156.5945 O   0  0  0  0  0  0  0  0  0  0  0  0
  149.9538  141.6816  156.4097 C   0  0  0  0  0  0  0  0  0  0  0  0
  150.1935  142.6890  157.2770 N   0  0  0  0  0  0  0  0  0  0  0  0
  150.9535  142.7415  158.4830 C   0  0  0  0  0  0  0  0  0  0  0  0
  150.9599  144.0065  159.1147 C   0  0  0  0  0  0  0  0  0  0  0  0
  151.6803  144.1842  160.3120 C   0  0  0  0  0  0  0  0  0  0  0  0
  152.3796  143.0890  160.8485 C   0  0  0  0  0  0  0  0  0  0  0  0
  153.0865  143.2108  161.9969 F   0  0  0  0  0  0  0  0  0  0  0  0
  152.3263  141.8637  160.1600 C   0  0  0  0  0  0  0  0  0  0  0  0
  151.6355  141.6934  159.0126 N   0  0  0  0  0  0  0  0  0  0  0  0
  149.1797  141.9785  155.3536 N   0  0  0  0  0  0  0  0  0  0  0  0
  148.7819  141.0616  154.2893 C   0  0  1  0  0  0  0  0  0  0  0  0
  148.5427  139.6437  154.8184 C   0  0  0  0  0  0  0  0  0  0  0  0
  147.0748  139.4083  154.4371 C   0  0  2  0  0  0  0  0  0  0  0  0
  146.8873  139.2614  152.9199 C   0  0  0  0  0  0  0  0  0  0  0  0
  147.0867  140.6985  152.4373 C   0  0  0  0  0  0  0  0  0  0  0  0
  147.3878  141.4284  153.7529 C   0  0  1  0  0  0  0  0  0  0  0  0
  146.5486  140.7072  154.6404 O   0  0  0  0  0  0  0  0  0  0  0  0
  149.7717  143.5682  157.0156 H   0  0  0  0  0  0  0  0  0  0  0  0
  150.4177  144.8384  158.6887 H   0  0  0  0  0  0  0  0  0  0  0  0
  151.6955  145.1433  160.8081 H   0  0  0  0  0  0  0  0  0  0  0  0
  152.8508  140.9983  160.5376 H   0  0  0  0  0  0  0  0  0  0  0  0
  148.8331  142.9252  155.2836 H   0  0  0  0  0  0  0  0  0  0  0  0
  149.5104  141.0591  153.4766 H   0  0  0  0  0  0  0  0  0  0  0  0
  149.2109  138.9084  154.3691 H   0  0  0  0  0  0  0  0  0  0  0  0
  148.6655  139.5923  155.9014 H   0  0  0  0  0  0  0  0  0  0  0  0
  146.5855  138.6286  155.0214 H   0  0  0  0  0  0  0  0  0  0  0  0
  147.6005  138.5634  152.4802 H   0  0  0  0  0  0  0  0  0  0  0  0
  145.8803  138.9157  152.6838 H   0  0  0  0  0  0  0  0  0  0  0  0
  147.8932  140.7955  151.7096 H   0  0  0  0  0  0  0  0  0  0  0  0
  146.1705  141.0796  151.9847 H   0  0  0  0  0  0  0  0  0  0  0  0
  147.1878  142.4998  153.7126 H   0  0  0  0  0  0  0  0  0  0  0  0
  1  2  2  0  0  0  0
  2  3  1  0  0  0  0
  2 11  1  0  0  0  0
  3  4  1  0  0  0  0
  3 19  1  0  0  0  0
  4 10  1  0  0  0  0
  4  5  2  0  0  0  0
  5  6  1  0  0  0  0
  5 20  1  0  0  0  0
  6  7  2  0  0  0  0
  6 21  1  0  0  0  0
  7  8  1  0  0  0  0
  7  9  1  0  0  0  0
  9 10  2  0  0  0  0
  9 22  1  0  0  0  0
 11 12  1  0  0  0  0
 11 23  1  0  0  0  0
 12 17  1  0  0  0  0
 12 13  1  0  0  0  0
 12 24  1  0  0  0  0
 13 14  1  0  0  0  0
 13 25  1  0  0  0  0
 13 26  1  0  0  0  0
 14 18  1  0  0  0  0
 14 15  1  0  0  0  0
 14 27  1  0  0  0  0
 15 16  1  0  0  0  0
 15 28  1  0  0  0  0
 15 29  1  0  0  0  0
 16 17  1  0  0  0  0
 16 30  1  0  0  0  0
 16 31  1  0  0  0  0
 17 18  1  0  0  0  0
 17 32  1  0  0  0  0
M  END
> <s_m_source_file>
AV-unprocessed.smi

> <i_m_source_file_index>
2749

> <i_lp_mmshare_version>
43012

> <i_f3d_flags>
0

> <s_epik_input>
W0NIMl0xW0NIMl1bQ0BIXShPMilbQ0BASF0oW0NIMl1bQ0BASF0xMilbTkhdQyg9TylbTkhdYzNbY0hdW2NIXWMoRilbY0hdbjM=

> <s_epik_cmdline>
J2VwaWtfcHl0aG9uJywgJy1waCcsICc3LjAnLCAnLXRuJywgJzgnLCAnLW1hJywgJzIwMCcsICctbWV0YWxfYmluZGluZycsICctaW1hZScsICc8aW5maWxlLm1hZT4nLCAnLW9tYWUnLCAnPG91dGZpbGUubWFlPic=

> <r_lp_tautomer_probability>
1

> <r_epik_Ionization_Penalty>
3.37159e-05

> <r_epik_Ionization_Penalty_Charging>
0

> <r_epik_Ionization_Penalty_Neutral>
3.37159e-05

> <r_epik_State_Penalty>
-0

> <r_epik_Charging_Adjusted_Penalty>
0

> <i_epik_Tot_Q>
0

> <i_epik_Tot_abs_Q>
0

> <r_epik_Metal_State_Penalty>
-0

> <b_epik_Metal_Only>
0

> <s_lp_Force_Field>
OPLS_2005

> <r_lp_Energy>
42.1361

> <b_lp_Chiralities_Consistent>
1

> <s_lp_Variant>
AV-unprocessed.smi:2749-4

> <Gold.Version>
5.8.1

> <Gold.Id.Protein>
6NUR|6NUR_protein|mol2

> <Gold.PLP.Fitness>
38.3688

> <Gold.PLP.PLP>
-33.0514

> <Gold.PLP.part.hbond>
-2.0000

> <Gold.PLP.part.metal>
0.0000

> <Gold.PLP.part.buried>
-4.3336

> <Gold.PLP.part.nonpolar>
-26.8214

> <Gold.PLP.part.repulsive>
0.3050

> <Gold.PLP.ligand.clash>
0.0000

> <Gold.PLP.ligand.torsion>
0.3563

> <Gold.PLP.Chemscore.Hbond>
2.0000

> <Gold.PLP.Chemscore.CHOScore>
0.0000

> <Gold.PLP.Chemscore.Metal>
0.0000

> <Gold.Chemscore.Hbonds>
donor molecule, donor type, donor heavy atom, donor atom, acceptor molecule, acceptor atom, score
      L1  H     3    19       P1  8028  1.00
      L1  H    11    23       P1  8028  1.00

> <Gold.PLP.Chemscore.Internal.Correction>
0.0299

> <Gold.Rescore>
     Score         DG    S(hbond)    S(metal)    S(lipo)     H(rot)  DE(clash)    DE(int)     intcor
     15.04     -19.21       1.93        0.00      84.17       1.00       1.12       3.05       ----

> <Gold.Chemscore.Fitness>
15.0439

> <Gold.Chemscore.DG>
-19.2144

> <Gold.Chemscore.ZeroCoef>
-5.4800

> <Gold.Chemscore.Hbond>
1.9302

> <Gold.Chemscore.Metal>
0.0000

> <Gold.Chemscore.Lipo>
84.1675

> <Gold.Chemscore.Internal_Hbond>
0.0000

> <Gold.Chemscore.DEClash>
1.1241

> <Gold.Chemscore.DEInternal>
3.0464

> <Gold.Chemscore.Rot>
1.0000

> <Gold.Chemscore.Internal.Correction>
   9.000000E+99

> <Gold.Chemscore.Hbonds>
donor molecule, donor type, donor heavy atom, donor atom, acceptor molecule, acceptor atom, score
      L1  H     3    19       P1  8028  0.91
      L1  H    11    23       P1  8028  0.98

> <Gold.Chemscore.Hbond.Weighted>
-6.4468

> <Gold.Chemscore.Metal.Weighted>
-0.0000

> <Gold.Chemscore.Lipo.Weighted>
-9.8476

> <Gold.Chemscore.Internal_Hbond.Weighted>
0.0000

> <Gold.Chemscore.DEClash.Weighted>
1.1241

> <Gold.Chemscore.DEInternal.Weighted>
3.0464

> <Gold.Chemscore.Rot.Weighted>
2.5600

> <Gold.Chemscore.Internal.Correction.Weighted>
   9.000000E+99

> <Gold.Protein.RotatedTorsions>
[ 6907 6896 6895 6894 ] final  -53.28 input  -60.11 | X-H torsion
[ 7974 7965 7964 7962 ] final   27.03 input  175.53 | X-H torsion
[ 8008 7997 7996 7995 ] final  -86.37 input   59.86 | X-H torsion
[ 10167 10162 10161 10158 ] final -131.54 input  -65.29 | X-H torsion
[ 10718 10713 10712 10709 ] final   15.18 input   66.30 | X-H torsion
[ 10763 10752 10751 10750 ] final   -2.17 input  -60.55 | X-H torsion
[ 11005 11000 10999 10996 ] final  111.94 input  -57.11 | X-H torsion

> <Gold.Protein.ActiveResidues>
 VAL166  LYS551  ARG553  GLY616  TRP617  ASP618  TYR619  PRO620  LYS621  CYS622 
 ASP623  PHE694  ASN695  SER759  ASP760  ASP761  ALA762  ILE779  LEU786  VAL792 
 PHE793  MET794  SER795  GLU796  ALA797  LYS798  CYS799  TRP800  GLU811  SER814 

> <Gold.Protein.RotatedAtoms>
  150.8441  134.7744  159.6956 H   0  0  0  0  0  0  0  0  0  0  0  0  # atno 6907 bound_to 6896
  152.4522  134.5366  159.9836 H   0  0  0  0  0  0  0  0  0  0  0  0  # atno 6908 bound_to 6896
  151.5499  133.3381  159.2987 H   0  0  0  0  0  0  0  0  0  0  0  0  # atno 6909 bound_to 6896
  146.1806  139.7247  142.8903 H   0  0  0  0  0  0  0  0  0  0  0  0  # atno 7974 bound_to 7965
  154.6512  140.0579  156.9957 H   0  0  0  0  0  0  0  0  0  0  0  0  # atno 8008 bound_to 7997
  155.1369  140.3262  155.4442 H   0  0  0  0  0  0  0  0  0  0  0  0  # atno 8009 bound_to 7997
  156.2577  140.1971  156.6486 H   0  0  0  0  0  0  0  0  0  0  0  0  # atno 8010 bound_to 7997
  139.9179  143.6417  152.2560 H   0  0  0  0  0  0  0  0  0  0  0  0  # atno 10167 bound_to 10162
  157.0499  130.6265  149.5766 H   0  0  0  0  0  0  0  0  0  0  0  0  # atno 10718 bound_to 10713
  153.3545  135.6987  153.6762 H   0  0  0  0  0  0  0  0  0  0  0  0  # atno 10763 bound_to 10752
  153.5475  135.3560  155.2746 H   0  0  0  0  0  0  0  0  0  0  0  0  # atno 10764 bound_to 10752
  154.8658  135.4218  154.2788 H   0  0  0  0  0  0  0  0  0  0  0  0  # atno 10765 bound_to 10752
  139.8915  134.9519  156.6509 H   0  0  0  0  0  0  0  0  0  0  0  0  # atno 11005 bound_to 11000
  145.4087  141.0394  143.3029 LP  0  0  0  0  0  0  0  0  0  0  0  0  # atno 17320 bound_to 7965
  144.8309  139.5630  143.6944 LP  0  0  0  0  0  0  0  0  0  0  0  0  # atno 17321 bound_to 7965
  139.6887  144.7649  151.1478 LP  0  0  0  0  0  0  0  0  0  0  0  0  # atno 17342 bound_to 10162
  140.7669  143.5620  150.9088 LP  0  0  0  0  0  0  0  0  0  0  0  0  # atno 17343 bound_to 10162
  156.0011  130.5090  150.7666 LP  0  0  0  0  0  0  0  0  0  0  0  0  # atno 17370 bound_to 10713
  157.5038  131.0920  151.0281 LP  0  0  0  0  0  0  0  0  0  0  0  0  # atno 17371 bound_to 10713
  140.7521  133.8888  155.8355 LP  0  0  0  0  0  0  0  0  0  0  0  0  # atno 17394 bound_to 11000
  140.9992  134.1174  157.4334 LP  0  0  0  0  0  0  0  0  0  0  0  0  # atno 17395 bound_to 11000

$$$$
