AV-unprocessed.smi:3341|AV-procd|sdf|12884|dock4
  -GOLD-   2272019293D 1   1.00000     0.00000
 Structure written by MMmdl.
 46 47  0  0  0  0  0  0  0  0  2 V2000
  153.1273  138.5065  158.8681 C   0  0  0  0  0  0  0  0  0  0  0  0
  152.5730  139.6060  157.9547 C   0  0  0  0  0  0  0  0  0  0  0  0
  152.0958  139.0675  156.6960 N   0  0  0  0  0  0  0  0  0  0  0  0
  150.8134  139.0998  156.1851 C   0  0  0  0  0  0  0  0  0  0  0  0
  150.8815  138.4678  154.9757 C   0  0  0  0  0  0  0  0  0  0  0  0
  149.8543  138.2204  154.0301 N   0  0  0  0  0  0  0  0  0  0  0  0
  148.5293  138.3317  154.2185 C   0  0  0  0  0  0  0  0  0  0  0  0
  147.9885  138.6729  155.2706 O   0  0  0  0  0  0  0  0  0  0  0  0
  147.8487  138.0198  153.1063 N   0  0  0  0  0  0  0  0  0  0  0  0
  146.3961  138.0554  152.9803 C   0  0  0  0  0  0  0  0  0  0  0  0
  145.7476  136.7692  153.5282 C   0  0  0  0  0  0  0  0  0  0  0  0
  146.1036  135.5718  152.7260 N   0  3  2  0  0  0  0  0  0  0  0  0
  145.3995  135.5417  151.4182 C   0  0  0  0  0  0  0  0  0  0  0  0
  145.9032  134.3827  150.5438 C   0  0  0  0  0  0  0  0  0  0  0  0
  145.7633  133.0401  151.2745 C   0  0  0  0  0  0  0  0  0  0  0  0
  146.4389  133.0844  152.6574 C   0  0  1  0  0  0  0  0  0  0  0  0
  147.9748  133.0449  152.5733 C   0  0  0  0  0  0  0  0  0  0  0  0
  145.9305  134.2938  153.4694 C   0  0  0  0  0  0  0  0  0  0  0  0
  152.2369  138.0777  154.8189 C   0  0  0  0  0  0  0  0  0  0  0  0
  152.9651  138.4444  155.8625 N   0  0  0  0  0  0  0  0  0  0  0  0
  153.4882  138.9278  159.8065 H   0  0  0  0  0  0  0  0  0  0  0  0
  153.9600  137.9851  158.3952 H   0  0  0  0  0  0  0  0  0  0  0  0
  152.3613  137.7687  159.1081 H   0  0  0  0  0  0  0  0  0  0  0  0
  151.7534  140.1315  158.4468 H   0  0  0  0  0  0  0  0  0  0  0  0
  153.3453  140.3473  157.7465 H   0  0  0  0  0  0  0  0  0  0  0  0
  149.9955  139.5601  156.7191 H   0  0  0  0  0  0  0  0  0  0  0  0
  150.1629  137.9331  153.1127 H   0  0  0  0  0  0  0  0  0  0  0  0
  148.3733  137.7506  152.2864 H   0  0  0  0  0  0  0  0  0  0  0  0
  145.9999  138.9324  153.4953 H   0  0  0  0  0  0  0  0  0  0  0  0
  146.1678  138.1875  151.9235 H   0  0  0  0  0  0  0  0  0  0  0  0
  146.0190  136.6106  154.5733 H   0  0  0  0  0  0  0  0  0  0  0  0
  144.6642  136.8975  153.5092 H   0  0  0  0  0  0  0  0  0  0  0  0
  144.3247  135.4515  151.5834 H   0  0  0  0  0  0  0  0  0  0  0  0
  145.5615  136.4808  150.8877 H   0  0  0  0  0  0  0  0  0  0  0  0
  145.3445  134.3543  149.6079 H   0  0  0  0  0  0  0  0  0  0  0  0
  146.9451  134.5529  150.2710 H   0  0  0  0  0  0  0  0  0  0  0  0
  144.7038  132.8129  151.4001 H   0  0  0  0  0  0  0  0  0  0  0  0
  146.1782  132.2329  150.6699 H   0  0  0  0  0  0  0  0  0  0  0  0
  146.1388  132.1825  153.1925 H   0  0  0  0  0  0  0  0  0  0  0  0
  148.3795  133.9290  152.0809 H   0  0  0  0  0  0  0  0  0  0  0  0
  148.3144  132.1707  152.0171 H   0  0  0  0  0  0  0  0  0  0  0  0
  148.4187  132.9911  153.5677 H   0  0  0  0  0  0  0  0  0  0  0  0
  146.4540  134.3290  154.4241 H   0  0  0  0  0  0  0  0  0  0  0  0
  144.8729  134.1610  153.7032 H   0  0  0  0  0  0  0  0  0  0  0  0
  152.7076  137.5531  154.0008 H   0  0  0  0  0  0  0  0  0  0  0  0
  147.0869  135.6568  152.5108 H   0  0  0  0  0  0  0  0  0  0  0  0
  1  2  1  0  0  0  0
  1 21  1  0  0  0  0
  1 22  1  0  0  0  0
  1 23  1  0  0  0  0
  2  3  1  0  0  0  0
  2 24  1  0  0  0  0
  2 25  1  0  0  0  0
  3 20  1  0  0  0  0
  3  4  1  0  0  0  0
  4  5  2  0  0  0  0
  4 26  1  0  0  0  0
  5  6  1  0  0  0  0
  5 19  1  0  0  0  0
  6  7  1  0  0  0  0
  6 27  1  0  0  0  0
  7  8  2  0  0  0  0
  7  9  1  0  0  0  0
  9 10  1  0  0  0  0
  9 28  1  0  0  0  0
 10 11  1  0  0  0  0
 10 29  1  0  0  0  0
 10 30  1  0  0  0  0
 11 12  1  0  0  0  0
 11 31  1  0  0  0  0
 11 32  1  0  0  0  0
 12 18  1  0  0  0  0
 12 13  1  0  0  0  0
 12 46  1  0  0  0  0
 13 14  1  0  0  0  0
 13 33  1  0  0  0  0
 13 34  1  0  0  0  0
 14 15  1  0  0  0  0
 14 35  1  0  0  0  0
 14 36  1  0  0  0  0
 15 16  1  0  0  0  0
 15 37  1  0  0  0  0
 15 38  1  0  0  0  0
 16 17  1  0  0  0  0
 16 18  1  0  0  0  0
 16 39  1  0  0  0  0
 17 40  1  0  0  0  0
 17 41  1  0  0  0  0
 17 42  1  0  0  0  0
 18 43  1  0  0  0  0
 18 44  1  0  0  0  0
 19 20  2  0  0  0  0
 19 45  1  0  0  0  0
M  CHG  1  12   1
M  END
> <s_m_source_file>
AV-unprocessed.smi

> <i_m_source_file_index>
3341

> <i_lp_mmshare_version>
43012

> <i_f3d_flags>
0

> <s_epik_input>
W0NIM11bQ0gyXW4xW2NIXWMoW2NIXW4xKVtOSF1DKD1PKVtOSF1bQ0gyXVtDSDJdTjJbQ0gyXVtDSDJdW0NIMl1bQ0BASF0oW0NIM10pW0NIMl0y

> <s_epik_cmdline>
J2VwaWtfcHl0aG9uJywgJy1waCcsICc3LjAnLCAnLXRuJywgJzgnLCAnLW1hJywgJzIwMCcsICctbWV0YWxfYmluZGluZycsICctaW1hZScsICc8aW5maWxlLm1hZT4nLCAnLW9tYWUnLCAnPG91dGZpbGUubWFlPic=

> <r_lp_tautomer_probability>
1

> <r_epik_Ionization_Penalty>
0.00203389

> <r_epik_Ionization_Penalty_Charging>
0.00188267

> <r_epik_Ionization_Penalty_Neutral>
0.000151224

> <r_epik_State_Penalty>
0.0012808

> <r_epik_Charging_Adjusted_Penalty>
0.00316346

> <i_epik_Tot_Q>
1

> <i_epik_Tot_abs_Q>
1

> <r_epik_Metal_State_Penalty>
-0

> <b_epik_Metal_Only>
0

> <s_lp_Force_Field>
OPLS_2005

> <r_lp_Energy>
23.1402

> <b_lp_Chiralities_Consistent>
1

> <s_lp_Variant>
AV-unprocessed.smi:3341-2

> <Gold.Version>
5.8.1

> <Gold.Id.Protein>
6NUR|6NUR_protein|mol2

> <Gold.PLP.Fitness>
46.8916

> <Gold.PLP.PLP>
-36.6296

> <Gold.PLP.part.hbond>
-5.1719

> <Gold.PLP.part.metal>
0.0000

> <Gold.PLP.part.buried>
-3.5624

> <Gold.PLP.part.nonpolar>
-27.7470

> <Gold.PLP.part.repulsive>
0.2738

> <Gold.PLP.ligand.clash>
0.0000

> <Gold.PLP.ligand.torsion>
0.3654

> <Gold.PLP.Chemscore.Hbond>
3.6560

> <Gold.PLP.Chemscore.CHOScore>
0.0000

> <Gold.PLP.Chemscore.Metal>
0.0000

> <Gold.Chemscore.Hbonds>
donor molecule, donor type, donor heavy atom, donor atom, acceptor molecule, acceptor atom, score
      L1  H     6    27       P1  7948  0.05
      L1  H     9    28       P1  7948  0.61
      L1  H    12    46       P1  7948  1.95
      P1  H  7997  8009       L1    20  0.23

> <Gold.PLP.Chemscore.Internal.Correction>
0.0248

> <Gold.Rescore>
     Score         DG    S(hbond)    S(metal)    S(lipo)     H(rot)  DE(clash)    DE(int)     intcor
     17.50     -18.93       2.64        0.00      74.44       1.59       0.08       1.35       ----

> <Gold.Chemscore.Fitness>
17.5014

> <Gold.Chemscore.DG>
-18.9324

> <Gold.Chemscore.ZeroCoef>
-5.4800

> <Gold.Chemscore.Hbond>
2.6396

> <Gold.Chemscore.Metal>
0.0000

> <Gold.Chemscore.Lipo>
74.4363

> <Gold.Chemscore.Internal_Hbond>
0.0000

> <Gold.Chemscore.DEClash>
0.0780

> <Gold.Chemscore.DEInternal>
1.3530

> <Gold.Chemscore.Rot>
1.5909

> <Gold.Chemscore.Internal.Correction>
   9.000000E+99

> <Gold.Chemscore.Hbonds>
donor molecule, donor type, donor heavy atom, donor atom, acceptor molecule, acceptor atom, score
      L1  H     6    27       P1  7948  0.01
      L1  H     9    28       P1  7948  0.62
      L1  H    12    46       P1  7948  0.91
      P1  H  7997  8009       L1    20  0.01

> <Gold.Chemscore.Hbond.Weighted>
-8.8161

> <Gold.Chemscore.Metal.Weighted>
-0.0000

> <Gold.Chemscore.Lipo.Weighted>
-8.7090

> <Gold.Chemscore.Internal_Hbond.Weighted>
0.0000

> <Gold.Chemscore.DEClash.Weighted>
0.0780

> <Gold.Chemscore.DEInternal.Weighted>
1.3530

> <Gold.Chemscore.Rot.Weighted>
4.0728

> <Gold.Chemscore.Internal.Correction.Weighted>
   9.000000E+99

> <Gold.Protein.RotatedTorsions>
[ 6907 6896 6895 6894 ] final   22.16 input  -60.11 | X-H torsion
[ 7974 7965 7964 7962 ] final  114.39 input  175.53 | X-H torsion
[ 8008 7997 7996 7995 ] final -156.30 input   59.86 | X-H torsion
[ 10167 10162 10161 10158 ] final   20.60 input  -65.29 | X-H torsion
[ 10718 10713 10712 10709 ] final -169.57 input   66.30 | X-H torsion
[ 10763 10752 10751 10750 ] final   82.94 input  -60.55 | X-H torsion
[ 11005 11000 10999 10996 ] final  -66.25 input  -57.11 | X-H torsion

> <Gold.Protein.ActiveResidues>
 VAL166  LYS551  ARG553  GLY616  TRP617  ASP618  TYR619  PRO620  LYS621  CYS622 
 ASP623  PHE694  ASN695  SER759  ASP760  ASP761  ALA762  ILE779  LEU786  VAL792 
 PHE793  MET794  SER795  GLU796  ALA797  LYS798  CYS799  TRP800  GLU811  SER814 

> <Gold.Protein.RotatedAtoms>
  151.9229  135.0290  160.0523 H   0  0  0  0  0  0  0  0  0  0  0  0  # atno 6907 bound_to 6896
  152.2184  133.4960  159.5157 H   0  0  0  0  0  0  0  0  0  0  0  0  # atno 6908 bound_to 6896
  150.6993  134.1291  159.4106 H   0  0  0  0  0  0  0  0  0  0  0  0  # atno 6909 bound_to 6896
  145.2051  139.2933  143.4298 H   0  0  0  0  0  0  0  0  0  0  0  0  # atno 7974 bound_to 7965
  155.7151  140.0783  157.2355 H   0  0  0  0  0  0  0  0  0  0  0  0  # atno 8008 bound_to 7997
  154.4053  140.1623  156.2393 H   0  0  0  0  0  0  0  0  0  0  0  0  # atno 8009 bound_to 7997
  155.9248  140.3395  155.6204 H   0  0  0  0  0  0  0  0  0  0  0  0  # atno 8010 bound_to 7997
  140.5491  143.9541  150.6566 H   0  0  0  0  0  0  0  0  0  0  0  0  # atno 10167 bound_to 10162
  156.7135  130.9242  151.3091 H   0  0  0  0  0  0  0  0  0  0  0  0  # atno 10718 bound_to 10713
  153.1247  135.4709  154.9253 H   0  0  0  0  0  0  0  0  0  0  0  0  # atno 10763 bound_to 10752
  154.7609  135.3131  154.8382 H   0  0  0  0  0  0  0  0  0  0  0  0  # atno 10764 bound_to 10752
  153.8938  135.6882  153.4813 H   0  0  0  0  0  0  0  0  0  0  0  0  # atno 10765 bound_to 10752
  141.1477  133.6696  156.6111 H   0  0  0  0  0  0  0  0  0  0  0  0  # atno 11005 bound_to 11000
  146.3409  140.2308  142.8593 LP  0  0  0  0  0  0  0  0  0  0  0  0  # atno 17320 bound_to 7965
  144.9910  140.8547  143.5339 LP  0  0  0  0  0  0  0  0  0  0  0  0  # atno 17321 bound_to 7965
  140.2962  143.3291  152.1015 LP  0  0  0  0  0  0  0  0  0  0  0  0  # atno 17342 bound_to 10162
  139.5020  144.6725  151.6209 LP  0  0  0  0  0  0  0  0  0  0  0  0  # atno 17343 bound_to 10162
  157.6927  130.9249  150.0557 LP  0  0  0  0  0  0  0  0  0  0  0  0  # atno 17370 bound_to 10713
  156.1644  130.3644  149.9253 LP  0  0  0  0  0  0  0  0  0  0  0  0  # atno 17371 bound_to 10713
  140.3614  134.7684  157.4536 LP  0  0  0  0  0  0  0  0  0  0  0  0  # atno 17394 bound_to 11000
  140.0782  134.5768  155.8568 LP  0  0  0  0  0  0  0  0  0  0  0  0  # atno 17395 bound_to 11000

$$$$
