#       Name:                AV-unprocessed.smi:2567
#       Creating user name   scv26
#       Creation time:       Fri Mar 27 14:10:57 2020


#       File generated by GOLD software.
#

@<TRIPOS>MOLECULE
AV-unprocessed.smi:2567
    38    39     1
SMALL
NO_CHARGES


@<TRIPOS>ATOM
      1 ****        -3.3150   0.2199   0.9674 C.3            1 S1                 0.0000
      2 ****        -2.6459  -0.9795   0.2682 C.3            1 S1                 0.0000
      3 ****        -3.2639  -2.2727   0.8452 C.3            1 S1                 0.0000
      4 ****        -2.9460  -0.9347  -1.2424 C.3            1 S1                 0.0000
      5 ****        -1.1527  -0.9279   0.4886 C.2            1 S1                 0.0000
      6 ****        -0.4492  -1.9320   1.0237 N.pl3          1 S1                 0.0000
      7 ****         0.8578  -1.6006   1.0670 N.2            1 S1                 0.0000
      8 ****         0.8500  -0.3744   0.5480 C.2            1 S1                 0.0000
      9 ****         2.1253   0.3857   0.3548 C.3            1 S1                 0.0000
     10 ****         2.7250   0.1647  -1.0477 C.3            1 S1                 0.0000
     11 ****         3.9105   1.0012  -1.2294 N.3            1 S1                 0.0000
     12 ****         3.6076   2.4088  -0.9735 C.3            1 S1                 0.0000
     13 ****         2.9813   2.5780   0.4227 C.3            1 S1                 0.0000
     14 ****         1.8158   1.7671   0.5255 O.3            1 S1                 0.0000
     15 ****        -0.3715   0.0945   0.1474 N.2            1 S1                 0.0000
     16 ****        -4.3972   0.2056   0.8340 H              1 S1                 0.0000
     17 ****        -2.9521   1.1689   0.5711 H              1 S1                 0.0000
     18 ****        -3.1151   0.2145   2.0396 H              1 S1                 0.0000
     19 ****        -3.0889  -2.3558   1.9185 H              1 S1                 0.0000
     20 ****        -2.8493  -3.1629   0.3704 H              1 S1                 0.0000
     21 ****        -4.3433  -2.2991   0.6910 H              1 S1                 0.0000
     22 ****        -4.0182  -0.9762  -1.4369 H              1 S1                 0.0000
     23 ****        -2.4840  -1.7747  -1.7625 H              1 S1                 0.0000
     24 ****        -2.5680  -0.0188  -1.6984 H              1 S1                 0.0000
     25 ****         2.8378   0.0772   1.1229 H              1 S1                 0.0000
     26 ****         2.9830  -0.8854  -1.1859 H              1 S1                 0.0000
     27 ****         1.9822   0.4081  -1.8087 H              1 S1                 0.0000
     28 ****         4.5153   3.0073  -1.0525 H              1 S1                 0.0000
     29 ****         2.9176   2.7836  -1.7307 H              1 S1                 0.0000
     30 ****         3.6947   2.3162   1.2057 H              1 S1                 0.0000
     31 ****         2.7006   3.6189   0.5837 H              1 S1                 0.0000
     32 ****         4.2591   0.8954  -2.1769 H              1 S1                 0.0000
     33 ****        -0.8030  -2.8196   1.3505 H              1 S1                 0.0000
     34 ****         1.6322  -2.1372   1.4022 LP             1 S1                 0.0000
     35 ****         4.6065   0.7058  -0.5750 LP             1 S1                 0.0000
     36 ****         1.4061   1.8994   1.4281 LP             1 S1                 0.0000
     37 ****         1.1637   2.0439  -0.1804 LP             1 S1                 0.0000
     38 ****        -0.6111   0.9648  -0.2829 LP             1 S1                 0.0000
@<TRIPOS>BOND
    1    1    2 1     
    2    1   16 1     
    3    1   17 1     
    4    1   18 1     
    5    2    3 1     
    6    2    4 1     
    7    2    5 1     
    8    3   19 1     
    9    3   20 1     
   10    3   21 1     
   11    4   22 1     
   12    4   23 1     
   13    4   24 1     
   14    5   15 2     
   15    5    6 1     
   16    6    7 1     
   17    6   33 1     
   18    7    8 2     
   19    8    9 1     
   20    8   15 1     
   21    9   14 1     
   22    9   10 1     
   23    9   25 1     
   24   10   11 1     
   25   10   26 1     
   26   10   27 1     
   27   11   12 1     
   28   11   32 1     
   29   12   13 1     
   30   12   28 1     
   31   12   29 1     
   32   13   14 1     
   33   13   30 1     
   34   13   31 1     
   35    7   34 1     
   36   11   35 1     
   37   14   36 1     
   38   14   37 1     
   39   15   38 1     
@<TRIPOS>SUBSTRUCTURE
      1 S1             1
@<TRIPOS>SET
LONE_PAIRS      STATIC     ATOMS    <user>   **** ""
5 34 35 36 37 38
DONOR_HYDROGENS      STATIC     ATOMS    <user>   **** ""
2 33 32
ATOM$BLUE        STATIC     ATOMS    COLORGROUP SYSTEM
5 34 35 36 37 38
ATOM$RED        STATIC     ATOMS    COLORGROUP SYSTEM
2 33 32
