AV-unprocessed.smi:3203|AV-procd|sdf|12249|dock8
  -GOLD-   2272018 83D 1   1.00000     0.00000
 Structure written by MMmdl.
 32 33  0  0  0  0  0  0  0  0  1 V2000
  151.1879  144.1788  160.4058 C   0  0  0  0  0  0  0  0  0  0  0  0
  152.1882  143.0767  160.7163 C   0  0  0  0  0  0  0  0  0  0  0  0
  152.8616  143.0839  161.9562 C   0  0  0  0  0  0  0  0  0  0  0  0
  153.7850  142.0634  162.2408 C   0  0  0  0  0  0  0  0  0  0  0  0
  153.9968  141.0723  161.2670 C   0  0  0  0  0  0  0  0  0  0  0  0
  153.3578  141.0575  160.0796 N   0  0  0  0  0  0  0  0  0  0  0  0
  152.4633  142.0355  159.7895 C   0  0  0  0  0  0  0  0  0  0  0  0
  151.7530  142.0863  158.5583 N   0  0  0  0  0  0  0  0  0  0  0  0
  151.8052  141.2338  157.5170 C   0  0  0  0  0  0  0  0  0  0  0  0
  152.5249  140.2369  157.4613 O   0  0  0  0  0  0  0  0  0  0  0  0
  150.9079  141.5737  156.3261 C   0  0  0  0  0  0  0  0  0  0  0  0
  149.9678  140.5283  156.1259 O   0  0  0  0  0  0  0  0  0  0  0  0
  149.4681  140.4885  154.8009 C   0  0  0  0  0  0  0  0  0  0  0  0
  147.9554  140.4981  154.8486 C   0  0  0  0  0  0  0  0  0  0  0  0
  147.1478  140.3733  153.5767 C   0  0  0  0  0  0  0  0  0  0  0  0
  147.1766  141.6829  154.3234 C   0  0  0  0  0  0  0  0  0  0  0  0
  151.1150  144.8921  161.2273 H   0  0  0  0  0  0  0  0  0  0  0  0
  150.1963  143.7577  160.2377 H   0  0  0  0  0  0  0  0  0  0  0  0
  151.4875  144.7271  159.5121 H   0  0  0  0  0  0  0  0  0  0  0  0
  152.6749  143.8609  162.6831 H   0  0  0  0  0  0  0  0  0  0  0  0
  154.3161  142.0406  163.1807 H   0  0  0  0  0  0  0  0  0  0  0  0
  154.6976  140.2702  161.4449 H   0  0  0  0  0  0  0  0  0  0  0  0
  151.1128  142.8607  158.4596 H   0  0  0  0  0  0  0  0  0  0  0  0
  150.3956  142.5156  156.5273 H   0  0  0  0  0  0  0  0  0  0  0  0
  151.5194  141.7080  155.4323 H   0  0  0  0  0  0  0  0  0  0  0  0
  149.8264  141.3463  154.2291 H   0  0  0  0  0  0  0  0  0  0  0  0
  149.8023  139.5816  154.2948 H   0  0  0  0  0  0  0  0  0  0  0  0
  147.5402  140.0001  155.7230 H   0  0  0  0  0  0  0  0  0  0  0  0
  147.6889  140.3216  152.6338 H   0  0  0  0  0  0  0  0  0  0  0  0
  146.2300  139.7904  153.6201 H   0  0  0  0  0  0  0  0  0  0  0  0
  146.2794  141.9733  154.8658 H   0  0  0  0  0  0  0  0  0  0  0  0
  147.7381  142.5022  153.8787 H   0  0  0  0  0  0  0  0  0  0  0  0
  1  2  1  0  0  0  0
  1 17  1  0  0  0  0
  1 18  1  0  0  0  0
  1 19  1  0  0  0  0
  2  7  1  0  0  0  0
  2  3  2  0  0  0  0
  3  4  1  0  0  0  0
  3 20  1  0  0  0  0
  4  5  2  0  0  0  0
  4 21  1  0  0  0  0
  5  6  1  0  0  0  0
  5 22  1  0  0  0  0
  6  7  2  0  0  0  0
  7  8  1  0  0  0  0
  8  9  1  0  0  0  0
  8 23  1  0  0  0  0
  9 10  2  0  0  0  0
  9 11  1  0  0  0  0
 11 12  1  0  0  0  0
 11 24  1  0  0  0  0
 11 25  1  0  0  0  0
 12 13  1  0  0  0  0
 13 14  1  0  0  0  0
 13 26  1  0  0  0  0
 13 27  1  0  0  0  0
 14 16  1  0  0  0  0
 14 15  1  0  0  0  0
 14 28  1  0  0  0  0
 15 16  1  0  0  0  0
 15 29  1  0  0  0  0
 15 30  1  0  0  0  0
 16 31  1  0  0  0  0
 16 32  1  0  0  0  0
M  END
> <s_m_source_file>
AV-unprocessed.smi

> <i_m_source_file_index>
3203

> <i_lp_mmshare_version>
43012

> <i_f3d_flags>
0

> <s_epik_input>
W0NIM11jMVtjSF1bY0hdW2NIXW5jMVtOSF1DKD1PKVtDSDJdT1tDSDJdW0NIXTJbQ0gyXVtDSDJdMg==

> <s_epik_cmdline>
J2VwaWtfcHl0aG9uJywgJy1waCcsICc3LjAnLCAnLXRuJywgJzgnLCAnLW1hJywgJzIwMCcsICctbWV0YWxfYmluZGluZycsICctaW1hZScsICc8aW5maWxlLm1hZT4nLCAnLW9tYWUnLCAnPG91dGZpbGUubWFlPic=

> <r_epik_Ionization_Penalty>
0.00323497

> <r_epik_Ionization_Penalty_Charging>
0

> <r_epik_Ionization_Penalty_Neutral>
0.00323497

> <r_epik_State_Penalty>
0.00315819

> <r_epik_Charging_Adjusted_Penalty>
0.00315819

> <i_epik_Tot_Q>
0

> <i_epik_Tot_abs_Q>
0

> <r_epik_Metal_State_Penalty>
-0

> <b_epik_Metal_Only>
0

> <s_lp_Force_Field>
OPLS_2005

> <r_lp_Energy>
15.2792

> <b_lp_Chiralities_Consistent>
1

> <s_lp_Variant>
AV-unprocessed.smi:3203-1

> <Gold.Version>
5.8.1

> <Gold.Id.Protein>
6NUR|6NUR_protein|mol2

> <Gold.PLP.Fitness>
40.1382

> <Gold.PLP.PLP>
-38.3246

> <Gold.PLP.part.hbond>
-1.0000

> <Gold.PLP.part.metal>
0.0000

> <Gold.PLP.part.buried>
-4.3905

> <Gold.PLP.part.nonpolar>
-30.9831

> <Gold.PLP.part.repulsive>
0.1167

> <Gold.PLP.ligand.clash>
0.0000

> <Gold.PLP.ligand.torsion>
0.8539

> <Gold.PLP.Chemscore.Hbond>
0.9833

> <Gold.PLP.Chemscore.CHOScore>
0.0000

> <Gold.PLP.Chemscore.Metal>
0.0000

> <Gold.Chemscore.Hbonds>
donor molecule, donor type, donor heavy atom, donor atom, acceptor molecule, acceptor atom, score
      P1  H  7997  8010       L1    10  1.00

> <Gold.PLP.Chemscore.Internal.Correction>
0.5713

> <Gold.Rescore>
     Score         DG    S(hbond)    S(metal)    S(lipo)     H(rot)  DE(clash)    DE(int)     intcor
     12.73     -15.04       0.91        0.00      89.41       1.54       0.20       2.11       ----

> <Gold.Chemscore.Fitness>
12.7317

> <Gold.Chemscore.DG>
-15.0432

> <Gold.Chemscore.ZeroCoef>
-5.4800

> <Gold.Chemscore.Hbond>
0.9082

> <Gold.Chemscore.Metal>
0.0000

> <Gold.Chemscore.Lipo>
89.4081

> <Gold.Chemscore.Internal_Hbond>
0.0000

> <Gold.Chemscore.DEClash>
0.1970

> <Gold.Chemscore.DEInternal>
2.1145

> <Gold.Chemscore.Rot>
1.5355

> <Gold.Chemscore.Internal.Correction>
   9.000000E+99

> <Gold.Chemscore.Hbonds>
donor molecule, donor type, donor heavy atom, donor atom, acceptor molecule, acceptor atom, score
      P1  H  7997  8010       L1    10  0.89

> <Gold.Chemscore.Hbond.Weighted>
-3.0333

> <Gold.Chemscore.Metal.Weighted>
-0.0000

> <Gold.Chemscore.Lipo.Weighted>
-10.4607

> <Gold.Chemscore.Internal_Hbond.Weighted>
0.0000

> <Gold.Chemscore.DEClash.Weighted>
0.1970

> <Gold.Chemscore.DEInternal.Weighted>
2.1145

> <Gold.Chemscore.Rot.Weighted>
3.9308

> <Gold.Chemscore.Internal.Correction.Weighted>
   9.000000E+99

> <Gold.Protein.RotatedTorsions>
[ 6907 6896 6895 6894 ] final  165.54 input  -60.11 | X-H torsion
[ 7974 7965 7964 7962 ] final -133.60 input  175.53 | X-H torsion
[ 8008 7997 7996 7995 ] final   53.74 input   59.86 | X-H torsion
[ 10167 10162 10161 10158 ] final  161.00 input  -65.29 | X-H torsion
[ 10718 10713 10712 10709 ] final  171.86 input   66.30 | X-H torsion
[ 10763 10752 10751 10750 ] final    9.90 input  -60.55 | X-H torsion
[ 11005 11000 10999 10996 ] final  168.59 input  -57.11 | X-H torsion

> <Gold.Protein.ActiveResidues>
 VAL166  LYS551  ARG553  GLY616  TRP617  ASP618  TYR619  PRO620  LYS621  CYS622 
 ASP623  PHE694  ASN695  SER759  ASP760  ASP761  ALA762  ILE779  LEU786  VAL792 
 PHE793  MET794  SER795  GLU796  ALA797  LYS798  CYS799  TRP800  GLU811  SER814 

> <Gold.Protein.RotatedAtoms>
  151.8929  133.3520  159.3804 H   0  0  0  0  0  0  0  0  0  0  0  0  # atno 6907 bound_to 6896
  150.7099  134.4906  159.5523 H   0  0  0  0  0  0  0  0  0  0  0  0  # atno 6908 bound_to 6896
  152.2479  134.8163  160.0501 H   0  0  0  0  0  0  0  0  0  0  0  0  # atno 6909 bound_to 6896
  144.9179  140.6977  143.4984 H   0  0  0  0  0  0  0  0  0  0  0  0  # atno 7974 bound_to 7965
  155.4732  140.3466  155.4329 H   0  0  0  0  0  0  0  0  0  0  0  0  # atno 8008 bound_to 7997
  156.1087  140.1455  156.9397 H   0  0  0  0  0  0  0  0  0  0  0  0  # atno 8009 bound_to 7997
  154.4742  140.0891  156.7198 H   0  0  0  0  0  0  0  0  0  0  0  0  # atno 8010 bound_to 7997
  139.4845  144.4579  151.8744 H   0  0  0  0  0  0  0  0  0  0  0  0  # atno 10167 bound_to 10162
  156.9873  131.0137  151.2866 H   0  0  0  0  0  0  0  0  0  0  0  0  # atno 10718 bound_to 10713
  153.2090  135.6866  153.8137 H   0  0  0  0  0  0  0  0  0  0  0  0  # atno 10763 bound_to 10752
  153.7377  135.3243  155.3299 H   0  0  0  0  0  0  0  0  0  0  0  0  # atno 10764 bound_to 10752
  154.8212  135.4651  154.0889 H   0  0  0  0  0  0  0  0  0  0  0  0  # atno 10765 bound_to 10752
  140.2889  134.7689  157.3821 H   0  0  0  0  0  0  0  0  0  0  0  0  # atno 11005 bound_to 11000
  145.3345  139.1750  143.4519 LP  0  0  0  0  0  0  0  0  0  0  0  0  # atno 17320 bound_to 7965
  146.3190  140.3379  142.8645 LP  0  0  0  0  0  0  0  0  0  0  0  0  # atno 17321 bound_to 7965
  140.4040  144.2456  150.5891 LP  0  0  0  0  0  0  0  0  0  0  0  0  # atno 17342 bound_to 10162
  140.5030  143.2312  151.8650 LP  0  0  0  0  0  0  0  0  0  0  0  0  # atno 17343 bound_to 10162
  157.5484  130.8166  149.8114 LP  0  0  0  0  0  0  0  0  0  0  0  0  # atno 17370 bound_to 10713
  156.0221  130.3792  150.1932 LP  0  0  0  0  0  0  0  0  0  0  0  0  # atno 17371 bound_to 10713
  140.1214  134.5215  155.8181 LP  0  0  0  0  0  0  0  0  0  0  0  0  # atno 17394 bound_to 11000
  141.2150  133.6757  156.6872 LP  0  0  0  0  0  0  0  0  0  0  0  0  # atno 17395 bound_to 11000

$$$$
