AV-unprocessed.smi:2826|AV-procd|sdf|10892|dock3
  -GOLD-   2272015343D 1   1.00000     0.00000
 Structure written by MMmdl.
 50 51  0  0  0  0  0  0  0  0  1 V2000
  151.2288  143.1104  157.2785 C   0  0  0  0  0  0  0  0  0  0  0  0
  151.7065  141.8203  156.9134 O   0  0  0  0  0  0  0  0  0  0  0  0
  150.9383  141.0550  156.0603 C   0  0  0  0  0  0  0  0  0  0  0  0
  149.7185  141.5822  155.5953 C   0  0  0  0  0  0  0  0  0  0  0  0
  148.9330  140.8086  154.7206 C   0  0  0  0  0  0  0  0  0  0  0  0
  149.3949  139.5295  154.3276 C   0  0  0  0  0  0  0  0  0  0  0  0
  148.6619  138.6689  153.4632 N   0  0  0  0  0  0  0  0  0  0  0  0
  147.3512  138.7048  153.1691 C   0  0  0  0  0  0  0  0  0  0  0  0
  146.5437  139.5196  153.6155 O   0  0  0  0  0  0  0  0  0  0  0  0
  147.0249  137.7429  152.2946 N   0  0  0  0  0  0  0  0  0  0  0  0
  145.6893  137.5184  151.7429 C   0  0  2  0  0  0  0  0  0  0  0  0
  144.6597  137.3661  152.8734 C   0  0  0  0  0  0  0  0  0  0  0  0
  144.8003  136.0076  153.5812 C   0  0  0  0  0  0  0  0  0  0  0  0
  144.7080  134.9520  152.6310 O   0  0  0  0  0  0  0  0  0  0  0  0
  145.7536  134.9701  151.6622 C   0  0  1  0  0  0  0  0  0  0  0  0
  145.6207  133.7208  150.7717 C   0  0  0  0  0  0  0  0  0  0  0  0
  144.1956  133.4507  150.2412 C   0  0  0  0  0  0  0  0  0  0  0  0
  143.2394  132.9519  151.3380 C   0  0  0  0  0  0  0  0  0  0  0  0
  144.2349  132.4526  149.0737 C   0  0  0  0  0  0  0  0  0  0  0  0
  145.6494  136.2711  150.8399 C   0  0  0  0  0  0  0  0  0  0  0  0
  150.6261  139.0816  154.8648 C   0  0  0  0  0  0  0  0  0  0  0  0
  151.1911  137.7151  154.5182 C   0  0  0  0  0  0  0  0  0  0  0  0
  151.3811  139.8242  155.7043 N   0  0  0  0  0  0  0  0  0  0  0  0
  151.9391  143.5784  157.9597 H   0  0  0  0  0  0  0  0  0  0  0  0
  150.2681  143.0505  157.7921 H   0  0  0  0  0  0  0  0  0  0  0  0
  151.1296  143.7595  156.4073 H   0  0  0  0  0  0  0  0  0  0  0  0
  149.3885  142.5625  155.9063 H   0  0  0  0  0  0  0  0  0  0  0  0
  147.9881  141.2043  154.3812 H   0  0  0  0  0  0  0  0  0  0  0  0
  149.2144  137.9983  152.9492 H   0  0  0  0  0  0  0  0  0  0  0  0
  147.7552  137.1217  151.9786 H   0  0  0  0  0  0  0  0  0  0  0  0
  145.4168  138.3941  151.1510 H   0  0  0  0  0  0  0  0  0  0  0  0
  144.7521  138.1818  153.5916 H   0  0  0  0  0  0  0  0  0  0  0  0
  143.6557  137.4411  152.4536 H   0  0  0  0  0  0  0  0  0  0  0  0
  145.7446  135.9420  154.1238 H   0  0  0  0  0  0  0  0  0  0  0  0
  144.0051  135.8870  154.3169 H   0  0  0  0  0  0  0  0  0  0  0  0
  146.7184  134.9489  152.1695 H   0  0  0  0  0  0  0  0  0  0  0  0
  146.3003  133.8291  149.9252 H   0  0  0  0  0  0  0  0  0  0  0  0
  145.9681  132.8459  151.3232 H   0  0  0  0  0  0  0  0  0  0  0  0
  143.7933  134.3850  149.8482 H   0  0  0  0  0  0  0  0  0  0  0  0
  143.6164  132.0446  151.8106 H   0  0  0  0  0  0  0  0  0  0  0  0
  142.2558  132.7256  150.9252 H   0  0  0  0  0  0  0  0  0  0  0  0
  143.0920  133.6995  152.1167 H   0  0  0  0  0  0  0  0  0  0  0  0
  144.6265  131.4858  149.3918 H   0  0  0  0  0  0  0  0  0  0  0  0
  144.8671  132.8177  148.2638 H   0  0  0  0  0  0  0  0  0  0  0  0
  143.2389  132.2889  148.6613 H   0  0  0  0  0  0  0  0  0  0  0  0
  144.7101  136.2678  150.2853 H   0  0  0  0  0  0  0  0  0  0  0  0
  146.4416  136.3124  150.0914 H   0  0  0  0  0  0  0  0  0  0  0  0
  151.3422  137.6286  153.4419 H   0  0  0  0  0  0  0  0  0  0  0  0
  150.5049  136.9296  154.8354 H   0  0  0  0  0  0  0  0  0  0  0  0
  152.1497  137.5406  155.0081 H   0  0  0  0  0  0  0  0  0  0  0  0
  1  2  1  0  0  0  0
  1 24  1  0  0  0  0
  1 25  1  0  0  0  0
  1 26  1  0  0  0  0
  2  3  1  0  0  0  0
  3 23  1  0  0  0  0
  3  4  2  0  0  0  0
  4  5  1  0  0  0  0
  4 27  1  0  0  0  0
  5  6  2  0  0  0  0
  5 28  1  0  0  0  0
  6  7  1  0  0  0  0
  6 21  1  0  0  0  0
  7  8  1  0  0  0  0
  7 29  1  0  0  0  0
  8  9  2  0  0  0  0
  8 10  1  0  0  0  0
 10 11  1  0  0  0  0
 10 30  1  0  0  0  0
 11 20  1  0  0  0  0
 11 12  1  0  0  0  0
 11 31  1  0  0  0  0
 12 13  1  0  0  0  0
 12 32  1  0  0  0  0
 12 33  1  0  0  0  0
 13 14  1  0  0  0  0
 13 34  1  0  0  0  0
 13 35  1  0  0  0  0
 14 15  1  0  0  0  0
 15 16  1  0  0  0  0
 15 20  1  0  0  0  0
 15 36  1  0  0  0  0
 16 17  1  0  0  0  0
 16 37  1  0  0  0  0
 16 38  1  0  0  0  0
 17 18  1  0  0  0  0
 17 19  1  0  0  0  0
 17 39  1  0  0  0  0
 18 40  1  0  0  0  0
 18 41  1  0  0  0  0
 18 42  1  0  0  0  0
 19 43  1  0  0  0  0
 19 44  1  0  0  0  0
 19 45  1  0  0  0  0
 20 46  1  0  0  0  0
 20 47  1  0  0  0  0
 21 22  1  0  0  0  0
 21 23  2  0  0  0  0
 22 48  1  0  0  0  0
 22 49  1  0  0  0  0
 22 50  1  0  0  0  0
M  END
> <s_m_source_file>
AV-unprocessed.smi

> <i_m_source_file_index>
2826

> <i_lp_mmshare_version>
43012

> <i_f3d_flags>
0

> <s_epik_input>
W0NIM11PYzFbY0hdW2NIXWMoYyhuMSlbQ0gzXSlbTkhdQyg9TylbTkhdW0NAQEhdMltDSDJdW0NIMl1PW0NASF0oW0NIMl0yKVtDSDJdW0NIXShbQ0gzXSlbQ0gzXQ==

> <s_epik_cmdline>
J2VwaWtfcHl0aG9uJywgJy1waCcsICc3LjAnLCAnLXRuJywgJzgnLCAnLW1hJywgJzIwMCcsICctbWV0YWxfYmluZGluZycsICctaW1hZScsICc8aW5maWxlLm1hZT4nLCAnLW9tYWUnLCAnPG91dGZpbGUubWFlPic=

> <r_lp_tautomer_probability>
1

> <r_epik_Ionization_Penalty>
0.000249977

> <r_epik_Ionization_Penalty_Charging>
0

> <r_epik_Ionization_Penalty_Neutral>
0.000249977

> <r_epik_State_Penalty>
-0

> <r_epik_Charging_Adjusted_Penalty>
0

> <i_epik_Tot_Q>
0

> <i_epik_Tot_abs_Q>
0

> <r_epik_Metal_State_Penalty>
-0

> <b_epik_Metal_Only>
0

> <s_lp_Force_Field>
OPLS_2005

> <r_lp_Energy>
13.0861

> <b_lp_Chiralities_Consistent>
1

> <s_lp_Variant>
AV-unprocessed.smi:2826-1

> <Gold.Version>
5.8.1

> <Gold.Id.Protein>
6NUR|6NUR_protein|mol2

> <Gold.PLP.Fitness>
43.6175

> <Gold.PLP.PLP>
-39.7294

> <Gold.PLP.part.hbond>
-2.9477

> <Gold.PLP.part.metal>
0.0000

> <Gold.PLP.part.buried>
-1.3791

> <Gold.PLP.part.nonpolar>
-38.4953

> <Gold.PLP.part.repulsive>
0.4018

> <Gold.PLP.ligand.clash>
0.7466

> <Gold.PLP.ligand.torsion>
0.2934

> <Gold.PLP.Chemscore.Hbond>
1.7073

> <Gold.PLP.Chemscore.CHOScore>
0.0000

> <Gold.PLP.Chemscore.Metal>
0.0000

> <Gold.Chemscore.Hbonds>
donor molecule, donor type, donor heavy atom, donor atom, acceptor molecule, acceptor atom, score
      L1  H     7    29       P1  7948  0.76
      L1  H    10    30       P1  7948  0.86

> <Gold.PLP.Chemscore.Internal.Correction>
0.0996

> <Gold.Rescore>
     Score         DG    S(hbond)    S(metal)    S(lipo)     H(rot)  DE(clash)    DE(int)     intcor
     13.89     -18.53       1.39        0.00     104.77       1.51       0.63       4.01       ----

> <Gold.Chemscore.Fitness>
13.8898

> <Gold.Chemscore.DG>
-18.5328

> <Gold.Chemscore.ZeroCoef>
-5.4800

> <Gold.Chemscore.Hbond>
1.3920

> <Gold.Chemscore.Metal>
0.0000

> <Gold.Chemscore.Lipo>
104.7698

> <Gold.Chemscore.Internal_Hbond>
0.0000

> <Gold.Chemscore.DEClash>
0.6329

> <Gold.Chemscore.DEInternal>
4.0100

> <Gold.Chemscore.Rot>
1.5057

> <Gold.Chemscore.Internal.Correction>
   9.000000E+99

> <Gold.Chemscore.Hbonds>
donor molecule, donor type, donor heavy atom, donor atom, acceptor molecule, acceptor atom, score
      L1  H     7    29       P1  7948  0.70
      L1  H    10    30       P1  7948  0.84

> <Gold.Chemscore.Hbond.Weighted>
-4.6494

> <Gold.Chemscore.Metal.Weighted>
-0.0000

> <Gold.Chemscore.Lipo.Weighted>
-12.2581

> <Gold.Chemscore.Internal_Hbond.Weighted>
0.0000

> <Gold.Chemscore.DEClash.Weighted>
0.6329

> <Gold.Chemscore.DEInternal.Weighted>
4.0100

> <Gold.Chemscore.Rot.Weighted>
3.8547

> <Gold.Chemscore.Internal.Correction.Weighted>
   9.000000E+99

> <Gold.Protein.RotatedTorsions>
[ 6907 6896 6895 6894 ] final  134.22 input  -60.11 | X-H torsion
[ 7974 7965 7964 7962 ] final  170.47 input  175.53 | X-H torsion
[ 8008 7997 7996 7995 ] final -140.23 input   59.86 | X-H torsion
[ 10167 10162 10161 10158 ] final   84.15 input  -65.29 | X-H torsion
[ 10718 10713 10712 10709 ] final  -43.45 input   66.30 | X-H torsion
[ 10763 10752 10751 10750 ] final  -93.42 input  -60.55 | X-H torsion
[ 11005 11000 10999 10996 ] final -117.75 input  -57.11 | X-H torsion

> <Gold.Protein.ActiveResidues>
 VAL166  LYS551  ARG553  GLY616  TRP617  ASP618  TYR619  PRO620  LYS621  CYS622 
 ASP623  PHE694  ASN695  SER759  ASP760  ASP761  ALA762  ILE779  LEU786  VAL792 
 PHE793  MET794  SER795  GLU796  ALA797  LYS798  CYS799  TRP800  GLU811  SER814 

> <Gold.Protein.RotatedAtoms>
  152.3137  133.5779  159.5697 H   0  0  0  0  0  0  0  0  0  0  0  0  # atno 6907 bound_to 6896
  150.7335  134.0115  159.3680 H   0  0  0  0  0  0  0  0  0  0  0  0  # atno 6908 bound_to 6896
  151.8005  135.0710  160.0450 H   0  0  0  0  0  0  0  0  0  0  0  0  # atno 6909 bound_to 6896
  144.7323  139.9207  143.6420 H   0  0  0  0  0  0  0  0  0  0  0  0  # atno 7974 bound_to 7965
  155.4579  140.0543  157.2994 H   0  0  0  0  0  0  0  0  0  0  0  0  # atno 8008 bound_to 7997
  154.4750  140.2057  155.9856 H   0  0  0  0  0  0  0  0  0  0  0  0  # atno 8009 bound_to 7997
  156.1117  140.3203  155.8086 H   0  0  0  0  0  0  0  0  0  0  0  0  # atno 8010 bound_to 7997
  139.9110  144.6272  150.8538 H   0  0  0  0  0  0  0  0  0  0  0  0  # atno 10167 bound_to 10162
  156.2488  130.4186  149.8673 H   0  0  0  0  0  0  0  0  0  0  0  0  # atno 10718 bound_to 10713
  154.6957  135.5195  153.8455 H   0  0  0  0  0  0  0  0  0  0  0  0  # atno 10763 bound_to 10752
  153.0665  135.6587  154.0351 H   0  0  0  0  0  0  0  0  0  0  0  0  # atno 10764 bound_to 10752
  154.0218  135.2993  155.3359 H   0  0  0  0  0  0  0  0  0  0  0  0  # atno 10765 bound_to 10752
  141.0333  133.9948  157.3109 H   0  0  0  0  0  0  0  0  0  0  0  0  # atno 11005 bound_to 11000
  146.0932  139.3922  143.0393 LP  0  0  0  0  0  0  0  0  0  0  0  0  # atno 17320 bound_to 7965
  145.7683  140.9907  143.1163 LP  0  0  0  0  0  0  0  0  0  0  0  0  # atno 17321 bound_to 7965
  140.7685  143.3366  151.2296 LP  0  0  0  0  0  0  0  0  0  0  0  0  # atno 17342 bound_to 10162
  139.6943  143.9639  152.2875 LP  0  0  0  0  0  0  0  0  0  0  0  0  # atno 17343 bound_to 10162
  156.6229  130.8634  151.3479 LP  0  0  0  0  0  0  0  0  0  0  0  0  # atno 17370 bound_to 10713
  157.7206  130.9553  150.1424 LP  0  0  0  0  0  0  0  0  0  0  0  0  # atno 17371 bound_to 10713
  139.9223  135.0201  156.8109 LP  0  0  0  0  0  0  0  0  0  0  0  0  # atno 17394 bound_to 11000
  140.6367  133.9855  155.7688 LP  0  0  0  0  0  0  0  0  0  0  0  0  # atno 17395 bound_to 11000

$$$$
