AV-unprocessed.smi:235|AV-procd|sdf|1804|dock5
  -GOLD-   2262020383D 1   1.00000     0.00000
 Structure written by MMmdl.
 54 58  0  0  0  0  0  0  0  0  1 V2000
  146.6180  137.2094  155.9064 O   0  0  0  0  0  0  0  0  0  0  0  0
  147.5411  136.8975  155.1524 C   0  0  0  0  0  0  0  0  0  0  0  0
  147.6018  137.2681  153.8652 N   0  0  0  0  0  0  0  0  0  0  0  0
  146.6276  138.0564  153.1832 C   0  0  0  0  0  0  0  0  0  0  0  0
  145.2657  137.4403  152.9463 C   0  0  0  0  0  0  0  0  0  0  0  0
  146.2166  137.6166  151.7946 C   0  0  0  0  0  0  0  0  0  0  0  0
  148.7128  136.0461  155.6671 C   0  0  1  0  0  0  0  0  0  0  0  0
  148.4245  134.5427  155.5221 C   0  0  0  0  0  0  0  0  0  0  0  0
  149.8086  133.9206  155.3662 C   0  0  0  0  0  0  0  0  0  0  0  0
  150.5787  134.9736  154.5712 C   0  0  0  0  0  0  0  0  0  0  0  0
  149.9313  136.2432  154.8767 N   0  0  0  0  0  0  0  0  0  0  0  0
  150.6750  137.3800  154.9483 C   0  0  0  0  0  0  0  0  0  0  0  0
  151.8160  137.4776  154.2148 N   0  0  0  0  0  0  0  0  0  0  0  0
  152.5655  138.5818  154.2676 C   0  0  0  0  0  0  0  0  0  0  0  0
  152.3657  139.6914  154.9795 N   0  0  0  0  0  0  0  0  0  0  0  0
  151.2270  139.6006  155.7241 C   0  0  0  0  0  0  0  0  0  0  0  0
  150.3319  138.4935  155.7691 C   0  0  0  0  0  0  0  0  0  0  0  0
  149.2945  138.7658  156.6544 N   0  0  0  0  0  0  0  0  0  0  0  0
  149.5584  139.9629  157.1013 C   0  0  0  0  0  0  0  0  0  0  0  0
  150.6971  140.5414  156.5890 N   0  0  0  0  0  0  0  0  0  0  0  0
  151.2260  141.8577  156.9090 C   0  0  0  0  0  0  0  0  0  0  0  0
  151.2544  142.1670  158.4223 C   0  0  1  0  0  0  0  0  0  0  0  0
  152.5458  141.8919  158.9286 O   0  0  0  0  0  0  0  0  0  0  0  0
  150.8944  143.6258  158.7695 C   0  0  2  0  0  0  0  0  0  0  0  0
  152.0502  144.6178  158.6247 C   0  0  0  0  0  0  0  0  0  0  0  0
  151.7047  145.7249  159.6100 C   0  0  0  0  0  0  0  0  0  0  0  0
  150.5735  145.1343  160.4557 C   0  0  0  0  0  0  0  0  0  0  0  0
  150.5731  143.7489  160.1463 O   0  0  0  0  0  0  0  0  0  0  0  0
  148.3975  136.9619  153.3246 H   0  0  0  0  0  0  0  0  0  0  0  0
  146.6426  139.1316  153.3570 H   0  0  0  0  0  0  0  0  0  0  0  0
  145.0958  136.4274  153.3067 H   0  0  0  0  0  0  0  0  0  0  0  0
  144.4024  138.1010  152.9908 H   0  0  0  0  0  0  0  0  0  0  0  0
  145.9887  138.3951  151.0691 H   0  0  0  0  0  0  0  0  0  0  0  0
  146.6802  136.7208  151.3855 H   0  0  0  0  0  0  0  0  0  0  0  0
  148.9219  136.2700  156.7152 H   0  0  0  0  0  0  0  0  0  0  0  0
  147.8816  134.1377  156.3765 H   0  0  0  0  0  0  0  0  0  0  0  0
  147.8354  134.3366  154.6264 H   0  0  0  0  0  0  0  0  0  0  0  0
  150.2646  133.7942  156.3491 H   0  0  0  0  0  0  0  0  0  0  0  0
  149.7886  132.9471  154.8758 H   0  0  0  0  0  0  0  0  0  0  0  0
  151.6374  134.9628  154.8352 H   0  0  0  0  0  0  0  0  0  0  0  0
  150.4913  134.7861  153.5003 H   0  0  0  0  0  0  0  0  0  0  0  0
  153.4529  138.5741  153.6522 H   0  0  0  0  0  0  0  0  0  0  0  0
  148.9224  140.4631  157.8173 H   0  0  0  0  0  0  0  0  0  0  0  0
  152.2335  141.9270  156.4972 H   0  0  0  0  0  0  0  0  0  0  0  0
  150.6335  142.6070  156.3823 H   0  0  0  0  0  0  0  0  0  0  0  0
  150.5542  141.4956  158.9205 H   0  0  0  0  0  0  0  0  0  0  0  0
  152.7513  140.9865  158.7523 H   0  0  0  0  0  0  0  0  0  0  0  0
  150.0436  143.9691  158.1775 H   0  0  0  0  0  0  0  0  0  0  0  0
  152.9910  144.1509  158.9194 H   0  0  0  0  0  0  0  0  0  0  0  0
  152.1625  144.9806  157.6025 H   0  0  0  0  0  0  0  0  0  0  0  0
  152.5710  145.9779  160.2226 H   0  0  0  0  0  0  0  0  0  0  0  0
  151.3759  146.6318  159.1013 H   0  0  0  0  0  0  0  0  0  0  0  0
  150.7155  145.3008  161.5237 H   0  0  0  0  0  0  0  0  0  0  0  0
  149.6138  145.5654  160.1678 H   0  0  0  0  0  0  0  0  0  0  0  0
  1  2  2  0  0  0  0
  2  3  1  0  0  0  0
  2  7  1  0  0  0  0
  3  4  1  0  0  0  0
  3 29  1  0  0  0  0
  4  6  1  0  0  0  0
  4  5  1  0  0  0  0
  4 30  1  0  0  0  0
  5  6  1  0  0  0  0
  5 31  1  0  0  0  0
  5 32  1  0  0  0  0
  6 33  1  0  0  0  0
  6 34  1  0  0  0  0
  7 11  1  0  0  0  0
  7  8  1  0  0  0  0
  7 35  1  0  0  0  0
  8  9  1  0  0  0  0
  8 36  1  0  0  0  0
  8 37  1  0  0  0  0
  9 10  1  0  0  0  0
  9 38  1  0  0  0  0
  9 39  1  0  0  0  0
 10 11  1  0  0  0  0
 10 40  1  0  0  0  0
 10 41  1  0  0  0  0
 11 12  1  0  0  0  0
 12 17  1  0  0  0  0
 12 13  2  0  0  0  0
 13 14  1  0  0  0  0
 14 15  2  0  0  0  0
 14 42  1  0  0  0  0
 15 16  1  0  0  0  0
 16 20  1  0  0  0  0
 16 17  2  0  0  0  0
 17 18  1  0  0  0  0
 18 19  2  0  0  0  0
 19 20  1  0  0  0  0
 19 43  1  0  0  0  0
 20 21  1  0  0  0  0
 21 22  1  0  0  0  0
 21 44  1  0  0  0  0
 21 45  1  0  0  0  0
 22 23  1  0  0  0  0
 22 24  1  0  0  0  0
 22 46  1  0  0  0  0
 23 47  1  0  0  0  0
 24 28  1  0  0  0  0
 24 25  1  0  0  0  0
 24 48  1  0  0  0  0
 25 26  1  0  0  0  0
 25 49  1  0  0  0  0
 25 50  1  0  0  0  0
 26 27  1  0  0  0  0
 26 51  1  0  0  0  0
 26 52  1  0  0  0  0
 27 28  1  0  0  0  0
 27 53  1  0  0  0  0
 27 54  1  0  0  0  0
M  END
> <s_m_source_file>
AV-unprocessed.smi

> <i_m_source_file_index>
235

> <i_lp_mmshare_version>
43012

> <i_f3d_flags>
0

> <s_epik_input>
W0NIMl0xW0NIMl1bQ0hdMVtOSF1DKD1PKVtDQEBIXTJbQ0gyXVtDSDJdW0NIMl1OMmMobltjSF1uMyljKGMzNCluW2NIXW40W0NIMl1bQ0BIXShbT0hdKVtDQEBIXTVbQ0gyXVtDSDJdW0NIMl1PNQ==

> <s_epik_cmdline>
J2VwaWtfcHl0aG9uJywgJy1waCcsICc3LjAnLCAnLXRuJywgJzgnLCAnLW1hJywgJzIwMCcsICctbWV0YWxfYmluZGluZycsICctaW1hZScsICc8aW5maWxlLm1hZT4nLCAnLW9tYWUnLCAnPG91dGZpbGUubWFlPic=

> <r_lp_tautomer_probability>
1

> <r_epik_Ionization_Penalty>
0.000526714

> <r_epik_Ionization_Penalty_Charging>
0

> <r_epik_Ionization_Penalty_Neutral>
0.000526714

> <r_epik_State_Penalty>
0.000272704

> <r_epik_Charging_Adjusted_Penalty>
0.000272704

> <i_epik_Tot_Q>
0

> <i_epik_Tot_abs_Q>
0

> <r_epik_Metal_State_Penalty>
-0

> <b_epik_Metal_Only>
0

> <s_lp_Force_Field>
OPLS_2005

> <r_lp_Energy>
57.0845

> <b_lp_Chiralities_Consistent>
1

> <s_lp_Variant>
AV-unprocessed.smi:235-4

> <Gold.Version>
5.8.1

> <Gold.Id.Protein>
6NUR|6NUR_protein|mol2

> <Gold.PLP.Fitness>
47.0682

> <Gold.PLP.PLP>
-42.6886

> <Gold.PLP.part.hbond>
-3.6883

> <Gold.PLP.part.metal>
0.0000

> <Gold.PLP.part.buried>
-4.7849

> <Gold.PLP.part.nonpolar>
-34.7454

> <Gold.PLP.part.repulsive>
0.2866

> <Gold.PLP.ligand.clash>
0.0000

> <Gold.PLP.ligand.torsion>
2.0173

> <Gold.PLP.Chemscore.Hbond>
2.6578

> <Gold.PLP.Chemscore.CHOScore>
0.0000

> <Gold.PLP.Chemscore.Metal>
0.0000

> <Gold.Chemscore.Hbonds>
donor molecule, donor type, donor heavy atom, donor atom, acceptor molecule, acceptor atom, score
      L1  H     3    29       P1  7948  0.94
      P1  H  7989  7998       L1    15  0.60
      P1  H  7997  8008       L1    15  0.26
      P1  H 10752 10763       L1    13  0.74

> <Gold.PLP.Chemscore.Internal.Correction>
0.4407

> <Gold.Rescore>
     Score         DG    S(hbond)    S(metal)    S(lipo)     H(rot)  DE(clash)    DE(int)     intcor
     12.47     -17.13       2.06        0.00      99.33       2.68       0.32       4.34       ----

> <Gold.Chemscore.Fitness>
12.4735

> <Gold.Chemscore.DG>
-17.1312

> <Gold.Chemscore.ZeroCoef>
-5.4800

> <Gold.Chemscore.Hbond>
2.0601

> <Gold.Chemscore.Metal>
0.0000

> <Gold.Chemscore.Lipo>
99.3259

> <Gold.Chemscore.Internal_Hbond>
0.0000

> <Gold.Chemscore.DEClash>
0.3182

> <Gold.Chemscore.DEInternal>
4.3395

> <Gold.Chemscore.Rot>
2.6760

> <Gold.Chemscore.Internal.Correction>
   9.000000E+99

> <Gold.Chemscore.Hbonds>
donor molecule, donor type, donor heavy atom, donor atom, acceptor molecule, acceptor atom, score
      L1  H     3    29       P1  7948  0.91
      P1  H  7989  7998       L1    15  0.03
      P1  H  7997  8008       L1    15  0.15
      P1  H 10752 10763       L1    13  0.53

> <Gold.Chemscore.Hbond.Weighted>
-6.8807

> <Gold.Chemscore.Metal.Weighted>
-0.0000

> <Gold.Chemscore.Lipo.Weighted>
-11.6211

> <Gold.Chemscore.Internal_Hbond.Weighted>
0.0000

> <Gold.Chemscore.DEClash.Weighted>
0.3182

> <Gold.Chemscore.DEInternal.Weighted>
4.3395

> <Gold.Chemscore.Rot.Weighted>
6.8506

> <Gold.Chemscore.Internal.Correction.Weighted>
   9.000000E+99

> <Gold.Protein.RotatedTorsions>
[ 6907 6896 6895 6894 ] final   42.37 input  -60.11 | X-H torsion
[ 7974 7965 7964 7962 ] final  166.31 input  175.53 | X-H torsion
[ 8008 7997 7996 7995 ] final  -20.89 input   59.86 | X-H torsion
[ 10167 10162 10161 10158 ] final    6.77 input  -65.29 | X-H torsion
[ 10718 10713 10712 10709 ] final  150.12 input   66.30 | X-H torsion
[ 10763 10752 10751 10750 ] final   34.03 input  -60.55 | X-H torsion
[ 11005 11000 10999 10996 ] final -175.66 input  -57.11 | X-H torsion

> <Gold.Protein.ActiveResidues>
 VAL166  LYS551  ARG553  GLY616  TRP617  ASP618  TYR619  PRO620  LYS621  CYS622 
 ASP623  PHE694  ASN695  SER759  ASP760  ASP761  ALA762  ILE779  LEU786  VAL792 
 PHE793  MET794  SER795  GLU796  ALA797  LYS798  CYS799  TRP800  GLU811  SER814 

> <Gold.Protein.RotatedAtoms>
  152.2070  134.8536  160.0501 H   0  0  0  0  0  0  0  0  0  0  0  0  # atno 6907 bound_to 6896
  151.9368  133.3621  159.3959 H   0  0  0  0  0  0  0  0  0  0  0  0  # atno 6908 bound_to 6896
  150.6967  134.4405  159.5334 H   0  0  0  0  0  0  0  0  0  0  0  0  # atno 6909 bound_to 6896
  144.7467  139.8597  143.6379 H   0  0  0  0  0  0  0  0  0  0  0  0  # atno 7974 bound_to 7965
  154.4740  140.2049  155.9923 H   0  0  0  0  0  0  0  0  0  0  0  0  # atno 8008 bound_to 7997
  156.1059  140.3236  155.7975 H   0  0  0  0  0  0  0  0  0  0  0  0  # atno 8009 bound_to 7997
  155.4719  140.0532  157.2969 H   0  0  0  0  0  0  0  0  0  0  0  0  # atno 8010 bound_to 7997
  140.6409  143.7776  150.7427 H   0  0  0  0  0  0  0  0  0  0  0  0  # atno 10167 bound_to 10162
  157.2875  131.0847  151.1486 H   0  0  0  0  0  0  0  0  0  0  0  0  # atno 10718 bound_to 10713
  153.0183  135.6371  154.1605 H   0  0  0  0  0  0  0  0  0  0  0  0  # atno 10763 bound_to 10752
  154.1342  135.2838  155.3179 H   0  0  0  0  0  0  0  0  0  0  0  0  # atno 10764 bound_to 10752
  154.6172  135.5537  153.7598 H   0  0  0  0  0  0  0  0  0  0  0  0  # atno 10765 bound_to 10752
  140.4608  134.6256  157.4842 H   0  0  0  0  0  0  0  0  0  0  0  0  # atno 11005 bound_to 11000
  146.1357  139.4402  143.0140 LP  0  0  0  0  0  0  0  0  0  0  0  0  # atno 17320 bound_to 7965
  145.7095  141.0111  143.1461 LP  0  0  0  0  0  0  0  0  0  0  0  0  # atno 17321 bound_to 7965
  140.1407  143.4444  152.2195 LP  0  0  0  0  0  0  0  0  0  0  0  0  # atno 17342 bound_to 10162
  139.5619  144.7411  151.4132 LP  0  0  0  0  0  0  0  0  0  0  0  0  # atno 17343 bound_to 10162
  157.2896  130.6790  149.6107 LP  0  0  0  0  0  0  0  0  0  0  0  0  # atno 17370 bound_to 10713
  155.9666  130.4425  150.5382 LP  0  0  0  0  0  0  0  0  0  0  0  0  # atno 17371 bound_to 10713
  139.9946  134.6931  155.9631 LP  0  0  0  0  0  0  0  0  0  0  0  0  # atno 17394 bound_to 11000
  141.1622  133.6538  156.4357 LP  0  0  0  0  0  0  0  0  0  0  0  0  # atno 17395 bound_to 11000

$$$$
