AV-unprocessed.smi:1803|AV-procd|sdf|7284|dock2
  -GOLD-   22720 8543D 1   1.00000     0.00000
 Structure written by MMmdl.
 36 38  0  0  0  0  0  0  0  0  2 V2000
  146.2083  137.9186  154.4882 O   0  0  0  0  0  0  0  0  0  0  0  0
  147.0330  137.3831  153.7501 C   0  0  0  0  0  0  0  0  0  0  0  0
  148.2422  137.9448  153.5347 N   0  0  0  0  0  0  0  0  0  0  0  0
  148.8322  139.1452  154.0290 C   0  0  0  0  0  0  0  0  0  0  0  0
  150.0687  139.2296  154.5476 N   0  0  0  0  0  0  0  0  0  0  0  0
  150.3768  140.5188  154.9602 N   0  0  0  0  0  0  0  0  0  0  0  0
  149.3601  141.3577  154.7441 C   0  0  0  0  0  0  0  0  0  0  0  0
  147.9278  140.6532  154.0149 S   0  0  0  0  0  0  0  0  0  0  0  0
  146.7914  136.2240  153.1158 N   0  0  0  0  0  0  0  0  0  0  0  0
  145.5639  135.4409  153.2114 C   0  0  1  0  0  0  0  0  0  0  0  0
  144.3001  136.2778  152.9437 C   0  0  0  0  0  0  0  0  0  0  0  0
  143.3583  135.3541  152.1464 C   0  0  0  0  0  0  0  0  0  0  0  0
  144.0458  134.0500  152.0898 N   0  3  1  0  0  0  0  0  0  0  0  0
  143.6850  133.1456  150.9762 C   0  0  0  0  0  0  0  0  0  0  0  0
  144.4410  131.8119  151.1397 C   0  0  0  0  0  0  0  0  0  0  0  0
  145.9605  132.0303  151.2885 C   0  0  0  0  0  0  0  0  0  0  0  0
  146.2701  133.0533  152.3988 C   0  0  0  0  0  0  0  0  0  0  0  0
  145.4847  134.3503  152.1401 C   0  0  2  0  0  0  0  0  0  0  0  0
  148.8245  137.4371  152.8844 H   0  0  0  0  0  0  0  0  0  0  0  0
  149.4539  142.3984  155.0175 H   0  0  0  0  0  0  0  0  0  0  0  0
  147.5227  135.8545  152.5245 H   0  0  0  0  0  0  0  0  0  0  0  0
  145.4723  134.9883  154.2012 H   0  0  0  0  0  0  0  0  0  0  0  0
  143.8468  136.6117  153.8778 H   0  0  0  0  0  0  0  0  0  0  0  0
  144.5271  137.1677  152.3545 H   0  0  0  0  0  0  0  0  0  0  0  0
  142.3780  135.2549  152.6133 H   0  0  0  0  0  0  0  0  0  0  0  0
  143.2157  135.7465  151.1382 H   0  0  0  0  0  0  0  0  0  0  0  0
  142.6085  132.9714  150.9794 H   0  0  0  0  0  0  0  0  0  0  0  0
  143.9342  133.6126  150.0220 H   0  0  0  0  0  0  0  0  0  0  0  0
  144.0655  131.2920  152.0222 H   0  0  0  0  0  0  0  0  0  0  0  0
  144.2378  131.1599  150.2898 H   0  0  0  0  0  0  0  0  0  0  0  0
  146.4571  131.0832  151.5012 H   0  0  0  0  0  0  0  0  0  0  0  0
  146.3693  132.3878  150.3425 H   0  0  0  0  0  0  0  0  0  0  0  0
  146.0029  132.6391  153.3719 H   0  0  0  0  0  0  0  0  0  0  0  0
  147.3410  133.2559  152.4271 H   0  0  0  0  0  0  0  0  0  0  0  0
  145.7855  134.7712  151.1775 H   0  0  0  0  0  0  0  0  0  0  0  0
  143.8246  133.5710  152.9509 H   0  0  0  0  0  0  0  0  0  0  0  0
  1  2  2  0  0  0  0
  2  3  1  0  0  0  0
  2  9  1  0  0  0  0
  3  4  1  0  0  0  0
  3 19  1  0  0  0  0
  4  8  1  0  0  0  0
  4  5  2  0  0  0  0
  5  6  1  0  0  0  0
  6  7  2  0  0  0  0
  7  8  1  0  0  0  0
  7 20  1  0  0  0  0
  9 10  1  0  0  0  0
  9 21  1  0  0  0  0
 10 18  1  0  0  0  0
 10 11  1  0  0  0  0
 10 22  1  0  0  0  0
 11 12  1  0  0  0  0
 11 23  1  0  0  0  0
 11 24  1  0  0  0  0
 12 13  1  0  0  0  0
 12 25  1  0  0  0  0
 12 26  1  0  0  0  0
 13 18  1  0  0  0  0
 13 14  1  0  0  0  0
 13 36  1  0  0  0  0
 14 15  1  0  0  0  0
 14 27  1  0  0  0  0
 14 28  1  0  0  0  0
 15 16  1  0  0  0  0
 15 29  1  0  0  0  0
 15 30  1  0  0  0  0
 16 17  1  0  0  0  0
 16 31  1  0  0  0  0
 16 32  1  0  0  0  0
 17 18  1  0  0  0  0
 17 33  1  0  0  0  0
 17 34  1  0  0  0  0
 18 35  1  0  0  0  0
M  CHG  1  13   1
M  END
> <s_m_source_file>
AV-unprocessed.smi

> <i_m_source_file_index>
1803

> <i_lp_mmshare_version>
43012

> <i_f3d_flags>
0

> <s_epik_input>
czFbY0hdbm5jMVtOSF1DKD1PKVtOSF1bQ0BIXShbQ0gyXVtDSDJdMilbQ0BASF0oTjIzKVtDSDJdW0NIMl1bQ0gyXVtDSDJdMw==

> <s_epik_cmdline>
J2VwaWtfcHl0aG9uJywgJy1waCcsICc3LjAnLCAnLXRuJywgJzgnLCAnLW1hJywgJzIwMCcsICctbWV0YWxfYmluZGluZycsICctaW1hZScsICc8aW5maWxlLm1hZT4nLCAnLW9tYWUnLCAnPG91dGZpbGUubWFlPic=

> <r_lp_tautomer_probability>
1

> <r_epik_Ionization_Penalty>
0.00213286

> <r_epik_Ionization_Penalty_Charging>
0.00107044

> <r_epik_Ionization_Penalty_Neutral>
0.00106242

> <r_epik_State_Penalty>
-0

> <r_epik_Charging_Adjusted_Penalty>
0.00107044

> <i_epik_Tot_Q>
1

> <i_epik_Tot_abs_Q>
1

> <r_epik_Metal_State_Penalty>
0.292783

> <b_epik_Metal_Only>
0

> <s_lp_Force_Field>
OPLS_2005

> <r_lp_Energy>
35.8309

> <b_lp_Chiralities_Consistent>
1

> <s_lp_Variant>
AV-unprocessed.smi:1803-6

> <Gold.Version>
5.8.1

> <Gold.Id.Protein>
6NUR|6NUR_protein|mol2

> <Gold.PLP.Fitness>
35.1770

> <Gold.PLP.PLP>
-25.1987

> <Gold.PLP.part.hbond>
-2.7278

> <Gold.PLP.part.metal>
0.0000

> <Gold.PLP.part.buried>
-3.1220

> <Gold.PLP.part.nonpolar>
-20.3130

> <Gold.PLP.part.repulsive>
0.3404

> <Gold.PLP.ligand.clash>
0.0000

> <Gold.PLP.ligand.torsion>
0.5140

> <Gold.PLP.Chemscore.Hbond>
2.6656

> <Gold.PLP.Chemscore.CHOScore>
1.0000

> <Gold.PLP.Chemscore.Metal>
0.0000

> <Gold.Chemscore.Hbonds>
donor molecule, donor type, donor heavy atom, donor atom, acceptor molecule, acceptor atom, score
      L1  H     3    19       P1  7948  0.98
      L1  H     9    21       P1  7948  0.88
      P1  H  7989  7998       L1     6  0.73
      L1  C     7    20       P1  8028  1.00

> <Gold.PLP.Chemscore.Internal.Correction>
0.0095

> <Gold.Rescore>
     Score         DG    S(hbond)    S(metal)    S(lipo)     H(rot)  DE(clash)    DE(int)     intcor
     14.44     -15.99       1.92        0.00      57.01       1.00       0.01       1.54       ----

> <Gold.Chemscore.Fitness>
14.4375

> <Gold.Chemscore.DG>
-15.9893

> <Gold.Chemscore.ZeroCoef>
-5.4800

> <Gold.Chemscore.Hbond>
1.9158

> <Gold.Chemscore.Metal>
0.0000

> <Gold.Chemscore.Lipo>
57.0132

> <Gold.Chemscore.Internal_Hbond>
0.0000

> <Gold.Chemscore.DEClash>
0.0144

> <Gold.Chemscore.DEInternal>
1.5373

> <Gold.Chemscore.Rot>
1.0000

> <Gold.Chemscore.Internal.Correction>
   9.000000E+99

> <Gold.Chemscore.Hbonds>
donor molecule, donor type, donor heavy atom, donor atom, acceptor molecule, acceptor atom, score
      L1  H     3    19       P1  7948  0.90
      L1  H     9    21       P1  7948  0.86
      P1  H  7989  7998       L1     6  0.04

> <Gold.Chemscore.Hbond.Weighted>
-6.3987

> <Gold.Chemscore.Metal.Weighted>
-0.0000

> <Gold.Chemscore.Lipo.Weighted>
-6.6705

> <Gold.Chemscore.Internal_Hbond.Weighted>
0.0000

> <Gold.Chemscore.DEClash.Weighted>
0.0144

> <Gold.Chemscore.DEInternal.Weighted>
1.5373

> <Gold.Chemscore.Rot.Weighted>
2.5600

> <Gold.Chemscore.Internal.Correction.Weighted>
   9.000000E+99

> <Gold.Protein.RotatedTorsions>
[ 6907 6896 6895 6894 ] final   26.71 input  -60.11 | X-H torsion
[ 7974 7965 7964 7962 ] final  109.24 input  175.53 | X-H torsion
[ 8008 7997 7996 7995 ] final   55.95 input   59.86 | X-H torsion
[ 10167 10162 10161 10158 ] final  -43.72 input  -65.29 | X-H torsion
[ 10718 10713 10712 10709 ] final   79.51 input   66.30 | X-H torsion
[ 10763 10752 10751 10750 ] final -119.32 input  -60.55 | X-H torsion
[ 11005 11000 10999 10996 ] final  -88.84 input  -57.11 | X-H torsion

> <Gold.Protein.ActiveResidues>
 VAL166  LYS551  ARG553  GLY616  TRP617  ASP618  TYR619  PRO620  LYS621  CYS622 
 ASP623  PHE694  ASN695  SER759  ASP760  ASP761  ALA762  ILE779  LEU786  VAL792 
 PHE793  MET794  SER795  GLU796  ALA797  LYS798  CYS799  TRP800  GLU811  SER814 

> <Gold.Protein.RotatedAtoms>
  151.9914  134.9977  160.0561 H   0  0  0  0  0  0  0  0  0  0  0  0  # atno 6907 bound_to 6896
  152.1604  133.4573  159.4866 H   0  0  0  0  0  0  0  0  0  0  0  0  # atno 6908 bound_to 6896
  150.6887  134.1996  159.4360 H   0  0  0  0  0  0  0  0  0  0  0  0  # atno 6909 bound_to 6896
  145.2704  139.2669  143.3969 H   0  0  0  0  0  0  0  0  0  0  0  0  # atno 7974 bound_to 7965
  155.5095  140.3476  155.4386 H   0  0  0  0  0  0  0  0  0  0  0  0  # atno 8008 bound_to 7997
  156.0859  140.1398  156.9681 H   0  0  0  0  0  0  0  0  0  0  0  0  # atno 8009 bound_to 7997
  154.4606  140.0936  156.6859 H   0  0  0  0  0  0  0  0  0  0  0  0  # atno 8010 bound_to 7997
  140.6924  143.2968  151.3392 H   0  0  0  0  0  0  0  0  0  0  0  0  # atno 10167 bound_to 10162
  157.6779  130.9918  150.1944 H   0  0  0  0  0  0  0  0  0  0  0  0  # atno 10718 bound_to 10713
  154.8614  135.4242  154.2280 H   0  0  0  0  0  0  0  0  0  0  0  0  # atno 10763 bound_to 10752
  153.3271  135.6986  153.6985 H   0  0  0  0  0  0  0  0  0  0  0  0  # atno 10764 bound_to 10752
  153.6017  135.3535  155.2921 H   0  0  0  0  0  0  0  0  0  0  0  0  # atno 10765 bound_to 10752
  141.1595  133.7594  156.9510 H   0  0  0  0  0  0  0  0  0  0  0  0  # atno 11005 bound_to 11000
  146.3248  140.3144  142.8629 LP  0  0  0  0  0  0  0  0  0  0  0  0  # atno 17320 bound_to 7965
  144.9340  140.8006  143.5671 LP  0  0  0  0  0  0  0  0  0  0  0  0  # atno 17321 bound_to 7965
  139.6340  144.0666  152.2500 LP  0  0  0  0  0  0  0  0  0  0  0  0  # atno 17342 bound_to 10162
  140.0150  144.6196  150.7615 LP  0  0  0  0  0  0  0  0  0  0  0  0  # atno 17343 bound_to 10162
  156.2648  130.3715  149.8092 LP  0  0  0  0  0  0  0  0  0  0  0  0  # atno 17370 bound_to 10713
  156.5827  130.8472  151.3387 LP  0  0  0  0  0  0  0  0  0  0  0  0  # atno 17371 bound_to 10713
  140.1257  134.9388  157.2267 LP  0  0  0  0  0  0  0  0  0  0  0  0  # atno 17394 bound_to 11000
  140.3016  134.3126  155.7288 LP  0  0  0  0  0  0  0  0  0  0  0  0  # atno 17395 bound_to 11000

$$$$
