AV-unprocessed.smi:847|AV-procd|sdf|3937|dock7
  -GOLD-   22720 1403D 1   1.00000     0.00000
 Structure written by MMmdl.
 46 47  0  0  0  0  0  0  0  0  1 V2000
  142.5193  135.4597  153.6271 C   0  0  0  0  0  0  0  0  0  0  0  0
  142.3597  136.7915  153.1714 O   0  0  0  0  0  0  0  0  0  0  0  0
  142.7749  137.7476  154.1327 C   0  0  0  0  0  0  0  0  0  0  0  0
  144.2945  137.6614  154.3025 C   0  0  0  0  0  0  0  0  0  0  0  0
  144.6918  138.5424  155.3489 O   0  0  0  0  0  0  0  0  0  0  0  0
  145.8539  139.2696  155.1920 C   0  0  0  0  0  0  0  0  0  0  0  0
  146.2899  140.0808  156.2587 C   0  0  0  0  0  0  0  0  0  0  0  0
  147.4741  140.8264  156.1046 C   0  0  0  0  0  0  0  0  0  0  0  0
  148.1828  140.7418  154.8891 C   0  0  0  0  0  0  0  0  0  0  0  0
  149.4697  141.5326  154.6980 C   0  0  0  0  0  0  0  0  0  0  0  0
  149.8938  142.2803  155.8765 N   0  0  0  0  0  0  0  0  0  0  0  0
  150.8093  141.8628  156.7674 C   0  0  0  0  0  0  0  0  0  0  0  0
  151.3961  140.7860  156.6644 O   0  0  0  0  0  0  0  0  0  0  0  0
  151.1193  142.7775  157.9719 C   0  0  2  0  0  0  0  0  0  0  0  0
  151.5718  144.1519  157.4517 C   0  0  0  0  0  0  0  0  0  0  0  0
  152.5022  144.6914  158.5212 C   0  0  0  0  0  0  0  0  0  0  0  0
  153.1088  143.4520  159.1767 C   0  0  0  0  0  0  0  0  0  0  0  0
  152.1962  142.3428  158.8868 N   0  0  0  0  0  0  0  0  0  0  0  0
  152.3018  141.1236  159.4698 C   0  0  0  0  0  0  0  0  0  0  0  0
  153.5000  140.8470  160.3813 C   0  0  0  0  0  0  0  0  0  0  0  0
  151.4726  140.2289  159.3063 O   0  0  0  0  0  0  0  0  0  0  0  0
  147.6677  139.8956  153.8819 C   0  0  0  0  0  0  0  0  0  0  0  0
  146.5333  139.1775  154.0218 N   0  0  0  0  0  0  0  0  0  0  0  0
  150.2133  142.8939  158.5693 H   0  0  0  0  0  0  0  0  0  0  0  0
  142.2014  134.7656  152.8493 H   0  0  0  0  0  0  0  0  0  0  0  0
  141.9132  135.2718  154.5145 H   0  0  0  0  0  0  0  0  0  0  0  0
  143.5627  135.2456  153.8636 H   0  0  0  0  0  0  0  0  0  0  0  0
  142.5053  138.7462  153.7857 H   0  0  0  0  0  0  0  0  0  0  0  0
  142.2731  137.5859  155.0882 H   0  0  0  0  0  0  0  0  0  0  0  0
  144.5907  136.6326  154.5147 H   0  0  0  0  0  0  0  0  0  0  0  0
  144.7759  137.9644  153.3714 H   0  0  0  0  0  0  0  0  0  0  0  0
  145.7261  140.1305  157.1784 H   0  0  0  0  0  0  0  0  0  0  0  0
  147.8293  141.4547  156.9080 H   0  0  0  0  0  0  0  0  0  0  0  0
  150.2724  140.8657  154.3785 H   0  0  0  0  0  0  0  0  0  0  0  0
  149.3166  142.2419  153.8846 H   0  0  0  0  0  0  0  0  0  0  0  0
  149.4602  143.1793  156.0284 H   0  0  0  0  0  0  0  0  0  0  0  0
  152.1330  144.0559  156.5199 H   0  0  0  0  0  0  0  0  0  0  0  0
  150.7323  144.8207  157.2587 H   0  0  0  0  0  0  0  0  0  0  0  0
  153.2552  145.3740  158.1260 H   0  0  0  0  0  0  0  0  0  0  0  0
  151.9157  145.2386  159.2603 H   0  0  0  0  0  0  0  0  0  0  0  0
  154.0835  143.2345  158.7375 H   0  0  0  0  0  0  0  0  0  0  0  0
  153.2449  143.6104  160.2474 H   0  0  0  0  0  0  0  0  0  0  0  0
  154.4380  141.0574  159.8670 H   0  0  0  0  0  0  0  0  0  0  0  0
  153.5161  139.8001  160.6866 H   0  0  0  0  0  0  0  0  0  0  0  0
  153.4481  141.4571  161.2833 H   0  0  0  0  0  0  0  0  0  0  0  0
  148.1764  139.7847  152.9356 H   0  0  0  0  0  0  0  0  0  0  0  0
  1  2  1  0  0  0  0
  1 25  1  0  0  0  0
  1 26  1  0  0  0  0
  1 27  1  0  0  0  0
  2  3  1  0  0  0  0
  3  4  1  0  0  0  0
  3 28  1  0  0  0  0
  3 29  1  0  0  0  0
  4  5  1  0  0  0  0
  4 30  1  0  0  0  0
  4 31  1  0  0  0  0
  5  6  1  0  0  0  0
  6 23  1  0  0  0  0
  6  7  2  0  0  0  0
  7  8  1  0  0  0  0
  7 32  1  0  0  0  0
  8  9  2  0  0  0  0
  8 33  1  0  0  0  0
  9 10  1  0  0  0  0
  9 22  1  0  0  0  0
 10 11  1  0  0  0  0
 10 34  1  0  0  0  0
 10 35  1  0  0  0  0
 11 12  1  0  0  0  0
 11 36  1  0  0  0  0
 12 13  2  0  0  0  0
 12 14  1  0  0  0  0
 14 24  1  0  0  0  0
 14 18  1  0  0  0  0
 14 15  1  0  0  0  0
 15 16  1  0  0  0  0
 15 37  1  0  0  0  0
 15 38  1  0  0  0  0
 16 17  1  0  0  0  0
 16 39  1  0  0  0  0
 16 40  1  0  0  0  0
 17 18  1  0  0  0  0
 17 41  1  0  0  0  0
 17 42  1  0  0  0  0
 18 19  1  0  0  0  0
 19 20  1  0  0  0  0
 19 21  2  0  0  0  0
 20 43  1  0  0  0  0
 20 44  1  0  0  0  0
 20 45  1  0  0  0  0
 22 23  2  0  0  0  0
 22 46  1  0  0  0  0
M  END
> <s_m_source_file>
AV-unprocessed.smi

> <i_m_source_file_index>
847

> <i_lp_mmshare_version>
43012

> <i_f3d_flags>
0

> <s_epik_input>
W0NIM11PW0NIMl1bQ0gyXU9jMVtjSF1bY0hdYyhbY0hdbjEpW0NIMl1bTkhdQyg9TylbQ0BASF0yW0NIMl1bQ0gyXVtDSDJdTjJDKD1PKVtDSDNd

> <s_epik_cmdline>
J2VwaWtfcHl0aG9uJywgJy1waCcsICc3LjAnLCAnLXRuJywgJzgnLCAnLW1hJywgJzIwMCcsICctbWV0YWxfYmluZGluZycsICctaW1hZScsICc8aW5maWxlLm1hZT4nLCAnLW9tYWUnLCAnPG91dGZpbGUubWFlPic=

> <r_lp_tautomer_probability>
1

> <r_epik_Ionization_Penalty>
6.04138e-05

> <r_epik_Ionization_Penalty_Charging>
0

> <r_epik_Ionization_Penalty_Neutral>
6.04138e-05

> <r_epik_State_Penalty>
-0

> <r_epik_Charging_Adjusted_Penalty>
0

> <i_epik_Tot_Q>
0

> <i_epik_Tot_abs_Q>
0

> <r_epik_Metal_State_Penalty>
-0

> <b_epik_Metal_Only>
0

> <s_lp_Force_Field>
OPLS_2005

> <r_lp_Energy>
14.576

> <b_lp_Chiralities_Consistent>
1

> <s_lp_Variant>
AV-unprocessed.smi:847-1

> <Gold.Version>
5.8.1

> <Gold.Id.Protein>
6NUR|6NUR_protein|mol2

> <Gold.PLP.Fitness>
42.9012

> <Gold.PLP.PLP>
-37.7897

> <Gold.PLP.part.hbond>
-1.0000

> <Gold.PLP.part.metal>
0.0000

> <Gold.PLP.part.buried>
-3.9806

> <Gold.PLP.part.nonpolar>
-33.3481

> <Gold.PLP.part.repulsive>
0.5506

> <Gold.PLP.ligand.clash>
0.0000

> <Gold.PLP.ligand.torsion>
0.5284

> <Gold.PLP.Chemscore.Hbond>
1.0000

> <Gold.PLP.Chemscore.CHOScore>
1.0000

> <Gold.PLP.Chemscore.Metal>
0.0000

> <Gold.Chemscore.Hbonds>
donor molecule, donor type, donor heavy atom, donor atom, acceptor molecule, acceptor atom, score
      L1  H    11    36       P1  8028  1.00
      L1  C    22    46       P1  7957  1.00

> <Gold.PLP.Chemscore.Internal.Correction>
0.1683

> <Gold.Rescore>
     Score         DG    S(hbond)    S(metal)    S(lipo)     H(rot)  DE(clash)    DE(int)     intcor
     10.03     -13.81       1.00        0.00      93.21       2.31       0.10       3.69       ----

> <Gold.Chemscore.Fitness>
10.0281

> <Gold.Chemscore.DG>
-13.8138

> <Gold.Chemscore.ZeroCoef>
-5.4800

> <Gold.Chemscore.Hbond>
0.9976

> <Gold.Chemscore.Metal>
0.0000

> <Gold.Chemscore.Lipo>
93.2122

> <Gold.Chemscore.Internal_Hbond>
0.0000

> <Gold.Chemscore.DEClash>
0.1004

> <Gold.Chemscore.DEInternal>
3.6853

> <Gold.Chemscore.Rot>
2.3062

> <Gold.Chemscore.Internal.Correction>
   9.000000E+99

> <Gold.Chemscore.Hbonds>
donor molecule, donor type, donor heavy atom, donor atom, acceptor molecule, acceptor atom, score
      L1  H    11    36       P1  8028  0.99

> <Gold.Chemscore.Hbond.Weighted>
-3.3318

> <Gold.Chemscore.Metal.Weighted>
-0.0000

> <Gold.Chemscore.Lipo.Weighted>
-10.9058

> <Gold.Chemscore.Internal_Hbond.Weighted>
0.0000

> <Gold.Chemscore.DEClash.Weighted>
0.1004

> <Gold.Chemscore.DEInternal.Weighted>
3.6853

> <Gold.Chemscore.Rot.Weighted>
5.9038

> <Gold.Chemscore.Internal.Correction.Weighted>
   9.000000E+99

> <Gold.Protein.RotatedTorsions>
[ 6907 6896 6895 6894 ] final  -61.06 input  -60.11 | X-H torsion
[ 7974 7965 7964 7962 ] final  -66.59 input  175.53 | X-H torsion
[ 8008 7997 7996 7995 ] final   36.08 input   59.86 | X-H torsion
[ 10167 10162 10161 10158 ] final  -58.98 input  -65.29 | X-H torsion
[ 10718 10713 10712 10709 ] final  -41.07 input   66.30 | X-H torsion
[ 10763 10752 10751 10750 ] final -166.90 input  -60.55 | X-H torsion
[ 11005 11000 10999 10996 ] final -102.77 input  -57.11 | X-H torsion

> <Gold.Protein.ActiveResidues>
 VAL166  LYS551  ARG553  GLY616  TRP617  ASP618  TYR619  PRO620  LYS621  CYS622 
 ASP623  PHE694  ASN695  SER759  ASP760  ASP761  ALA762  ILE779  LEU786  VAL792 
 PHE793  MET794  SER795  GLU796  ALA797  LYS798  CYS799  TRP800  GLU811  SER814 

> <Gold.Protein.RotatedAtoms>
  150.7811  134.6755  159.6414 H   0  0  0  0  0  0  0  0  0  0  0  0  # atno 6907 bound_to 6896
  152.3896  134.6459  160.0121 H   0  0  0  0  0  0  0  0  0  0  0  0  # atno 6908 bound_to 6896
  151.6764  133.3276  159.3245 H   0  0  0  0  0  0  0  0  0  0  0  0  # atno 6909 bound_to 6896
  145.7399  140.8958  143.0535 H   0  0  0  0  0  0  0  0  0  0  0  0  # atno 7974 bound_to 7965
  155.1815  140.3300  155.4374 H   0  0  0  0  0  0  0  0  0  0  0  0  # atno 8008 bound_to 7997
  156.2475  140.1926  156.6863 H   0  0  0  0  0  0  0  0  0  0  0  0  # atno 8009 bound_to 7997
  154.6268  140.0588  156.9669 H   0  0  0  0  0  0  0  0  0  0  0  0  # atno 8010 bound_to 7997
  140.6164  143.2404  151.5587 H   0  0  0  0  0  0  0  0  0  0  0  0  # atno 10167 bound_to 10162
  156.2743  130.4210  149.8404 H   0  0  0  0  0  0  0  0  0  0  0  0  # atno 10718 bound_to 10713
  154.6787  135.2951  154.9643 H   0  0  0  0  0  0  0  0  0  0  0  0  # atno 10763 bound_to 10752
  154.0645  135.6626  153.4820 H   0  0  0  0  0  0  0  0  0  0  0  0  # atno 10764 bound_to 10752
  153.0533  135.5160  154.7819 H   0  0  0  0  0  0  0  0  0  0  0  0  # atno 10765 bound_to 10752
  141.1175  133.8585  157.1401 H   0  0  0  0  0  0  0  0  0  0  0  0  # atno 11005 bound_to 11000
  144.6873  139.9446  143.7476 LP  0  0  0  0  0  0  0  0  0  0  0  0  # atno 17320 bound_to 7965
  146.0458  139.3464  143.0670 LP  0  0  0  0  0  0  0  0  0  0  0  0  # atno 17321 bound_to 7965
  139.5402  144.2669  152.1335 LP  0  0  0  0  0  0  0  0  0  0  0  0  # atno 17342 bound_to 10162
  140.1879  144.4780  150.6494 LP  0  0  0  0  0  0  0  0  0  0  0  0  # atno 17343 bound_to 10162
  156.5874  130.8492  151.3399 LP  0  0  0  0  0  0  0  0  0  0  0  0  # atno 17370 bound_to 10713
  157.7294  130.9671  150.1786 LP  0  0  0  0  0  0  0  0  0  0  0  0  # atno 17371 bound_to 10713
  140.0107  134.9989  157.0390 LP  0  0  0  0  0  0  0  0  0  0  0  0  # atno 17394 bound_to 11000
  140.4604  134.1490  155.7190 LP  0  0  0  0  0  0  0  0  0  0  0  0  # atno 17395 bound_to 11000

$$$$
