AV-unprocessed.smi:794|AV-procd|sdf|3756|dock8
  -GOLD-   22720 1193D 1   1.00000     0.00000
 Structure written by MMmdl.
 41 43  0  0  0  0  0  0  0  0  1 V2000
  141.8566  134.5153  152.8843 C   0  0  0  0  0  0  0  0  0  0  0  0
  143.2929  134.5028  152.4598 C   0  0  0  0  0  0  0  0  0  0  0  0
  144.1775  135.4481  152.9875 N   0  0  0  0  0  0  0  0  0  0  0  0
  145.4175  135.3036  152.5097 C   0  0  0  0  0  0  0  0  0  0  0  0
  146.5169  136.1252  152.8718 N   0  0  0  0  0  0  0  0  0  0  0  0
  146.5635  137.0829  153.8144 C   0  0  0  0  0  0  0  0  0  0  0  0
  145.6253  137.4107  154.5414 O   0  0  0  0  0  0  0  0  0  0  0  0
  147.7780  137.6477  153.8688 N   0  0  0  0  0  0  0  0  0  0  0  0
  148.1811  138.6992  154.8002 C   0  0  2  0  0  0  0  0  0  0  0  0
  147.1498  139.8493  154.7986 C   0  0  1  0  0  0  0  0  0  0  0  0
  147.3849  140.7242  156.0429 C   0  0  0  0  0  0  0  0  0  0  0  0
  148.6963  141.4528  155.6938 C   0  0  0  0  0  0  0  0  0  0  0  0
  149.0416  140.8950  154.2957 C   0  0  2  0  0  0  0  0  0  0  0  0
  147.6532  140.7608  153.6830 C   0  0  0  0  0  0  0  0  0  0  0  0
  149.4845  139.4135  154.3571 C   0  0  1  0  0  0  0  0  0  0  0  0
  150.7114  139.1377  155.2475 C   0  0  0  0  0  0  0  0  0  0  0  0
  151.8169  139.8908  154.7976 O   0  0  0  0  0  0  0  0  0  0  0  0
  145.5815  133.9827  151.3658 S   0  0  0  0  0  0  0  0  0  0  0  0
  143.8824  133.6345  151.5701 C   0  0  0  0  0  0  0  0  0  0  0  0
  143.2350  132.5132  150.8279 C   0  0  0  0  0  0  0  0  0  0  0  0
  141.1942  134.6084  152.0237 H   0  0  0  0  0  0  0  0  0  0  0  0
  141.6408  135.3471  153.5557 H   0  0  0  0  0  0  0  0  0  0  0  0
  141.5944  133.5950  153.4062 H   0  0  0  0  0  0  0  0  0  0  0  0
  147.3683  135.9620  152.3551 H   0  0  0  0  0  0  0  0  0  0  0  0
  148.4850  137.3155  153.2295 H   0  0  0  0  0  0  0  0  0  0  0  0
  148.2699  138.2874  155.8075 H   0  0  0  0  0  0  0  0  0  0  0  0
  146.1153  139.5194  154.6953 H   0  0  0  0  0  0  0  0  0  0  0  0
  146.5727  141.4405  156.1740 H   0  0  0  0  0  0  0  0  0  0  0  0
  147.4634  140.1378  156.9593 H   0  0  0  0  0  0  0  0  0  0  0  0
  148.5257  142.5289  155.6421 H   0  0  0  0  0  0  0  0  0  0  0  0
  149.4805  141.2863  156.4313 H   0  0  0  0  0  0  0  0  0  0  0  0
  149.7262  141.5290  153.7314 H   0  0  0  0  0  0  0  0  0  0  0  0
  147.6548  140.2861  152.7003 H   0  0  0  0  0  0  0  0  0  0  0  0
  147.1125  141.7071  153.6197 H   0  0  0  0  0  0  0  0  0  0  0  0
  149.7387  139.1179  153.3368 H   0  0  0  0  0  0  0  0  0  0  0  0
  150.5023  139.4198  156.2796 H   0  0  0  0  0  0  0  0  0  0  0  0
  150.9810  138.0816  155.2452 H   0  0  0  0  0  0  0  0  0  0  0  0
  152.6018  139.3793  154.9212 H   0  0  0  0  0  0  0  0  0  0  0  0
  142.7819  131.8025  151.5192 H   0  0  0  0  0  0  0  0  0  0  0  0
  143.9584  131.9728  150.2171 H   0  0  0  0  0  0  0  0  0  0  0  0
  142.4523  132.8886  150.1685 H   0  0  0  0  0  0  0  0  0  0  0  0
  1  2  1  0  0  0  0
  1 21  1  0  0  0  0
  1 22  1  0  0  0  0
  1 23  1  0  0  0  0
  2 19  2  0  0  0  0
  2  3  1  0  0  0  0
  3  4  2  0  0  0  0
  4  5  1  0  0  0  0
  4 18  1  0  0  0  0
  5  6  1  0  0  0  0
  5 24  1  0  0  0  0
  6  7  2  0  0  0  0
  6  8  1  0  0  0  0
  8  9  1  0  0  0  0
  8 25  1  0  0  0  0
  9 15  1  0  0  0  0
  9 10  1  0  0  0  0
  9 26  1  0  0  0  0
 10 14  1  0  0  0  0
 10 11  1  0  0  0  0
 10 27  1  0  0  0  0
 11 12  1  0  0  0  0
 11 28  1  0  0  0  0
 11 29  1  0  0  0  0
 12 13  1  0  0  0  0
 12 30  1  0  0  0  0
 12 31  1  0  0  0  0
 13 14  1  0  0  0  0
 13 15  1  0  0  0  0
 13 32  1  0  0  0  0
 14 33  1  0  0  0  0
 14 34  1  0  0  0  0
 15 16  1  0  0  0  0
 15 35  1  0  0  0  0
 16 17  1  0  0  0  0
 16 36  1  0  0  0  0
 16 37  1  0  0  0  0
 17 38  1  0  0  0  0
 18 19  1  0  0  0  0
 19 20  1  0  0  0  0
 20 39  1  0  0  0  0
 20 40  1  0  0  0  0
 20 41  1  0  0  0  0
M  END
> <s_m_source_file>
AV-unprocessed.smi

> <i_m_source_file_index>
794

> <i_lp_mmshare_version>
43012

> <i_f3d_flags>
0

> <s_epik_input>
W0NIM11jMW5jKHNjMVtDSDNdKVtOSF1DKD1PKVtOSF1bQ0BIXShbQ0BASF0yMylbQ0BIXShbQ0gyXVtPSF0pW0NAQEhdKFtDSDJdMylbQ0gyXVtDSDJdMg==

> <s_epik_cmdline>
J2VwaWtfcHl0aG9uJywgJy1waCcsICc3LjAnLCAnLXRuJywgJzgnLCAnLW1hJywgJzIwMCcsICctbWV0YWxfYmluZGluZycsICctaW1hZScsICc8aW5maWxlLm1hZT4nLCAnLW9tYWUnLCAnPG91dGZpbGUubWFlPic=

> <r_lp_tautomer_probability>
0.999

> <r_epik_Ionization_Penalty>
0.000713029

> <r_epik_Ionization_Penalty_Charging>
0

> <r_epik_Ionization_Penalty_Neutral>
0.000713029

> <r_epik_State_Penalty>
0.000177984

> <r_epik_Charging_Adjusted_Penalty>
0.000177984

> <i_epik_Tot_Q>
0

> <i_epik_Tot_abs_Q>
0

> <r_epik_Metal_State_Penalty>
-0

> <b_epik_Metal_Only>
0

> <s_lp_Force_Field>
OPLS_2005

> <r_lp_Energy>
47.5891

> <b_lp_Chiralities_Consistent>
1

> <s_lp_Variant>
AV-unprocessed.smi:794-1

> <Gold.Version>
5.8.1

> <Gold.Id.Protein>
6NUR|6NUR_protein|mol2

> <Gold.PLP.Fitness>
38.9625

> <Gold.PLP.PLP>
-30.3080

> <Gold.PLP.part.hbond>
-3.0000

> <Gold.PLP.part.metal>
0.0000

> <Gold.PLP.part.buried>
-4.0140

> <Gold.PLP.part.nonpolar>
-24.5570

> <Gold.PLP.part.repulsive>
0.1470

> <Gold.PLP.ligand.clash>
0.0000

> <Gold.PLP.ligand.torsion>
0.1711

> <Gold.PLP.Chemscore.Hbond>
2.9920

> <Gold.PLP.Chemscore.CHOScore>
0.0000

> <Gold.PLP.Chemscore.Metal>
0.0000

> <Gold.Chemscore.Hbonds>
donor molecule, donor type, donor heavy atom, donor atom, acceptor molecule, acceptor atom, score
      L1  H     5    24       P1  7948  1.00
      L1  H     8    25       P1  7948  1.00
      P1  H  7989  7998       L1    17  0.99

> <Gold.PLP.Chemscore.Internal.Correction>
0.0206

> <Gold.Rescore>
     Score         DG    S(hbond)    S(metal)    S(lipo)     H(rot)  DE(clash)    DE(int)     intcor
     16.75     -19.46       2.90        0.00      75.56       1.78       0.01       2.70       ----

> <Gold.Chemscore.Fitness>
16.7512

> <Gold.Chemscore.DG>
-19.4636

> <Gold.Chemscore.ZeroCoef>
-5.4800

> <Gold.Chemscore.Hbond>
2.9041

> <Gold.Chemscore.Metal>
0.0000

> <Gold.Chemscore.Lipo>
75.5580

> <Gold.Chemscore.Internal_Hbond>
0.0000

> <Gold.Chemscore.DEClash>
0.0137

> <Gold.Chemscore.DEInternal>
2.6987

> <Gold.Chemscore.Rot>
1.7798

> <Gold.Chemscore.Internal.Correction>
   9.000000E+99

> <Gold.Chemscore.Hbonds>
donor molecule, donor type, donor heavy atom, donor atom, acceptor molecule, acceptor atom, score
      L1  H     5    24       P1  7948  0.99
      L1  H     8    25       P1  7948  0.94
      P1  H  7989  7998       L1    17  0.89

> <Gold.Chemscore.Hbond.Weighted>
-9.6996

> <Gold.Chemscore.Metal.Weighted>
-0.0000

> <Gold.Chemscore.Lipo.Weighted>
-8.8403

> <Gold.Chemscore.Internal_Hbond.Weighted>
0.0000

> <Gold.Chemscore.DEClash.Weighted>
0.0137

> <Gold.Chemscore.DEInternal.Weighted>
2.6987

> <Gold.Chemscore.Rot.Weighted>
4.5562

> <Gold.Chemscore.Internal.Correction.Weighted>
   9.000000E+99

> <Gold.Protein.RotatedTorsions>
[ 6907 6896 6895 6894 ] final   52.19 input  -60.11 | X-H torsion
[ 7974 7965 7964 7962 ] final  -74.43 input  175.53 | X-H torsion
[ 8008 7997 7996 7995 ] final   46.75 input   59.86 | X-H torsion
[ 10167 10162 10161 10158 ] final   92.09 input  -65.29 | X-H torsion
[ 10718 10713 10712 10709 ] final  119.76 input   66.30 | X-H torsion
[ 10763 10752 10751 10750 ] final   93.70 input  -60.55 | X-H torsion
[ 11005 11000 10999 10996 ] final -132.08 input  -57.11 | X-H torsion

> <Gold.Protein.ActiveResidues>
 VAL166  LYS551  ARG553  GLY616  TRP617  ASP618  TYR619  PRO620  LYS621  CYS622 
 ASP623  PHE694  ASN695  SER759  ASP760  ASP761  ALA762  ILE779  LEU786  VAL792 
 PHE793  MET794  SER795  GLU796  ALA797  LYS798  CYS799  TRP800  GLU811  SER814 

> <Gold.Protein.RotatedAtoms>
  152.3206  134.7384  160.0314 H   0  0  0  0  0  0  0  0  0  0  0  0  # atno 6907 bound_to 6896
  151.7834  133.3346  159.3486 H   0  0  0  0  0  0  0  0  0  0  0  0  # atno 6908 bound_to 6896
  150.7368  134.5841  159.5998 H   0  0  0  0  0  0  0  0  0  0  0  0  # atno 6909 bound_to 6896
  145.6392  140.9316  143.1045 H   0  0  0  0  0  0  0  0  0  0  0  0  # atno 7974 bound_to 7965
  155.3576  140.3417  155.4240 H   0  0  0  0  0  0  0  0  0  0  0  0  # atno 8008 bound_to 7997
  156.1731  140.1638  156.8447 H   0  0  0  0  0  0  0  0  0  0  0  0  # atno 8009 bound_to 7997
  154.5253  140.0757  156.8230 H   0  0  0  0  0  0  0  0  0  0  0  0  # atno 8010 bound_to 7997
  139.8310  144.6687  150.9399 H   0  0  0  0  0  0  0  0  0  0  0  0  # atno 10167 bound_to 10162
  157.5939  131.1060  150.7941 H   0  0  0  0  0  0  0  0  0  0  0  0  # atno 10718 bound_to 10713
  153.2333  135.4316  155.0619 H   0  0  0  0  0  0  0  0  0  0  0  0  # atno 10763 bound_to 10752
  154.8307  135.3385  154.6756 H   0  0  0  0  0  0  0  0  0  0  0  0  # atno 10764 bound_to 10752
  153.7182  135.7018  153.5076 H   0  0  0  0  0  0  0  0  0  0  0  0  # atno 10765 bound_to 10752
  140.9202  134.1454  157.4320 H   0  0  0  0  0  0  0  0  0  0  0  0  # atno 11005 bound_to 11000
  144.7164  139.8183  143.7397 LP  0  0  0  0  0  0  0  0  0  0  0  0  # atno 17320 bound_to 7965
  146.1294  139.4327  143.0178 LP  0  0  0  0  0  0  0  0  0  0  0  0  # atno 17321 bound_to 7965
  140.7806  143.4000  151.1164 LP  0  0  0  0  0  0  0  0  0  0  0  0  # atno 17342 bound_to 10162
  139.7654  143.8573  152.3109 LP  0  0  0  0  0  0  0  0  0  0  0  0  # atno 17343 bound_to 10162
  156.8356  130.5030  149.5326 LP  0  0  0  0  0  0  0  0  0  0  0  0  # atno 17370 bound_to 10713
  156.0998  130.5960  150.9875 LP  0  0  0  0  0  0  0  0  0  0  0  0  # atno 17371 bound_to 10713
  139.8774  134.9968  156.5816 LP  0  0  0  0  0  0  0  0  0  0  0  0  # atno 17394 bound_to 11000
  140.7997  133.8515  155.8716 LP  0  0  0  0  0  0  0  0  0  0  0  0  # atno 17395 bound_to 11000

$$$$
