AV-unprocessed.smi:1554|AV-procd|sdf|6254|dock9
  -GOLD-   22720 6443D 1   1.00000     0.00000
 Structure written by MMmdl.
 48 50  0  0  0  0  0  0  0  0  2 V2000
  152.0423  145.1678  160.3766 C   0  0  0  0  0  0  0  0  0  0  0  0
  151.8872  143.9341  159.5036 C   0  0  0  0  0  0  0  0  0  0  0  0
  151.1761  144.0532  158.2883 C   0  0  0  0  0  0  0  0  0  0  0  0
  151.0504  142.9073  157.5119 C   0  0  0  0  0  0  0  0  0  0  0  0
  150.4186  142.7007  156.2839 N   0  3  0  0  0  0  0  0  0  0  0  0
  150.5588  141.3978  155.9141 C   0  0  0  0  0  0  0  0  0  0  0  0
  151.2710  140.7687  156.8879 N   0  0  0  0  0  0  0  0  0  0  0  0
  151.6895  139.3624  156.9785 C   0  0  0  0  0  0  0  0  0  0  0  0
  151.0840  138.6380  158.1986 C   0  0  2  0  0  0  0  0  0  0  0  0
  152.0841  138.4393  159.1772 O   0  0  0  0  0  0  0  0  0  0  0  0
  150.4999  137.2568  157.8407 C   0  0  0  0  0  0  0  0  0  0  0  0
  149.1977  136.9490  158.4328 N   0  0  0  0  0  0  0  0  0  0  0  0
  148.1975  137.9788  158.1605 C   0  0  0  0  0  0  0  0  0  0  0  0
  146.8458  137.6543  158.8188 C   0  0  0  0  0  0  0  0  0  0  0  0
  147.0252  137.4722  160.2192 O   0  0  0  0  0  0  0  0  0  0  0  0
  147.9566  136.4399  160.5303 C   0  0  2  0  0  0  0  0  0  0  0  0
  148.0613  136.3292  162.0549 C   0  0  0  0  0  0  0  0  0  0  0  0
  149.3118  136.7729  159.8768 C   0  0  0  0  0  0  0  0  0  0  0  0
  151.6023  141.6722  157.9052 C   0  0  0  0  0  0  0  0  0  0  0  0
  152.3064  141.5385  159.0998 C   0  0  0  0  0  0  0  0  0  0  0  0
  152.4465  142.6927  159.9032 C   0  0  0  0  0  0  0  0  0  0  0  0
  153.2107  142.5762  161.2111 C   0  0  0  0  0  0  0  0  0  0  0  0
  151.5121  146.0231  159.9566 H   0  0  0  0  0  0  0  0  0  0  0  0
  153.0939  145.4397  160.4696 H   0  0  0  0  0  0  0  0  0  0  0  0
  151.6411  144.9866  161.3740 H   0  0  0  0  0  0  0  0  0  0  0  0
  150.7477  144.9949  157.9776 H   0  0  0  0  0  0  0  0  0  0  0  0
  150.1735  140.9444  155.0121 H   0  0  0  0  0  0  0  0  0  0  0  0
  151.3614  138.8772  156.0583 H   0  0  0  0  0  0  0  0  0  0  0  0
  152.7780  139.3057  156.9792 H   0  0  0  0  0  0  0  0  0  0  0  0
  150.3202  139.2667  158.6555 H   0  0  0  0  0  0  0  0  0  0  0  0
  151.8772  138.9713  159.9300 H   0  0  0  0  0  0  0  0  0  0  0  0
  150.4169  137.2011  156.7541 H   0  0  0  0  0  0  0  0  0  0  0  0
  151.2129  136.4800  158.1228 H   0  0  0  0  0  0  0  0  0  0  0  0
  148.5523  138.9450  158.5226 H   0  0  0  0  0  0  0  0  0  0  0  0
  148.0419  138.0842  157.0876 H   0  0  0  0  0  0  0  0  0  0  0  0
  146.1383  138.4670  158.6534 H   0  0  0  0  0  0  0  0  0  0  0  0
  146.4095  136.7551  158.3809 H   0  0  0  0  0  0  0  0  0  0  0  0
  147.5822  135.4939  160.1346 H   0  0  0  0  0  0  0  0  0  0  0  0
  148.7584  135.5426  162.3447 H   0  0  0  0  0  0  0  0  0  0  0  0
  147.0925  136.0933  162.4956 H   0  0  0  0  0  0  0  0  0  0  0  0
  148.4090  137.2643  162.4949 H   0  0  0  0  0  0  0  0  0  0  0  0
  150.0212  135.9737  160.0949 H   0  0  0  0  0  0  0  0  0  0  0  0
  149.7179  137.6802  160.3274 H   0  0  0  0  0  0  0  0  0  0  0  0
  152.7281  140.5938  159.4087 H   0  0  0  0  0  0  0  0  0  0  0  0
  153.6059  141.5700  161.3542 H   0  0  0  0  0  0  0  0  0  0  0  0
  152.5592  142.8016  162.0557 H   0  0  0  0  0  0  0  0  0  0  0  0
  154.0527  143.2685  161.2270 H   0  0  0  0  0  0  0  0  0  0  0  0
  149.9258  143.3954  155.7372 H   0  0  0  0  0  0  0  0  0  0  0  0
  1  2  1  0  0  0  0
  1 23  1  0  0  0  0
  1 24  1  0  0  0  0
  1 25  1  0  0  0  0
  2 21  1  0  0  0  0
  2  3  2  0  0  0  0
  3  4  1  0  0  0  0
  3 26  1  0  0  0  0
  4 19  2  0  0  0  0
  4  5  1  0  0  0  0
  5  6  2  0  0  0  0
  5 48  1  0  0  0  0
  6  7  1  0  0  0  0
  6 27  1  0  0  0  0
  7  8  1  0  0  0  0
  7 19  1  0  0  0  0
  8  9  1  0  0  0  0
  8 28  1  0  0  0  0
  8 29  1  0  0  0  0
  9 10  1  0  0  0  0
  9 11  1  0  0  0  0
  9 30  1  0  0  0  0
 10 31  1  0  0  0  0
 11 12  1  0  0  0  0
 11 32  1  0  0  0  0
 11 33  1  0  0  0  0
 12 18  1  0  0  0  0
 12 13  1  0  0  0  0
 13 14  1  0  0  0  0
 13 34  1  0  0  0  0
 13 35  1  0  0  0  0
 14 15  1  0  0  0  0
 14 36  1  0  0  0  0
 14 37  1  0  0  0  0
 15 16  1  0  0  0  0
 16 17  1  0  0  0  0
 16 18  1  0  0  0  0
 16 38  1  0  0  0  0
 17 39  1  0  0  0  0
 17 40  1  0  0  0  0
 17 41  1  0  0  0  0
 18 42  1  0  0  0  0
 18 43  1  0  0  0  0
 19 20  1  0  0  0  0
 20 21  2  0  0  0  0
 20 44  1  0  0  0  0
 21 22  1  0  0  0  0
 22 45  1  0  0  0  0
 22 46  1  0  0  0  0
 22 47  1  0  0  0  0
M  CHG  1   5   1
M  END
> <s_m_source_file>
AV-unprocessed.smi

> <i_m_source_file_index>
1554

> <i_lp_mmshare_version>
43012

> <i_f3d_flags>
0

> <s_epik_input>
W0NIM11jKFtjSF0xKWMoW0NIM10pW2NIXWMoYzEyKW4oW2NIXW4yKVtDSDJdW0NASF0oW09IXSlbQ0gyXU4zW0NIMl1bQ0gyXU9bQ0BASF0oW0NIM10pW0NIMl0z

> <s_epik_cmdline>
J2VwaWtfcHl0aG9uJywgJy1waCcsICc3LjAnLCAnLXRuJywgJzgnLCAnLW1hJywgJzIwMCcsICctbWV0YWxfYmluZGluZycsICctaW1hZScsICc8aW5maWxlLm1hZT4nLCAnLW9tYWUnLCAnPG91dGZpbGUubWFlPic=

> <r_epik_Ionization_Penalty>
1.42504

> <r_epik_Ionization_Penalty_Charging>
1.21068

> <r_epik_Ionization_Penalty_Neutral>
0.214359

> <r_epik_State_Penalty>
1.46962

> <r_epik_Charging_Adjusted_Penalty>
2.6803

> <i_epik_Tot_Q>
1

> <i_epik_Tot_abs_Q>
1

> <r_epik_Metal_State_Penalty>
5.48754

> <b_epik_Metal_Only>
0

> <s_lp_Force_Field>
OPLS_2005

> <r_lp_Energy>
32.4448

> <b_lp_Chiralities_Consistent>
1

> <s_lp_Variant>
AV-unprocessed.smi:1554-15

> <Gold.Version>
5.8.1

> <Gold.Id.Protein>
6NUR|6NUR_protein|mol2

> <Gold.PLP.Fitness>
51.1679

> <Gold.PLP.PLP>
-44.8310

> <Gold.PLP.part.hbond>
-2.0000

> <Gold.PLP.part.metal>
0.0000

> <Gold.PLP.part.buried>
-6.0417

> <Gold.PLP.part.nonpolar>
-37.4552

> <Gold.PLP.part.repulsive>
0.1031

> <Gold.PLP.ligand.clash>
0.0000

> <Gold.PLP.ligand.torsion>
1.3091

> <Gold.PLP.Chemscore.Hbond>
2.9840

> <Gold.PLP.Chemscore.CHOScore>
0.0000

> <Gold.PLP.Chemscore.Metal>
0.0000

> <Gold.Chemscore.Hbonds>
donor molecule, donor type, donor heavy atom, donor atom, acceptor molecule, acceptor atom, score
      L1  H     5    48       P1  8028  2.00
      P1  H  6934  6947       L1    15  1.00

> <Gold.PLP.Chemscore.Internal.Correction>
0.0031

> <Gold.Rescore>
     Score         DG    S(hbond)    S(metal)    S(lipo)     H(rot)  DE(clash)    DE(int)     intcor
     18.34     -19.75       1.74        0.00     116.92       2.04       0.04       1.37       ----

> <Gold.Chemscore.Fitness>
18.3361

> <Gold.Chemscore.DG>
-19.7521

> <Gold.Chemscore.ZeroCoef>
-5.4800

> <Gold.Chemscore.Hbond>
1.7430

> <Gold.Chemscore.Metal>
0.0000

> <Gold.Chemscore.Lipo>
116.9208

> <Gold.Chemscore.Internal_Hbond>
0.0000

> <Gold.Chemscore.DEClash>
0.0426

> <Gold.Chemscore.DEInternal>
1.3733

> <Gold.Chemscore.Rot>
2.0427

> <Gold.Chemscore.Internal.Correction>
   9.000000E+99

> <Gold.Chemscore.Hbonds>
donor molecule, donor type, donor heavy atom, donor atom, acceptor molecule, acceptor atom, score
      L1  H     5    48       P1  8028  0.94
      P1  H  6934  6947       L1    15  0.59

> <Gold.Chemscore.Hbond.Weighted>
-5.8218

> <Gold.Chemscore.Metal.Weighted>
-0.0000

> <Gold.Chemscore.Lipo.Weighted>
-13.6797

> <Gold.Chemscore.Internal_Hbond.Weighted>
0.0000

> <Gold.Chemscore.DEClash.Weighted>
0.0426

> <Gold.Chemscore.DEInternal.Weighted>
1.3733

> <Gold.Chemscore.Rot.Weighted>
5.2294

> <Gold.Chemscore.Internal.Correction.Weighted>
   9.000000E+99

> <Gold.Protein.RotatedTorsions>
[ 6907 6896 6895 6894 ] final   58.17 input  -60.11 | X-H torsion
[ 7974 7965 7964 7962 ] final  -82.34 input  175.53 | X-H torsion
[ 8008 7997 7996 7995 ] final   89.72 input   59.86 | X-H torsion
[ 10167 10162 10161 10158 ] final   47.21 input  -65.29 | X-H torsion
[ 10718 10713 10712 10709 ] final  -58.73 input   66.30 | X-H torsion
[ 10763 10752 10751 10750 ] final -130.50 input  -60.55 | X-H torsion
[ 11005 11000 10999 10996 ] final   47.85 input  -57.11 | X-H torsion

> <Gold.Protein.ActiveResidues>
 VAL166  LYS551  ARG553  GLY616  TRP617  ASP618  TYR619  PRO620  LYS621  CYS622 
 ASP623  PHE694  ASN695  SER759  ASP760  ASP761  ALA762  ILE779  LEU786  VAL792 
 PHE793  MET794  SER795  GLU796  ALA797  LYS798  CYS799  TRP800  GLU811  SER814 

> <Gold.Protein.RotatedAtoms>
  152.3800  134.6605  160.0146 H   0  0  0  0  0  0  0  0  0  0  0  0  # atno 6907 bound_to 6896
  151.6872  133.3306  159.3242 H   0  0  0  0  0  0  0  0  0  0  0  0  # atno 6908 bound_to 6896
  150.7739  134.6666  159.6413 H   0  0  0  0  0  0  0  0  0  0  0  0  # atno 6909 bound_to 6896
  145.5346  140.9517  143.1584 H   0  0  0  0  0  0  0  0  0  0  0  0  # atno 7974 bound_to 7965
  156.0034  140.3357  155.6868 H   0  0  0  0  0  0  0  0  0  0  0  0  # atno 8008 bound_to 7997
  155.6258  140.0680  157.2682 H   0  0  0  0  0  0  0  0  0  0  0  0  # atno 8009 bound_to 7997
  154.4257  140.1768  156.1408 H   0  0  0  0  0  0  0  0  0  0  0  0  # atno 8010 bound_to 7997
  140.3060  144.2877  150.6209 H   0  0  0  0  0  0  0  0  0  0  0  0  # atno 10167 bound_to 10162
  156.1113  130.4175  150.0618 H   0  0  0  0  0  0  0  0  0  0  0  0  # atno 10718 bound_to 10713
  154.8755  135.3860  154.4094 H   0  0  0  0  0  0  0  0  0  0  0  0  # atno 10763 bound_to 10752
  153.4809  135.7030  153.5943 H   0  0  0  0  0  0  0  0  0  0  0  0  # atno 10764 bound_to 10752
  153.4359  135.3867  155.2166 H   0  0  0  0  0  0  0  0  0  0  0  0  # atno 10765 bound_to 10752
  140.1243  134.4789  155.8572 H   0  0  0  0  0  0  0  0  0  0  0  0  # atno 11005 bound_to 11000
  144.7608  139.6961  143.7235 LP  0  0  0  0  0  0  0  0  0  0  0  0  # atno 17320 bound_to 7965
  146.2022  139.5323  142.9736 LP  0  0  0  0  0  0  0  0  0  0  0  0  # atno 17321 bound_to 7965
  140.5610  143.2192  151.7765 LP  0  0  0  0  0  0  0  0  0  0  0  0  # atno 17342 bound_to 10162
  139.4904  144.4349  151.9831 LP  0  0  0  0  0  0  0  0  0  0  0  0  # atno 17343 bound_to 10162
  156.8580  130.9482  151.3620 LP  0  0  0  0  0  0  0  0  0  0  0  0  # atno 17370 bound_to 10713
  157.6294  130.8717  149.9247 LP  0  0  0  0  0  0  0  0  0  0  0  0  # atno 17371 bound_to 10713
  141.2158  133.6772  156.6948 LP  0  0  0  0  0  0  0  0  0  0  0  0  # atno 17394 bound_to 11000
  140.2924  134.8229  157.4028 LP  0  0  0  0  0  0  0  0  0  0  0  0  # atno 17395 bound_to 11000

$$$$
