#       Name:                AV-unprocessed.smi:2895
#       Creating user name   scv26
#       Creation time:       Fri Mar 27 16:00:23 2020


#       File generated by GOLD software.
#

@<TRIPOS>MOLECULE
AV-unprocessed.smi:2895
    56    59     1
SMALL
NO_CHARGES


@<TRIPOS>ATOM
      1 ****         2.0783   1.4733  -1.3951 O.2            1 S1                 0.0000
      2 ****         1.7627   0.6942  -0.4951 C.2            1 S1                 0.0000
      3 ****         2.5664  -0.3131  -0.1128 N.am           1 S1                 0.0000
      4 ****         3.8747  -0.6109  -0.6847 C.3            1 S1                 0.0000
      5 ****         3.7575  -1.3117  -2.0490 C.3            1 S1                 0.0000
      6 ****         5.1137  -1.6590  -2.6319 C.ar           1 S1                 0.0000
      7 ****         5.9164  -0.6629  -3.2251 C.ar           1 S1                 0.0000
      8 ****         7.1712  -1.0342  -3.7486 C.ar           1 S1                 0.0000
      9 ****         7.6449  -2.2985  -3.7129 N.ar           1 S1                 0.0000
     10 ****         6.8699  -3.2472  -3.1444 C.ar           1 S1                 0.0000
     11 ****         5.6015  -2.9815  -2.5902 C.ar           1 S1                 0.0000
     12 ****         0.5950   0.7878   0.1918 N.am           1 S1                 0.0000
     13 ****         0.0928  -0.1611   1.1988 C.3            1 S1                 0.0000
     14 ****        -1.1884  -0.8405   0.6712 C.3            1 S1                 0.0000
     15 ****        -2.2385   0.1497   0.2857 N.4            1 S1                 1.0000
     16 ****        -2.9768   0.7286   1.4545 C.3            1 S1                 0.0000
     17 ****        -3.6756  -0.3529   2.3238 C.3            1 S1                 0.0000
     18 ****        -5.1258   0.1432   2.4312 C.3            1 S1                 0.0000
     19 ****        -5.1785   1.4277   3.2759 C.3            1 S1                 0.0000
     20 ****        -4.5632   2.4739   2.3303 C.3            1 S1                 0.0000
     21 ****        -4.1863   1.6389   1.0909 C.3            1 S1                 0.0000
     22 ****        -5.3585   0.6665   1.0219 C.3            1 S1                 0.0000
     23 ****        -1.6753   1.1558  -0.6620 C.3            1 S1                 0.0000
     24 ****        -0.4010   1.8230  -0.1080 C.3            1 S1                 0.0000
     25 ****         2.2530  -0.9112   0.6376 H              1 S1                 0.0000
     26 ****         4.4582   0.3072  -0.7723 H              1 S1                 0.0000
     27 ****         4.4096  -1.2532   0.0156 H              1 S1                 0.0000
     28 ****         3.1627  -2.2209  -1.9519 H              1 S1                 0.0000
     29 ****         3.2310  -0.6745  -2.7604 H              1 S1                 0.0000
     30 ****         5.5820   0.3632  -3.2765 H              1 S1                 0.0000
     31 ****         7.8114  -0.2956  -4.2080 H              1 S1                 0.0000
     32 ****         7.2733  -4.2488  -3.1293 H              1 S1                 0.0000
     33 ****         5.0213  -3.7763  -2.1450 H              1 S1                 0.0000
     34 ****         0.8102  -0.9315   1.4802 H              1 S1                 0.0000
     35 ****        -0.1155   0.3820   2.1213 H              1 S1                 0.0000
     36 ****        -0.9381  -1.4231  -0.2165 H              1 S1                 0.0000
     37 ****        -1.5486  -1.5650   1.3990 H              1 S1                 0.0000
     38 ****        -2.2692   1.2916   2.0637 H              1 S1                 0.0000
     39 ****        -3.6859  -1.3291   1.8379 H              1 S1                 0.0000
     40 ****        -3.2014  -0.4721   3.2987 H              1 S1                 0.0000
     41 ****        -5.8267  -0.6252   2.7586 H              1 S1                 0.0000
     42 ****        -6.2076   1.6919   3.5232 H              1 S1                 0.0000
     43 ****        -4.6226   1.3306   4.2093 H              1 S1                 0.0000
     44 ****        -5.3024   3.2333   2.0720 H              1 S1                 0.0000
     45 ****        -3.7058   2.9840   2.7708 H              1 S1                 0.0000
     46 ****        -4.0780   2.2667   0.2103 H              1 S1                 0.0000
     47 ****        -5.2450  -0.0961   0.2492 H              1 S1                 0.0000
     48 ****        -6.3245   1.1597   0.8990 H              1 S1                 0.0000
     49 ****        -1.4215   0.6323  -1.5851 H              1 S1                 0.0000
     50 ****        -2.3989   1.9086  -0.9610 H              1 S1                 0.0000
     51 ****        -0.6225   2.3846   0.8001 H              1 S1                 0.0000
     52 ****        -0.0415   2.5620  -0.8254 H              1 S1                 0.0000
     53 ****        -2.9353  -0.3654  -0.2333 H              1 S1                 0.0000
     54 ****         2.9548   1.3663  -1.8645 LP             1 S1                 0.0000
     55 ****         1.4581   2.2130  -1.6564 LP             1 S1                 0.0000
     56 ****         8.5408  -2.5248  -4.0951 LP             1 S1                 0.0000
@<TRIPOS>BOND
    1    1    2 2     
    2    2    3 am    
    3    2   12 am    
    4    3    4 1     
    5    3   25 1     
    6    4    5 1     
    7    4   26 1     
    8    4   27 1     
    9    5    6 1     
   10    5   28 1     
   11    5   29 1     
   12    6   11 ar    
   13    6    7 ar    
   14    7    8 ar    
   15    7   30 1     
   16    8    9 ar    
   17    8   31 1     
   18    9   10 ar    
   19   10   11 ar    
   20   10   32 1     
   21   11   33 1     
   22   12   24 1     
   23   12   13 1     
   24   13   14 1     
   25   13   34 1     
   26   13   35 1     
   27   14   15 1     
   28   14   36 1     
   29   14   37 1     
   30   15   16 1     
   31   15   23 1     
   32   15   53 1     
   33   16   21 1     
   34   16   17 1     
   35   16   38 1     
   36   17   18 1     
   37   17   39 1     
   38   17   40 1     
   39   18   22 1     
   40   18   19 1     
   41   18   41 1     
   42   19   20 1     
   43   19   42 1     
   44   19   43 1     
   45   20   21 1     
   46   20   44 1     
   47   20   45 1     
   48   21   22 1     
   49   21   46 1     
   50   22   47 1     
   51   22   48 1     
   52   23   24 1     
   53   23   49 1     
   54   23   50 1     
   55   24   51 1     
   56   24   52 1     
   57    1   54 1     
   58    1   55 1     
   59    9   56 1     
@<TRIPOS>SUBSTRUCTURE
      1 S1             1
@<TRIPOS>SET
LONE_PAIRS      STATIC     ATOMS    <user>   **** ""
3 54 55 56
DONOR_HYDROGENS      STATIC     ATOMS    <user>   **** ""
2 25 53
ATOM$BLUE        STATIC     ATOMS    COLORGROUP SYSTEM
3 54 55 56
ATOM$RED        STATIC     ATOMS    COLORGROUP SYSTEM
2 25 53
