AV-unprocessed.smi:1593|AV-procd|sdf|6410|dock8
  -GOLD-   22720 7 43D 1   1.00000     0.00000
 Structure written by MMmdl.
 37 38  0  0  0  0  0  0  0  0  2 V2000
  150.3163  142.2594  157.8154 C   0  0  0  0  0  0  0  0  0  0  0  0
  150.2126  141.4559  156.5647 C   0  0  0  0  0  0  0  0  0  0  0  0
  149.1748  141.1779  155.7201 C   0  0  0  0  0  0  0  0  0  0  0  0
  149.7787  140.3561  154.7318 C   0  0  0  0  0  0  0  0  0  0  0  0
  149.0206  139.8441  153.6480 N   0  0  0  0  0  0  0  0  0  0  0  0
  147.8453  139.1952  153.7078 C   0  0  0  0  0  0  0  0  0  0  0  0
  147.2220  138.9473  154.7405 O   0  0  0  0  0  0  0  0  0  0  0  0
  147.4200  138.8370  152.4876 N   0  0  0  0  0  0  0  0  0  0  0  0
  146.1752  138.1264  152.2181 C   0  0  0  0  0  0  0  0  0  0  0  0
  146.0256  136.8841  153.1176 C   0  0  0  0  0  0  0  0  0  0  0  0
  146.1054  135.6171  152.3494 N   0  3  0  0  0  0  0  0  0  0  0  0
  146.1095  134.4241  153.2297 C   0  0  0  0  0  0  0  0  0  0  0  0
  146.2381  133.1376  152.3967 C   0  0  0  0  0  0  0  0  0  0  0  0
  145.1801  133.0747  151.4489 O   0  0  0  0  0  0  0  0  0  0  0  0
  145.2164  134.1670  150.5392 C   0  0  0  0  0  0  0  0  0  0  0  0
  145.0531  135.4878  151.3102 C   0  0  0  0  0  0  0  0  0  0  0  0
  151.0681  140.1506  154.9530 N   0  0  0  0  0  0  0  0  0  0  0  0
  151.3527  140.8543  156.1291 O   0  0  0  0  0  0  0  0  0  0  0  0
  149.3510  142.6883  158.0849 H   0  0  0  0  0  0  0  0  0  0  0  0
  151.0266  143.0768  157.6908 H   0  0  0  0  0  0  0  0  0  0  0  0
  150.6550  141.6393  158.6456 H   0  0  0  0  0  0  0  0  0  0  0  0
  148.1505  141.5109  155.7993 H   0  0  0  0  0  0  0  0  0  0  0  0
  149.4198  139.9822  152.7314 H   0  0  0  0  0  0  0  0  0  0  0  0
  147.9911  139.0801  151.6910 H   0  0  0  0  0  0  0  0  0  0  0  0
  145.3389  138.8146  152.3436 H   0  0  0  0  0  0  0  0  0  0  0  0
  146.1763  137.8277  151.1696 H   0  0  0  0  0  0  0  0  0  0  0  0
  146.8276  136.9046  153.8572 H   0  0  0  0  0  0  0  0  0  0  0  0
  145.0902  136.9113  153.6784 H   0  0  0  0  0  0  0  0  0  0  0  0
  146.9387  134.4861  153.9352 H   0  0  0  0  0  0  0  0  0  0  0  0
  145.1895  134.3992  153.8159 H   0  0  0  0  0  0  0  0  0  0  0  0
  147.2027  133.0965  151.8882 H   0  0  0  0  0  0  0  0  0  0  0  0
  146.1832  132.2637  153.0460 H   0  0  0  0  0  0  0  0  0  0  0  0
  146.1513  134.1566  149.9761 H   0  0  0  0  0  0  0  0  0  0  0  0
  144.4085  134.0516  149.8162 H   0  0  0  0  0  0  0  0  0  0  0  0
  144.0683  135.5238  151.7788 H   0  0  0  0  0  0  0  0  0  0  0  0
  145.1021  136.3201  150.6088 H   0  0  0  0  0  0  0  0  0  0  0  0
  146.9961  135.6210  151.8731 H   0  0  0  0  0  0  0  0  0  0  0  0
  1  2  1  0  0  0  0
  1 19  1  0  0  0  0
  1 20  1  0  0  0  0
  1 21  1  0  0  0  0
  2 18  1  0  0  0  0
  2  3  2  0  0  0  0
  3  4  1  0  0  0  0
  3 22  1  0  0  0  0
  4  5  1  0  0  0  0
  4 17  2  0  0  0  0
  5  6  1  0  0  0  0
  5 23  1  0  0  0  0
  6  7  2  0  0  0  0
  6  8  1  0  0  0  0
  8  9  1  0  0  0  0
  8 24  1  0  0  0  0
  9 10  1  0  0  0  0
  9 25  1  0  0  0  0
  9 26  1  0  0  0  0
 10 11  1  0  0  0  0
 10 27  1  0  0  0  0
 10 28  1  0  0  0  0
 11 16  1  0  0  0  0
 11 12  1  0  0  0  0
 11 37  1  0  0  0  0
 12 13  1  0  0  0  0
 12 29  1  0  0  0  0
 12 30  1  0  0  0  0
 13 14  1  0  0  0  0
 13 31  1  0  0  0  0
 13 32  1  0  0  0  0
 14 15  1  0  0  0  0
 15 16  1  0  0  0  0
 15 33  1  0  0  0  0
 15 34  1  0  0  0  0
 16 35  1  0  0  0  0
 16 36  1  0  0  0  0
 17 18  1  0  0  0  0
M  CHG  1  11   1
M  END
> <s_m_source_file>
AV-unprocessed.smi

> <i_m_source_file_index>
1593

> <i_lp_mmshare_version>
43012

> <i_f3d_flags>
0

> <s_epik_input>
W0NIM11jMVtjSF1jKG5vMSlbTkhdQyg9TylbTkhdW0NIMl1bQ0gyXU4yW0NIMl1bQ0gyXU9bQ0gyXVtDSDJdMg==

> <s_epik_cmdline>
J2VwaWtfcHl0aG9uJywgJy1waCcsICc3LjAnLCAnLXRuJywgJzgnLCAnLW1hJywgJzIwMCcsICctbWV0YWxfYmluZGluZycsICctaW1hZScsICc8aW5maWxlLm1hZT4nLCAnLW9tYWUnLCAnPG91dGZpbGUubWFlPic=

> <r_epik_Ionization_Penalty>
0.707076

> <r_epik_Ionization_Penalty_Charging>
0.707039

> <r_epik_Ionization_Penalty_Neutral>
3.67886e-05

> <r_epik_State_Penalty>
0.730276

> <r_epik_Charging_Adjusted_Penalty>
1.43732

> <i_epik_Tot_Q>
1

> <i_epik_Tot_abs_Q>
1

> <r_epik_Metal_State_Penalty>
0.743216

> <b_epik_Metal_Only>
0

> <s_lp_Force_Field>
OPLS_2005

> <r_lp_Energy>
12.0314

> <b_lp_Chiralities_Consistent>
1

> <s_lp_Variant>
AV-unprocessed.smi:1593-2

> <Gold.Version>
5.8.1

> <Gold.Id.Protein>
6NUR|6NUR_protein|mol2

> <Gold.PLP.Fitness>
40.5886

> <Gold.PLP.PLP>
-27.5652

> <Gold.PLP.part.hbond>
-4.8356

> <Gold.PLP.part.metal>
0.0000

> <Gold.PLP.part.buried>
-3.2894

> <Gold.PLP.part.nonpolar>
-19.9809

> <Gold.PLP.part.repulsive>
0.4785

> <Gold.PLP.ligand.clash>
0.0000

> <Gold.PLP.ligand.torsion>
0.8621

> <Gold.PLP.Chemscore.Hbond>
4.9120

> <Gold.PLP.Chemscore.CHOScore>
0.0000

> <Gold.PLP.Chemscore.Metal>
0.0000

> <Gold.Chemscore.Hbonds>
donor molecule, donor type, donor heavy atom, donor atom, acceptor molecule, acceptor atom, score
      L1  H     5    23       P1  7957  1.00
      L1  H     8    24       P1  7957  0.90
      L1  H    11    37       P1  7948  1.98
      P1  H  7989  7998       L1    17  0.85

> <Gold.PLP.Chemscore.Internal.Correction>
0.0117

> <Gold.Rescore>
     Score         DG    S(hbond)    S(metal)    S(lipo)     H(rot)  DE(clash)    DE(int)     intcor
     16.28     -18.74       3.56        0.00      47.92       1.65       0.29       2.17       ----

> <Gold.Chemscore.Fitness>
16.2844

> <Gold.Chemscore.DG>
-18.7409

> <Gold.Chemscore.ZeroCoef>
-5.4800

> <Gold.Chemscore.Hbond>
3.5575

> <Gold.Chemscore.Metal>
0.0000

> <Gold.Chemscore.Lipo>
47.9235

> <Gold.Chemscore.Internal_Hbond>
0.0000

> <Gold.Chemscore.DEClash>
0.2874

> <Gold.Chemscore.DEInternal>
2.1691

> <Gold.Chemscore.Rot>
1.6516

> <Gold.Chemscore.Internal.Correction>
   9.000000E+99

> <Gold.Chemscore.Hbonds>
donor molecule, donor type, donor heavy atom, donor atom, acceptor molecule, acceptor atom, score
      L1  H     5    23       P1  7957  0.98
      L1  H     8    24       P1  7957  0.83
      L1  H    11    37       P1  7948  0.88
      P1  H  7989  7998       L1    17  0.13

> <Gold.Chemscore.Hbond.Weighted>
-11.8819

> <Gold.Chemscore.Metal.Weighted>
-0.0000

> <Gold.Chemscore.Lipo.Weighted>
-5.6071

> <Gold.Chemscore.Internal_Hbond.Weighted>
0.0000

> <Gold.Chemscore.DEClash.Weighted>
0.2874

> <Gold.Chemscore.DEInternal.Weighted>
2.1691

> <Gold.Chemscore.Rot.Weighted>
4.2281

> <Gold.Chemscore.Internal.Correction.Weighted>
   9.000000E+99

> <Gold.Protein.RotatedTorsions>
[ 6907 6896 6895 6894 ] final -166.60 input  -60.11 | X-H torsion
[ 7974 7965 7964 7962 ] final  -86.05 input  175.53 | X-H torsion
[ 8008 7997 7996 7995 ] final -159.19 input   59.86 | X-H torsion
[ 10167 10162 10161 10158 ] final  -48.07 input  -65.29 | X-H torsion
[ 10718 10713 10712 10709 ] final -107.96 input   66.30 | X-H torsion
[ 10763 10752 10751 10750 ] final -177.12 input  -60.55 | X-H torsion
[ 11005 11000 10999 10996 ] final   22.02 input  -57.11 | X-H torsion

> <Gold.Protein.ActiveResidues>
 VAL166  LYS551  ARG553  GLY616  TRP617  ASP618  TYR619  PRO620  LYS621  CYS622 
 ASP623  PHE694  ASN695  SER759  ASP760  ASP761  ALA762  ILE779  LEU786  VAL792 
 PHE793  MET794  SER795  GLU796  ALA797  LYS798  CYS799  TRP800  GLU811  SER814 

> <Gold.Protein.RotatedAtoms>
  151.4462  133.3630  159.2788 H   0  0  0  0  0  0  0  0  0  0  0  0  # atno 6907 bound_to 6896
  150.9123  134.8542  159.7444 H   0  0  0  0  0  0  0  0  0  0  0  0  # atno 6908 bound_to 6896
  152.4939  134.4392  159.9590 H   0  0  0  0  0  0  0  0  0  0  0  0  # atno 6909 bound_to 6896
  145.4851  140.9555  143.1843 H   0  0  0  0  0  0  0  0  0  0  0  0  # atno 7974 bound_to 7965
  155.7589  140.0836  157.2165 H   0  0  0  0  0  0  0  0  0  0  0  0  # atno 8008 bound_to 7997
  154.4005  140.1546  156.2866 H   0  0  0  0  0  0  0  0  0  0  0  0  # atno 8009 bound_to 7997
  155.8858  140.3418  155.5923 H   0  0  0  0  0  0  0  0  0  0  0  0  # atno 8010 bound_to 7997
  140.6747  143.2756  151.4018 H   0  0  0  0  0  0  0  0  0  0  0  0  # atno 10167 bound_to 10162
  156.0462  130.5689  150.7895 H   0  0  0  0  0  0  0  0  0  0  0  0  # atno 10718 bound_to 10713
  154.5641  135.2822  155.0891 H   0  0  0  0  0  0  0  0  0  0  0  0  # atno 10763 bound_to 10752
  154.2289  135.6378  153.5172 H   0  0  0  0  0  0  0  0  0  0  0  0  # atno 10764 bound_to 10752
  153.0037  135.5532  154.6244 H   0  0  0  0  0  0  0  0  0  0  0  0  # atno 10765 bound_to 10752
  140.3852  134.1878  155.7663 H   0  0  0  0  0  0  0  0  0  0  0  0  # atno 11005 bound_to 11000
  144.7866  139.6414  143.7131 LP  0  0  0  0  0  0  0  0  0  0  0  0  # atno 17320 bound_to 7965
  146.2318  139.5828  142.9550 LP  0  0  0  0  0  0  0  0  0  0  0  0  # atno 17321 bound_to 7965
  139.6033  144.1250  152.2222 LP  0  0  0  0  0  0  0  0  0  0  0  0  # atno 17342 bound_to 10162
  140.0641  144.5833  150.7241 LP  0  0  0  0  0  0  0  0  0  0  0  0  # atno 17343 bound_to 10162
  157.5340  131.0938  150.9917 LP  0  0  0  0  0  0  0  0  0  0  0  0  # atno 17370 bound_to 10713
  157.0217  130.5676  149.5332 LP  0  0  0  0  0  0  0  0  0  0  0  0  # atno 17371 bound_to 10713
  141.1910  133.8205  157.0897 LP  0  0  0  0  0  0  0  0  0  0  0  0  # atno 17394 bound_to 11000
  140.0448  134.9836  157.1029 LP  0  0  0  0  0  0  0  0  0  0  0  0  # atno 17395 bound_to 11000

$$$$
