AV-unprocessed.smi:1983|AV-procd|sdf|8032|dock4
  -GOLD-   2272010223D 1   1.00000     0.00000
 Structure written by MMmdl.
 49 50  0  0  0  0  0  0  0  0  1 V2000
  146.3502  133.2008  151.6572 C   0  0  0  0  0  0  0  0  0  0  0  0
  145.5234  134.4993  151.6734 C   0  0  2  0  0  0  0  0  0  0  0  0
  144.5535  134.6268  150.4841 C   0  0  0  0  0  0  0  0  0  0  0  0
  143.5521  133.6298  150.5208 O   0  0  0  0  0  0  0  0  0  0  0  0
  146.3825  135.6783  151.7422 N   0  0  0  0  0  0  0  0  0  0  0  0
  145.9679  136.9301  151.9812 C   0  0  0  0  0  0  0  0  0  0  0  0
  144.7918  137.2472  152.1611 O   0  0  0  0  0  0  0  0  0  0  0  0
  146.9914  137.7947  152.0115 N   0  0  0  0  0  0  0  0  0  0  0  0
  146.8658  139.2245  152.2764 C   0  0  0  0  0  0  0  0  0  0  0  0
  147.7207  139.7262  153.4320 C   0  0  0  0  0  0  0  0  0  0  0  0
  147.6104  141.0602  153.8682 C   0  0  0  0  0  0  0  0  0  0  0  0
  148.4130  141.5021  154.9371 C   0  0  0  0  0  0  0  0  0  0  0  0
  149.3147  140.5935  155.5472 C   0  0  0  0  0  0  0  0  0  0  0  0
  150.1537  140.9704  156.6197 N   0  0  0  0  0  0  0  0  0  0  0  0
  150.4318  142.3872  156.8289 C   0  0  0  0  0  0  0  0  0  0  0  0
  151.6396  142.5683  157.7653 C   0  0  1  0  0  0  0  0  0  0  0  0
  151.8708  144.0408  158.1204 C   0  0  0  0  0  0  0  0  0  0  0  0
  151.4192  141.8509  158.9783 O   0  0  0  0  0  0  0  0  0  0  0  0
  151.1926  140.4500  158.8096 C   0  0  2  0  0  0  0  0  0  0  0  0
  152.4691  139.6981  158.3914 C   0  0  0  0  0  0  0  0  0  0  0  0
  150.0024  140.2111  157.8600 C   0  0  0  0  0  0  0  0  0  0  0  0
  149.4224  139.3133  155.1170 N   0  0  0  0  0  0  0  0  0  0  0  0
  148.6510  138.8956  154.0920 C   0  0  0  0  0  0  0  0  0  0  0  0
  145.7022  132.3266  151.5920 H   0  0  0  0  0  0  0  0  0  0  0  0
  146.9443  133.1006  152.5662 H   0  0  0  0  0  0  0  0  0  0  0  0
  147.0369  133.1711  150.8107 H   0  0  0  0  0  0  0  0  0  0  0  0
  144.9062  134.4857  152.5736 H   0  0  0  0  0  0  0  0  0  0  0  0
  144.0628  135.6003  150.5087 H   0  0  0  0  0  0  0  0  0  0  0  0
  145.0898  134.5674  149.5363 H   0  0  0  0  0  0  0  0  0  0  0  0
  142.7102  134.0455  150.4146 H   0  0  0  0  0  0  0  0  0  0  0  0
  147.3713  135.5212  151.6125 H   0  0  0  0  0  0  0  0  0  0  0  0
  147.9225  137.4388  151.8519 H   0  0  0  0  0  0  0  0  0  0  0  0
  147.1604  139.7636  151.3759 H   0  0  0  0  0  0  0  0  0  0  0  0
  145.8181  139.4720  152.4557 H   0  0  0  0  0  0  0  0  0  0  0  0
  146.9162  141.7389  153.3949 H   0  0  0  0  0  0  0  0  0  0  0  0
  148.3107  142.5233  155.2714 H   0  0  0  0  0  0  0  0  0  0  0  0
  150.6500  142.8745  155.8782 H   0  0  0  0  0  0  0  0  0  0  0  0
  149.5475  142.8661  157.2515 H   0  0  0  0  0  0  0  0  0  0  0  0
  152.5398  142.1962  157.2761 H   0  0  0  0  0  0  0  0  0  0  0  0
  152.0543  144.6361  157.2256 H   0  0  0  0  0  0  0  0  0  0  0  0
  152.7346  144.1518  158.7761 H   0  0  0  0  0  0  0  0  0  0  0  0
  151.0065  144.4637  158.6332 H   0  0  0  0  0  0  0  0  0  0  0  0
  150.9124  140.0690  159.7920 H   0  0  0  0  0  0  0  0  0  0  0  0
  152.3028  138.6209  158.4051 H   0  0  0  0  0  0  0  0  0  0  0  0
  153.2893  139.9139  159.0762 H   0  0  0  0  0  0  0  0  0  0  0  0
  152.7936  139.9603  157.3849 H   0  0  0  0  0  0  0  0  0  0  0  0
  149.0790  140.5333  158.3426 H   0  0  0  0  0  0  0  0  0  0  0  0
  149.9018  139.1413  157.6762 H   0  0  0  0  0  0  0  0  0  0  0  0
  148.7867  137.8667  153.7934 H   0  0  0  0  0  0  0  0  0  0  0  0
  1  2  1  0  0  0  0
  1 24  1  0  0  0  0
  1 25  1  0  0  0  0
  1 26  1  0  0  0  0
  2  3  1  0  0  0  0
  2  5  1  0  0  0  0
  2 27  1  0  0  0  0
  3  4  1  0  0  0  0
  3 28  1  0  0  0  0
  3 29  1  0  0  0  0
  4 30  1  0  0  0  0
  5  6  1  0  0  0  0
  5 31  1  0  0  0  0
  6  7  2  0  0  0  0
  6  8  1  0  0  0  0
  8  9  1  0  0  0  0
  8 32  1  0  0  0  0
  9 10  1  0  0  0  0
  9 33  1  0  0  0  0
  9 34  1  0  0  0  0
 10 23  1  0  0  0  0
 10 11  2  0  0  0  0
 11 12  1  0  0  0  0
 11 35  1  0  0  0  0
 12 13  2  0  0  0  0
 12 36  1  0  0  0  0
 13 14  1  0  0  0  0
 13 22  1  0  0  0  0
 14 21  1  0  0  0  0
 14 15  1  0  0  0  0
 15 16  1  0  0  0  0
 15 37  1  0  0  0  0
 15 38  1  0  0  0  0
 16 17  1  0  0  0  0
 16 18  1  0  0  0  0
 16 39  1  0  0  0  0
 17 40  1  0  0  0  0
 17 41  1  0  0  0  0
 17 42  1  0  0  0  0
 18 19  1  0  0  0  0
 19 20  1  0  0  0  0
 19 21  1  0  0  0  0
 19 43  1  0  0  0  0
 20 44  1  0  0  0  0
 20 45  1  0  0  0  0
 20 46  1  0  0  0  0
 21 47  1  0  0  0  0
 21 48  1  0  0  0  0
 22 23  2  0  0  0  0
 23 49  1  0  0  0  0
M  END
> <s_m_source_file>
AV-unprocessed.smi

> <i_m_source_file_index>
1983

> <i_lp_mmshare_version>
43012

> <i_f3d_flags>
0

> <s_epik_input>
W09IXVtDSDJdW0NAQEhdKFtDSDNdKVtOSF1DKD1PKVtOSF1bQ0gyXWMxW2NIXVtjSF1jKG5bY0hdMSlOMltDSDJdW0NAQEhdKFtDSDNdKU9bQ0BASF0oW0NIM10pW0NIMl0y

> <s_epik_cmdline>
J2VwaWtfcHl0aG9uJywgJy1waCcsICc3LjAnLCAnLXRuJywgJzgnLCAnLW1hJywgJzIwMCcsICctbWV0YWxfYmluZGluZycsICctaW1hZScsICc8aW5maWxlLm1hZT4nLCAnLW9tYWUnLCAnPG91dGZpbGUubWFlPic=

> <r_lp_tautomer_probability>
1

> <r_epik_Ionization_Penalty>
0.00801967

> <r_epik_Ionization_Penalty_Charging>
0

> <r_epik_Ionization_Penalty_Neutral>
0.00801967

> <r_epik_State_Penalty>
0.00598289

> <r_epik_Charging_Adjusted_Penalty>
0.00598289

> <i_epik_Tot_Q>
0

> <i_epik_Tot_abs_Q>
0

> <r_epik_Metal_State_Penalty>
0.00590297

> <b_epik_Metal_Only>
0

> <s_lp_Force_Field>
OPLS_2005

> <r_lp_Energy>
17.8108

> <b_lp_Chiralities_Consistent>
1

> <s_lp_Variant>
AV-unprocessed.smi:1983-5

> <Gold.Version>
5.8.1

> <Gold.Id.Protein>
6NUR|6NUR_protein|mol2

> <Gold.PLP.Fitness>
47.8660

> <Gold.PLP.PLP>
-36.4799

> <Gold.PLP.part.hbond>
-3.0000

> <Gold.PLP.part.metal>
0.0000

> <Gold.PLP.part.buried>
-3.3804

> <Gold.PLP.part.nonpolar>
-31.6397

> <Gold.PLP.part.repulsive>
1.5015

> <Gold.PLP.ligand.clash>
0.0000

> <Gold.PLP.ligand.torsion>
0.4363

> <Gold.PLP.Chemscore.Hbond>
2.9280

> <Gold.PLP.Chemscore.CHOScore>
1.0000

> <Gold.PLP.Chemscore.Metal>
0.0000

> <Gold.Chemscore.Hbonds>
donor molecule, donor type, donor heavy atom, donor atom, acceptor molecule, acceptor atom, score
      L1  H     4    30       P1 10186  1.00
      L1  H     5    31       P1  7948  0.90
      L1  H     8    32       P1  7948  1.00
      L1  C    23    49       P1  7948  1.00

> <Gold.PLP.Chemscore.Internal.Correction>
0.4748

> <Gold.Rescore>
     Score         DG    S(hbond)    S(metal)    S(lipo)     H(rot)  DE(clash)    DE(int)     intcor
     18.17     -18.91       2.90        0.00      89.17       2.61       0.16       0.59       ----

> <Gold.Chemscore.Fitness>
18.1651

> <Gold.Chemscore.DG>
-18.9066

> <Gold.Chemscore.ZeroCoef>
-5.4800

> <Gold.Chemscore.Hbond>
2.8965

> <Gold.Chemscore.Metal>
0.0000

> <Gold.Chemscore.Lipo>
89.1721

> <Gold.Chemscore.Internal_Hbond>
0.0000

> <Gold.Chemscore.DEClash>
0.1560

> <Gold.Chemscore.DEInternal>
0.5856

> <Gold.Chemscore.Rot>
2.6097

> <Gold.Chemscore.Internal.Correction>
   9.000000E+99

> <Gold.Chemscore.Hbonds>
donor molecule, donor type, donor heavy atom, donor atom, acceptor molecule, acceptor atom, score
      L1  H     4    30       P1 10186  0.89
      L1  H     5    31       P1  7948  0.86
      L1  H     8    32       P1  7948  0.92

> <Gold.Chemscore.Hbond.Weighted>
-9.6744

> <Gold.Chemscore.Metal.Weighted>
-0.0000

> <Gold.Chemscore.Lipo.Weighted>
-10.4331

> <Gold.Chemscore.Internal_Hbond.Weighted>
0.0000

> <Gold.Chemscore.DEClash.Weighted>
0.1560

> <Gold.Chemscore.DEInternal.Weighted>
0.5856

> <Gold.Chemscore.Rot.Weighted>
6.6809

> <Gold.Chemscore.Internal.Correction.Weighted>
   9.000000E+99

> <Gold.Protein.RotatedTorsions>
[ 6907 6896 6895 6894 ] final   79.45 input  -60.11 | X-H torsion
[ 7974 7965 7964 7962 ] final  116.89 input  175.53 | X-H torsion
[ 8008 7997 7996 7995 ] final   85.32 input   59.86 | X-H torsion
[ 10167 10162 10161 10158 ] final  100.20 input  -65.29 | X-H torsion
[ 10718 10713 10712 10709 ] final    2.19 input   66.30 | X-H torsion
[ 10763 10752 10751 10750 ] final   62.27 input  -60.55 | X-H torsion
[ 11005 11000 10999 10996 ] final  127.59 input  -57.11 | X-H torsion

> <Gold.Protein.ActiveResidues>
 VAL166  LYS551  ARG553  GLY616  TRP617  ASP618  TYR619  PRO620  LYS621  CYS622 
 ASP623  PHE694  ASN695  SER759  ASP760  ASP761  ALA762  ILE779  LEU786  VAL792 
 PHE793  MET794  SER795  GLU796  ALA797  LYS798  CYS799  TRP800  GLU811  SER814 

> <Gold.Protein.RotatedAtoms>
  152.5199  134.3510  159.9250 H   0  0  0  0  0  0  0  0  0  0  0  0  # atno 6907 bound_to 6896
  151.3461  133.3937  159.2683 H   0  0  0  0  0  0  0  0  0  0  0  0  # atno 6908 bound_to 6896
  150.9765  134.9146  159.7877 H   0  0  0  0  0  0  0  0  0  0  0  0  # atno 6909 bound_to 6896
  145.1741  139.3085  143.4452 H   0  0  0  0  0  0  0  0  0  0  0  0  # atno 7974 bound_to 7965
  155.9485  140.3402  155.6387 H   0  0  0  0  0  0  0  0  0  0  0  0  # atno 8008 bound_to 7997
  155.6950  140.0753  157.2451 H   0  0  0  0  0  0  0  0  0  0  0  0  # atno 8009 bound_to 7997
  154.4117  140.1650  156.2115 H   0  0  0  0  0  0  0  0  0  0  0  0  # atno 8010 bound_to 7997
  139.7548  144.6973  151.0378 H   0  0  0  0  0  0  0  0  0  0  0  0  # atno 10167 bound_to 10162
  156.8593  130.5581  149.5664 H   0  0  0  0  0  0  0  0  0  0  0  0  # atno 10718 bound_to 10713
  152.9977  135.5471  154.6166 H   0  0  0  0  0  0  0  0  0  0  0  0  # atno 10763 bound_to 10752
  154.5475  135.2824  155.1041 H   0  0  0  0  0  0  0  0  0  0  0  0  # atno 10764 bound_to 10752
  154.2294  135.6436  153.5223 H   0  0  0  0  0  0  0  0  0  0  0  0  # atno 10765 bound_to 10752
  139.9515  134.9621  156.8877 H   0  0  0  0  0  0  0  0  0  0  0  0  # atno 11005 bound_to 11000
  146.3464  140.1897  142.8589 LP  0  0  0  0  0  0  0  0  0  0  0  0  # atno 17320 bound_to 7965
  145.0203  140.8788  143.5171 LP  0  0  0  0  0  0  0  0  0  0  0  0  # atno 17321 bound_to 7965
  140.7801  143.4766  151.0074 LP  0  0  0  0  0  0  0  0  0  0  0  0  # atno 17342 bound_to 10162
  139.8453  143.7510  152.3179 LP  0  0  0  0  0  0  0  0  0  0  0  0  # atno 17343 bound_to 10162
  156.0785  130.5801  150.9519 LP  0  0  0  0  0  0  0  0  0  0  0  0  # atno 17370 bound_to 10713
  157.6259  131.0925  150.8534 LP  0  0  0  0  0  0  0  0  0  0  0  0  # atno 17371 bound_to 10713
  140.5707  134.0446  155.7429 LP  0  0  0  0  0  0  0  0  0  0  0  0  # atno 17394 bound_to 11000
  141.1179  133.9510  157.2787 LP  0  0  0  0  0  0  0  0  0  0  0  0  # atno 17395 bound_to 11000

$$$$
