AV-unprocessed.smi:3244|AV-procd|sdf|12399|dock1
  -GOLD-   2272018273D 1   1.00000     0.00000
 Structure written by MMmdl.
 41 42  0  0  0  0  0  0  0  0  2 V2000
  152.0279  138.9195  156.1211 C   0  0  0  0  0  0  0  0  0  0  0  0
  150.8799  139.6404  156.8467 C   0  0  0  0  0  0  0  0  0  0  0  0
  150.2568  140.6755  156.0072 N   0  0  0  0  0  0  0  0  0  0  0  0
  149.6494  140.4122  154.8224 C   0  0  0  0  0  0  0  0  0  0  0  0
  149.3343  141.3045  154.0329 O   0  0  0  0  0  0  0  0  0  0  0  0
  149.3330  138.9533  154.4453 C   0  0  0  0  0  0  0  0  0  0  0  0
  148.7070  138.8198  153.1091 N   0  3  0  0  0  0  0  0  0  0  0  0
  147.2338  138.9873  153.0554 C   0  0  1  0  0  0  0  0  0  0  0  0
  146.7235  139.0784  151.6072 C   0  0  0  0  0  0  0  0  0  0  0  0
  146.5426  137.8268  153.8015 C   0  0  0  0  0  0  0  0  0  0  0  0
  145.4802  137.1983  153.0324 N   0  0  0  0  0  0  0  0  0  0  0  0
  145.5965  136.3213  151.9740 C   0  0  0  0  0  0  0  0  0  0  0  0
  144.3329  136.0191  151.5542 C   0  0  0  0  0  0  0  0  0  0  0  0
  143.4979  136.7814  152.4175 C   0  0  0  0  0  0  0  0  0  0  0  0
  144.1876  137.4899  153.2969 N   0  0  0  0  0  0  0  0  0  0  0  0
  150.5520  142.0125  156.4520 C   0  0  0  0  0  0  0  0  0  0  0  0
  151.3987  142.2037  157.6928 C   0  0  0  0  0  0  0  0  0  0  0  0
  149.9369  142.5682  157.7251 C   0  0  0  0  0  0  0  0  0  0  0  0
  152.4825  138.1713  156.7707 H   0  0  0  0  0  0  0  0  0  0  0  0
  152.8106  139.6212  155.8317 H   0  0  0  0  0  0  0  0  0  0  0  0
  151.6922  138.4091  155.2196 H   0  0  0  0  0  0  0  0  0  0  0  0
  150.1446  138.9177  157.1982 H   0  0  0  0  0  0  0  0  0  0  0  0
  151.2768  140.0909  157.7576 H   0  0  0  0  0  0  0  0  0  0  0  0
  150.2662  138.3932  154.4137 H   0  0  0  0  0  0  0  0  0  0  0  0
  148.7018  138.4842  155.2003 H   0  0  0  0  0  0  0  0  0  0  0  0
  149.1486  139.4674  152.4718 H   0  0  0  0  0  0  0  0  0  0  0  0
  146.9758  139.9180  153.5627 H   0  0  0  0  0  0  0  0  0  0  0  0
  145.6369  139.1653  151.5813 H   0  0  0  0  0  0  0  0  0  0  0  0
  146.9985  138.1937  151.0316 H   0  0  0  0  0  0  0  0  0  0  0  0
  147.1248  139.9516  151.0930 H   0  0  0  0  0  0  0  0  0  0  0  0
  147.2709  137.0552  154.0550 H   0  0  0  0  0  0  0  0  0  0  0  0
  146.1238  138.1813  154.7447 H   0  0  0  0  0  0  0  0  0  0  0  0
  146.5573  135.9867  151.6111 H   0  0  0  0  0  0  0  0  0  0  0  0
  144.0483  135.3596  150.7477 H   0  0  0  0  0  0  0  0  0  0  0  0
  142.4197  136.8422  152.4295 H   0  0  0  0  0  0  0  0  0  0  0  0
  150.7076  142.7386  155.6560 H   0  0  0  0  0  0  0  0  0  0  0  0
  151.7038  141.3163  158.2444 H   0  0  0  0  0  0  0  0  0  0  0  0
  152.1204  143.0181  157.6861 H   0  0  0  0  0  0  0  0  0  0  0  0
  149.6838  143.6262  157.7381 H   0  0  0  0  0  0  0  0  0  0  0  0
  149.2888  141.9291  158.3218 H   0  0  0  0  0  0  0  0  0  0  0  0
  148.8985  137.8802  152.7918 H   0  0  0  0  0  0  0  0  0  0  0  0
  1  2  1  0  0  0  0
  1 19  1  0  0  0  0
  1 20  1  0  0  0  0
  1 21  1  0  0  0  0
  2  3  1  0  0  0  0
  2 22  1  0  0  0  0
  2 23  1  0  0  0  0
  3  4  1  0  0  0  0
  3 16  1  0  0  0  0
  4  5  2  0  0  0  0
  4  6  1  0  0  0  0
  6  7  1  0  0  0  0
  6 24  1  0  0  0  0
  6 25  1  0  0  0  0
  7  8  1  0  0  0  0
  7 26  1  0  0  0  0
  7 41  1  0  0  0  0
  8  9  1  0  0  0  0
  8 10  1  0  0  0  0
  8 27  1  0  0  0  0
  9 28  1  0  0  0  0
  9 29  1  0  0  0  0
  9 30  1  0  0  0  0
 10 11  1  0  0  0  0
 10 31  1  0  0  0  0
 10 32  1  0  0  0  0
 11 15  1  0  0  0  0
 11 12  1  0  0  0  0
 12 13  2  0  0  0  0
 12 33  1  0  0  0  0
 13 14  1  0  0  0  0
 13 34  1  0  0  0  0
 14 15  2  0  0  0  0
 14 35  1  0  0  0  0
 16 18  1  0  0  0  0
 16 17  1  0  0  0  0
 16 36  1  0  0  0  0
 17 18  1  0  0  0  0
 17 37  1  0  0  0  0
 17 38  1  0  0  0  0
 18 39  1  0  0  0  0
 18 40  1  0  0  0  0
M  CHG  1   7   1
M  END
> <s_m_source_file>
AV-unprocessed.smi

> <i_m_source_file_index>
3244

> <i_lp_mmshare_version>
43012

> <i_f3d_flags>
0

> <s_epik_input>
W0NIMl0xW0NIMl1bQ0hdMU4oW0NIMl1bQ0gzXSlDKD1PKVtDSDJdW05IXVtDQEhdKFtDSDNdKVtDSDJdbjJbY0hdW2NIXVtjSF1uMg==

> <s_epik_cmdline>
J2VwaWtfcHl0aG9uJywgJy1waCcsICc3LjAnLCAnLXRuJywgJzgnLCAnLW1hJywgJzIwMCcsICctbWV0YWxfYmluZGluZycsICctaW1hZScsICc8aW5maWxlLm1hZT4nLCAnLW9tYWUnLCAnPG91dGZpbGUubWFlPic=

> <r_lp_tautomer_probability>
1

> <r_epik_Ionization_Penalty>
0.115625

> <r_epik_Ionization_Penalty_Charging>
0.115622

> <r_epik_Ionization_Penalty_Neutral>
3.43793e-06

> <r_epik_State_Penalty>
0.105255

> <r_epik_Charging_Adjusted_Penalty>
0.220877

> <i_epik_Tot_Q>
1

> <i_epik_Tot_abs_Q>
1

> <r_epik_Metal_State_Penalty>
0.105264

> <b_epik_Metal_Only>
0

> <s_lp_Force_Field>
OPLS_2005

> <r_lp_Energy>
36.1392

> <b_lp_Chiralities_Consistent>
1

> <s_lp_Variant>
AV-unprocessed.smi:3244-2

> <Gold.Version>
5.8.1

> <Gold.Id.Protein>
6NUR|6NUR_protein|mol2

> <Gold.PLP.Fitness>
45.3059

> <Gold.PLP.PLP>
-33.7811

> <Gold.PLP.part.hbond>
-3.7072

> <Gold.PLP.part.metal>
0.0000

> <Gold.PLP.part.buried>
-2.0005

> <Gold.PLP.part.nonpolar>
-28.6506

> <Gold.PLP.part.repulsive>
0.4338

> <Gold.PLP.ligand.clash>
0.0438

> <Gold.PLP.ligand.torsion>
1.3082

> <Gold.PLP.Chemscore.Hbond>
3.5889

> <Gold.PLP.Chemscore.CHOScore>
1.0000

> <Gold.PLP.Chemscore.Metal>
0.0000

> <Gold.Chemscore.Hbonds>
donor molecule, donor type, donor heavy atom, donor atom, acceptor molecule, acceptor atom, score
      L1  H     7    26       P1  7957  0.93
      L1  H     7    41       P1  7948  2.00
      P1  H  8011  8017       L1     5  0.67
      L1  C    12    33       P1  7948  1.00

> <Gold.PLP.Chemscore.Internal.Correction>
0.4184

> <Gold.Rescore>
     Score         DG    S(hbond)    S(metal)    S(lipo)     H(rot)  DE(clash)    DE(int)     intcor
     16.05     -17.78       2.66        0.00      73.93       2.04       0.24       1.49       ----

> <Gold.Chemscore.Fitness>
16.0486

> <Gold.Chemscore.DG>
-17.7784

> <Gold.Chemscore.ZeroCoef>
-5.4800

> <Gold.Chemscore.Hbond>
2.6591

> <Gold.Chemscore.Metal>
0.0000

> <Gold.Chemscore.Lipo>
73.9285

> <Gold.Chemscore.Internal_Hbond>
0.0000

> <Gold.Chemscore.DEClash>
0.2441

> <Gold.Chemscore.DEInternal>
1.4856

> <Gold.Chemscore.Rot>
2.0440

> <Gold.Chemscore.Internal.Correction>
   9.000000E+99

> <Gold.Chemscore.Hbonds>
donor molecule, donor type, donor heavy atom, donor atom, acceptor molecule, acceptor atom, score
      L1  H     7    26       P1  7957  0.88
      L1  H     7    41       P1  7948  1.00
      P1  H  8011  8017       L1     5  0.65

> <Gold.Chemscore.Hbond.Weighted>
-8.8813

> <Gold.Chemscore.Metal.Weighted>
-0.0000

> <Gold.Chemscore.Lipo.Weighted>
-8.6496

> <Gold.Chemscore.Internal_Hbond.Weighted>
0.0000

> <Gold.Chemscore.DEClash.Weighted>
0.2441

> <Gold.Chemscore.DEInternal.Weighted>
1.4856

> <Gold.Chemscore.Rot.Weighted>
5.2325

> <Gold.Chemscore.Internal.Correction.Weighted>
   9.000000E+99

> <Gold.Protein.RotatedTorsions>
[ 6907 6896 6895 6894 ] final -139.58 input  -60.11 | X-H torsion
[ 7974 7965 7964 7962 ] final  125.18 input  175.53 | X-H torsion
[ 8008 7997 7996 7995 ] final -133.46 input   59.86 | X-H torsion
[ 10167 10162 10161 10158 ] final   41.29 input  -65.29 | X-H torsion
[ 10718 10713 10712 10709 ] final  -54.69 input   66.30 | X-H torsion
[ 10763 10752 10751 10750 ] final  -66.21 input  -60.55 | X-H torsion
[ 11005 11000 10999 10996 ] final   23.54 input  -57.11 | X-H torsion

> <Gold.Protein.ActiveResidues>
 VAL166  LYS551  ARG553  GLY616  TRP617  ASP618  TYR619  PRO620  LYS621  CYS622 
 ASP623  PHE694  ASN695  SER759  ASP760  ASP761  ALA762  ILE779  LEU786  VAL792 
 PHE793  MET794  SER795  GLU796  ALA797  LYS798  CYS799  TRP800  GLU811  SER814 

> <Gold.Protein.RotatedAtoms>
  151.0496  133.5636  159.2643 H   0  0  0  0  0  0  0  0  0  0  0  0  # atno 6907 bound_to 6896
  151.2652  135.0666  159.9123 H   0  0  0  0  0  0  0  0  0  0  0  0  # atno 6908 bound_to 6896
  152.5379  134.0235  159.8046 H   0  0  0  0  0  0  0  0  0  0  0  0  # atno 6909 bound_to 6896
  145.0760  139.3694  143.4933 H   0  0  0  0  0  0  0  0  0  0  0  0  # atno 7974 bound_to 7965
  155.3458  140.0474  157.3045 H   0  0  0  0  0  0  0  0  0  0  0  0  # atno 8008 bound_to 7997
  154.5253  140.2239  155.8866 H   0  0  0  0  0  0  0  0  0  0  0  0  # atno 8009 bound_to 7997
  156.1733  140.3091  155.9019 H   0  0  0  0  0  0  0  0  0  0  0  0  # atno 8010 bound_to 7997
  140.3657  144.2170  150.6135 H   0  0  0  0  0  0  0  0  0  0  0  0  # atno 10167 bound_to 10162
  156.1430  130.4154  150.0071 H   0  0  0  0  0  0  0  0  0  0  0  0  # atno 10718 bound_to 10713
  154.3564  135.6125  153.5668 H   0  0  0  0  0  0  0  0  0  0  0  0  # atno 10763 bound_to 10752
  152.9795  135.5805  154.4683 H   0  0  0  0  0  0  0  0  0  0  0  0  # atno 10764 bound_to 10752
  154.4413  135.2850  155.1823 H   0  0  0  0  0  0  0  0  0  0  0  0  # atno 10765 bound_to 10752
  140.3684  134.2049  155.7668 H   0  0  0  0  0  0  0  0  0  0  0  0  # atno 11005 bound_to 11000
  146.3530  140.0527  142.8635 LP  0  0  0  0  0  0  0  0  0  0  0  0  # atno 17320 bound_to 7965
  145.1236  140.9477  143.4586 LP  0  0  0  0  0  0  0  0  0  0  0  0  # atno 17321 bound_to 7965
  140.5083  143.2298  151.8574 LP  0  0  0  0  0  0  0  0  0  0  0  0  # atno 17342 bound_to 10162
  139.4809  144.4980  151.9098 LP  0  0  0  0  0  0  0  0  0  0  0  0  # atno 17343 bound_to 10162
  156.7951  130.9270  151.3646 LP  0  0  0  0  0  0  0  0  0  0  0  0  # atno 17370 bound_to 10713
  157.6592  130.8951  149.9794 LP  0  0  0  0  0  0  0  0  0  0  0  0  # atno 17371 bound_to 10713
  141.1962  133.8088  157.0681 LP  0  0  0  0  0  0  0  0  0  0  0  0  # atno 17394 bound_to 11000
  140.0571  134.9775  157.1239 LP  0  0  0  0  0  0  0  0  0  0  0  0  # atno 17395 bound_to 11000

$$$$
