AV-unprocessed.smi:438|AV-procd|sdf|2574|dock8
  -GOLD-   2262022553D 1   1.00000     0.00000
 Structure written by MMmdl.
 47 48  0  0  0  0  0  0  0  0  2 V2000
  146.8631  137.1829  162.5208 C   0  0  0  0  0  0  0  0  0  0  0  0
  147.5353  136.4287  161.3874 C   0  0  0  0  0  0  0  0  0  0  0  0
  148.5536  137.1212  160.7110 N   0  0  0  0  0  0  0  0  0  0  0  0
  149.1616  136.5562  159.7383 C   0  0  0  0  0  0  0  0  0  0  0  0
  150.4615  137.4438  158.8621 S   0  0  0  0  0  0  0  0  0  0  0  0
  149.5846  138.8266  158.0714 C   0  0  0  0  0  0  0  0  0  0  0  0
  150.5089  139.9850  157.6997 C   0  0  0  0  0  0  0  0  0  0  0  0
  151.1172  139.9776  156.6290 O   0  0  0  0  0  0  0  0  0  0  0  0
  150.6079  140.9777  158.5974 N   0  0  0  0  0  0  0  0  0  0  0  0
  151.4219  142.1817  158.4435 C   0  0  1  0  0  0  0  0  0  0  0  0
  150.5071  143.3883  158.1477 C   0  0  0  0  0  0  0  0  0  0  0  0
  151.3081  144.6932  158.0356 C   0  0  0  0  0  0  0  0  0  0  0  0
  152.1412  144.9368  159.3012 C   0  0  0  0  0  0  0  0  0  0  0  0
  153.0657  143.7448  159.5909 C   0  0  0  0  0  0  0  0  0  0  0  0
  152.2801  142.4228  159.7108 C   0  0  2  0  0  0  0  0  0  0  0  0
  153.2357  141.2529  160.0067 C   0  0  0  0  0  0  0  0  0  0  0  0
  148.8858  135.2829  159.2972 N   0  5  0  0  0  0  0  0  0  0  0  0
  147.9126  134.5446  159.9031 C   0  0  0  0  0  0  0  0  0  0  0  0
  147.6342  133.4029  159.5380 O   0  0  0  0  0  0  0  0  0  0  0  0
  147.1834  135.1623  161.0247 C   0  0  0  0  0  0  0  0  0  0  0  0
  146.0928  134.3567  161.7265 C   0  0  0  0  0  0  0  0  0  0  0  0
  146.5378  132.9169  162.0205 C   0  0  0  0  0  0  0  0  0  0  0  0
  145.4187  132.0571  162.0157 O   0  0  0  0  0  0  0  0  0  0  0  0
  145.7801  137.1772  162.3968 H   0  0  0  0  0  0  0  0  0  0  0  0
  147.1903  138.2230  162.5520 H   0  0  0  0  0  0  0  0  0  0  0  0
  147.1072  136.7241  163.4791 H   0  0  0  0  0  0  0  0  0  0  0  0
  148.8165  139.1976  158.7505 H   0  0  0  0  0  0  0  0  0  0  0  0
  149.0780  138.4571  157.1784 H   0  0  0  0  0  0  0  0  0  0  0  0
  150.0729  140.8970  159.4500 H   0  0  0  0  0  0  0  0  0  0  0  0
  152.1020  142.0489  157.5996 H   0  0  0  0  0  0  0  0  0  0  0  0
  149.9533  143.2220  157.2228 H   0  0  0  0  0  0  0  0  0  0  0  0
  149.7620  143.4895  158.9384 H   0  0  0  0  0  0  0  0  0  0  0  0
  151.9653  144.6457  157.1664 H   0  0  0  0  0  0  0  0  0  0  0  0
  150.6320  145.5318  157.8676 H   0  0  0  0  0  0  0  0  0  0  0  0
  152.7319  145.8461  159.1877 H   0  0  0  0  0  0  0  0  0  0  0  0
  151.4780  145.1019  160.1512 H   0  0  0  0  0  0  0  0  0  0  0  0
  153.8079  143.6610  158.7958 H   0  0  0  0  0  0  0  0  0  0  0  0
  153.6214  143.9329  160.5102 H   0  0  0  0  0  0  0  0  0  0  0  0
  151.6053  142.5174  160.5634 H   0  0  0  0  0  0  0  0  0  0  0  0
  153.9161  141.0787  159.1725 H   0  0  0  0  0  0  0  0  0  0  0  0
  152.6939  140.3257  160.1933 H   0  0  0  0  0  0  0  0  0  0  0  0
  153.8412  141.4559  160.8904 H   0  0  0  0  0  0  0  0  0  0  0  0
  145.1878  134.3425  161.1197 H   0  0  0  0  0  0  0  0  0  0  0  0
  145.8074  134.8590  162.6521 H   0  0  0  0  0  0  0  0  0  0  0  0
  147.2522  132.5740  161.2712 H   0  0  0  0  0  0  0  0  0  0  0  0
  147.0283  132.8531  162.9924 H   0  0  0  0  0  0  0  0  0  0  0  0
  145.0679  132.0185  162.8923 H   0  0  0  0  0  0  0  0  0  0  0  0
  1 24  1  0  0  0  0
  1 25  1  0  0  0  0
  1 26  1  0  0  0  0
  1  2  1  0  0  0  0
  2 20  2  0  0  0  0
  2  3  1  0  0  0  0
  3  4  2  0  0  0  0
  4  5  1  0  0  0  0
  4 17  1  0  0  0  0
  5  6  1  0  0  0  0
  6  7  1  0  0  0  0
  6 27  1  0  0  0  0
  6 28  1  0  0  0  0
  7  8  2  0  0  0  0
  7  9  1  0  0  0  0
  9 10  1  0  0  0  0
  9 29  1  0  0  0  0
 10 15  1  0  0  0  0
 10 11  1  0  0  0  0
 10 30  1  0  0  0  0
 11 12  1  0  0  0  0
 11 31  1  0  0  0  0
 11 32  1  0  0  0  0
 12 13  1  0  0  0  0
 12 33  1  0  0  0  0
 12 34  1  0  0  0  0
 13 14  1  0  0  0  0
 13 35  1  0  0  0  0
 13 36  1  0  0  0  0
 14 15  1  0  0  0  0
 14 37  1  0  0  0  0
 14 38  1  0  0  0  0
 15 16  1  0  0  0  0
 15 39  1  0  0  0  0
 16 40  1  0  0  0  0
 16 41  1  0  0  0  0
 16 42  1  0  0  0  0
 17 18  1  0  0  0  0
 18 19  2  0  0  0  0
 18 20  1  0  0  0  0
 20 21  1  0  0  0  0
 21 22  1  0  0  0  0
 21 43  1  0  0  0  0
 21 44  1  0  0  0  0
 22 23  1  0  0  0  0
 22 45  1  0  0  0  0
 22 46  1  0  0  0  0
 23 47  1  0  0  0  0
M  CHG  1  17  -1
M  END
> <s_m_source_file>
AV-unprocessed.smi

> <i_m_source_file_index>
438

> <i_lp_mmshare_version>
43012

> <i_f3d_flags>
0

> <s_epik_input>
W09IXVtDSDJdW0NIMl1jMWMoW09IXSluYyhuYzFbQ0gzXSlTW0NIMl1DKD1PKVtOSF1bQ0BASF0yW0NIMl1bQ0gyXVtDSDJdW0NIMl1bQ0BIXTJbQ0gzXQ==

> <s_epik_cmdline>
J2VwaWtfcHl0aG9uJywgJy1waCcsICc3LjAnLCAnLXRuJywgJzgnLCAnLW1hJywgJzIwMCcsICctbWV0YWxfYmluZGluZycsICctaW1hZScsICc8aW5maWxlLm1hZT4nLCAnLW9tYWUnLCAnPG91dGZpbGUubWFlPic=

> <r_lp_tautomer_probability>
1

> <r_epik_Ionization_Penalty>
3.69231

> <r_epik_Ionization_Penalty_Charging>
0.00434774

> <r_epik_Ionization_Penalty_Neutral>
3.68796

> <r_epik_State_Penalty>
2.13826

> <r_epik_Charging_Adjusted_Penalty>
2.14261

> <i_epik_Tot_Q>
-1

> <i_epik_Tot_abs_Q>
1

> <r_epik_Metal_State_Penalty>
0.260979

> <b_epik_Metal_Only>
0

> <s_lp_Force_Field>
OPLS_2005

> <r_lp_Energy>
18.4405

> <b_lp_Chiralities_Consistent>
1

> <s_lp_Variant>
AV-unprocessed.smi:438-12

> <Gold.Version>
5.8.1

> <Gold.Id.Protein>
6NUR|6NUR_protein|mol2

> <Gold.PLP.Fitness>
52.2380

> <Gold.PLP.PLP>
-45.5160

> <Gold.PLP.part.hbond>
-3.0516

> <Gold.PLP.part.metal>
0.0000

> <Gold.PLP.part.buried>
-4.3688

> <Gold.PLP.part.nonpolar>
-37.0366

> <Gold.PLP.part.repulsive>
0.1861

> <Gold.PLP.ligand.clash>
0.0000

> <Gold.PLP.ligand.torsion>
0.9815

> <Gold.PLP.Chemscore.Hbond>
2.8831

> <Gold.PLP.Chemscore.CHOScore>
0.0000

> <Gold.PLP.Chemscore.Metal>
0.0000

> <Gold.Chemscore.Hbonds>
donor molecule, donor type, donor heavy atom, donor atom, acceptor molecule, acceptor atom, score
      P1  H  6896  6909       L1    17  2.00
      P1  H  6931  6943       L1     3  0.85
      P1  H  6934  6947       L1     3  0.04

> <Gold.PLP.Chemscore.Internal.Correction>
0.0360

> <Gold.Rescore>
     Score         DG    S(hbond)    S(metal)    S(lipo)     H(rot)  DE(clash)    DE(int)     intcor
     14.57     -16.79       1.43        0.00     117.08       2.79       0.12       2.11       ----

> <Gold.Chemscore.Fitness>
14.5688

> <Gold.Chemscore.DG>
-16.7944

> <Gold.Chemscore.ZeroCoef>
-5.4800

> <Gold.Chemscore.Hbond>
1.4266

> <Gold.Chemscore.Metal>
0.0000

> <Gold.Chemscore.Lipo>
117.0848

> <Gold.Chemscore.Internal_Hbond>
0.0000

> <Gold.Chemscore.DEClash>
0.1163

> <Gold.Chemscore.DEInternal>
2.1093

> <Gold.Chemscore.Rot>
2.7927

> <Gold.Chemscore.Internal.Correction>
   9.000000E+99

> <Gold.Chemscore.Hbonds>
donor molecule, donor type, donor heavy atom, donor atom, acceptor molecule, acceptor atom, score
      P1  H  6896  6909       L1    17  0.27
      P1  H  6931  6943       L1     3  0.29

> <Gold.Chemscore.Hbond.Weighted>
-4.7647

> <Gold.Chemscore.Metal.Weighted>
-0.0000

> <Gold.Chemscore.Lipo.Weighted>
-13.6989

> <Gold.Chemscore.Internal_Hbond.Weighted>
0.0000

> <Gold.Chemscore.DEClash.Weighted>
0.1163

> <Gold.Chemscore.DEInternal.Weighted>
2.1093

> <Gold.Chemscore.Rot.Weighted>
7.1492

> <Gold.Chemscore.Internal.Correction.Weighted>
   9.000000E+99

> <Gold.Protein.RotatedTorsions>
[ 6907 6896 6895 6894 ] final   34.84 input  -60.11 | X-H torsion
[ 7974 7965 7964 7962 ] final   24.25 input  175.53 | X-H torsion
[ 8008 7997 7996 7995 ] final   92.02 input   59.86 | X-H torsion
[ 10167 10162 10161 10158 ] final -177.11 input  -65.29 | X-H torsion
[ 10718 10713 10712 10709 ] final  119.37 input   66.30 | X-H torsion
[ 10763 10752 10751 10750 ] final  137.43 input  -60.55 | X-H torsion
[ 11005 11000 10999 10996 ] final -139.04 input  -57.11 | X-H torsion

> <Gold.Protein.ActiveResidues>
 VAL166  LYS551  ARG553  GLY616  TRP617  ASP618  TYR619  PRO620  LYS621  CYS622 
 ASP623  PHE694  ASN695  SER759  ASP760  ASP761  ALA762  ILE779  LEU786  VAL792 
 PHE793  MET794  SER795  GLU796  ALA797  LYS798  CYS799  TRP800  GLU811  SER814 

> <Gold.Protein.RotatedAtoms>
  152.1079  134.9295  160.0567 H   0  0  0  0  0  0  0  0  0  0  0  0  # atno 6907 bound_to 6896
  152.0484  133.4003  159.4375 H   0  0  0  0  0  0  0  0  0  0  0  0  # atno 6908 bound_to 6896
  150.6842  134.3256  159.4849 H   0  0  0  0  0  0  0  0  0  0  0  0  # atno 6909 bound_to 6896
  146.1946  139.7630  142.8807 H   0  0  0  0  0  0  0  0  0  0  0  0  # atno 7974 bound_to 7965
  156.0306  140.3330  155.7135 H   0  0  0  0  0  0  0  0  0  0  0  0  # atno 8008 bound_to 7997
  155.5891  140.0644  157.2781 H   0  0  0  0  0  0  0  0  0  0  0  0  # atno 8009 bound_to 7997
  154.4351  140.1830  156.1043 H   0  0  0  0  0  0  0  0  0  0  0  0  # atno 8010 bound_to 7997
  139.5496  144.2144  152.1053 H   0  0  0  0  0  0  0  0  0  0  0  0  # atno 10167 bound_to 10162
  157.5966  131.1057  150.7886 H   0  0  0  0  0  0  0  0  0  0  0  0  # atno 10718 bound_to 10713
  153.8729  135.3053  155.3442 H   0  0  0  0  0  0  0  0  0  0  0  0  # atno 10763 bound_to 10752
  154.7797  135.4842  153.9822 H   0  0  0  0  0  0  0  0  0  0  0  0  # atno 10764 bound_to 10752
  153.1396  135.6821  153.9144 H   0  0  0  0  0  0  0  0  0  0  0  0  # atno 10765 bound_to 10752
  140.8558  134.2229  157.4735 H   0  0  0  0  0  0  0  0  0  0  0  0  # atno 11005 bound_to 11000
  145.3684  141.0338  143.3245 LP  0  0  0  0  0  0  0  0  0  0  0  0  # atno 17320 bound_to 7965
  144.8554  139.5257  143.6837 LP  0  0  0  0  0  0  0  0  0  0  0  0  # atno 17321 bound_to 7965
  140.1637  144.5002  150.6618 LP  0  0  0  0  0  0  0  0  0  0  0  0  # atno 17342 bound_to 10162
  140.6755  143.2303  151.5518 LP  0  0  0  0  0  0  0  0  0  0  0  0  # atno 17343 bound_to 10162
  156.8295  130.5011  149.5333 LP  0  0  0  0  0  0  0  0  0  0  0  0  # atno 17370 bound_to 10713
  156.1030  130.5983  150.9926 LP  0  0  0  0  0  0  0  0  0  0  0  0  # atno 17371 bound_to 10713
  139.8705  134.9706  156.4706 LP  0  0  0  0  0  0  0  0  0  0  0  0  # atno 17394 bound_to 11000
  140.8738  133.7968  155.9393 LP  0  0  0  0  0  0  0  0  0  0  0  0  # atno 17395 bound_to 11000

$$$$
