AV-unprocessed.smi:200|AV-procd|sdf|1577|dock3
  -GOLD-   2262019463D 1   1.00000     0.00000
 Structure written by MMmdl.
 56 59  0  0  0  0  0  0  0  0  1 V2000
  148.7355  139.7566  154.0603 C   0  0  0  0  0  0  0  0  0  0  0  0
  149.9605  140.1571  154.6476 O   0  0  0  0  0  0  0  0  0  0  0  0
  149.7926  140.6776  155.9557 C   0  0  0  0  0  0  0  0  0  0  0  0
  151.1681  141.0615  156.5181 C   0  0  0  0  0  0  0  0  0  0  0  0
  151.1751  141.1437  157.9794 N   0  0  0  0  0  0  0  0  0  0  0  0
  150.9943  139.9497  158.5898 C   0  0  0  0  0  0  0  0  0  0  0  0
  149.7731  139.3544  158.5672 N   0  0  0  0  0  0  0  0  0  0  0  0
  149.5959  138.1751  159.1705 C   0  0  0  0  0  0  0  0  0  0  0  0
  150.4847  137.4373  159.8400 N   0  0  0  0  0  0  0  0  0  0  0  0
  151.7090  138.0379  159.8687 C   0  0  0  0  0  0  0  0  0  0  0  0
  152.0448  139.2876  159.2779 C   0  0  0  0  0  0  0  0  0  0  0  0
  153.3789  139.5885  159.5175 N   0  0  0  0  0  0  0  0  0  0  0  0
  153.8099  138.5716  160.2126 C   0  0  0  0  0  0  0  0  0  0  0  0
  152.8775  137.5877  160.4588 N   0  0  0  0  0  0  0  0  0  0  0  0
  153.0964  136.3540  161.1986 C   0  0  0  0  0  0  0  0  0  0  0  0
  153.4330  135.1351  160.3136 C   0  0  0  0  0  0  0  0  0  0  0  0
  153.4341  133.8370  161.1407 C   0  0  0  0  0  0  0  0  0  0  0  0
  152.1448  133.5381  161.6364 O   0  0  0  0  0  0  0  0  0  0  0  0
  152.6724  135.0485  158.9832 C   0  0  0  0  0  0  0  0  0  0  0  0
  153.8917  134.8669  158.2330 O   0  0  0  0  0  0  0  0  0  0  0  0
  154.6465  135.2935  159.3864 C   0  0  0  0  0  0  0  0  0  0  0  0
  152.0834  142.1030  158.6255 C   0  0  1  0  0  0  0  0  0  0  0  0
  152.0624  143.5401  158.0819 C   0  0  0  0  0  0  0  0  0  0  0  0
  152.7257  144.3847  159.1788 C   0  0  0  0  0  0  0  0  0  0  0  0
  152.7275  143.5243  160.4583 C   0  0  1  0  0  0  0  0  0  0  0  0
  152.2636  144.2753  161.7133 C   0  0  0  0  0  0  0  0  0  0  0  0
  151.8723  142.2941  160.1301 C   0  0  0  0  0  0  0  0  0  0  0  0
  148.9205  139.3686  153.0586 H   0  0  0  0  0  0  0  0  0  0  0  0
  148.0453  140.5968  153.9745 H   0  0  0  0  0  0  0  0  0  0  0  0
  148.2584  138.9683  154.6438 H   0  0  0  0  0  0  0  0  0  0  0  0
  149.1625  141.5667  155.9098 H   0  0  0  0  0  0  0  0  0  0  0  0
  149.2841  139.9601  156.5996 H   0  0  0  0  0  0  0  0  0  0  0  0
  151.9044  140.3345  156.1703 H   0  0  0  0  0  0  0  0  0  0  0  0
  151.4731  142.0245  156.1086 H   0  0  0  0  0  0  0  0  0  0  0  0
  148.5996  137.7630  159.1069 H   0  0  0  0  0  0  0  0  0  0  0  0
  154.8308  138.5057  160.5600 H   0  0  0  0  0  0  0  0  0  0  0  0
  153.8940  136.5294  161.9215 H   0  0  0  0  0  0  0  0  0  0  0  0
  152.2036  136.1609  161.7946 H   0  0  0  0  0  0  0  0  0  0  0  0
  153.7584  132.9947  160.5285 H   0  0  0  0  0  0  0  0  0  0  0  0
  154.1362  133.8890  161.9731 H   0  0  0  0  0  0  0  0  0  0  0  0
  152.2220  133.2995  162.5477 H   0  0  0  0  0  0  0  0  0  0  0  0
  152.0009  134.1925  158.9071 H   0  0  0  0  0  0  0  0  0  0  0  0
  152.1594  135.9709  158.7054 H   0  0  0  0  0  0  0  0  0  0  0  0
  154.9947  136.3210  159.2747 H   0  0  0  0  0  0  0  0  0  0  0  0
  155.4759  134.6249  159.6196 H   0  0  0  0  0  0  0  0  0  0  0  0
  153.0986  141.7335  158.4833 H   0  0  0  0  0  0  0  0  0  0  0  0
  152.5695  143.6275  157.1205 H   0  0  0  0  0  0  0  0  0  0  0  0
  151.0435  143.9044  157.9512 H   0  0  0  0  0  0  0  0  0  0  0  0
  153.7480  144.6450  158.9018 H   0  0  0  0  0  0  0  0  0  0  0  0
  152.1825  145.3208  159.3155 H   0  0  0  0  0  0  0  0  0  0  0  0
  153.7496  143.1802  160.6238 H   0  0  0  0  0  0  0  0  0  0  0  0
  151.2438  144.6444  161.6010 H   0  0  0  0  0  0  0  0  0  0  0  0
  152.9077  145.1310  161.9167 H   0  0  0  0  0  0  0  0  0  0  0  0
  152.2887  143.6253  162.5883 H   0  0  0  0  0  0  0  0  0  0  0  0
  150.8247  142.5018  160.3484 H   0  0  0  0  0  0  0  0  0  0  0  0
  152.1681  141.4209  160.7120 H   0  0  0  0  0  0  0  0  0  0  0  0
  1  2  1  0  0  0  0
  1 28  1  0  0  0  0
  1 29  1  0  0  0  0
  1 30  1  0  0  0  0
  2  3  1  0  0  0  0
  3  4  1  0  0  0  0
  3 31  1  0  0  0  0
  3 32  1  0  0  0  0
  4  5  1  0  0  0  0
  4 33  1  0  0  0  0
  4 34  1  0  0  0  0
  5  6  1  0  0  0  0
  5 22  1  0  0  0  0
  6 11  1  0  0  0  0
  6  7  2  0  0  0  0
  7  8  1  0  0  0  0
  8  9  2  0  0  0  0
  8 35  1  0  0  0  0
  9 10  1  0  0  0  0
 10 14  1  0  0  0  0
 10 11  2  0  0  0  0
 11 12  1  0  0  0  0
 12 13  2  0  0  0  0
 13 14  1  0  0  0  0
 13 36  1  0  0  0  0
 14 15  1  0  0  0  0
 15 16  1  0  0  0  0
 15 37  1  0  0  0  0
 15 38  1  0  0  0  0
 16 21  1  0  0  0  0
 16 17  1  0  0  0  0
 16 19  1  0  0  0  0
 17 18  1  0  0  0  0
 17 39  1  0  0  0  0
 17 40  1  0  0  0  0
 18 41  1  0  0  0  0
 19 20  1  0  0  0  0
 19 42  1  0  0  0  0
 19 43  1  0  0  0  0
 20 21  1  0  0  0  0
 21 44  1  0  0  0  0
 21 45  1  0  0  0  0
 22 27  1  0  0  0  0
 22 23  1  0  0  0  0
 22 46  1  0  0  0  0
 23 24  1  0  0  0  0
 23 47  1  0  0  0  0
 23 48  1  0  0  0  0
 24 25  1  0  0  0  0
 24 49  1  0  0  0  0
 24 50  1  0  0  0  0
 25 26  1  0  0  0  0
 25 27  1  0  0  0  0
 25 51  1  0  0  0  0
 26 52  1  0  0  0  0
 26 53  1  0  0  0  0
 26 54  1  0  0  0  0
 27 55  1  0  0  0  0
 27 56  1  0  0  0  0
M  END
> <s_m_source_file>
AV-unprocessed.smi

> <i_m_source_file_index>
200

> <i_lp_mmshare_version>
43012

> <i_f3d_flags>
0

> <s_epik_input>
W0NIM11bQ0BASF0oW0NIMl0xKVtDSDJdW0NIMl1bQ0BIXTFOKFtDSDJdW0NIMl1PW0NIM10pYyhuW2NIXW4yKWMoYzIzKW5bY0hdbjNbQ0gyXUM0KFtDSDJdW09IXSlbQ0gyXU9bQ0gyXTQ=

> <s_epik_cmdline>
J2VwaWtfcHl0aG9uJywgJy1waCcsICc3LjAnLCAnLXRuJywgJzgnLCAnLW1hJywgJzIwMCcsICctbWV0YWxfYmluZGluZycsICctaW1hZScsICc8aW5maWxlLm1hZT4nLCAnLW9tYWUnLCAnPG91dGZpbGUubWFlPic=

> <r_lp_tautomer_probability>
1

> <r_epik_Ionization_Penalty>
0.00363087

> <r_epik_Ionization_Penalty_Charging>
0

> <r_epik_Ionization_Penalty_Neutral>
0.00363087

> <r_epik_State_Penalty>
0.0024341

> <r_epik_Charging_Adjusted_Penalty>
0.0024341

> <i_epik_Tot_Q>
0

> <i_epik_Tot_abs_Q>
0

> <r_epik_Metal_State_Penalty>
-0

> <b_epik_Metal_Only>
0

> <s_lp_Force_Field>
OPLS_2005

> <r_lp_Energy>
50.9431

> <b_lp_Chiralities_Consistent>
1

> <s_lp_Variant>
AV-unprocessed.smi:200-2

> <Gold.Version>
5.8.1

> <Gold.Id.Protein>
6NUR|6NUR_protein|mol2

> <Gold.PLP.Fitness>
55.8332

> <Gold.PLP.PLP>
-42.2018

> <Gold.PLP.part.hbond>
-5.0000

> <Gold.PLP.part.metal>
0.0000

> <Gold.PLP.part.buried>
-5.2085

> <Gold.PLP.part.nonpolar>
-31.3669

> <Gold.PLP.part.repulsive>
0.0912

> <Gold.PLP.ligand.clash>
0.0000

> <Gold.PLP.ligand.torsion>
1.4892

> <Gold.PLP.Chemscore.Hbond>
4.9913

> <Gold.PLP.Chemscore.CHOScore>
0.0000

> <Gold.PLP.Chemscore.Metal>
0.0000

> <Gold.Chemscore.Hbonds>
donor molecule, donor type, donor heavy atom, donor atom, acceptor molecule, acceptor atom, score
      P1  H  7989  7998       L1     2  0.71

> <Gold.PLP.Chemscore.Internal.Correction>
1.6361

> <Gold.Rescore>
     Score         DG    S(hbond)    S(metal)    S(lipo)     H(rot)  DE(clash)    DE(int)     intcor
     19.43     -23.33       4.05        0.00     108.60       3.28       0.17       3.72       ----

> <Gold.Chemscore.Fitness>
19.4313

> <Gold.Chemscore.DG>
-23.3255

> <Gold.Chemscore.ZeroCoef>
-5.4800

> <Gold.Chemscore.Hbond>
4.0499

> <Gold.Chemscore.Metal>
0.0000

> <Gold.Chemscore.Lipo>
108.5969

> <Gold.Chemscore.Internal_Hbond>
0.0000

> <Gold.Chemscore.DEClash>
0.1738

> <Gold.Chemscore.DEInternal>
3.7204

> <Gold.Chemscore.Rot>
3.2761

> <Gold.Chemscore.Internal.Correction>
   9.000000E+99

> <Gold.Chemscore.Hbonds>
donor molecule, donor type, donor heavy atom, donor atom, acceptor molecule, acceptor atom, score
      P1  H  7989  7998       L1     2  0.65

> <Gold.Chemscore.Hbond.Weighted>
-13.5265

> <Gold.Chemscore.Metal.Weighted>
-0.0000

> <Gold.Chemscore.Lipo.Weighted>
-12.7058

> <Gold.Chemscore.Internal_Hbond.Weighted>
0.0000

> <Gold.Chemscore.DEClash.Weighted>
0.1738

> <Gold.Chemscore.DEInternal.Weighted>
3.7204

> <Gold.Chemscore.Rot.Weighted>
8.3868

> <Gold.Chemscore.Internal.Correction.Weighted>
   9.000000E+99

> <Gold.Protein.RotatedTorsions>
[ 6907 6896 6895 6894 ] final -127.33 input  -60.11 | X-H torsion
[ 7974 7965 7964 7962 ] final  -13.53 input  175.53 | X-H torsion
[ 8008 7997 7996 7995 ] final  144.27 input   59.86 | X-H torsion
[ 10167 10162 10161 10158 ] final -139.66 input  -65.29 | X-H torsion
[ 10718 10713 10712 10709 ] final -135.69 input   66.30 | X-H torsion
[ 10763 10752 10751 10750 ] final  -46.39 input  -60.55 | X-H torsion
[ 11005 11000 10999 10996 ] final -157.91 input  -57.11 | X-H torsion

> <Gold.Protein.ActiveResidues>
 VAL166  LYS551  ARG553  GLY616  TRP617  ASP618  TYR619  PRO620  LYS621  CYS622 
 ASP623  PHE694  ASN695  SER759  ASP760  ASP761  ALA762  ILE779  LEU786  VAL792 
 PHE793  MET794  SER795  GLU796  ALA797  LYS798  CYS799  TRP800  GLU811  SER814 

> <Gold.Protein.RotatedAtoms>
  150.9061  133.7056  159.2866 H   0  0  0  0  0  0  0  0  0  0  0  0  # atno 6907 bound_to 6896
  151.4558  135.1032  159.9720 H   0  0  0  0  0  0  0  0  0  0  0  0  # atno 6908 bound_to 6896
  152.4904  133.8436  159.7221 H   0  0  0  0  0  0  0  0  0  0  0  0  # atno 6909 bound_to 6896
  146.2110  140.3217  142.8391 H   0  0  0  0  0  0  0  0  0  0  0  0  # atno 7974 bound_to 7965
  156.2912  140.2240  156.5025 H   0  0  0  0  0  0  0  0  0  0  0  0  # atno 8008 bound_to 7997
  154.7677  140.0469  157.1047 H   0  0  0  0  0  0  0  0  0  0  0  0  # atno 8009 bound_to 7997
  154.9912  140.3090  155.4908 H   0  0  0  0  0  0  0  0  0  0  0  0  # atno 8010 bound_to 7997
  139.8358  143.7387  152.2665 H   0  0  0  0  0  0  0  0  0  0  0  0  # atno 10167 bound_to 10162
  156.2688  130.7253  151.1213 H   0  0  0  0  0  0  0  0  0  0  0  0  # atno 10718 bound_to 10713
  154.0443  135.6640  153.4793 H   0  0  0  0  0  0  0  0  0  0  0  0  # atno 10763 bound_to 10752
  153.0489  135.5097  154.7812 H   0  0  0  0  0  0  0  0  0  0  0  0  # atno 10764 bound_to 10752
  154.6798  135.3043  154.9594 H   0  0  0  0  0  0  0  0  0  0  0  0  # atno 10765 bound_to 10752
  140.6594  134.4365  157.5234 H   0  0  0  0  0  0  0  0  0  0  0  0  # atno 11005 bound_to 11000
  144.8915  140.7530  143.5923 LP  0  0  0  0  0  0  0  0  0  0  0  0  # atno 17320 bound_to 7965
  145.3140  139.1809  143.4624 LP  0  0  0  0  0  0  0  0  0  0  0  0  # atno 17321 bound_to 7965
  139.7608  144.7507  151.0366 LP  0  0  0  0  0  0  0  0  0  0  0  0  # atno 17342 bound_to 10162
  140.7803  143.4753  151.0091 LP  0  0  0  0  0  0  0  0  0  0  0  0  # atno 17343 bound_to 10162
  157.7277  131.0637  150.5854 LP  0  0  0  0  0  0  0  0  0  0  0  0  # atno 17370 bound_to 10713
  156.5949  130.4339  149.5921 LP  0  0  0  0  0  0  0  0  0  0  0  0  # atno 17371 bound_to 10713
  139.9018  134.8539  156.1865 LP  0  0  0  0  0  0  0  0  0  0  0  0  # atno 17394 bound_to 11000
  141.0476  133.6905  156.1712 LP  0  0  0  0  0  0  0  0  0  0  0  0  # atno 17395 bound_to 11000

$$$$
