AV-unprocessed.smi:2124|AV-procd|sdf|8661|dock5
  -GOLD-   2272011413D 1   1.00000     0.00000
 Structure written by MMmdl.
 47 49  0  0  0  0  0  0  0  0  1 V2000
  151.0849  142.6571  157.2253 C   0  0  0  0  0  0  0  0  0  0  0  0
  150.4555  141.6698  156.2668 C   0  0  0  0  0  0  0  0  0  0  0  0
  149.2081  142.0590  155.8071 N   0  0  0  0  0  0  0  0  0  0  0  0
  148.5545  141.2208  154.9212 C   0  0  0  0  0  0  0  0  0  0  0  0
  147.1939  141.7197  154.4667 C   0  0  0  0  0  0  0  0  0  0  0  0
  149.1144  140.0526  154.5163 C   0  0  0  0  0  0  0  0  0  0  0  0
  148.4232  139.0965  153.5445 C   0  0  0  0  0  0  0  0  0  0  0  0
  147.1724  138.3862  154.0690 C   0  0  0  0  0  0  0  0  0  0  0  0
  146.4857  138.8955  154.9552 O   0  0  0  0  0  0  0  0  0  0  0  0
  146.8883  137.2028  153.5036 N   0  0  0  0  0  0  0  0  0  0  0  0
  145.7531  136.3487  153.8489 C   0  0  1  0  0  0  0  0  0  0  0  0
  144.4486  137.0733  153.4680 C   0  0  0  0  0  0  0  0  0  0  0  0
  145.9032  134.9757  153.1475 C   0  0  1  0  0  0  0  0  0  0  0  0
  144.7139  134.0123  153.3956 C   0  0  0  0  0  0  0  0  0  0  0  0
  144.2819  133.6058  151.9760 C   0  0  2  0  0  0  0  0  0  0  0  0
  145.3633  132.7135  151.3401 C   0  0  0  0  0  0  0  0  0  0  0  0
  146.4995  133.7126  151.0536 C   0  0  0  0  0  0  0  0  0  0  0  0
  145.9330  135.0381  151.5989 C   0  0  1  0  0  0  0  0  0  0  0  0
  144.4604  134.9145  151.2194 C   0  0  0  0  0  0  0  0  0  0  0  0
  150.4483  139.6868  155.0482 C   0  0  0  0  0  0  0  0  0  0  0  0
  151.0025  138.6355  154.7297 O   0  0  0  0  0  0  0  0  0  0  0  0
  151.0720  140.5752  155.9391 N   0  0  0  0  0  0  0  0  0  0  0  0
  148.7549  142.9181  156.0840 H   0  0  0  0  0  0  0  0  0  0  0  0
  152.0403  142.2847  157.5976 H   0  0  0  0  0  0  0  0  0  0  0  0
  150.4303  142.8285  158.0803 H   0  0  0  0  0  0  0  0  0  0  0  0
  151.2610  143.6103  156.7260 H   0  0  0  0  0  0  0  0  0  0  0  0
  146.4190  140.9934  154.7129 H   0  0  0  0  0  0  0  0  0  0  0  0
  147.1874  141.8789  153.3884 H   0  0  0  0  0  0  0  0  0  0  0  0
  146.9314  142.6642  154.9450 H   0  0  0  0  0  0  0  0  0  0  0  0
  149.1249  138.3424  153.1862 H   0  0  0  0  0  0  0  0  0  0  0  0
  148.1401  139.6572  152.6535 H   0  0  0  0  0  0  0  0  0  0  0  0
  147.5099  136.8621  152.7846 H   0  0  0  0  0  0  0  0  0  0  0  0
  145.7521  136.1840  154.9276 H   0  0  0  0  0  0  0  0  0  0  0  0
  143.5678  136.5173  153.7859 H   0  0  0  0  0  0  0  0  0  0  0  0
  144.3779  137.2224  152.3902 H   0  0  0  0  0  0  0  0  0  0  0  0
  144.3905  138.0540  153.9417 H   0  0  0  0  0  0  0  0  0  0  0  0
  146.8232  134.5138  153.5102 H   0  0  0  0  0  0  0  0  0  0  0  0
  144.9959  133.1537  154.0061 H   0  0  0  0  0  0  0  0  0  0  0  0
  143.8869  134.5154  153.8988 H   0  0  0  0  0  0  0  0  0  0  0  0
  143.2795  133.1793  151.9301 H   0  0  0  0  0  0  0  0  0  0  0  0
  145.6751  131.9065  152.0039 H   0  0  0  0  0  0  0  0  0  0  0  0
  145.0040  132.2657  150.4127 H   0  0  0  0  0  0  0  0  0  0  0  0
  147.4373  133.4286  151.5325 H   0  0  0  0  0  0  0  0  0  0  0  0
  146.6831  133.7841  149.9809 H   0  0  0  0  0  0  0  0  0  0  0  0
  146.4357  135.9111  151.1852 H   0  0  0  0  0  0  0  0  0  0  0  0
  144.2962  134.8181  150.1448 H   0  0  0  0  0  0  0  0  0  0  0  0
  143.8389  135.7251  151.6031 H   0  0  0  0  0  0  0  0  0  0  0  0
  1 24  1  0  0  0  0
  1 25  1  0  0  0  0
  1 26  1  0  0  0  0
  1  2  1  0  0  0  0
  2  3  1  0  0  0  0
  2 22  2  0  0  0  0
  3  4  1  0  0  0  0
  3 23  1  0  0  0  0
  4  6  2  0  0  0  0
  4  5  1  0  0  0  0
  5 27  1  0  0  0  0
  5 28  1  0  0  0  0
  5 29  1  0  0  0  0
  6 20  1  0  0  0  0
  6  7  1  0  0  0  0
  7  8  1  0  0  0  0
  7 30  1  0  0  0  0
  7 31  1  0  0  0  0
  8  9  2  0  0  0  0
  8 10  1  0  0  0  0
 10 11  1  0  0  0  0
 10 32  1  0  0  0  0
 11 12  1  0  0  0  0
 11 13  1  0  0  0  0
 11 33  1  0  0  0  0
 12 34  1  0  0  0  0
 12 35  1  0  0  0  0
 12 36  1  0  0  0  0
 13 18  1  0  0  0  0
 13 14  1  0  0  0  0
 13 37  1  0  0  0  0
 14 15  1  0  0  0  0
 14 38  1  0  0  0  0
 14 39  1  0  0  0  0
 15 19  1  0  0  0  0
 15 16  1  0  0  0  0
 15 40  1  0  0  0  0
 16 17  1  0  0  0  0
 16 41  1  0  0  0  0
 16 42  1  0  0  0  0
 17 18  1  0  0  0  0
 17 43  1  0  0  0  0
 17 44  1  0  0  0  0
 18 19  1  0  0  0  0
 18 45  1  0  0  0  0
 19 46  1  0  0  0  0
 19 47  1  0  0  0  0
 20 21  2  0  0  0  0
 20 22  1  0  0  0  0
M  END
> <s_m_source_file>
AV-unprocessed.smi

> <i_m_source_file_index>
2124

> <i_lp_mmshare_version>
43012

> <i_f3d_flags>
0

> <s_epik_input>
W0NIM11jMW5jKFtDSDNdKWMoYyg9TylbbkhdMSlbQ0gyXUMoPU8pW05IXVtDQEhdKFtDSDNdKVtDQEhdKFtDSDJdW0NASF0yMylbQ0BIXShbQ0gyXTMpW0NIMl1bQ0gyXTI=

> <s_epik_cmdline>
J2VwaWtfcHl0aG9uJywgJy1waCcsICc3LjAnLCAnLXRuJywgJzgnLCAnLW1hJywgJzIwMCcsICctbWV0YWxfYmluZGluZycsICctaW1hZScsICc8aW5maWxlLm1hZT4nLCAnLW9tYWUnLCAnPG91dGZpbGUubWFlPic=

> <r_lp_tautomer_probability>
0.156392

> <r_epik_Ionization_Penalty>
0.0139374

> <r_epik_Ionization_Penalty_Charging>
0.0138122

> <r_epik_Ionization_Penalty_Neutral>
0.000125146

> <r_epik_State_Penalty>
1.15342

> <r_epik_Charging_Adjusted_Penalty>
1.16723

> <i_epik_Tot_Q>
0

> <i_epik_Tot_abs_Q>
0

> <r_epik_Metal_State_Penalty>
1.3173

> <b_epik_Metal_Only>
0

> <s_lp_Force_Field>
OPLS_2005

> <r_lp_Energy>
56.04

> <b_lp_Chiralities_Consistent>
1

> <s_lp_Variant>
AV-unprocessed.smi:2124-12

> <Gold.Version>
5.8.1

> <Gold.Id.Protein>
6NUR|6NUR_protein|mol2

> <Gold.PLP.Fitness>
41.0635

> <Gold.PLP.PLP>
-36.0280

> <Gold.PLP.part.hbond>
-2.0000

> <Gold.PLP.part.metal>
0.0000

> <Gold.PLP.part.buried>
-1.1669

> <Gold.PLP.part.nonpolar>
-32.5415

> <Gold.PLP.part.repulsive>
0.4051

> <Gold.PLP.ligand.clash>
0.0000

> <Gold.PLP.ligand.torsion>
0.4951

> <Gold.PLP.Chemscore.Hbond>
2.0000

> <Gold.PLP.Chemscore.CHOScore>
0.0000

> <Gold.PLP.Chemscore.Metal>
0.0000

> <Gold.Chemscore.Hbonds>
donor molecule, donor type, donor heavy atom, donor atom, acceptor molecule, acceptor atom, score
      L1  H     3    23       P1  8028  0.75
      L1  H    10    32       P1  7948  1.00

> <Gold.PLP.Chemscore.Internal.Correction>
0.0257

> <Gold.Rescore>
     Score         DG    S(hbond)    S(metal)    S(lipo)     H(rot)  DE(clash)    DE(int)     intcor
     15.46     -17.71       1.99        0.00      83.85       1.65       1.60       0.65       ----

> <Gold.Chemscore.Fitness>
15.4579

> <Gold.Chemscore.DG>
-17.7078

> <Gold.Chemscore.ZeroCoef>
-5.4800

> <Gold.Chemscore.Hbond>
1.9909

> <Gold.Chemscore.Metal>
0.0000

> <Gold.Chemscore.Lipo>
83.8544

> <Gold.Chemscore.Internal_Hbond>
0.0000

> <Gold.Chemscore.DEClash>
1.6048

> <Gold.Chemscore.DEInternal>
0.6451

> <Gold.Chemscore.Rot>
1.6534

> <Gold.Chemscore.Internal.Correction>
   9.000000E+99

> <Gold.Chemscore.Hbonds>
donor molecule, donor type, donor heavy atom, donor atom, acceptor molecule, acceptor atom, score
      L1  H     3    23       P1  8028  0.76
      L1  H    10    32       P1  7948  1.00

> <Gold.Chemscore.Hbond.Weighted>
-6.6495

> <Gold.Chemscore.Metal.Weighted>
-0.0000

> <Gold.Chemscore.Lipo.Weighted>
-9.8110

> <Gold.Chemscore.Internal_Hbond.Weighted>
0.0000

> <Gold.Chemscore.DEClash.Weighted>
1.6048

> <Gold.Chemscore.DEInternal.Weighted>
0.6451

> <Gold.Chemscore.Rot.Weighted>
4.2326

> <Gold.Chemscore.Internal.Correction.Weighted>
   9.000000E+99

> <Gold.Protein.RotatedTorsions>
[ 6907 6896 6895 6894 ] final  165.10 input  -60.11 | X-H torsion
[ 7974 7965 7964 7962 ] final  177.15 input  175.53 | X-H torsion
[ 8008 7997 7996 7995 ] final  -41.96 input   59.86 | X-H torsion
[ 10167 10162 10161 10158 ] final   36.97 input  -65.29 | X-H torsion
[ 10718 10713 10712 10709 ] final -100.29 input   66.30 | X-H torsion
[ 10763 10752 10751 10750 ] final  141.75 input  -60.55 | X-H torsion
[ 11005 11000 10999 10996 ] final -100.81 input  -57.11 | X-H torsion

> <Gold.Protein.ActiveResidues>
 VAL166  LYS551  ARG553  GLY616  TRP617  ASP618  TYR619  PRO620  LYS621  CYS622 
 ASP623  PHE694  ASN695  SER759  ASP760  ASP761  ALA762  ILE779  LEU786  VAL792 
 PHE793  MET794  SER795  GLU796  ALA797  LYS798  CYS799  TRP800  GLU811  SER814 

> <Gold.Protein.RotatedAtoms>
  151.8996  133.3535  159.3825 H   0  0  0  0  0  0  0  0  0  0  0  0  # atno 6907 bound_to 6896
  150.7083  134.4842  159.5494 H   0  0  0  0  0  0  0  0  0  0  0  0  # atno 6908 bound_to 6896
  152.2428  134.8212  160.0508 H   0  0  0  0  0  0  0  0  0  0  0  0  # atno 6909 bound_to 6896
  144.7173  140.0204  143.6440 H   0  0  0  0  0  0  0  0  0  0  0  0  # atno 7974 bound_to 7965
  154.4001  140.1486  156.3277 H   0  0  0  0  0  0  0  0  0  0  0  0  # atno 8008 bound_to 7997
  155.8471  140.3459  155.5648 H   0  0  0  0  0  0  0  0  0  0  0  0  # atno 8009 bound_to 7997
  155.8024  140.0872  157.1940 H   0  0  0  0  0  0  0  0  0  0  0  0  # atno 8010 bound_to 7997
  140.4077  144.1636  150.6137 H   0  0  0  0  0  0  0  0  0  0  0  0  # atno 10167 bound_to 10162
  156.0158  130.5321  150.6795 H   0  0  0  0  0  0  0  0  0  0  0  0  # atno 10718 bound_to 10713
  153.9444  135.2976  155.3441 H   0  0  0  0  0  0  0  0  0  0  0  0  # atno 10763 bound_to 10752
  154.7460  135.5003  153.9208 H   0  0  0  0  0  0  0  0  0  0  0  0  # atno 10764 bound_to 10752
  153.1026  135.6738  153.9752 H   0  0  0  0  0  0  0  0  0  0  0  0  # atno 10765 bound_to 10752
  141.1256  133.8429  157.1151 H   0  0  0  0  0  0  0  0  0  0  0  0  # atno 11005 bound_to 11000
  146.0185  139.3230  143.0827 LP  0  0  0  0  0  0  0  0  0  0  0  0  # atno 17320 bound_to 7965
  145.8597  140.9482  143.0706 LP  0  0  0  0  0  0  0  0  0  0  0  0  # atno 17321 bound_to 7965
  140.4671  143.2426  151.9140 LP  0  0  0  0  0  0  0  0  0  0  0  0  # atno 17342 bound_to 10162
  139.4783  144.5408  151.8531 LP  0  0  0  0  0  0  0  0  0  0  0  0  # atno 17343 bound_to 10162
  157.4500  131.0871  151.0855 LP  0  0  0  0  0  0  0  0  0  0  0  0  # atno 17370 bound_to 10713
  157.1374  130.6128  149.5546 LP  0  0  0  0  0  0  0  0  0  0  0  0  # atno 17371 bound_to 10713
  140.0251  134.9928  157.0670 LP  0  0  0  0  0  0  0  0  0  0  0  0  # atno 17394 bound_to 11000
  140.4376  134.1715  155.7171 LP  0  0  0  0  0  0  0  0  0  0  0  0  # atno 17395 bound_to 11000

$$$$
