AV-unprocessed.smi:2385|AV-procd|sdf|9466|dock5
  -GOLD-   2272013 93D 1   1.00000     0.00000
 Structure written by MMmdl.
 50 52  0  0  0  0  0  0  0  0  2 V2000
  151.7040  145.6570  160.1913 C   0  0  0  0  0  0  0  0  0  0  0  0
  151.6599  144.3548  159.4193 C   0  0  0  0  0  0  0  0  0  0  0  0
  152.3760  143.2230  159.8534 C   0  0  0  0  0  0  0  0  0  0  0  0
  152.2971  142.0384  159.0957 C   0  0  0  0  0  0  0  0  0  0  0  0
  151.5070  142.0131  157.9243 C   0  0  0  0  0  0  0  0  0  0  0  0
  151.4933  140.7714  157.2345 N   0  0  0  0  0  0  0  0  0  0  0  0
  151.1008  140.5273  155.9716 C   0  0  0  0  0  0  0  0  0  0  0  0
  150.6948  141.3730  155.1743 O   0  0  0  0  0  0  0  0  0  0  0  0
  151.2045  139.2235  155.6734 N   0  0  0  0  0  0  0  0  0  0  0  0
  150.8739  138.6231  154.3808 C   0  0  2  0  0  0  0  0  0  0  0  0
  149.3807  138.7822  154.0341 C   0  0  0  0  0  0  0  0  0  0  0  0
  148.4848  137.9091  154.9298 C   0  0  0  0  0  0  0  0  0  0  0  0
  148.8812  136.4779  154.8626 N   0  3  2  0  0  0  0  0  0  0  0  0
  147.9425  135.5992  155.6104 C   0  0  0  0  0  0  0  0  0  0  0  0
  147.7952  134.1980  154.9810 C   0  0  1  0  0  0  0  0  0  0  0  0
  147.0757  134.1438  153.6355 C   0  0  0  0  0  0  0  0  0  0  0  0
  147.8166  133.0624  152.8414 C   0  0  0  0  0  0  0  0  0  0  0  0
  148.7755  132.5230  153.7392 O   0  0  0  0  0  0  0  0  0  0  0  0
  149.1375  133.5532  154.6404 C   0  0  0  0  0  0  0  0  0  0  0  0
  150.3042  136.2919  155.2534 C   0  0  0  0  0  0  0  0  0  0  0  0
  151.2456  137.1310  154.3693 C   0  0  0  0  0  0  0  0  0  0  0  0
  150.8202  143.1088  157.5148 N   0  0  0  0  0  0  0  0  0  0  0  0
  150.8965  144.2437  158.2412 C   0  0  0  0  0  0  0  0  0  0  0  0
  152.3184  145.5665  161.0875 H   0  0  0  0  0  0  0  0  0  0  0  0
  150.6986  145.9498  160.4953 H   0  0  0  0  0  0  0  0  0  0  0  0
  152.1206  146.4502  159.5699 H   0  0  0  0  0  0  0  0  0  0  0  0
  152.9760  143.2568  160.7511 H   0  0  0  0  0  0  0  0  0  0  0  0
  152.8407  141.1610  159.4153 H   0  0  0  0  0  0  0  0  0  0  0  0
  151.8162  139.9777  157.7674 H   0  0  0  0  0  0  0  0  0  0  0  0
  151.5551  138.6029  156.3882 H   0  0  0  0  0  0  0  0  0  0  0  0
  151.4693  139.1269  153.6169 H   0  0  0  0  0  0  0  0  0  0  0  0
  149.0760  139.8268  154.1053 H   0  0  0  0  0  0  0  0  0  0  0  0
  149.2251  138.4976  152.9925 H   0  0  0  0  0  0  0  0  0  0  0  0
  148.5289  138.2537  155.9642 H   0  0  0  0  0  0  0  0  0  0  0  0
  147.4502  138.0213  154.6035 H   0  0  0  0  0  0  0  0  0  0  0  0
  148.2195  135.5409  156.6642 H   0  0  0  0  0  0  0  0  0  0  0  0
  146.9532  136.0587  155.5926 H   0  0  0  0  0  0  0  0  0  0  0  0
  147.2845  133.5341  155.6807 H   0  0  0  0  0  0  0  0  0  0  0  0
  146.0211  133.8965  153.7598 H   0  0  0  0  0  0  0  0  0  0  0  0
  147.1373  135.0953  153.1055 H   0  0  0  0  0  0  0  0  0  0  0  0
  147.1491  132.2822  152.4751 H   0  0  0  0  0  0  0  0  0  0  0  0
  148.3306  133.4998  151.9846 H   0  0  0  0  0  0  0  0  0  0  0  0
  149.8044  134.2589  154.1420 H   0  0  0  0  0  0  0  0  0  0  0  0
  149.6489  133.1554  155.5173 H   0  0  0  0  0  0  0  0  0  0  0  0
  150.4327  136.5599  156.3032 H   0  0  0  0  0  0  0  0  0  0  0  0
  150.5896  135.2463  155.1624 H   0  0  0  0  0  0  0  0  0  0  0  0
  151.1957  136.7584  153.3450 H   0  0  0  0  0  0  0  0  0  0  0  0
  152.2797  136.9961  154.6891 H   0  0  0  0  0  0  0  0  0  0  0  0
  150.3310  145.0862  157.8710 H   0  0  0  0  0  0  0  0  0  0  0  0
  148.8033  136.2151  153.8904 H   0  0  0  0  0  0  0  0  0  0  0  0
  1  2  1  0  0  0  0
  1 24  1  0  0  0  0
  1 25  1  0  0  0  0
  1 26  1  0  0  0  0
  2 23  1  0  0  0  0
  2  3  2  0  0  0  0
  3  4  1  0  0  0  0
  3 27  1  0  0  0  0
  4  5  2  0  0  0  0
  4 28  1  0  0  0  0
  5  6  1  0  0  0  0
  5 22  1  0  0  0  0
  6  7  1  0  0  0  0
  6 29  1  0  0  0  0
  7  8  2  0  0  0  0
  7  9  1  0  0  0  0
  9 10  1  0  0  0  0
  9 30  1  0  0  0  0
 10 21  1  0  0  0  0
 10 11  1  0  0  0  0
 10 31  1  0  0  0  0
 11 12  1  0  0  0  0
 11 32  1  0  0  0  0
 11 33  1  0  0  0  0
 12 13  1  0  0  0  0
 12 34  1  0  0  0  0
 12 35  1  0  0  0  0
 13 14  1  0  0  0  0
 13 20  1  0  0  0  0
 13 50  1  0  0  0  0
 14 15  1  0  0  0  0
 14 36  1  0  0  0  0
 14 37  1  0  0  0  0
 15 19  1  0  0  0  0
 15 16  1  0  0  0  0
 15 38  1  0  0  0  0
 16 17  1  0  0  0  0
 16 39  1  0  0  0  0
 16 40  1  0  0  0  0
 17 18  1  0  0  0  0
 17 41  1  0  0  0  0
 17 42  1  0  0  0  0
 18 19  1  0  0  0  0
 19 43  1  0  0  0  0
 19 44  1  0  0  0  0
 20 21  1  0  0  0  0
 20 45  1  0  0  0  0
 20 46  1  0  0  0  0
 21 47  1  0  0  0  0
 21 48  1  0  0  0  0
 22 23  2  0  0  0  0
 23 49  1  0  0  0  0
M  CHG  1  13   1
M  END
> <s_m_source_file>
AV-unprocessed.smi

> <i_m_source_file_index>
2385

> <i_lp_mmshare_version>
43012

> <i_f3d_flags>
0

> <s_epik_input>
W0NIM11jMVtjSF1bY0hdYyhuW2NIXTEpW05IXUMoPU8pW05IXVtDSF0yW0NIMl1bQ0gyXU4oW0NIMl1bQ0gyXTIpW0NIMl1bQ0BASF0zW0NIMl1bQ0gyXU9bQ0gyXTM=

> <s_epik_cmdline>
J2VwaWtfcHl0aG9uJywgJy1waCcsICc3LjAnLCAnLXRuJywgJzgnLCAnLW1hJywgJzIwMCcsICctbWV0YWxfYmluZGluZycsICctaW1hZScsICc8aW5maWxlLm1hZT4nLCAnLW9tYWUnLCAnPG91dGZpbGUubWFlPic=

> <r_epik_Ionization_Penalty>
0.00752367

> <r_epik_Ionization_Penalty_Charging>
0.00747775

> <r_epik_Ionization_Penalty_Neutral>
4.59207e-05

> <r_epik_State_Penalty>
0.00558817

> <r_epik_Charging_Adjusted_Penalty>
0.0130659

> <i_epik_Tot_Q>
1

> <i_epik_Tot_abs_Q>
1

> <r_epik_Metal_State_Penalty>
-0

> <b_epik_Metal_Only>
0

> <s_lp_Force_Field>
OPLS_2005

> <r_lp_Energy>
36.5339

> <b_lp_Chiralities_Consistent>
1

> <s_lp_Variant>
AV-unprocessed.smi:2385-4

> <Gold.Version>
5.8.1

> <Gold.Id.Protein>
6NUR|6NUR_protein|mol2

> <Gold.PLP.Fitness>
48.7882

> <Gold.PLP.PLP>
-39.8570

> <Gold.PLP.part.hbond>
-2.0000

> <Gold.PLP.part.metal>
0.0000

> <Gold.PLP.part.buried>
-1.5616

> <Gold.PLP.part.nonpolar>
-38.4083

> <Gold.PLP.part.repulsive>
0.6032

> <Gold.PLP.ligand.clash>
0.0000

> <Gold.PLP.ligand.torsion>
0.4922

> <Gold.PLP.Chemscore.Hbond>
2.4172

> <Gold.PLP.Chemscore.CHOScore>
0.8750

> <Gold.PLP.Chemscore.Metal>
0.0000

> <Gold.Chemscore.Hbonds>
donor molecule, donor type, donor heavy atom, donor atom, acceptor molecule, acceptor atom, score
      L1  H    13    50       P1  7948  2.00
      P1  H  7989  7998       L1     8  0.51
      L1  C    23    49       P1  8028  0.33
      L1  C    23    49       P1  8029  0.40

> <Gold.PLP.Chemscore.Internal.Correction>
0.0387

> <Gold.Rescore>
     Score         DG    S(hbond)    S(metal)    S(lipo)     H(rot)  DE(clash)    DE(int)     intcor
     15.75     -19.70       1.49        0.00     109.62       1.41       2.12       1.83       ----

> <Gold.Chemscore.Fitness>
15.7464

> <Gold.Chemscore.DG>
-19.6999

> <Gold.Chemscore.ZeroCoef>
-5.4800

> <Gold.Chemscore.Hbond>
1.4949

> <Gold.Chemscore.Metal>
0.0000

> <Gold.Chemscore.Lipo>
109.6175

> <Gold.Chemscore.Internal_Hbond>
0.0000

> <Gold.Chemscore.DEClash>
2.1215

> <Gold.Chemscore.DEInternal>
1.8320

> <Gold.Chemscore.Rot>
1.4056

> <Gold.Chemscore.Internal.Correction>
   9.000000E+99

> <Gold.Chemscore.Hbonds>
donor molecule, donor type, donor heavy atom, donor atom, acceptor molecule, acceptor atom, score
      L1  H    13    50       P1  7948  0.94
      P1  H  7989  7998       L1     8  0.22

> <Gold.Chemscore.Hbond.Weighted>
-4.9929

> <Gold.Chemscore.Metal.Weighted>
-0.0000

> <Gold.Chemscore.Lipo.Weighted>
-12.8252

> <Gold.Chemscore.Internal_Hbond.Weighted>
0.0000

> <Gold.Chemscore.DEClash.Weighted>
2.1215

> <Gold.Chemscore.DEInternal.Weighted>
1.8320

> <Gold.Chemscore.Rot.Weighted>
3.5982

> <Gold.Chemscore.Internal.Correction.Weighted>
   9.000000E+99

> <Gold.Protein.RotatedTorsions>
[ 6907 6896 6895 6894 ] final  139.98 input  -60.11 | X-H torsion
[ 7974 7965 7964 7962 ] final  158.54 input  175.53 | X-H torsion
[ 8008 7997 7996 7995 ] final   -1.37 input   59.86 | X-H torsion
[ 10167 10162 10161 10158 ] final  164.02 input  -65.29 | X-H torsion
[ 10718 10713 10712 10709 ] final  -95.54 input   66.30 | X-H torsion
[ 10763 10752 10751 10750 ] final   19.54 input  -60.55 | X-H torsion
[ 11005 11000 10999 10996 ] final -100.31 input  -57.11 | X-H torsion

> <Gold.Protein.ActiveResidues>
 VAL166  LYS551  ARG553  GLY616  TRP617  ASP618  TYR619  PRO620  LYS621  CYS622 
 ASP623  PHE694  ASN695  SER759  ASP760  ASP761  ALA762  ILE779  LEU786  VAL792 
 PHE793  MET794  SER795  GLU796  ALA797  LYS798  CYS799  TRP800  GLU811  SER814 

> <Gold.Protein.RotatedAtoms>
  152.2485  133.5195  159.5311 H   0  0  0  0  0  0  0  0  0  0  0  0  # atno 6907 bound_to 6896
  150.7086  134.0993  159.3969 H   0  0  0  0  0  0  0  0  0  0  0  0  # atno 6908 bound_to 6896
  151.8913  135.0415  160.0549 H   0  0  0  0  0  0  0  0  0  0  0  0  # atno 6909 bound_to 6896
  144.7840  139.7492  143.6248 H   0  0  0  0  0  0  0  0  0  0  0  0  # atno 7974 bound_to 7965
  154.6475  140.2561  155.7251 H   0  0  0  0  0  0  0  0  0  0  0  0  # atno 8008 bound_to 7997
  156.2559  140.2875  156.0816 H   0  0  0  0  0  0  0  0  0  0  0  0  # atno 8009 bound_to 7997
  155.1502  140.0382  157.2809 H   0  0  0  0  0  0  0  0  0  0  0  0  # atno 8010 bound_to 7997
  139.4882  144.4278  151.9108 H   0  0  0  0  0  0  0  0  0  0  0  0  # atno 10167 bound_to 10162
  156.0045  130.5113  150.6091 H   0  0  0  0  0  0  0  0  0  0  0  0  # atno 10718 bound_to 10713
  153.1153  135.6706  153.9429 H   0  0  0  0  0  0  0  0  0  0  0  0  # atno 10763 bound_to 10752
  153.8960  135.3041  155.3449 H   0  0  0  0  0  0  0  0  0  0  0  0  # atno 10764 bound_to 10752
  154.7570  135.5007  153.9471 H   0  0  0  0  0  0  0  0  0  0  0  0  # atno 10765 bound_to 10752
  141.1275  133.8389  157.1086 H   0  0  0  0  0  0  0  0  0  0  0  0  # atno 11005 bound_to 11000
  146.2063  139.5389  142.9710 LP  0  0  0  0  0  0  0  0  0  0  0  0  # atno 17320 bound_to 7965
  145.5972  141.0361  143.2038 LP  0  0  0  0  0  0  0  0  0  0  0  0  # atno 17321 bound_to 7965
  140.3724  144.2838  150.5918 LP  0  0  0  0  0  0  0  0  0  0  0  0  # atno 17342 bound_to 10162
  140.5306  143.2244  151.8244 LP  0  0  0  0  0  0  0  0  0  0  0  0  # atno 17343 bound_to 10162
  157.3927  131.0798  151.1379 LP  0  0  0  0  0  0  0  0  0  0  0  0  # atno 17370 bound_to 10713
  157.2066  130.6419  149.5758 LP  0  0  0  0  0  0  0  0  0  0  0  0  # atno 17371 bound_to 10713
  140.0289  134.9911  157.0741 LP  0  0  0  0  0  0  0  0  0  0  0  0  # atno 17394 bound_to 11000
  140.4318  134.1773  155.7168 LP  0  0  0  0  0  0  0  0  0  0  0  0  # atno 17395 bound_to 11000

$$$$
