#       Name:                AV-unprocessed.smi:2849
#       Creating user name   scv26
#       Creation time:       Fri Mar 27 15:41:41 2020


#       File generated by GOLD software.
#

@<TRIPOS>MOLECULE
AV-unprocessed.smi:2849
    58    61     1
SMALL
NO_CHARGES


@<TRIPOS>ATOM
      1 ****        -5.6707  -3.9992  -0.7521 C.3            1 S1                 0.0000
      2 ****        -4.5025  -3.1699  -0.3706 N.4            1 S1                 1.0000
      3 ****        -4.4513  -2.7874   1.0616 C.3            1 S1                 0.0000
      4 ****        -5.5582  -1.7598   1.4105 C.3            1 S1                 0.0000
      5 ****        -5.5921  -0.5330   0.4789 C.3            1 S1                 0.0000
      6 ****        -5.3762  -0.9088  -0.9995 C.3            1 S1                 0.0000
      7 ****        -4.2775  -1.9785  -1.2248 C.3            1 S1                 0.0000
      8 ****        -2.8307  -1.4764  -1.0112 C.3            1 S1                 0.0000
      9 ****        -2.4455  -1.2386   0.4719 C.3            1 S1                 0.0000
     10 ****        -0.9919  -1.1917   0.6180 N.am           1 S1                 0.0000
     11 ****        -0.2169  -0.1431   0.3033 C.2            1 S1                 0.0000
     12 ****        -0.6549   0.9039  -0.1727 O.2            1 S1                 0.0000
     13 ****         1.0734  -0.3857   0.5920 N.am           1 S1                 0.0000
     14 ****         2.1914   0.4759   0.4260 C.ar           1 S1                 0.0000
     15 ****         3.3540   0.1986   1.1754 C.ar           1 S1                 0.0000
     16 ****         4.4905   1.0215   1.0376 C.ar           1 S1                 0.0000
     17 ****         4.4601   2.1130   0.1381 C.ar           1 S1                 0.0000
     18 ****         5.5509   2.9837  -0.0448 N.pl3          1 S1                 0.0000
     19 ****         6.8644   2.6967   0.5066 C.3            1 S1                 0.0000
     20 ****         7.7619   3.8088  -0.0356 C.3            1 S1                 0.0000
     21 ****         7.1423   4.1252  -1.3974 C.3            1 S1                 0.0000
     22 ****         5.6434   3.8765  -1.1924 C.3            1 S1                 0.0000
     23 ****         3.3274   2.3345  -0.5705 N.pl3          1 S1                 1.0000
     24 ****         2.2164   1.5733  -0.4679 C.ar           1 S1                 0.0000
     25 ****        -3.0135  -2.3337   1.4065 C.3            1 S1                 0.0000
     26 ****        -6.6144  -3.4694  -0.6267 H              1 S1                 0.0000
     27 ****        -5.7083  -4.9032  -0.1438 H              1 S1                 0.0000
     28 ****        -5.5935  -4.3077  -1.7949 H              1 S1                 0.0000
     29 ****        -4.6433  -3.6838   1.6533 H              1 S1                 0.0000
     30 ****        -6.5272  -2.2567   1.3595 H              1 S1                 0.0000
     31 ****        -5.4558  -1.4340   2.4462 H              1 S1                 0.0000
     32 ****        -6.5493  -0.0218   0.5870 H              1 S1                 0.0000
     33 ****        -4.8572   0.2030   0.7936 H              1 S1                 0.0000
     34 ****        -6.3187  -1.2835  -1.3996 H              1 S1                 0.0000
     35 ****        -5.1525  -0.0125  -1.5791 H              1 S1                 0.0000
     36 ****        -4.3438  -2.2966  -2.2662 H              1 S1                 0.0000
     37 ****        -2.1581  -2.2284  -1.4274 H              1 S1                 0.0000
     38 ****        -2.6581  -0.5716  -1.5953 H              1 S1                 0.0000
     39 ****        -2.8287  -0.2744   0.7967 H              1 S1                 0.0000
     40 ****        -0.5470  -2.0107   1.0063 H              1 S1                 0.0000
     41 ****         1.2683  -1.2664   1.0453 H              1 S1                 0.0000
     42 ****         3.3770  -0.6356   1.8616 H              1 S1                 0.0000
     43 ****         5.3696   0.8049   1.6261 H              1 S1                 0.0000
     44 ****         6.8524   2.6876   1.5970 H              1 S1                 0.0000
     45 ****         7.2023   1.7214   0.1537 H              1 S1                 0.0000
     46 ****         7.6956   4.6851   0.6107 H              1 S1                 0.0000
     47 ****         8.8102   3.5162  -0.0993 H              1 S1                 0.0000
     48 ****         7.3604   5.1372  -1.7400 H              1 S1                 0.0000
     49 ****         7.5295   3.4295  -2.1430 H              1 S1                 0.0000
     50 ****         5.1910   3.4503  -2.0886 H              1 S1                 0.0000
     51 ****         5.1260   4.8069  -0.9562 H              1 S1                 0.0000
     52 ****         1.4026   1.8716  -1.1114 H              1 S1                 0.0000
     53 ****        -2.9611  -2.0032   2.4447 H              1 S1                 0.0000
     54 ****        -2.3702  -3.2131   1.3437 H              1 S1                 0.0000
     55 ****        -3.7042  -3.7694  -0.5234 H              1 S1                 0.0000
     56 ****         3.3105   3.1217  -1.2194 H              1 S1                 0.0000
     57 ****        -1.6351   1.0039  -0.3434 LP             1 S1                 0.0000
     58 ****        -0.0305   1.6546  -0.3887 LP             1 S1                 0.0000
@<TRIPOS>BOND
    1    1    2 1     
    2    1   26 1     
    3    1   27 1     
    4    1   28 1     
    5    2    7 1     
    6    2    3 1     
    7    2   55 1     
    8    3   25 1     
    9    3    4 1     
   10    3   29 1     
   11    4    5 1     
   12    4   30 1     
   13    4   31 1     
   14    5    6 1     
   15    5   32 1     
   16    5   33 1     
   17    6    7 1     
   18    6   34 1     
   19    6   35 1     
   20    7    8 1     
   21    7   36 1     
   22    8    9 1     
   23    8   37 1     
   24    8   38 1     
   25    9   10 1     
   26    9   25 1     
   27    9   39 1     
   28   10   11 am    
   29   10   40 1     
   30   11   12 2     
   31   11   13 am    
   32   13   14 1     
   33   13   41 1     
   34   14   24 ar    
   35   14   15 ar    
   36   15   16 ar    
   37   15   42 1     
   38   16   17 ar    
   39   16   43 1     
   40   17   18 1     
   41   17   23 ar    
   42   18   22 1     
   43   18   19 1     
   44   19   20 1     
   45   19   44 1     
   46   19   45 1     
   47   20   21 1     
   48   20   46 1     
   49   20   47 1     
   50   21   22 1     
   51   21   48 1     
   52   21   49 1     
   53   22   50 1     
   54   22   51 1     
   55   23   24 ar    
   56   23   56 1     
   57   24   52 1     
   58   25   53 1     
   59   25   54 1     
   60   12   57 1     
   61   12   58 1     
@<TRIPOS>SUBSTRUCTURE
      1 S1             1
@<TRIPOS>SET
LONE_PAIRS      STATIC     ATOMS    <user>   **** ""
2 57 58
DONOR_HYDROGENS      STATIC     ATOMS    <user>   **** ""
4 55 40 41 56
ATOM$BLUE        STATIC     ATOMS    COLORGROUP SYSTEM
2 57 58
ATOM$RED        STATIC     ATOMS    COLORGROUP SYSTEM
4 55 40 41 56
