#       Name:                AV-unprocessed.smi:410
#       Creating user name   scv26
#       Creation time:       Thu Mar 26 22:45:51 2020


#       File generated by GOLD software.
#

@<TRIPOS>MOLECULE
AV-unprocessed.smi:410
    43    45     1
SMALL
NO_CHARGES


@<TRIPOS>ATOM
      1 ****        -1.8710   3.7091   0.1546 C.3            1 S1                 0.0000
      2 ****        -0.8649   2.5997   0.2204 C.2            1 S1                 0.0000
      3 ****         0.4145   2.8964   0.2012 N.2            1 S1                 0.0000
      4 ****         1.0897   1.7223   0.2315 N.pl3          1 S1                 0.0000
      5 ****         2.5430   1.7537   0.2063 C.3            1 S1                 0.0000
      6 ****         3.1021   1.9858  -1.2070 C.3            1 S1                 0.0000
      7 ****         2.7224   0.9426  -2.0807 O.3            1 S1                 0.0000
      8 ****         0.2485   0.6249   0.2739 C.ar           1 S1                 0.0000
      9 ****         0.6109  -0.6890   0.2950 N.ar           1 S1                 0.0000
     10 ****        -0.4168  -1.5652   0.3209 C.ar           1 S1                 0.0000
     11 ****        -0.0443  -2.9797   0.3253 C.2            1 S1                 0.0000
     12 ****        -0.7853  -4.1316   0.3383 C.2            1 S1                 0.0000
     13 ****         0.1395  -5.2122   0.3323 C.2            1 S1                 0.0000
     14 ****         1.3809  -4.6446   0.3163 C.2            1 S1                 0.0000
     15 ****         1.2879  -3.2873   0.3125 O.3            1 S1                 0.0000
     16 ****        -1.7712  -1.1697   0.3443 C.ar           1 S1                 0.0000
     17 ****        -2.1185   0.2029   0.3388 C.ar           1 S1                 0.0000
     18 ****        -3.5759   0.5802   0.3934 C.2            1 S1                 0.0000
     19 ****        -3.9072   1.7190   0.7836 O.co2          1 S1                 0.0000
     20 ****        -4.4272  -0.2786   0.0704 O.co2          1 S1                -1.0000
     21 ****        -1.0678   1.1673   0.2858 C.ar           1 S1                 0.0000
     22 ****        -2.6163   3.5219  -0.6184 H              1 S1                 0.0000
     23 ****        -1.4029   4.6656  -0.0807 H              1 S1                 0.0000
     24 ****        -2.3877   3.8303   1.1065 H              1 S1                 0.0000
     25 ****         2.8845   2.5431   0.8771 H              1 S1                 0.0000
     26 ****         2.9239   0.8167   0.6143 H              1 S1                 0.0000
     27 ****         2.7466   2.9346  -1.6101 H              1 S1                 0.0000
     28 ****         4.1906   2.0374  -1.1761 H              1 S1                 0.0000
     29 ****         3.0711   1.1270  -2.9393 H              1 S1                 0.0000
     30 ****        -1.8634  -4.1919   0.3489 H              1 S1                 0.0000
     31 ****        -0.0767  -6.2702   0.3378 H              1 S1                 0.0000
     32 ****         2.3866  -5.0382   0.3058 H              1 S1                 0.0000
     33 ****        -2.5443  -1.9235   0.3787 H              1 S1                 0.0000
     34 ****         0.8134   3.8129   0.1701 LP             1 S1                 0.0000
     35 ****         1.7249   0.8879  -2.1268 LP             1 S1                 0.0000
     36 ****         3.0889   0.0739  -1.7476 LP             1 S1                 0.0000
     37 ****         1.5668  -0.9825   0.2915 LP             1 S1                 0.0000
     38 ****         1.7356  -2.9098   1.1230 LP             1 S1                 0.0000
     39 ****         1.7186  -2.9155  -0.5099 LP             1 S1                 0.0000
     40 ****        -4.8746   1.9649   0.8444 LP             1 S1                 0.0000
     41 ****        -3.2052   2.3852   1.0352 LP             1 S1                 0.0000
     42 ****        -5.4018  -0.0604   0.1213 LP             1 S1                 0.0000
     43 ****        -4.1328  -1.1829  -0.2387 LP             1 S1                 0.0000
@<TRIPOS>BOND
    1    1    2 1     
    2    1   22 1     
    3    1   23 1     
    4    1   24 1     
    5    2   21 1     
    6    2    3 2     
    7    3    4 1     
    8    4    5 1     
    9    4    8 1     
   10    5    6 1     
   11    5   25 1     
   12    5   26 1     
   13    6    7 1     
   14    6   27 1     
   15    6   28 1     
   16    7   29 1     
   17    8   21 ar    
   18    8    9 ar    
   19    9   10 ar    
   20   10   11 1     
   21   10   16 ar    
   22   11   15 1     
   23   11   12 2     
   24   12   13 1     
   25   12   30 1     
   26   13   14 2     
   27   13   31 1     
   28   14   15 1     
   29   14   32 1     
   30   16   17 ar    
   31   16   33 1     
   32   17   18 1     
   33   17   21 ar    
   34   18   19 ar    
   35   18   20 ar    
   36    3   34 1     
   37    7   35 1     
   38    7   36 1     
   39    9   37 1     
   40   15   38 1     
   41   15   39 1     
   42   19   40 1     
   43   19   41 1     
   44   20   42 1     
   45   20   43 1     
@<TRIPOS>SUBSTRUCTURE
      1 S1             1
@<TRIPOS>SET
LONE_PAIRS      STATIC     ATOMS    <user>   **** ""
10 34 35 36 37 38 39 40 41 42 43
DONOR_HYDROGENS      STATIC     ATOMS    <user>   **** ""
1 29
ATOM$BLUE        STATIC     ATOMS    COLORGROUP SYSTEM
10 34 35 36 37 38 39 40 41 42 43
ATOM$RED        STATIC     ATOMS    COLORGROUP SYSTEM
1 29
