AV-unprocessed.smi:22|AV-procd|sdf|171|dock9
  -GOLD-   2262015423D 1   1.00000     0.00000
 Structure written by MMmdl.
 56 59  0  0  0  0  0  0  0  0  2 V2000
  144.1002  132.5340  149.0283 C   0  0  0  0  0  0  0  0  0  0  0  0
  145.0880  133.4128  149.7091 N   0  3  2  0  0  0  0  0  0  0  0  0
  146.1381  132.6272  150.4258 C   0  0  0  0  0  0  0  0  0  0  0  0
  145.6351  131.2983  151.0216 C   0  0  0  0  0  0  0  0  0  0  0  0
  146.6716  130.6562  151.7343 O   0  0  0  0  0  0  0  0  0  0  0  0
  144.4061  134.4744  150.5211 C   0  0  0  0  0  0  0  0  0  0  0  0
  145.4331  135.5300  150.9967 C   0  0  0  0  0  0  0  0  0  0  0  0
  144.7680  136.6516  151.8095 C   0  0  0  0  0  0  0  0  0  0  0  0
  144.0173  136.1030  152.9373 N   0  0  0  0  0  0  0  0  0  0  0  0
  143.6231  136.9655  153.9086 C   0  0  0  0  0  0  0  0  0  0  0  0
  144.3589  137.0909  155.0455 N   0  0  0  0  0  0  0  0  0  0  0  0
  143.9860  137.9487  155.9997 C   0  0  0  0  0  0  0  0  0  0  0  0
  142.9285  138.7617  156.0236 N   0  0  0  0  0  0  0  0  0  0  0  0
  142.1794  138.6332  154.8913 C   0  0  0  0  0  0  0  0  0  0  0  0
  142.4537  137.7691  153.7936 C   0  0  0  0  0  0  0  0  0  0  0  0
  141.4675  137.9082  152.8242 N   0  0  0  0  0  0  0  0  0  0  0  0
  140.6616  138.8089  153.3169 C   0  0  0  0  0  0  0  0  0  0  0  0
  141.0087  139.2926  154.5584 N   0  0  0  0  0  0  0  0  0  0  0  0
  140.2936  140.2956  155.3337 C   0  0  0  0  0  0  0  0  0  0  0  0
  139.4798  141.2855  154.4674 C   0  0  2  0  0  0  0  0  0  0  0  0
  140.3397  141.8653  153.5008 O   0  0  0  0  0  0  0  0  0  0  0  0
  138.8510  142.4087  155.2825 C   0  0  0  0  0  0  0  0  0  0  0  0
  137.6176  142.7669  154.4645 C   0  0  0  0  0  0  0  0  0  0  0  0
  137.1500  141.5028  154.0255 O   0  0  0  0  0  0  0  0  0  0  0  0
  138.2686  140.6686  153.7370 C   0  0  0  0  0  0  0  0  0  0  0  0
  143.0139  135.1071  152.5717 C   0  0  0  0  0  0  0  0  0  0  0  0
  143.6450  133.9573  151.7696 C   0  0  0  0  0  0  0  0  0  0  0  0
  143.6540  131.8318  149.7336 H   0  0  0  0  0  0  0  0  0  0  0  0
  144.5615  131.9661  148.2215 H   0  0  0  0  0  0  0  0  0  0  0  0
  143.2895  133.0978  148.5704 H   0  0  0  0  0  0  0  0  0  0  0  0
  146.9497  132.3662  149.7478 H   0  0  0  0  0  0  0  0  0  0  0  0
  146.5694  133.2446  151.2151 H   0  0  0  0  0  0  0  0  0  0  0  0
  144.8202  131.4962  151.7184 H   0  0  0  0  0  0  0  0  0  0  0  0
  145.2280  130.6281  150.2656 H   0  0  0  0  0  0  0  0  0  0  0  0
  147.3811  130.4713  151.1374 H   0  0  0  0  0  0  0  0  0  0  0  0
  143.6696  134.9618  149.8795 H   0  0  0  0  0  0  0  0  0  0  0  0
  146.1960  135.0464  151.6087 H   0  0  0  0  0  0  0  0  0  0  0  0
  145.9601  135.9835  150.1589 H   0  0  0  0  0  0  0  0  0  0  0  0
  145.5345  137.3387  152.1714 H   0  0  0  0  0  0  0  0  0  0  0  0
  144.0953  137.2254  151.1702 H   0  0  0  0  0  0  0  0  0  0  0  0
  144.6275  137.9907  156.8676 H   0  0  0  0  0  0  0  0  0  0  0  0
  139.7815  139.1440  152.7872 H   0  0  0  0  0  0  0  0  0  0  0  0
  139.6343  139.7797  156.0328 H   0  0  0  0  0  0  0  0  0  0  0  0
  141.0192  140.8362  155.9431 H   0  0  0  0  0  0  0  0  0  0  0  0
  141.2162  141.5453  153.6507 H   0  0  0  0  0  0  0  0  0  0  0  0
  138.5333  142.0375  156.2579 H   0  0  0  0  0  0  0  0  0  0  0  0
  139.5167  143.2565  155.4508 H   0  0  0  0  0  0  0  0  0  0  0  0
  136.8621  143.2960  155.0453 H   0  0  0  0  0  0  0  0  0  0  0  0
  137.8833  143.3796  153.6017 H   0  0  0  0  0  0  0  0  0  0  0  0
  138.4233  140.6046  152.6589 H   0  0  0  0  0  0  0  0  0  0  0  0
  138.0369  139.6654  154.0922 H   0  0  0  0  0  0  0  0  0  0  0  0
  142.5192  134.7003  153.4532 H   0  0  0  0  0  0  0  0  0  0  0  0
  142.2391  135.5927  151.9769 H   0  0  0  0  0  0  0  0  0  0  0  0
  142.8425  133.2771  151.4840 H   0  0  0  0  0  0  0  0  0  0  0  0
  144.3228  133.4002  152.4185 H   0  0  0  0  0  0  0  0  0  0  0  0
  145.5815  133.9072  148.9792 H   0  0  0  0  0  0  0  0  0  0  0  0
  1  2  1  0  0  0  0
  1 28  1  0  0  0  0
  1 29  1  0  0  0  0
  1 30  1  0  0  0  0
  2  3  1  0  0  0  0
  2  6  1  0  0  0  0
  2 56  1  0  0  0  0
  3  4  1  0  0  0  0
  3 31  1  0  0  0  0
  3 32  1  0  0  0  0
  4  5  1  0  0  0  0
  4 33  1  0  0  0  0
  4 34  1  0  0  0  0
  5 35  1  0  0  0  0
  6 27  1  0  0  0  0
  6  7  1  0  0  0  0
  6 36  1  0  0  0  0
  7  8  1  0  0  0  0
  7 37  1  0  0  0  0
  7 38  1  0  0  0  0
  8  9  1  0  0  0  0
  8 39  1  0  0  0  0
  8 40  1  0  0  0  0
  9 10  1  0  0  0  0
  9 26  1  0  0  0  0
 10 15  1  0  0  0  0
 10 11  2  0  0  0  0
 11 12  1  0  0  0  0
 12 13  2  0  0  0  0
 12 41  1  0  0  0  0
 13 14  1  0  0  0  0
 14 18  1  0  0  0  0
 14 15  2  0  0  0  0
 15 16  1  0  0  0  0
 16 17  2  0  0  0  0
 17 18  1  0  0  0  0
 17 42  1  0  0  0  0
 18 19  1  0  0  0  0
 19 20  1  0  0  0  0
 19 43  1  0  0  0  0
 19 44  1  0  0  0  0
 20 25  1  0  0  0  0
 20 21  1  0  0  0  0
 20 22  1  0  0  0  0
 21 45  1  0  0  0  0
 22 23  1  0  0  0  0
 22 46  1  0  0  0  0
 22 47  1  0  0  0  0
 23 24  1  0  0  0  0
 23 48  1  0  0  0  0
 23 49  1  0  0  0  0
 24 25  1  0  0  0  0
 25 50  1  0  0  0  0
 25 51  1  0  0  0  0
 26 27  1  0  0  0  0
 26 52  1  0  0  0  0
 26 53  1  0  0  0  0
 27 54  1  0  0  0  0
 27 55  1  0  0  0  0
M  CHG  1   2   1
M  END
> <s_m_source_file>
AV-unprocessed.smi

> <i_m_source_file_index>
22

> <i_lp_mmshare_version>
43012

> <i_f3d_flags>
0

> <s_epik_input>
W09IXVtDSDJdW0NIMl1OKFtDSDNdKVtDSF0xW0NIMl1bQ0gyXU4oW0NIMl1bQ0gyXTEpYyhuW2NIXW4yKWMoYzIzKW5bY0hdbjNbQ0gyXVtDQEBdNChbT0hdKVtDSDJdW0NIMl1PW0NIMl00

> <s_epik_cmdline>
J2VwaWtfcHl0aG9uJywgJy1waCcsICc3LjAnLCAnLXRuJywgJzgnLCAnLW1hJywgJzIwMCcsICctbWV0YWxfYmluZGluZycsICctaW1hZScsICc8aW5maWxlLm1hZT4nLCAnLW9tYWUnLCAnPG91dGZpbGUubWFlPic=

> <r_lp_tautomer_probability>
1

> <r_epik_Ionization_Penalty>
0.00317524

> <r_epik_Ionization_Penalty_Charging>
0.00191487

> <r_epik_Ionization_Penalty_Neutral>
0.00126037

> <r_epik_State_Penalty>
-0

> <r_epik_Charging_Adjusted_Penalty>
0.00191487

> <i_epik_Tot_Q>
1

> <i_epik_Tot_abs_Q>
1

> <r_epik_Metal_State_Penalty>
-0

> <b_epik_Metal_Only>
0

> <s_lp_Force_Field>
OPLS_2005

> <r_lp_Energy>
48.0385

> <b_lp_Chiralities_Consistent>
1

> <s_lp_Variant>
AV-unprocessed.smi:22-3

> <Gold.Version>
5.8.1

> <Gold.Id.Protein>
6NUR|6NUR_protein|mol2

> <Gold.PLP.Fitness>
46.1357

> <Gold.PLP.PLP>
-36.8036

> <Gold.PLP.part.hbond>
-5.0000

> <Gold.PLP.part.metal>
0.0000

> <Gold.PLP.part.buried>
-1.0630

> <Gold.PLP.part.nonpolar>
-30.5794

> <Gold.PLP.part.repulsive>
0.6425

> <Gold.PLP.ligand.clash>
0.0000

> <Gold.PLP.ligand.torsion>
1.1729

> <Gold.PLP.Chemscore.Hbond>
3.0801

> <Gold.PLP.Chemscore.CHOScore>
0.6623

> <Gold.PLP.Chemscore.Metal>
0.0000

> <Gold.Chemscore.Hbonds>
donor molecule, donor type, donor heavy atom, donor atom, acceptor molecule, acceptor atom, score
      L1  H     2    56       P1  7921  1.00
      L1  H     5    35       P1 10747  1.00
      L1  H    21    45       P1 10174  0.09
      P1  H 10162 10167       L1    21  1.00
      L1  C    17    42       P1 10160  0.59

> <Gold.PLP.Chemscore.Internal.Correction>
0.4510

> <Gold.Rescore>
     Score         DG    S(hbond)    S(metal)    S(lipo)     H(rot)  DE(clash)    DE(int)     intcor
     10.97     -14.90       2.76        0.00      83.85       3.76       2.02       1.91       ----

> <Gold.Chemscore.Fitness>
10.9729

> <Gold.Chemscore.DG>
-14.9010

> <Gold.Chemscore.ZeroCoef>
-5.4800

> <Gold.Chemscore.Hbond>
2.7639

> <Gold.Chemscore.Metal>
0.0000

> <Gold.Chemscore.Lipo>
83.8546

> <Gold.Chemscore.Internal_Hbond>
0.0000

> <Gold.Chemscore.DEClash>
2.0167

> <Gold.Chemscore.DEInternal>
1.9114

> <Gold.Chemscore.Rot>
3.7583

> <Gold.Chemscore.Internal.Correction>
   9.000000E+99

> <Gold.Chemscore.Hbonds>
donor molecule, donor type, donor heavy atom, donor atom, acceptor molecule, acceptor atom, score
      L1  H     2    56       P1  7921  0.55
      L1  H     5    35       P1 10747  0.98
      L1  H    21    45       P1 10174  0.03
      P1  H 10162 10167       L1    21  0.67

> <Gold.Chemscore.Hbond.Weighted>
-9.2313

> <Gold.Chemscore.Metal.Weighted>
-0.0000

> <Gold.Chemscore.Lipo.Weighted>
-9.8110

> <Gold.Chemscore.Internal_Hbond.Weighted>
0.0000

> <Gold.Chemscore.DEClash.Weighted>
2.0167

> <Gold.Chemscore.DEInternal.Weighted>
1.9114

> <Gold.Chemscore.Rot.Weighted>
9.6213

> <Gold.Chemscore.Internal.Correction.Weighted>
   9.000000E+99

> <Gold.Protein.RotatedTorsions>
[ 6907 6896 6895 6894 ] final  -92.28 input  -60.11 | X-H torsion
[ 7974 7965 7964 7962 ] final  143.37 input  175.53 | X-H torsion
[ 8008 7997 7996 7995 ] final  -21.05 input   59.86 | X-H torsion
[ 10167 10162 10161 10158 ] final  -91.61 input  -65.29 | X-H torsion
[ 10718 10713 10712 10709 ] final  -37.05 input   66.30 | X-H torsion
[ 10763 10752 10751 10750 ] final -165.26 input  -60.55 | X-H torsion
[ 11005 11000 10999 10996 ] final  178.08 input  -57.11 | X-H torsion

> <Gold.Protein.ActiveResidues>
 VAL166  LYS551  ARG553  GLY616  TRP617  ASP618  TYR619  PRO620  LYS621  CYS622 
 ASP623  PHE694  ASN695  SER759  ASP760  ASP761  ALA762  ILE779  LEU786  VAL792 
 PHE793  MET794  SER795  GLU796  ALA797  LYS798  CYS799  TRP800  GLU811  SER814 

> <Gold.Protein.RotatedAtoms>
  150.6904  134.2146  159.4372 H   0  0  0  0  0  0  0  0  0  0  0  0  # atno 6907 bound_to 6896
  152.0106  134.9876  160.0577 H   0  0  0  0  0  0  0  0  0  0  0  0  # atno 6908 bound_to 6896
  152.1492  133.4476  159.4842 H   0  0  0  0  0  0  0  0  0  0  0  0  # atno 6909 bound_to 6896
  144.8926  139.5536  143.5791 H   0  0  0  0  0  0  0  0  0  0  0  0  # atno 7974 bound_to 7965
  154.4730  140.2045  155.9946 H   0  0  0  0  0  0  0  0  0  0  0  0  # atno 8008 bound_to 7997
  156.1043  140.3239  155.7955 H   0  0  0  0  0  0  0  0  0  0  0  0  # atno 8009 bound_to 7997
  155.4744  140.0533  157.2966 H   0  0  0  0  0  0  0  0  0  0  0  0  # atno 8010 bound_to 7997
  140.3431  143.2931  151.9812 H   0  0  0  0  0  0  0  0  0  0  0  0  # atno 10167 bound_to 10162
  156.3197  130.4264  149.7972 H   0  0  0  0  0  0  0  0  0  0  0  0  # atno 10718 bound_to 10713
  154.6949  135.2977  154.9425 H   0  0  0  0  0  0  0  0  0  0  0  0  # atno 10763 bound_to 10752
  154.0376  135.6661  153.4791 H   0  0  0  0  0  0  0  0  0  0  0  0  # atno 10764 bound_to 10752
  153.0639  135.5099  154.8062 H   0  0  0  0  0  0  0  0  0  0  0  0  # atno 10765 bound_to 10752
  140.3911  134.6861  157.4508 H   0  0  0  0  0  0  0  0  0  0  0  0  # atno 11005 bound_to 11000
  146.3063  139.7590  142.9054 LP  0  0  0  0  0  0  0  0  0  0  0  0  # atno 17320 bound_to 7965
  145.3756  141.0350  143.3206 LP  0  0  0  0  0  0  0  0  0  0  0  0  # atno 17321 bound_to 7965
  139.4837  144.6139  151.7382 LP  0  0  0  0  0  0  0  0  0  0  0  0  # atno 17342 bound_to 10162
  140.5290  144.0761  150.6047 LP  0  0  0  0  0  0  0  0  0  0  0  0  # atno 17343 bound_to 10162
  156.5285  130.8247  151.3228 LP  0  0  0  0  0  0  0  0  0  0  0  0  # atno 17370 bound_to 10713
  157.7409  130.9859  150.2409 LP  0  0  0  0  0  0  0  0  0  0  0  0  # atno 17371 bound_to 10713
  140.0406  134.6273  155.8986 LP  0  0  0  0  0  0  0  0  0  0  0  0  # atno 17394 bound_to 11000
  141.1890  133.6564  156.5350 LP  0  0  0  0  0  0  0  0  0  0  0  0  # atno 17395 bound_to 11000

$$$$
