AV-unprocessed.smi:461|AV-procd|sdf|2630|dock7
  -GOLD-   2262023 33D 1   1.00000     0.00000
 Structure written by MMmdl.
 33 34  0  0  0  0  0  0  0  0  1 V2000
  152.8117  139.5798  159.7122 C   0  0  0  0  0  0  0  0  0  0  0  0
  152.2882  140.8900  159.3230 N   0  0  0  0  0  0  0  0  0  0  0  0
  151.4195  140.8427  158.2449 N   0  0  0  0  0  0  0  0  0  0  0  0
  150.9248  141.9733  157.8336 C   0  0  0  0  0  0  0  0  0  0  0  0
  150.0461  142.1394  156.7709 N   0  0  0  0  0  0  0  0  0  0  0  0
  149.5288  141.0662  155.9342 C   0  0  0  0  0  0  0  0  0  0  0  0
  150.6310  140.3785  155.1101 C   0  0  2  0  0  0  0  0  0  0  0  0
  150.1588  139.1174  154.3927 C   0  0  0  0  0  0  0  0  0  0  0  0
  151.4560  138.3746  154.1284 C   0  0  0  0  0  0  0  0  0  0  0  0
  152.4076  138.9097  155.2029 C   0  0  0  0  0  0  0  0  0  0  0  0
  151.6581  139.8651  155.9441 O   0  0  0  0  0  0  0  0  0  0  0  0
  151.2844  143.2805  158.5220 C   0  0  0  0  0  0  0  0  0  0  0  0
  150.8124  144.3488  158.1215 O   0  0  0  0  0  0  0  0  0  0  0  0
  152.1394  143.1837  159.5776 N   0  0  0  0  0  0  0  0  0  0  0  0
  152.4971  144.4404  160.2606 C   0  0  0  0  0  0  0  0  0  0  0  0
  152.6741  142.0044  160.0112 C   0  0  0  0  0  0  0  0  0  0  0  0
  153.4578  141.9347  160.9612 O   0  0  0  0  0  0  0  0  0  0  0  0
  152.5456  139.3494  160.7446 H   0  0  0  0  0  0  0  0  0  0  0  0
  153.8990  139.5586  159.6257 H   0  0  0  0  0  0  0  0  0  0  0  0
  152.4184  138.7761  159.0871 H   0  0  0  0  0  0  0  0  0  0  0  0
  148.7996  141.5137  155.2584 H   0  0  0  0  0  0  0  0  0  0  0  0
  148.9830  140.3389  156.5372 H   0  0  0  0  0  0  0  0  0  0  0  0
  151.0629  141.0727  154.3863 H   0  0  0  0  0  0  0  0  0  0  0  0
  149.5237  138.5246  155.0526 H   0  0  0  0  0  0  0  0  0  0  0  0
  149.5969  139.3303  153.4830 H   0  0  0  0  0  0  0  0  0  0  0  0
  151.3255  137.2937  154.1874 H   0  0  0  0  0  0  0  0  0  0  0  0
  151.8395  138.6137  153.1358 H   0  0  0  0  0  0  0  0  0  0  0  0
  152.7697  138.1217  155.8636 H   0  0  0  0  0  0  0  0  0  0  0  0
  153.2714  139.3943  154.7465 H   0  0  0  0  0  0  0  0  0  0  0  0
  153.1068  144.3157  161.1562 H   0  0  0  0  0  0  0  0  0  0  0  0
  151.5998  144.9764  160.5752 H   0  0  0  0  0  0  0  0  0  0  0  0
  153.0556  145.0904  159.5853 H   0  0  0  0  0  0  0  0  0  0  0  0
  149.7690  143.0649  156.4762 H   0  0  0  0  0  0  0  0  0  0  0  0
  1 18  1  0  0  0  0
  1 19  1  0  0  0  0
  1 20  1  0  0  0  0
  1  2  1  0  0  0  0
  2 16  1  0  0  0  0
  2  3  1  0  0  0  0
  3  4  2  0  0  0  0
  4 12  1  0  0  0  0
  4  5  1  0  0  0  0
  5  6  1  0  0  0  0
  5 33  1  0  0  0  0
  6  7  1  0  0  0  0
  6 21  1  0  0  0  0
  6 22  1  0  0  0  0
  7 11  1  0  0  0  0
  7  8  1  0  0  0  0
  7 23  1  0  0  0  0
  8  9  1  0  0  0  0
  8 24  1  0  0  0  0
  8 25  1  0  0  0  0
  9 10  1  0  0  0  0
  9 26  1  0  0  0  0
  9 27  1  0  0  0  0
 10 11  1  0  0  0  0
 10 28  1  0  0  0  0
 10 29  1  0  0  0  0
 12 13  2  0  0  0  0
 12 14  1  0  0  0  0
 14 15  1  0  0  0  0
 14 16  1  0  0  0  0
 15 30  1  0  0  0  0
 15 31  1  0  0  0  0
 15 32  1  0  0  0  0
 16 17  2  0  0  0  0
M  END
> <s_m_source_file>
AV-unprocessed.smi

> <i_m_source_file_index>
461

> <i_lp_mmshare_version>
43012

> <i_f3d_flags>
0

> <s_epik_input>
Tz1jMW4oW0NIM10pYyg9TyljKG5uMVtDSDNdKVtOSF1bQ0gyXVtDQEBIXTJbQ0gyXVtDSDJdW0NIMl1PMg==

> <s_epik_cmdline>
J2VwaWtfcHl0aG9uJywgJy1waCcsICc3LjAnLCAnLXRuJywgJzgnLCAnLW1hJywgJzIwMCcsICctbWV0YWxfYmluZGluZycsICctaW1hZScsICc8aW5maWxlLm1hZT4nLCAnLW9tYWUnLCAnPG91dGZpbGUubWFlPic=

> <r_lp_tautomer_probability>
1

> <r_epik_Ionization_Penalty>
0.000103292

> <r_epik_Ionization_Penalty_Charging>
5.59445e-09

> <r_epik_Ionization_Penalty_Neutral>
0.000103287

> <r_epik_State_Penalty>
-0

> <r_epik_Charging_Adjusted_Penalty>
5.59445e-09

> <i_epik_Tot_Q>
0

> <i_epik_Tot_abs_Q>
0

> <r_epik_Metal_State_Penalty>
-0

> <b_epik_Metal_Only>
0

> <s_lp_Force_Field>
OPLS_2005

> <r_lp_Energy>
41.4084

> <b_lp_Chiralities_Consistent>
1

> <s_lp_Variant>
AV-unprocessed.smi:461-1

> <Gold.Version>
5.8.1

> <Gold.Id.Protein>
6NUR|6NUR_protein|mol2

> <Gold.PLP.Fitness>
35.7031

> <Gold.PLP.PLP>
-32.7672

> <Gold.PLP.part.hbond>
-1.0000

> <Gold.PLP.part.metal>
0.0000

> <Gold.PLP.part.buried>
-5.1046

> <Gold.PLP.part.nonpolar>
-27.3445

> <Gold.PLP.part.repulsive>
0.9628

> <Gold.PLP.ligand.clash>
0.0000

> <Gold.PLP.ligand.torsion>
0.0367

> <Gold.PLP.Chemscore.Hbond>
1.0000

> <Gold.PLP.Chemscore.CHOScore>
0.0000

> <Gold.PLP.Chemscore.Metal>
0.0000

> <Gold.Chemscore.Hbonds>
donor molecule, donor type, donor heavy atom, donor atom, acceptor molecule, acceptor atom, score
      L1  H     5    33       P1  8028  0.96

> <Gold.PLP.Chemscore.Internal.Correction>
0.0092

> <Gold.Rescore>
     Score         DG    S(hbond)    S(metal)    S(lipo)     H(rot)  DE(clash)    DE(int)     intcor
      8.12     -11.98       0.97        0.00      56.30       1.30       1.30       2.56       ----

> <Gold.Chemscore.Fitness>
8.1167

> <Gold.Chemscore.DG>
-11.9773

> <Gold.Chemscore.ZeroCoef>
-5.4800

> <Gold.Chemscore.Hbond>
0.9661

> <Gold.Chemscore.Metal>
0.0000

> <Gold.Chemscore.Lipo>
56.2976

> <Gold.Chemscore.Internal_Hbond>
0.0000

> <Gold.Chemscore.DEClash>
1.3041

> <Gold.Chemscore.DEInternal>
2.5566

> <Gold.Chemscore.Rot>
1.2954

> <Gold.Chemscore.Internal.Correction>
   9.000000E+99

> <Gold.Chemscore.Hbonds>
donor molecule, donor type, donor heavy atom, donor atom, acceptor molecule, acceptor atom, score
      L1  H     5    33       P1  8028  0.91

> <Gold.Chemscore.Hbond.Weighted>
-3.2268

> <Gold.Chemscore.Metal.Weighted>
-0.0000

> <Gold.Chemscore.Lipo.Weighted>
-6.5868

> <Gold.Chemscore.Internal_Hbond.Weighted>
0.0000

> <Gold.Chemscore.DEClash.Weighted>
1.3041

> <Gold.Chemscore.DEInternal.Weighted>
2.5566

> <Gold.Chemscore.Rot.Weighted>
3.3163

> <Gold.Chemscore.Internal.Correction.Weighted>
   9.000000E+99

> <Gold.Protein.RotatedTorsions>
[ 6907 6896 6895 6894 ] final   96.35 input  -60.11 | X-H torsion
[ 7974 7965 7964 7962 ] final   52.76 input  175.53 | X-H torsion
[ 8008 7997 7996 7995 ] final   71.44 input   59.86 | X-H torsion
[ 10167 10162 10161 10158 ] final  -82.99 input  -65.29 | X-H torsion
[ 10718 10713 10712 10709 ] final  143.94 input   66.30 | X-H torsion
[ 10763 10752 10751 10750 ] final  174.82 input  -60.55 | X-H torsion
[ 11005 11000 10999 10996 ] final   56.72 input  -57.11 | X-H torsion

> <Gold.Protein.ActiveResidues>
 VAL166  LYS551  ARG553  GLY616  TRP617  ASP618  TYR619  PRO620  LYS621  CYS622 
 ASP623  PHE694  ASN695  SER759  ASP760  ASP761  ALA762  ILE779  LEU786  VAL792 
 PHE793  MET794  SER795  GLU796  ALA797  LYS798  CYS799  TRP800  GLU811  SER814 

> <Gold.Protein.RotatedAtoms>
  152.5436  134.0900  159.8272 H   0  0  0  0  0  0  0  0  0  0  0  0  # atno 6907 bound_to 6896
  151.0991  133.5250  159.2618 H   0  0  0  0  0  0  0  0  0  0  0  0  # atno 6908 bound_to 6896
  151.2012  135.0452  159.8927 H   0  0  0  0  0  0  0  0  0  0  0  0  # atno 6909 bound_to 6896
  145.9780  139.4214  143.0149 H   0  0  0  0  0  0  0  0  0  0  0  0  # atno 7974 bound_to 7965
  155.7540  140.3488  155.5164 H   0  0  0  0  0  0  0  0  0  0  0  0  # atno 8008 bound_to 7997
  155.8978  140.1029  157.1393 H   0  0  0  0  0  0  0  0  0  0  0  0  # atno 8009 bound_to 7997
  154.4040  140.1292  156.4384 H   0  0  0  0  0  0  0  0  0  0  0  0  # atno 8010 bound_to 7997
  140.4268  143.2563  151.8814 H   0  0  0  0  0  0  0  0  0  0  0  0  # atno 10167 bound_to 10162
  157.3630  131.0968  151.0898 H   0  0  0  0  0  0  0  0  0  0  0  0  # atno 10718 bound_to 10713
  154.4592  135.2767  155.1725 H   0  0  0  0  0  0  0  0  0  0  0  0  # atno 10763 bound_to 10752
  154.3520  135.6148  153.5651 H   0  0  0  0  0  0  0  0  0  0  0  0  # atno 10764 bound_to 10752
  152.9853  135.5813  154.4951 H   0  0  0  0  0  0  0  0  0  0  0  0  # atno 10765 bound_to 10752
  140.0508  134.5740  155.9266 H   0  0  0  0  0  0  0  0  0  0  0  0  # atno 11005 bound_to 11000
  145.7810  140.9856  143.1099 LP  0  0  0  0  0  0  0  0  0  0  0  0  # atno 17320 bound_to 7965
  144.6854  139.9564  143.7479 LP  0  0  0  0  0  0  0  0  0  0  0  0  # atno 17321 bound_to 7965
  139.4784  144.5378  151.8573 LP  0  0  0  0  0  0  0  0  0  0  0  0  # atno 17342 bound_to 10162
  140.4472  144.1905  150.5895 LP  0  0  0  0  0  0  0  0  0  0  0  0  # atno 17343 bound_to 10162
  157.2030  130.6403  149.5746 LP  0  0  0  0  0  0  0  0  0  0  0  0  # atno 17370 bound_to 10713
  155.9741  130.4684  150.6360 LP  0  0  0  0  0  0  0  0  0  0  0  0  # atno 17371 bound_to 10713
  141.1929  133.6577  156.5523 LP  0  0  0  0  0  0  0  0  0  0  0  0  # atno 17394 bound_to 11000
  140.3921  134.7431  157.4728 LP  0  0  0  0  0  0  0  0  0  0  0  0  # atno 17395 bound_to 11000

$$$$
