AV-unprocessed.smi:1015|AV-procd|sdf|4436|dock10
  -GOLD-   22720 2393D 1   1.00000     0.00000
 Structure written by MMmdl.
 42 43  0  0  0  0  0  0  0  0  1 V2000
  151.9703  139.5176  158.4823 C   0  0  0  0  0  0  0  0  0  0  0  0
  152.9075  139.1295  157.4933 O   0  0  0  0  0  0  0  0  0  0  0  0
  152.3370  138.2926  156.5001 C   0  0  0  0  0  0  0  0  0  0  0  0
  152.3863  138.9834  155.1267 C   0  0  0  0  0  0  0  0  0  0  0  0
  151.2302  139.8189  154.7955 N   0  0  0  0  0  0  0  0  0  0  0  0
  150.8679  140.6658  155.9322 C   0  0  0  0  0  0  0  0  0  0  0  0
  149.7117  141.6273  155.6113 C   0  0  0  0  0  0  0  0  0  0  0  0
  148.4673  140.8506  155.1456 C   0  0  0  0  0  0  0  0  0  0  0  0
  147.3142  141.8061  154.7717 C   0  0  0  0  0  0  0  0  0  0  0  0
  146.9072  142.6351  155.8998 N   0  0  0  0  0  0  0  0  0  0  0  0
  145.6504  142.7587  156.3529 C   0  0  0  0  0  0  0  0  0  0  0  0
  144.7053  142.0932  155.9308 O   0  0  0  0  0  0  0  0  0  0  0  0
  145.4192  143.8234  157.4240 C   0  0  0  0  0  0  0  0  0  0  0  0
  145.8730  143.3458  158.7171 N   0  0  0  0  0  0  0  0  0  0  0  0
  146.8506  143.7768  159.5172 C   0  0  0  0  0  0  0  0  0  0  0  0
  146.9529  143.0332  160.6082 N   0  0  0  0  0  0  0  0  0  0  0  0
  145.9552  142.0874  160.4393 N   0  0  0  0  0  0  0  0  0  0  0  0
  145.3112  142.2677  159.3190 N   0  0  0  0  0  0  0  0  0  0  0  0
  148.8653  139.9093  153.9892 C   0  0  0  0  0  0  0  0  0  0  0  0
  150.0670  139.0324  154.3781 C   0  0  0  0  0  0  0  0  0  0  0  0
  152.4602  140.1505  159.2221 H   0  0  0  0  0  0  0  0  0  0  0  0
  151.5596  138.6499  159.0001 H   0  0  0  0  0  0  0  0  0  0  0  0
  151.1489  140.0859  158.0441 H   0  0  0  0  0  0  0  0  0  0  0  0
  152.9104  137.3655  156.4554 H   0  0  0  0  0  0  0  0  0  0  0  0
  151.3101  138.0245  156.7548 H   0  0  0  0  0  0  0  0  0  0  0  0
  153.3097  139.5567  155.0323 H   0  0  0  0  0  0  0  0  0  0  0  0
  152.4537  138.1910  154.3801 H   0  0  0  0  0  0  0  0  0  0  0  0
  150.5964  140.0427  156.7861 H   0  0  0  0  0  0  0  0  0  0  0  0
  151.7328  141.2528  156.2433 H   0  0  0  0  0  0  0  0  0  0  0  0
  149.4736  142.2239  156.4925 H   0  0  0  0  0  0  0  0  0  0  0  0
  150.0262  142.3281  154.8366 H   0  0  0  0  0  0  0  0  0  0  0  0
  148.1367  140.2306  155.9805 H   0  0  0  0  0  0  0  0  0  0  0  0
  147.5997  142.4392  153.9299 H   0  0  0  0  0  0  0  0  0  0  0  0
  146.4459  141.2331  154.4453 H   0  0  0  0  0  0  0  0  0  0  0  0
  147.6190  143.2205  156.3128 H   0  0  0  0  0  0  0  0  0  0  0  0
  145.9647  144.7344  157.1746 H   0  0  0  0  0  0  0  0  0  0  0  0
  144.3602  144.0813  157.4786 H   0  0  0  0  0  0  0  0  0  0  0  0
  147.4867  144.6215  159.2974 H   0  0  0  0  0  0  0  0  0  0  0  0
  148.0295  139.2663  153.7111 H   0  0  0  0  0  0  0  0  0  0  0  0
  149.1144  140.4952  153.1034 H   0  0  0  0  0  0  0  0  0  0  0  0
  150.3198  138.4182  153.5151 H   0  0  0  0  0  0  0  0  0  0  0  0
  149.7772  138.3458  155.1751 H   0  0  0  0  0  0  0  0  0  0  0  0
  1  2  1  0  0  0  0
  1 21  1  0  0  0  0
  1 22  1  0  0  0  0
  1 23  1  0  0  0  0
  2  3  1  0  0  0  0
  3  4  1  0  0  0  0
  3 24  1  0  0  0  0
  3 25  1  0  0  0  0
  4  5  1  0  0  0  0
  4 26  1  0  0  0  0
  4 27  1  0  0  0  0
  5 20  1  0  0  0  0
  5  6  1  0  0  0  0
  6  7  1  0  0  0  0
  6 28  1  0  0  0  0
  6 29  1  0  0  0  0
  7  8  1  0  0  0  0
  7 30  1  0  0  0  0
  7 31  1  0  0  0  0
  8  9  1  0  0  0  0
  8 19  1  0  0  0  0
  8 32  1  0  0  0  0
  9 10  1  0  0  0  0
  9 33  1  0  0  0  0
  9 34  1  0  0  0  0
 10 11  1  0  0  0  0
 10 35  1  0  0  0  0
 11 12  2  0  0  0  0
 11 13  1  0  0  0  0
 13 14  1  0  0  0  0
 13 36  1  0  0  0  0
 13 37  1  0  0  0  0
 14 18  1  0  0  0  0
 14 15  1  0  0  0  0
 15 16  2  0  0  0  0
 15 38  1  0  0  0  0
 16 17  1  0  0  0  0
 17 18  2  0  0  0  0
 19 20  1  0  0  0  0
 19 39  1  0  0  0  0
 19 40  1  0  0  0  0
 20 41  1  0  0  0  0
 20 42  1  0  0  0  0
M  END
> <s_m_source_file>
AV-unprocessed.smi

> <i_m_source_file_index>
1015

> <i_lp_mmshare_version>
43012

> <i_f3d_flags>
0

> <s_epik_input>
W0NIM11PW0NIMl1bQ0gyXU4xW0NIMl1bQ0gyXVtDSF0oW0NIMl1bQ0gyXTEpW0NIMl1bTkhdQyg9TylbQ0gyXW4yW2NIXW5ubjI=

> <s_epik_cmdline>
J2VwaWtfcHl0aG9uJywgJy1waCcsICc3LjAnLCAnLXRuJywgJzgnLCAnLW1hJywgJzIwMCcsICctbWV0YWxfYmluZGluZycsICctaW1hZScsICc8aW5maWxlLm1hZT4nLCAnLW9tYWUnLCAnPG91dGZpbGUubWFlPic=

> <r_lp_tautomer_probability>
1

> <r_epik_Ionization_Penalty>
2.39972

> <r_epik_Ionization_Penalty_Charging>
0

> <r_epik_Ionization_Penalty_Neutral>
2.39972

> <r_epik_State_Penalty>
2.55755

> <r_epik_Charging_Adjusted_Penalty>
2.55755

> <i_epik_Tot_Q>
0

> <i_epik_Tot_abs_Q>
0

> <r_epik_Metal_State_Penalty>
2.55755

> <b_epik_Metal_Only>
0

> <s_lp_Force_Field>
OPLS_2005

> <r_lp_Energy>
27.1713

> <b_lp_Chiralities_Consistent>
1

> <s_lp_Variant>
AV-unprocessed.smi:1015-3

> <Gold.Version>
5.8.1

> <Gold.Id.Protein>
6NUR|6NUR_protein|mol2

> <Gold.PLP.Fitness>
45.2951

> <Gold.PLP.PLP>
-30.6790

> <Gold.PLP.part.hbond>
-5.9542

> <Gold.PLP.part.metal>
0.0000

> <Gold.PLP.part.buried>
-0.4302

> <Gold.PLP.part.nonpolar>
-23.6904

> <Gold.PLP.part.repulsive>
0.2232

> <Gold.PLP.ligand.clash>
0.0000

> <Gold.PLP.ligand.torsion>
0.9475

> <Gold.PLP.Chemscore.Hbond>
4.4853

> <Gold.PLP.Chemscore.CHOScore>
1.0000

> <Gold.PLP.Chemscore.Metal>
0.0000

> <Gold.Chemscore.Hbonds>
donor molecule, donor type, donor heavy atom, donor atom, acceptor molecule, acceptor atom, score
      L1  H    10    35       P1  8028  0.42
      P1  H  6933  6944       L1    16  1.00
      P1  H  6934  6946       L1    17  0.75
      P1  H  7989  7998       L1     5  1.00
      P1  H  7997  8010       L1     2  1.00
      L1  C    15    38       P1  8029  1.00

> <Gold.PLP.Chemscore.Internal.Correction>
0.0552

> <Gold.Rescore>
     Score         DG    S(hbond)    S(metal)    S(lipo)     H(rot)  DE(clash)    DE(int)     intcor
      9.71     -10.91       1.91        0.00      60.06       3.12       0.25       0.95       ----

> <Gold.Chemscore.Fitness>
9.7101

> <Gold.Chemscore.DG>
-10.9121

> <Gold.Chemscore.ZeroCoef>
-5.4800

> <Gold.Chemscore.Hbond>
1.9140

> <Gold.Chemscore.Metal>
0.0000

> <Gold.Chemscore.Lipo>
60.0583

> <Gold.Chemscore.Internal_Hbond>
0.0000

> <Gold.Chemscore.DEClash>
0.2538

> <Gold.Chemscore.DEInternal>
0.9482

> <Gold.Chemscore.Rot>
3.1201

> <Gold.Chemscore.Internal.Correction>
   9.000000E+99

> <Gold.Chemscore.Hbonds>
donor molecule, donor type, donor heavy atom, donor atom, acceptor molecule, acceptor atom, score
      L1  H    10    35       P1  8028  0.03
      P1  H  6933  6944       L1    16  0.82
      P1  H  6934  6946       L1    17  0.09
      P1  H  7989  7998       L1     5  0.28
      P1  H  7997  8010       L1     2  0.60

> <Gold.Chemscore.Hbond.Weighted>
-6.3927

> <Gold.Chemscore.Metal.Weighted>
-0.0000

> <Gold.Chemscore.Lipo.Weighted>
-7.0268

> <Gold.Chemscore.Internal_Hbond.Weighted>
0.0000

> <Gold.Chemscore.DEClash.Weighted>
0.2538

> <Gold.Chemscore.DEInternal.Weighted>
0.9482

> <Gold.Chemscore.Rot.Weighted>
7.9874

> <Gold.Chemscore.Internal.Correction.Weighted>
   9.000000E+99

> <Gold.Protein.RotatedTorsions>
[ 6907 6896 6895 6894 ] final  133.19 input  -60.11 | X-H torsion
[ 7974 7965 7964 7962 ] final -150.47 input  175.53 | X-H torsion
[ 8008 7997 7996 7995 ] final   58.22 input   59.86 | X-H torsion
[ 10167 10162 10161 10158 ] final   81.75 input  -65.29 | X-H torsion
[ 10718 10713 10712 10709 ] final  -37.83 input   66.30 | X-H torsion
[ 10763 10752 10751 10750 ] final -135.67 input  -60.55 | X-H torsion
[ 11005 11000 10999 10996 ] final   -6.44 input  -57.11 | X-H torsion

> <Gold.Protein.ActiveResidues>
 VAL166  LYS551  ARG553  GLY616  TRP617  ASP618  TYR619  PRO620  LYS621  CYS622 
 ASP623  PHE694  ASN695  SER759  ASP760  ASP761  ALA762  ILE779  LEU786  VAL792 
 PHE793  MET794  SER795  GLU796  ALA797  LYS798  CYS799  TRP800  GLU811  SER814 

> <Gold.Protein.RotatedAtoms>
  152.3245  133.5890  159.5767 H   0  0  0  0  0  0  0  0  0  0  0  0  # atno 6907 bound_to 6896
  150.7389  133.9961  159.3631 H   0  0  0  0  0  0  0  0  0  0  0  0  # atno 6908 bound_to 6896
  151.7842  135.0754  160.0429 H   0  0  0  0  0  0  0  0  0  0  0  0  # atno 6909 bound_to 6896
  144.7906  140.4928  143.5775 H   0  0  0  0  0  0  0  0  0  0  0  0  # atno 7974 bound_to 7965
  155.5465  140.3485  155.4458 H   0  0  0  0  0  0  0  0  0  0  0  0  # atno 8008 bound_to 7997
  156.0614  140.1341  156.9963 H   0  0  0  0  0  0  0  0  0  0  0  0  # atno 8009 bound_to 7997
  154.4481  140.0984  156.6507 H   0  0  0  0  0  0  0  0  0  0  0  0  # atno 8010 bound_to 7997
  139.9360  144.6121  150.8298 H   0  0  0  0  0  0  0  0  0  0  0  0  # atno 10167 bound_to 10162
  156.3107  130.4252  149.8053 H   0  0  0  0  0  0  0  0  0  0  0  0  # atno 10718 bound_to 10713
  154.8699  135.3696  154.4935 H   0  0  0  0  0  0  0  0  0  0  0  0  # atno 10763 bound_to 10752
  153.5581  135.7023  153.5565 H   0  0  0  0  0  0  0  0  0  0  0  0  # atno 10764 bound_to 10752
  153.3653  135.4035  155.1712 H   0  0  0  0  0  0  0  0  0  0  0  0  # atno 10765 bound_to 10752
  140.7020  133.8981  155.8690 H   0  0  0  0  0  0  0  0  0  0  0  0  # atno 11005 bound_to 11000
  145.5805  139.1488  143.3238 LP  0  0  0  0  0  0  0  0  0  0  0  0  # atno 17320 bound_to 7965
  146.2156  140.5935  142.9040 LP  0  0  0  0  0  0  0  0  0  0  0  0  # atno 17321 bound_to 7965
  140.7624  143.3198  151.2648 LP  0  0  0  0  0  0  0  0  0  0  0  0  # atno 17342 bound_to 10162
  139.6743  143.9964  152.2772 LP  0  0  0  0  0  0  0  0  0  0  0  0  # atno 17343 bound_to 10162
  156.5398  130.8295  151.3265 LP  0  0  0  0  0  0  0  0  0  0  0  0  # atno 17370 bound_to 10713
  157.7390  130.9824  150.2287 LP  0  0  0  0  0  0  0  0  0  0  0  0  # atno 17371 bound_to 10713
  141.0155  134.0961  157.4176 LP  0  0  0  0  0  0  0  0  0  0  0  0  # atno 17394 bound_to 11000
  139.8894  135.0105  156.6677 LP  0  0  0  0  0  0  0  0  0  0  0  0  # atno 17395 bound_to 11000

$$$$
