AV-unprocessed.smi:1896|AV-procd|sdf|7683|dock2
  -GOLD-   22720 9423D 1   1.00000     0.00000
 Structure written by MMmdl.
 47 48  0  0  0  0  0  0  0  0  2 V2000
  152.8276  138.0022  154.8925 C   0  0  0  0  0  0  0  0  0  0  0  0
  152.0573  139.0377  155.6605 C   0  0  0  0  0  0  0  0  0  0  0  0
  152.5578  139.4990  156.7942 N   0  0  0  0  0  0  0  0  0  0  0  0
  151.6447  140.3853  157.2387 N   0  0  0  0  0  0  0  0  0  0  0  0
  151.8838  141.0893  158.4835 C   0  0  0  0  0  0  0  0  0  0  0  0
  150.5625  140.4812  156.3860 C   0  0  0  0  0  0  0  0  0  0  0  0
  149.4100  141.3914  156.6654 C   0  0  0  0  0  0  0  0  0  0  0  0
  150.7935  139.6203  155.3458 C   0  0  0  0  0  0  0  0  0  0  0  0
  149.9214  139.3374  154.1487 C   0  0  0  0  0  0  0  0  0  0  0  0
  148.5641  138.8173  154.6206 C   0  0  0  0  0  0  0  0  0  0  0  0
  147.8737  139.4952  155.3812 O   0  0  0  0  0  0  0  0  0  0  0  0
  148.1983  137.6065  154.1756 N   0  0  0  0  0  0  0  0  0  0  0  0
  146.9697  136.9245  154.5630 C   0  0  0  0  0  0  0  0  0  0  0  0
  146.0842  136.5772  153.3412 C   0  0  1  0  0  0  0  0  0  0  0  0
  146.0616  137.7426  152.3266 C   0  0  0  0  0  0  0  0  0  0  0  0
  146.5351  135.3165  152.6822 N   0  3  0  0  0  0  0  0  0  0  0  0
  146.5609  134.1119  153.5412 C   0  0  0  0  0  0  0  0  0  0  0  0
  146.5595  132.9350  152.5728 C   0  0  0  0  0  0  0  0  0  0  0  0
  145.6458  133.4145  151.4514 C   0  0  0  0  0  0  0  0  0  0  0  0
  145.7896  134.9425  151.4529 C   0  0  0  0  0  0  0  0  0  0  0  0
  152.5197  136.9980  155.1826 H   0  0  0  0  0  0  0  0  0  0  0  0
  153.8999  138.0850  155.0735 H   0  0  0  0  0  0  0  0  0  0  0  0
  152.6683  138.1035  153.8192 H   0  0  0  0  0  0  0  0  0  0  0  0
  151.8513  142.1648  158.3086 H   0  0  0  0  0  0  0  0  0  0  0  0
  152.8609  140.8289  158.8928 H   0  0  0  0  0  0  0  0  0  0  0  0
  151.1148  140.8219  159.2087 H   0  0  0  0  0  0  0  0  0  0  0  0
  148.6220  141.2755  155.9217 H   0  0  0  0  0  0  0  0  0  0  0  0
  149.7294  142.4337  156.6560 H   0  0  0  0  0  0  0  0  0  0  0  0
  148.9762  141.1787  157.6424 H   0  0  0  0  0  0  0  0  0  0  0  0
  149.7646  140.2325  153.5461 H   0  0  0  0  0  0  0  0  0  0  0  0
  150.3823  138.6088  153.4808 H   0  0  0  0  0  0  0  0  0  0  0  0
  148.8251  137.1166  153.5535 H   0  0  0  0  0  0  0  0  0  0  0  0
  147.2270  136.0158  155.1103 H   0  0  0  0  0  0  0  0  0  0  0  0
  146.4348  137.5749  155.2562 H   0  0  0  0  0  0  0  0  0  0  0  0
  145.0653  136.4166  153.6980 H   0  0  0  0  0  0  0  0  0  0  0  0
  145.6714  138.6565  152.7736 H   0  0  0  0  0  0  0  0  0  0  0  0
  145.4255  137.5315  151.4675 H   0  0  0  0  0  0  0  0  0  0  0  0
  147.0624  137.9589  151.9518 H   0  0  0  0  0  0  0  0  0  0  0  0
  147.4312  134.0954  154.1980 H   0  0  0  0  0  0  0  0  0  0  0  0
  145.6624  134.0802  154.1601 H   0  0  0  0  0  0  0  0  0  0  0  0
  147.5669  132.7707  152.1871 H   0  0  0  0  0  0  0  0  0  0  0  0
  146.2183  132.0066  153.0320 H   0  0  0  0  0  0  0  0  0  0  0  0
  145.9012  132.9697  150.4891 H   0  0  0  0  0  0  0  0  0  0  0  0
  144.6138  133.1430  151.6777 H   0  0  0  0  0  0  0  0  0  0  0  0
  144.8003  135.4018  151.4248 H   0  0  0  0  0  0  0  0  0  0  0  0
  146.3421  135.2896  150.5790 H   0  0  0  0  0  0  0  0  0  0  0  0
  147.4916  135.4624  152.3918 H   0  0  0  0  0  0  0  0  0  0  0  0
  1  2  1  0  0  0  0
  1 21  1  0  0  0  0
  1 22  1  0  0  0  0
  1 23  1  0  0  0  0
  2  8  1  0  0  0  0
  2  3  2  0  0  0  0
  3  4  1  0  0  0  0
  4  5  1  0  0  0  0
  4  6  1  0  0  0  0
  5 24  1  0  0  0  0
  5 25  1  0  0  0  0
  5 26  1  0  0  0  0
  6  7  1  0  0  0  0
  6  8  2  0  0  0  0
  7 27  1  0  0  0  0
  7 28  1  0  0  0  0
  7 29  1  0  0  0  0
  8  9  1  0  0  0  0
  9 10  1  0  0  0  0
  9 30  1  0  0  0  0
  9 31  1  0  0  0  0
 10 11  2  0  0  0  0
 10 12  1  0  0  0  0
 12 13  1  0  0  0  0
 12 32  1  0  0  0  0
 13 14  1  0  0  0  0
 13 33  1  0  0  0  0
 13 34  1  0  0  0  0
 14 15  1  0  0  0  0
 14 16  1  0  0  0  0
 14 35  1  0  0  0  0
 15 36  1  0  0  0  0
 15 37  1  0  0  0  0
 15 38  1  0  0  0  0
 16 20  1  0  0  0  0
 16 17  1  0  0  0  0
 16 47  1  0  0  0  0
 17 18  1  0  0  0  0
 17 39  1  0  0  0  0
 17 40  1  0  0  0  0
 18 19  1  0  0  0  0
 18 41  1  0  0  0  0
 18 42  1  0  0  0  0
 19 20  1  0  0  0  0
 19 43  1  0  0  0  0
 19 44  1  0  0  0  0
 20 45  1  0  0  0  0
 20 46  1  0  0  0  0
M  CHG  1  16   1
M  END
> <s_m_source_file>
AV-unprocessed.smi

> <i_m_source_file_index>
1896

> <i_lp_mmshare_version>
43012

> <i_f3d_flags>
0

> <s_epik_input>
W0NIM11jMW5uKFtDSDNdKWMoW0NIM10pYzFbQ0gyXUMoPU8pW05IXVtDSDJdW0NASF0oW0NIM10pTjJbQ0gyXVtDSDJdW0NIMl1bQ0gyXTI=

> <s_epik_cmdline>
J2VwaWtfcHl0aG9uJywgJy1waCcsICc3LjAnLCAnLXRuJywgJzgnLCAnLW1hJywgJzIwMCcsICctbWV0YWxfYmluZGluZycsICctaW1hZScsICc8aW5maWxlLm1hZT4nLCAnLW9tYWUnLCAnPG91dGZpbGUubWFlPic=

> <r_lp_tautomer_probability>
1

> <r_epik_Ionization_Penalty>
0.00723064

> <r_epik_Ionization_Penalty_Charging>
0.0050435

> <r_epik_Ionization_Penalty_Neutral>
0.00218714

> <r_epik_State_Penalty>
-0

> <r_epik_Charging_Adjusted_Penalty>
0.0050435

> <i_epik_Tot_Q>
1

> <i_epik_Tot_abs_Q>
1

> <r_epik_Metal_State_Penalty>
-0

> <b_epik_Metal_Only>
0

> <s_lp_Force_Field>
OPLS_2005

> <r_lp_Energy>
24.4883

> <b_lp_Chiralities_Consistent>
1

> <s_lp_Variant>
AV-unprocessed.smi:1896-2

> <Gold.Version>
5.8.1

> <Gold.Id.Protein>
6NUR|6NUR_protein|mol2

> <Gold.PLP.Fitness>
44.2588

> <Gold.PLP.PLP>
-32.8437

> <Gold.PLP.part.hbond>
-3.0000

> <Gold.PLP.part.metal>
0.0000

> <Gold.PLP.part.buried>
-1.1741

> <Gold.PLP.part.nonpolar>
-29.2643

> <Gold.PLP.part.repulsive>
0.0277

> <Gold.PLP.ligand.clash>
0.0000

> <Gold.PLP.ligand.torsion>
0.2210

> <Gold.PLP.Chemscore.Hbond>
3.9280

> <Gold.PLP.Chemscore.CHOScore>
0.0000

> <Gold.PLP.Chemscore.Metal>
0.0000

> <Gold.Chemscore.Hbonds>
donor molecule, donor type, donor heavy atom, donor atom, acceptor molecule, acceptor atom, score
      L1  H    12    32       P1  7948  0.90
      L1  H    16    47       P1  7948  2.00
      P1  H  7997  8008       L1     3  1.00

> <Gold.PLP.Chemscore.Internal.Correction>
0.0731

> <Gold.Rescore>
     Score         DG    S(hbond)    S(metal)    S(lipo)     H(rot)  DE(clash)    DE(int)     intcor
     17.34     -19.25       2.59        0.00      79.86       1.65       0.26       1.65       ----

> <Gold.Chemscore.Fitness>
17.3445

> <Gold.Chemscore.DG>
-19.2549

> <Gold.Chemscore.ZeroCoef>
-5.4800

> <Gold.Chemscore.Hbond>
2.5911

> <Gold.Chemscore.Metal>
0.0000

> <Gold.Chemscore.Lipo>
79.8587

> <Gold.Chemscore.Internal_Hbond>
0.0000

> <Gold.Chemscore.DEClash>
0.2585

> <Gold.Chemscore.DEInternal>
1.6519

> <Gold.Chemscore.Rot>
1.6495

> <Gold.Chemscore.Internal.Correction>
   9.000000E+99

> <Gold.Chemscore.Hbonds>
donor molecule, donor type, donor heavy atom, donor atom, acceptor molecule, acceptor atom, score
      L1  H    12    32       P1  7948  0.88
      L1  H    16    47       P1  7948  1.00
      P1  H  7997  8008       L1     3  0.63

> <Gold.Chemscore.Hbond.Weighted>
-8.6541

> <Gold.Chemscore.Metal.Weighted>
-0.0000

> <Gold.Chemscore.Lipo.Weighted>
-9.3435

> <Gold.Chemscore.Internal_Hbond.Weighted>
0.0000

> <Gold.Chemscore.DEClash.Weighted>
0.2585

> <Gold.Chemscore.DEInternal.Weighted>
1.6519

> <Gold.Chemscore.Rot.Weighted>
4.2227

> <Gold.Chemscore.Internal.Correction.Weighted>
   9.000000E+99

> <Gold.Protein.RotatedTorsions>
[ 6907 6896 6895 6894 ] final   15.89 input  -60.11 | X-H torsion
[ 7974 7965 7964 7962 ] final  164.14 input  175.53 | X-H torsion
[ 8008 7997 7996 7995 ] final  -49.12 input   59.86 | X-H torsion
[ 10167 10162 10161 10158 ] final -139.25 input  -65.29 | X-H torsion
[ 10718 10713 10712 10709 ] final  174.37 input   66.30 | X-H torsion
[ 10763 10752 10751 10750 ] final  -90.07 input  -60.55 | X-H torsion
[ 11005 11000 10999 10996 ] final  110.35 input  -57.11 | X-H torsion

> <Gold.Protein.ActiveResidues>
 VAL166  LYS551  ARG553  GLY616  TRP617  ASP618  TYR619  PRO620  LYS621  CYS622 
 ASP623  PHE694  ASN695  SER759  ASP760  ASP761  ALA762  ILE779  LEU786  VAL792 
 PHE793  MET794  SER795  GLU796  ALA797  LYS798  CYS799  TRP800  GLU811  SER814 

> <Gold.Protein.RotatedAtoms>
  151.8252  135.0639  160.0429 H   0  0  0  0  0  0  0  0  0  0  0  0  # atno 6907 bound_to 6896
  152.2921  133.5567  159.5572 H   0  0  0  0  0  0  0  0  0  0  0  0  # atno 6908 bound_to 6896
  150.7235  134.0329  159.3782 H   0  0  0  0  0  0  0  0  0  0  0  0  # atno 6909 bound_to 6896
  144.7558  139.8284  143.6350 H   0  0  0  0  0  0  0  0  0  0  0  0  # atno 7974 bound_to 7965
  154.4039  140.1304  156.4451 H   0  0  0  0  0  0  0  0  0  0  0  0  # atno 8008 bound_to 7997
  155.7421  140.3489  155.5089 H   0  0  0  0  0  0  0  0  0  0  0  0  # atno 8009 bound_to 7997
  155.9029  140.1022  157.1327 H   0  0  0  0  0  0  0  0  0  0  0  0  # atno 8010 bound_to 7997
  139.8398  143.7336  152.2663 H   0  0  0  0  0  0  0  0  0  0  0  0  # atno 10167 bound_to 10162
  156.9506  131.0030  151.2949 H   0  0  0  0  0  0  0  0  0  0  0  0  # atno 10718 bound_to 10713
  154.6619  135.5318  153.8029 H   0  0  0  0  0  0  0  0  0  0  0  0  # atno 10763 bound_to 10752
  153.0447  135.6508  154.0858 H   0  0  0  0  0  0  0  0  0  0  0  0  # atno 10764 bound_to 10752
  154.0766  135.2950  155.3278 H   0  0  0  0  0  0  0  0  0  0  0  0  # atno 10765 bound_to 10752
  139.8880  134.9482  156.6265 H   0  0  0  0  0  0  0  0  0  0  0  0  # atno 11005 bound_to 11000
  146.1566  139.4666  143.0015 LP  0  0  0  0  0  0  0  0  0  0  0  0  # atno 17320 bound_to 7965
  145.6785  141.0197  143.1619 LP  0  0  0  0  0  0  0  0  0  0  0  0  # atno 17321 bound_to 7965
  139.7570  144.7518  151.0420 LP  0  0  0  0  0  0  0  0  0  0  0  0  # atno 17342 bound_to 10162
  140.7799  143.4794  151.0038 LP  0  0  0  0  0  0  0  0  0  0  0  0  # atno 17343 bound_to 10162
  157.5724  130.8320  149.8410 LP  0  0  0  0  0  0  0  0  0  0  0  0  # atno 17370 bound_to 10713
  156.0364  130.3750  150.1549 LP  0  0  0  0  0  0  0  0  0  0  0  0  # atno 17371 bound_to 10713
  140.7699  133.8747  155.8483 LP  0  0  0  0  0  0  0  0  0  0  0  0  # atno 17394 bound_to 11000
  140.9851  134.1354  157.4460 LP  0  0  0  0  0  0  0  0  0  0  0  0  # atno 17395 bound_to 11000

$$$$
