AV-unprocessed.smi:1682|AV-procd|sdf|6745|dock1
  -GOLD-   22720 7503D 1   1.00000     0.00000
 Structure written by MMmdl.
 39 40  0  0  0  0  0  0  0  0  2 V2000
  150.6700  137.6230  159.6139 O   0  0  0  0  0  0  0  0  0  0  0  0
  149.8174  137.7187  158.7318 C   0  0  0  0  0  0  0  0  0  0  0  0
  149.8573  138.6619  157.7772 N   0  0  0  0  0  0  0  0  0  0  0  0
  150.9145  139.6549  157.6513 C   0  0  0  0  0  0  0  0  0  0  0  0
  150.3306  141.0345  157.3176 C   0  0  0  0  0  0  0  0  0  0  0  0
  151.2021  142.1633  157.8341 C   0  0  0  0  0  0  0  0  0  0  0  0
  152.2466  141.9434  158.7586 C   0  0  0  0  0  0  0  0  0  0  0  0
  153.0114  143.0403  159.2081 C   0  0  0  0  0  0  0  0  0  0  0  0
  152.7167  144.3318  158.7244 C   0  0  0  0  0  0  0  0  0  0  0  0
  151.6632  144.4941  157.8017 C   0  0  0  0  0  0  0  0  0  0  0  0
  150.9532  143.4186  157.3953 N   0  3  0  0  0  0  0  0  0  0  0  0
  148.6464  136.7230  158.6900 C   0  0  2  0  0  0  0  0  0  0  0  0
  147.2812  137.4205  158.8454 C   0  0  0  0  0  0  0  0  0  0  0  0
  146.7640  136.9046  160.1783 C   0  0  0  0  0  0  0  0  0  0  0  0
  145.7461  137.3436  160.7104 O   0  0  0  0  0  0  0  0  0  0  0  0
  147.5646  135.9529  160.6718 N   0  0  0  0  0  0  0  0  0  0  0  0
  147.3930  135.2486  161.9417 C   0  0  0  0  0  0  0  0  0  0  0  0
  146.9366  133.7906  161.7510 C   0  0  0  0  0  0  0  0  0  0  0  0
  146.5955  133.6070  160.4764 F   0  0  0  0  0  0  0  0  0  0  0  0
  147.9114  132.9337  162.0538 F   0  0  0  0  0  0  0  0  0  0  0  0
  145.8749  133.5346  162.5154 F   0  0  0  0  0  0  0  0  0  0  0  0
  148.7011  135.6635  159.8110 C   0  0  0  0  0  0  0  0  0  0  0  0
  149.1203  138.6769  157.0869 H   0  0  0  0  0  0  0  0  0  0  0  0
  151.4811  139.6991  158.5830 H   0  0  0  0  0  0  0  0  0  0  0  0
  151.6064  139.3443  156.8666 H   0  0  0  0  0  0  0  0  0  0  0  0
  150.2153  141.1393  156.2377 H   0  0  0  0  0  0  0  0  0  0  0  0
  149.3318  141.1337  157.7450 H   0  0  0  0  0  0  0  0  0  0  0  0
  152.4592  140.9487  159.1232 H   0  0  0  0  0  0  0  0  0  0  0  0
  153.8133  142.8928  159.9166 H   0  0  0  0  0  0  0  0  0  0  0  0
  153.2895  145.1851  159.0569 H   0  0  0  0  0  0  0  0  0  0  0  0
  151.3679  145.4442  157.3811 H   0  0  0  0  0  0  0  0  0  0  0  0
  148.6795  136.2164  157.7239 H   0  0  0  0  0  0  0  0  0  0  0  0
  147.3404  138.5101  158.8508 H   0  0  0  0  0  0  0  0  0  0  0  0
  146.5950  137.1246  158.0513 H   0  0  0  0  0  0  0  0  0  0  0  0
  148.3363  135.2662  162.4890 H   0  0  0  0  0  0  0  0  0  0  0  0
  146.6742  135.7865  162.5622 H   0  0  0  0  0  0  0  0  0  0  0  0
  148.5953  134.6594  159.3982 H   0  0  0  0  0  0  0  0  0  0  0  0
  149.6335  135.6888  160.3778 H   0  0  0  0  0  0  0  0  0  0  0  0
  150.1934  143.5606  156.7292 H   0  0  0  0  0  0  0  0  0  0  0  0
  1  2  2  0  0  0  0
  2  3  1  0  0  0  0
  2 12  1  0  0  0  0
  3  4  1  0  0  0  0
  3 23  1  0  0  0  0
  4  5  1  0  0  0  0
  4 24  1  0  0  0  0
  4 25  1  0  0  0  0
  5  6  1  0  0  0  0
  5 26  1  0  0  0  0
  5 27  1  0  0  0  0
  6 11  1  0  0  0  0
  6  7  2  0  0  0  0
  7  8  1  0  0  0  0
  7 28  1  0  0  0  0
  8  9  2  0  0  0  0
  8 29  1  0  0  0  0
  9 10  1  0  0  0  0
  9 30  1  0  0  0  0
 10 11  2  0  0  0  0
 10 31  1  0  0  0  0
 11 39  1  0  0  0  0
 12 22  1  0  0  0  0
 12 13  1  0  0  0  0
 12 32  1  0  0  0  0
 13 14  1  0  0  0  0
 13 33  1  0  0  0  0
 13 34  1  0  0  0  0
 14 15  2  0  0  0  0
 14 16  1  0  0  0  0
 16 17  1  0  0  0  0
 16 22  1  0  0  0  0
 17 18  1  0  0  0  0
 17 35  1  0  0  0  0
 17 36  1  0  0  0  0
 18 19  1  0  0  0  0
 18 20  1  0  0  0  0
 18 21  1  0  0  0  0
 22 37  1  0  0  0  0
 22 38  1  0  0  0  0
M  CHG  1  11   1
M  END
> <s_m_source_file>
AV-unprocessed.smi

> <i_m_source_file_index>
1682

> <i_lp_mmshare_version>
43012

> <i_f3d_flags>
0

> <s_epik_input>
RkMoRikoRilbQ0gyXU4oW0NIMl0xKUMoPU8pW0NIMl1bQ0BIXTFDKD1PKVtOSF1bQ0gyXVtDSDJdYzJbY0hdW2NIXVtjSF1bY0hdbjI=

> <s_epik_cmdline>
J2VwaWtfcHl0aG9uJywgJy1waCcsICc3LjAnLCAnLXRuJywgJzgnLCAnLW1hJywgJzIwMCcsICctbWV0YWxfYmluZGluZycsICctaW1hZScsICc8aW5maWxlLm1hZT4nLCAnLW9tYWUnLCAnPG91dGZpbGUubWFlPic=

> <r_epik_Ionization_Penalty>
1.88249

> <r_epik_Ionization_Penalty_Charging>
1.88249

> <r_epik_Ionization_Penalty_Neutral>
2.8664e-08

> <r_epik_State_Penalty>
2.00238

> <r_epik_Charging_Adjusted_Penalty>
3.88487

> <i_epik_Tot_Q>
1

> <i_epik_Tot_abs_Q>
1

> <r_epik_Metal_State_Penalty>
2.02677

> <b_epik_Metal_Only>
0

> <s_lp_Force_Field>
OPLS_2005

> <r_lp_Energy>
22.1056

> <b_lp_Chiralities_Consistent>
1

> <s_lp_Variant>
AV-unprocessed.smi:1682-3

> <Gold.Version>
5.8.1

> <Gold.Id.Protein>
6NUR|6NUR_protein|mol2

> <Gold.PLP.Fitness>
45.8217

> <Gold.PLP.PLP>
-42.7112

> <Gold.PLP.part.hbond>
-2.4826

> <Gold.PLP.part.metal>
0.0000

> <Gold.PLP.part.buried>
-5.2224

> <Gold.PLP.part.nonpolar>
-35.9160

> <Gold.PLP.part.repulsive>
0.0807

> <Gold.PLP.ligand.clash>
0.0000

> <Gold.PLP.ligand.torsion>
1.6403

> <Gold.PLP.Chemscore.Hbond>
2.0000

> <Gold.PLP.Chemscore.CHOScore>
0.0000

> <Gold.PLP.Chemscore.Metal>
0.0000

> <Gold.Chemscore.Hbonds>
donor molecule, donor type, donor heavy atom, donor atom, acceptor molecule, acceptor atom, score
      L1  H    11    39       P1  8028  1.95

> <Gold.PLP.Chemscore.Internal.Correction>
0.3912

> <Gold.Rescore>
     Score         DG    S(hbond)    S(metal)    S(lipo)     H(rot)  DE(clash)    DE(int)     intcor
     12.66     -14.07       0.99        0.00      93.12       2.19       0.04       1.37       ----

> <Gold.Chemscore.Fitness>
12.6595

> <Gold.Chemscore.DG>
-14.0676

> <Gold.Chemscore.ZeroCoef>
-5.4800

> <Gold.Chemscore.Hbond>
0.9900

> <Gold.Chemscore.Metal>
0.0000

> <Gold.Chemscore.Lipo>
93.1239

> <Gold.Chemscore.Internal_Hbond>
0.0000

> <Gold.Chemscore.DEClash>
0.0410

> <Gold.Chemscore.DEInternal>
1.3671

> <Gold.Chemscore.Rot>
2.1932

> <Gold.Chemscore.Internal.Correction>
   9.000000E+99

> <Gold.Chemscore.Hbonds>
donor molecule, donor type, donor heavy atom, donor atom, acceptor molecule, acceptor atom, score
      L1  H    11    39       P1  8028  0.89

> <Gold.Chemscore.Hbond.Weighted>
-3.3066

> <Gold.Chemscore.Metal.Weighted>
-0.0000

> <Gold.Chemscore.Lipo.Weighted>
-10.8955

> <Gold.Chemscore.Internal_Hbond.Weighted>
0.0000

> <Gold.Chemscore.DEClash.Weighted>
0.0410

> <Gold.Chemscore.DEInternal.Weighted>
1.3671

> <Gold.Chemscore.Rot.Weighted>
5.6145

> <Gold.Chemscore.Internal.Correction.Weighted>
   9.000000E+99

> <Gold.Protein.RotatedTorsions>
[ 6907 6896 6895 6894 ] final   11.08 input  -60.11 | X-H torsion
[ 7974 7965 7964 7962 ] final  173.78 input  175.53 | X-H torsion
[ 8008 7997 7996 7995 ] final    0.70 input   59.86 | X-H torsion
[ 10167 10162 10161 10158 ] final   42.25 input  -65.29 | X-H torsion
[ 10718 10713 10712 10709 ] final  -57.08 input   66.30 | X-H torsion
[ 10763 10752 10751 10750 ] final  -94.44 input  -60.55 | X-H torsion
[ 11005 11000 10999 10996 ] final -177.12 input  -57.11 | X-H torsion

> <Gold.Protein.ActiveResidues>
 VAL166  LYS551  ARG553  GLY616  TRP617  ASP618  TYR619  PRO620  LYS621  CYS622 
 ASP623  PHE694  ASN695  SER759  ASP760  ASP761  ALA762  ILE779  LEU786  VAL792 
 PHE793  MET794  SER795  GLU796  ALA797  LYS798  CYS799  TRP800  GLU811  SER814 

> <Gold.Protein.RotatedAtoms>
  151.7486  135.0838  160.0326 H   0  0  0  0  0  0  0  0  0  0  0  0  # atno 6907 bound_to 6896
  152.3432  133.6087  159.5899 H   0  0  0  0  0  0  0  0  0  0  0  0  # atno 6908 bound_to 6896
  150.7492  133.9606  159.3556 H   0  0  0  0  0  0  0  0  0  0  0  0  # atno 6909 bound_to 6896
  144.7236  139.9698  143.6437 H   0  0  0  0  0  0  0  0  0  0  0  0  # atno 7974 bound_to 7965
  154.6711  140.2612  155.7006 H   0  0  0  0  0  0  0  0  0  0  0  0  # atno 8008 bound_to 7997
  156.2659  140.2829  156.1142 H   0  0  0  0  0  0  0  0  0  0  0  0  # atno 8009 bound_to 7997
  155.1167  140.0376  157.2729 H   0  0  0  0  0  0  0  0  0  0  0  0  # atno 8010 bound_to 7997
  140.3563  144.2286  150.6141 H   0  0  0  0  0  0  0  0  0  0  0  0  # atno 10167 bound_to 10162
  156.1238  130.4164  150.0392 H   0  0  0  0  0  0  0  0  0  0  0  0  # atno 10718 bound_to 10713
  154.7055  135.5157  153.8588 H   0  0  0  0  0  0  0  0  0  0  0  0  # atno 10763 bound_to 10752
  153.0737  135.6609  154.0200 H   0  0  0  0  0  0  0  0  0  0  0  0  # atno 10764 bound_to 10752
  154.0051  135.3007  155.3378 H   0  0  0  0  0  0  0  0  0  0  0  0  # atno 10765 bound_to 10752
  140.4445  134.6401  157.4773 H   0  0  0  0  0  0  0  0  0  0  0  0  # atno 11005 bound_to 11000
  146.0572  139.3568  143.0603 LP  0  0  0  0  0  0  0  0  0  0  0  0  # atno 17320 bound_to 7965
  145.8140  140.9712  143.0934 LP  0  0  0  0  0  0  0  0  0  0  0  0  # atno 17321 bound_to 7965
  140.5171  143.2275  151.8447 LP  0  0  0  0  0  0  0  0  0  0  0  0  # atno 17342 bound_to 10162
  139.4820  144.4882  151.9220 LP  0  0  0  0  0  0  0  0  0  0  0  0  # atno 17343 bound_to 10162
  156.8323  130.9397  151.3636 LP  0  0  0  0  0  0  0  0  0  0  0  0  # atno 17370 bound_to 10713
  157.6421  130.8814  149.9467 LP  0  0  0  0  0  0  0  0  0  0  0  0  # atno 17371 bound_to 10713
  140.0048  134.6781  155.9473 LP  0  0  0  0  0  0  0  0  0  0  0  0  # atno 17394 bound_to 11000
  141.1691  133.6537  156.4587 LP  0  0  0  0  0  0  0  0  0  0  0  0  # atno 17395 bound_to 11000

$$$$
