AV-unprocessed.smi:591|AV-procd|sdf|3009|dock4
  -GOLD-   2262023513D 1   1.00000     0.00000
 Structure written by MMmdl.
 42 43  0  0  0  0  0  0  0  0  1 V2000
  149.0289  140.7437  156.8033 O   0  0  0  0  0  0  0  0  0  0  0  0
  149.7345  140.7815  155.7942 C   0  0  0  0  0  0  0  0  0  0  0  0
  151.2333  141.1015  155.8908 C   0  0  0  0  0  0  0  0  0  0  0  0
  151.6699  141.4444  157.2548 N   0  0  0  0  0  0  0  0  0  0  0  0
  151.2843  142.7041  157.7542 C   0  0  0  0  0  0  0  0  0  0  0  0
  151.6245  143.1416  158.9818 C   0  0  0  0  0  0  0  0  0  0  0  0
  151.1414  144.4809  159.5164 C   0  0  0  0  0  0  0  0  0  0  0  0
  151.4197  145.4671  158.6633 F   0  0  0  0  0  0  0  0  0  0  0  0
  149.8215  144.4470  159.6953 F   0  0  0  0  0  0  0  0  0  0  0  0
  151.7117  144.7666  160.6877 F   0  0  0  0  0  0  0  0  0  0  0  0
  152.3963  142.2278  159.8011 C   0  0  0  0  0  0  0  0  0  0  0  0
  152.7622  141.0144  159.3438 C   0  0  0  0  0  0  0  0  0  0  0  0
  152.4000  140.5603  157.9992 C   0  0  0  0  0  0  0  0  0  0  0  0
  152.7307  139.4549  157.5693 O   0  0  0  0  0  0  0  0  0  0  0  0
  149.2574  140.5703  154.5596 N   0  0  0  0  0  0  0  0  0  0  0  0
  147.8675  140.2579  154.2581 C   0  0  0  0  0  0  0  0  0  0  0  0
  147.2260  141.3877  153.4390 C   0  0  0  0  0  0  0  0  0  0  0  0
  146.3197  142.2787  154.2725 C   0  0  0  0  0  0  0  0  0  0  0  0
  145.6810  143.3407  153.7431 C   0  0  0  0  0  0  0  0  0  0  0  0
  144.7534  144.2552  154.5237 C   0  0  0  0  0  0  0  0  0  0  0  0
  144.3472  143.6582  155.8815 C   0  0  0  0  0  0  0  0  0  0  0  0
  145.5513  143.0263  156.5908 C   0  0  0  0  0  0  0  0  0  0  0  0
  146.1742  141.9026  155.7432 C   0  0  0  0  0  0  0  0  0  0  0  0
  151.8097  140.2543  155.5138 H   0  0  0  0  0  0  0  0  0  0  0  0
  151.4503  141.9204  155.2035 H   0  0  0  0  0  0  0  0  0  0  0  0
  150.6819  143.2905  157.0757 H   0  0  0  0  0  0  0  0  0  0  0  0
  152.6887  142.5220  160.7984 H   0  0  0  0  0  0  0  0  0  0  0  0
  153.3379  140.3599  159.9820 H   0  0  0  0  0  0  0  0  0  0  0  0
  149.8978  140.6242  153.7807 H   0  0  0  0  0  0  0  0  0  0  0  0
  147.8211  139.3200  153.7020 H   0  0  0  0  0  0  0  0  0  0  0  0
  147.3255  140.1080  155.1928 H   0  0  0  0  0  0  0  0  0  0  0  0
  147.9990  142.0072  152.9825 H   0  0  0  0  0  0  0  0  0  0  0  0
  146.6513  140.9582  152.6171 H   0  0  0  0  0  0  0  0  0  0  0  0
  145.8233  143.5894  152.7014 H   0  0  0  0  0  0  0  0  0  0  0  0
  145.2634  145.2079  154.6683 H   0  0  0  0  0  0  0  0  0  0  0  0
  143.8635  144.4587  153.9275 H   0  0  0  0  0  0  0  0  0  0  0  0
  143.8968  144.4286  156.5081 H   0  0  0  0  0  0  0  0  0  0  0  0
  143.5814  142.8961  155.7304 H   0  0  0  0  0  0  0  0  0  0  0  0
  146.2996  143.7971  156.7806 H   0  0  0  0  0  0  0  0  0  0  0  0
  145.2560  142.6366  157.5655 H   0  0  0  0  0  0  0  0  0  0  0  0
  145.5530  141.0088  155.8066 H   0  0  0  0  0  0  0  0  0  0  0  0
  147.1502  141.6386  156.1514 H   0  0  0  0  0  0  0  0  0  0  0  0
  1  2  2  0  0  0  0
  2  3  1  0  0  0  0
  2 15  1  0  0  0  0
  3  4  1  0  0  0  0
  3 24  1  0  0  0  0
  3 25  1  0  0  0  0
  4 13  1  0  0  0  0
  4  5  1  0  0  0  0
  5  6  2  0  0  0  0
  5 26  1  0  0  0  0
  6  7  1  0  0  0  0
  6 11  1  0  0  0  0
  7  8  1  0  0  0  0
  7  9  1  0  0  0  0
  7 10  1  0  0  0  0
 11 12  2  0  0  0  0
 11 27  1  0  0  0  0
 12 13  1  0  0  0  0
 12 28  1  0  0  0  0
 13 14  2  0  0  0  0
 15 16  1  0  0  0  0
 15 29  1  0  0  0  0
 16 17  1  0  0  0  0
 16 30  1  0  0  0  0
 16 31  1  0  0  0  0
 17 18  1  0  0  0  0
 17 32  1  0  0  0  0
 17 33  1  0  0  0  0
 18 23  1  0  0  0  0
 18 19  2  0  0  0  0
 19 20  1  0  0  0  0
 19 34  1  0  0  0  0
 20 21  1  0  0  0  0
 20 35  1  0  0  0  0
 20 36  1  0  0  0  0
 21 22  1  0  0  0  0
 21 37  1  0  0  0  0
 21 38  1  0  0  0  0
 22 23  1  0  0  0  0
 22 39  1  0  0  0  0
 22 40  1  0  0  0  0
 23 41  1  0  0  0  0
 23 42  1  0  0  0  0
M  END
> <s_m_source_file>
AV-unprocessed.smi

> <i_m_source_file_index>
591

> <i_lp_mmshare_version>
43012

> <i_f3d_flags>
0

> <s_epik_input>
Tz1jMVtjSF1bY0hdYyhDKEYpKEYpRilbY0hdbjFbQ0gyXUMoPU8pW05IXVtDSDJdW0NIMl1DMj1bQ0hdW0NIMl1bQ0gyXVtDSDJdW0NIMl0y

> <s_epik_cmdline>
J2VwaWtfcHl0aG9uJywgJy1waCcsICc3LjAnLCAnLXRuJywgJzgnLCAnLW1hJywgJzIwMCcsICctbWV0YWxfYmluZGluZycsICctaW1hZScsICc8aW5maWxlLm1hZT4nLCAnLW9tYWUnLCAnPG91dGZpbGUubWFlPic=

> <r_lp_tautomer_probability>
1

> <r_epik_Ionization_Penalty>
3.65086e-08

> <r_epik_Ionization_Penalty_Charging>
1.84051e-08

> <r_epik_Ionization_Penalty_Neutral>
1.81035e-08

> <r_epik_State_Penalty>
-0

> <r_epik_Charging_Adjusted_Penalty>
1.84051e-08

> <i_epik_Tot_Q>
0

> <i_epik_Tot_abs_Q>
0

> <r_epik_Metal_State_Penalty>
-0

> <b_epik_Metal_Only>
0

> <s_lp_Force_Field>
OPLS_2005

> <r_lp_Energy>
19.2896

> <b_lp_Chiralities_Consistent>
1

> <s_lp_Variant>
AV-unprocessed.smi:591-1

> <Gold.Version>
5.8.1

> <Gold.Id.Protein>
6NUR|6NUR_protein|mol2

> <Gold.PLP.Fitness>
49.6084

> <Gold.PLP.PLP>
-46.9101

> <Gold.PLP.part.hbond>
-1.0000

> <Gold.PLP.part.metal>
0.0000

> <Gold.PLP.part.buried>
-6.7826

> <Gold.PLP.part.nonpolar>
-37.3986

> <Gold.PLP.part.repulsive>
0.1908

> <Gold.PLP.ligand.clash>
0.0000

> <Gold.PLP.ligand.torsion>
0.7444

> <Gold.PLP.Chemscore.Hbond>
0.8000

> <Gold.PLP.Chemscore.CHOScore>
0.5630

> <Gold.PLP.Chemscore.Metal>
0.0000

> <Gold.Chemscore.Hbonds>
donor molecule, donor type, donor heavy atom, donor atom, acceptor molecule, acceptor atom, score
      P1  H  7997  8008       L1    14  0.75
      L1  C     5    26       P1  8028  0.61

> <Gold.PLP.Chemscore.Internal.Correction>
0.0981

> <Gold.Rescore>
     Score         DG    S(hbond)    S(metal)    S(lipo)     H(rot)  DE(clash)    DE(int)     intcor
     12.83     -14.82       0.83        0.00      98.46       1.94       1.16       0.83       ----

> <Gold.Chemscore.Fitness>
12.8309

> <Gold.Chemscore.DG>
-14.8165

> <Gold.Chemscore.ZeroCoef>
-5.4800

> <Gold.Chemscore.Hbond>
0.8325

> <Gold.Chemscore.Metal>
0.0000

> <Gold.Chemscore.Lipo>
98.4593

> <Gold.Chemscore.Internal_Hbond>
0.0000

> <Gold.Chemscore.DEClash>
1.1586

> <Gold.Chemscore.DEInternal>
0.8270

> <Gold.Chemscore.Rot>
1.9390

> <Gold.Chemscore.Internal.Correction>
   9.000000E+99

> <Gold.Chemscore.Hbonds>
donor molecule, donor type, donor heavy atom, donor atom, acceptor molecule, acceptor atom, score
      P1  H  7997  8008       L1    14  0.09

> <Gold.Chemscore.Hbond.Weighted>
-2.7807

> <Gold.Chemscore.Metal.Weighted>
-0.0000

> <Gold.Chemscore.Lipo.Weighted>
-11.5197

> <Gold.Chemscore.Internal_Hbond.Weighted>
0.0000

> <Gold.Chemscore.DEClash.Weighted>
1.1586

> <Gold.Chemscore.DEInternal.Weighted>
0.8270

> <Gold.Chemscore.Rot.Weighted>
4.9639

> <Gold.Chemscore.Internal.Correction.Weighted>
   9.000000E+99

> <Gold.Protein.RotatedTorsions>
[ 6907 6896 6895 6894 ] final    0.42 input  -60.11 | X-H torsion
[ 7974 7965 7964 7962 ] final  137.94 input  175.53 | X-H torsion
[ 8008 7997 7996 7995 ] final  -83.84 input   59.86 | X-H torsion
[ 10167 10162 10161 10158 ] final  -69.71 input  -65.29 | X-H torsion
[ 10718 10713 10712 10709 ] final  114.08 input   66.30 | X-H torsion
[ 10763 10752 10751 10750 ] final -170.36 input  -60.55 | X-H torsion
[ 11005 11000 10999 10996 ] final  114.62 input  -57.11 | X-H torsion

> <Gold.Protein.ActiveResidues>
 VAL166  LYS551  ARG553  GLY616  TRP617  ASP618  TYR619  PRO620  LYS621  CYS622 
 ASP623  PHE694  ASN695  SER759  ASP760  ASP761  ALA762  ILE779  LEU786  VAL792 
 PHE793  MET794  SER795  GLU796  ALA797  LYS798  CYS799  TRP800  GLU811  SER814 

> <Gold.Protein.RotatedAtoms>
  151.5762  135.1060  160.0006 H   0  0  0  0  0  0  0  0  0  0  0  0  # atno 6907 bound_to 6896
  152.4377  133.7386  159.6638 H   0  0  0  0  0  0  0  0  0  0  0  0  # atno 6908 bound_to 6896
  150.8277  133.8075  159.3135 H   0  0  0  0  0  0  0  0  0  0  0  0  # atno 6909 bound_to 6896
  144.9420  139.4920  143.5567 H   0  0  0  0  0  0  0  0  0  0  0  0  # atno 7974 bound_to 7965
  154.6234  140.0613  156.9643 H   0  0  0  0  0  0  0  0  0  0  0  0  # atno 8008 bound_to 7997
  155.1781  140.3297  155.4361 H   0  0  0  0  0  0  0  0  0  0  0  0  # atno 8009 bound_to 7997
  156.2444  140.1902  156.6879 H   0  0  0  0  0  0  0  0  0  0  0  0  # atno 8010 bound_to 7997
  140.5409  143.2315  151.7090 H   0  0  0  0  0  0  0  0  0  0  0  0  # atno 10167 bound_to 10162
  157.6301  131.0993  150.7134 H   0  0  0  0  0  0  0  0  0  0  0  0  # atno 10718 bound_to 10713
  154.6423  135.2900  155.0088 H   0  0  0  0  0  0  0  0  0  0  0  0  # atno 10763 bound_to 10752
  154.1210  135.6548  153.4907 H   0  0  0  0  0  0  0  0  0  0  0  0  # atno 10764 bound_to 10752
  153.0333  135.5288  154.7295 H   0  0  0  0  0  0  0  0  0  0  0  0  # atno 10765 bound_to 10752
  139.8986  134.9571  156.6920 H   0  0  0  0  0  0  0  0  0  0  0  0  # atno 11005 bound_to 11000
  146.3289  139.8445  142.8884 LP  0  0  0  0  0  0  0  0  0  0  0  0  # atno 17320 bound_to 7965
  145.2977  141.0185  143.3627 LP  0  0  0  0  0  0  0  0  0  0  0  0  # atno 17321 bound_to 7965
  139.4988  144.3969  152.0221 LP  0  0  0  0  0  0  0  0  0  0  0  0  # atno 17342 bound_to 10162
  140.3078  144.3572  150.6042 LP  0  0  0  0  0  0  0  0  0  0  0  0  # atno 17343 bound_to 10162
  156.7475  130.4758  149.5464 LP  0  0  0  0  0  0  0  0  0  0  0  0  # atno 17370 bound_to 10713
  156.1499  130.6303  151.0582 LP  0  0  0  0  0  0  0  0  0  0  0  0  # atno 17371 bound_to 10713
  140.7217  133.9135  155.8151 LP  0  0  0  0  0  0  0  0  0  0  0  0  # atno 17394 bound_to 11000
  141.0222  134.0873  157.4108 LP  0  0  0  0  0  0  0  0  0  0  0  0  # atno 17395 bound_to 11000

$$$$
