AV-unprocessed.smi:62|AV-procd|sdf|606|dock5
  -GOLD-   2262016503D 1   1.00000     0.00000
 Structure written by MMmdl.
 30 31  0  0  0  0  0  0  0  0  2 V2000
  151.6866  145.3012  158.8613 C   0  0  0  0  0  0  0  0  0  0  0  0
  151.9178  143.8789  158.7298 N   0  0  0  0  0  0  0  0  0  0  0  0
  151.2399  142.9643  157.9571 C   0  0  0  0  0  0  0  0  0  0  0  0
  151.8145  141.7387  158.1506 C   0  0  0  0  0  0  0  0  0  0  0  0
  151.3934  140.4494  157.4856 C   0  0  0  0  0  0  0  0  0  0  0  0
  150.1494  140.5859  156.7342 N   0  0  0  0  0  0  0  0  0  0  0  0
  149.6311  139.3339  156.2088 C   0  0  0  0  0  0  0  0  0  0  0  0
  148.6626  139.7045  155.0770 C   0  0  0  0  0  0  0  0  0  0  0  0
  149.0046  141.1689  154.7563 C   0  0  2  0  0  0  0  0  0  0  0  0
  149.1997  141.3968  153.3763 O   0  0  0  0  0  0  0  0  0  0  0  0
  150.2775  141.4279  155.5638 C   0  0  0  0  0  0  0  0  0  0  0  0
  152.8642  142.0174  159.0912 C   0  0  0  0  0  0  0  0  0  0  0  0
  153.7850  140.9492  159.6206 C   0  0  0  0  0  0  0  0  0  0  0  0
  154.3530  141.0978  160.7248 O   0  0  0  0  0  0  0  0  0  0  0  0
  153.9591  139.9291  158.9175 O   0  5  0  0  0  0  0  0  0  0  0  0
  152.9151  143.3012  159.4243 N   0  0  0  0  0  0  0  0  0  0  0  0
  150.7783  145.5835  158.3282 H   0  0  0  0  0  0  0  0  0  0  0  0
  152.5302  145.8508  158.4425 H   0  0  0  0  0  0  0  0  0  0  0  0
  151.5748  145.5627  159.9141 H   0  0  0  0  0  0  0  0  0  0  0  0
  150.4104  143.2571  157.3310 H   0  0  0  0  0  0  0  0  0  0  0  0
  152.1788  140.0965  156.8170 H   0  0  0  0  0  0  0  0  0  0  0  0
  151.2814  139.6575  158.2276 H   0  0  0  0  0  0  0  0  0  0  0  0
  150.4465  138.7364  155.7980 H   0  0  0  0  0  0  0  0  0  0  0  0
  149.1487  138.7431  156.9880 H   0  0  0  0  0  0  0  0  0  0  0  0
  148.8005  139.0428  154.2209 H   0  0  0  0  0  0  0  0  0  0  0  0
  147.6253  139.6178  155.4023 H   0  0  0  0  0  0  0  0  0  0  0  0
  148.2051  141.8176  155.1169 H   0  0  0  0  0  0  0  0  0  0  0  0
  149.3220  140.5625  152.9500 H   0  0  0  0  0  0  0  0  0  0  0  0
  150.3932  142.4782  155.8335 H   0  0  0  0  0  0  0  0  0  0  0  0
  151.1552  141.1301  154.9871 H   0  0  0  0  0  0  0  0  0  0  0  0
  1  2  1  0  0  0  0
  1 17  1  0  0  0  0
  1 18  1  0  0  0  0
  1 19  1  0  0  0  0
  2 16  1  0  0  0  0
  2  3  1  0  0  0  0
  3  4  2  0  0  0  0
  3 20  1  0  0  0  0
  4  5  1  0  0  0  0
  4 12  1  0  0  0  0
  5  6  1  0  0  0  0
  5 21  1  0  0  0  0
  5 22  1  0  0  0  0
  6 11  1  0  0  0  0
  6  7  1  0  0  0  0
  7  8  1  0  0  0  0
  7 23  1  0  0  0  0
  7 24  1  0  0  0  0
  8  9  1  0  0  0  0
  8 25  1  0  0  0  0
  8 26  1  0  0  0  0
  9 10  1  0  0  0  0
  9 11  1  0  0  0  0
  9 27  1  0  0  0  0
 10 28  1  0  0  0  0
 11 29  1  0  0  0  0
 11 30  1  0  0  0  0
 12 13  1  0  0  0  0
 12 16  2  0  0  0  0
 13 14  2  0  0  0  0
 13 15  1  0  0  0  0
M  CHG  1  15  -1
M  END
> <s_m_source_file>
AV-unprocessed.smi

> <i_m_source_file_index>
62

> <i_lp_mmshare_version>
43012

> <i_f3d_flags>
0

> <s_epik_input>
W0NIM11uMVtjSF1jKGMobjEpQyg9TylbT0hdKVtDSDJdTjJbQ0gyXVtDSDJdW0NAQEhdKFtPSF0pW0NIMl0y

> <s_epik_cmdline>
J2VwaWtfcHl0aG9uJywgJy1waCcsICc3LjAnLCAnLXRuJywgJzgnLCAnLW1hJywgJzIwMCcsICctbWV0YWxfYmluZGluZycsICctaW1hZScsICc8aW5maWxlLm1hZT4nLCAnLW9tYWUnLCAnPG91dGZpbGUubWFlPic=

> <r_epik_Ionization_Penalty>
1.46526

> <r_epik_Ionization_Penalty_Charging>
0.000523675

> <r_epik_Ionization_Penalty_Neutral>
1.46474

> <r_epik_State_Penalty>
1.55202

> <r_epik_Charging_Adjusted_Penalty>
1.55254

> <i_epik_Tot_Q>
-1

> <i_epik_Tot_abs_Q>
1

> <r_epik_Metal_State_Penalty>
1.552

> <b_epik_Metal_Only>
0

> <s_lp_Force_Field>
OPLS_2005

> <r_lp_Energy>
37.4103

> <b_lp_Chiralities_Consistent>
1

> <s_lp_Variant>
AV-unprocessed.smi:62-6

> <Gold.Version>
5.8.1

> <Gold.Id.Protein>
6NUR|6NUR_protein|mol2

> <Gold.PLP.Fitness>
44.5678

> <Gold.PLP.PLP>
-32.5130

> <Gold.PLP.part.hbond>
-3.8666

> <Gold.PLP.part.metal>
0.0000

> <Gold.PLP.part.buried>
-3.9255

> <Gold.PLP.part.nonpolar>
-22.8963

> <Gold.PLP.part.repulsive>
0.0264

> <Gold.PLP.ligand.clash>
0.0000

> <Gold.PLP.ligand.torsion>
0.3550

> <Gold.PLP.Chemscore.Hbond>
3.6320

> <Gold.PLP.Chemscore.CHOScore>
0.6193

> <Gold.PLP.Chemscore.Metal>
0.0000

> <Gold.Chemscore.Hbonds>
donor molecule, donor type, donor heavy atom, donor atom, acceptor molecule, acceptor atom, score
      L1  H    10    28       P1  7957  0.67
      P1  H  7997  8008       L1    15  2.00
      P1  H  8011  8017       L1    10  0.96
      L1  C     3    20       P1  8028  0.62

> <Gold.PLP.Chemscore.Internal.Correction>
0.0109

> <Gold.Rescore>
     Score         DG    S(hbond)    S(metal)    S(lipo)     H(rot)  DE(clash)    DE(int)     intcor
     15.11     -16.66       2.33        0.00      67.66       1.77       0.08       1.47       ----

> <Gold.Chemscore.Fitness>
15.1114

> <Gold.Chemscore.DG>
-16.6581

> <Gold.Chemscore.ZeroCoef>
-5.4800

> <Gold.Chemscore.Hbond>
2.3314

> <Gold.Chemscore.Metal>
0.0000

> <Gold.Chemscore.Lipo>
67.6568

> <Gold.Chemscore.Internal_Hbond>
0.0000

> <Gold.Chemscore.DEClash>
0.0763

> <Gold.Chemscore.DEInternal>
1.4704

> <Gold.Chemscore.Rot>
1.7674

> <Gold.Chemscore.Internal.Correction>
   9.000000E+99

> <Gold.Chemscore.Hbonds>
donor molecule, donor type, donor heavy atom, donor atom, acceptor molecule, acceptor atom, score
      L1  H    10    28       P1  7957  0.66
      P1  H  7997  8008       L1    15  0.95
      P1  H  8011  8017       L1    10  0.36

> <Gold.Chemscore.Hbond.Weighted>
-7.7867

> <Gold.Chemscore.Metal.Weighted>
-0.0000

> <Gold.Chemscore.Lipo.Weighted>
-7.9158

> <Gold.Chemscore.Internal_Hbond.Weighted>
0.0000

> <Gold.Chemscore.DEClash.Weighted>
0.0763

> <Gold.Chemscore.DEInternal.Weighted>
1.4704

> <Gold.Chemscore.Rot.Weighted>
4.5245

> <Gold.Chemscore.Internal.Correction.Weighted>
   9.000000E+99

> <Gold.Protein.RotatedTorsions>
[ 6907 6896 6895 6894 ] final -100.33 input  -60.11 | X-H torsion
[ 7974 7965 7964 7962 ] final -102.55 input  175.53 | X-H torsion
[ 8008 7997 7996 7995 ] final -111.70 input   59.86 | X-H torsion
[ 10167 10162 10161 10158 ] final   11.57 input  -65.29 | X-H torsion
[ 10718 10713 10712 10709 ] final -165.10 input   66.30 | X-H torsion
[ 10763 10752 10751 10750 ] final  103.72 input  -60.55 | X-H torsion
[ 11005 11000 10999 10996 ] final  169.90 input  -57.11 | X-H torsion

> <Gold.Protein.ActiveResidues>
 VAL166  LYS551  ARG553  GLY616  TRP617  ASP618  TYR619  PRO620  LYS621  CYS622 
 ASP623  PHE694  ASN695  SER759  ASP760  ASP761  ALA762  ILE779  LEU786  VAL792 
 PHE793  MET794  SER795  GLU796  ALA797  LYS798  CYS799  TRP800  GLU811  SER814 

> <Gold.Protein.RotatedAtoms>
  150.7112  134.0904  159.3929 H   0  0  0  0  0  0  0  0  0  0  0  0  # atno 6907 bound_to 6896
  151.8890  135.0422  160.0505 H   0  0  0  0  0  0  0  0  0  0  0  0  # atno 6908 bound_to 6896
  152.2507  133.5177  159.5360 H   0  0  0  0  0  0  0  0  0  0  0  0  # atno 6909 bound_to 6896
  145.2672  140.9287  143.3007 H   0  0  0  0  0  0  0  0  0  0  0  0  # atno 7974 bound_to 7965
  154.9938  140.0395  157.2331 H   0  0  0  0  0  0  0  0  0  0  0  0  # atno 8008 bound_to 7997
  154.7604  140.2783  155.6196 H   0  0  0  0  0  0  0  0  0  0  0  0  # atno 8009 bound_to 7997
  156.2903  140.2629  156.2381 H   0  0  0  0  0  0  0  0  0  0  0  0  # atno 8010 bound_to 7997
  140.6123  143.8381  150.7079 H   0  0  0  0  0  0  0  0  0  0  0  0  # atno 10167 bound_to 10162
  156.6485  130.8998  151.3009 H   0  0  0  0  0  0  0  0  0  0  0  0  # atno 10718 bound_to 10713
  153.3565  135.3967  155.1685 H   0  0  0  0  0  0  0  0  0  0  0  0  # atno 10763 bound_to 10752
  154.8671  135.3669  154.5155 H   0  0  0  0  0  0  0  0  0  0  0  0  # atno 10764 bound_to 10752
  153.5611  135.7081  153.5607 H   0  0  0  0  0  0  0  0  0  0  0  0  # atno 10765 bound_to 10752
  140.3026  134.7583  157.3928 H   0  0  0  0  0  0  0  0  0  0  0  0  # atno 11005 bound_to 11000
  144.9366  139.4237  143.6469 LP  0  0  0  0  0  0  0  0  0  0  0  0  # atno 17320 bound_to 7965
  146.3257  139.8305  142.8909 LP  0  0  0  0  0  0  0  0  0  0  0  0  # atno 17321 bound_to 7965
  140.1952  143.4004  152.1833 LP  0  0  0  0  0  0  0  0  0  0  0  0  # atno 17342 bound_to 10162
  139.5371  144.7220  151.4857 LP  0  0  0  0  0  0  0  0  0  0  0  0  # atno 17343 bound_to 10162
  157.7148  130.9484  150.1217 LP  0  0  0  0  0  0  0  0  0  0  0  0  # atno 17370 bound_to 10713
  156.2103  130.3666  149.8679 LP  0  0  0  0  0  0  0  0  0  0  0  0  # atno 17371 bound_to 10713
  140.1095  134.5364  155.8278 LP  0  0  0  0  0  0  0  0  0  0  0  0  # atno 17394 bound_to 11000
  141.2125  133.6720  156.6663 LP  0  0  0  0  0  0  0  0  0  0  0  0  # atno 17395 bound_to 11000

$$$$
