AV-unprocessed.smi:2539|AV-procd|sdf|9986|dock3
  -GOLD-   2272014 33D 1   1.00000     0.00000
 Structure written by MMmdl.
 41 42  0  0  0  0  0  0  0  0  2 V2000
  146.2580  139.6417  154.2907 O   0  0  0  0  0  0  0  0  0  0  0  0
  147.2998  139.0922  153.9291 C   0  0  0  0  0  0  0  0  0  0  0  0
  147.3097  137.8601  153.3901 N   0  0  0  0  0  0  0  0  0  0  0  0
  146.1328  137.0500  153.0856 C   0  0  0  0  0  0  0  0  0  0  0  0
  145.9723  136.8017  151.5725 C   0  0  0  0  0  0  0  0  0  0  0  0
  145.3667  135.4491  151.2377 C   0  0  0  0  0  0  0  0  0  0  0  0
  146.0693  134.2547  151.5135 C   0  0  0  0  0  0  0  0  0  0  0  0
  145.4952  133.0168  151.1576 C   0  0  0  0  0  0  0  0  0  0  0  0
  144.2308  133.0002  150.5348 C   0  0  0  0  0  0  0  0  0  0  0  0
  143.5863  134.1622  150.2909 N   0  3  0  0  0  0  0  0  0  0  0  0
  144.1011  135.3677  150.6174 C   0  0  0  0  0  0  0  0  0  0  0  0
  148.5200  139.6767  154.0290 N   0  0  0  0  0  0  0  0  0  0  0  0
  148.7888  141.0554  154.4659 C   0  0  0  0  0  0  0  0  0  0  0  0
  149.2561  141.0212  155.9338 C   0  0  0  0  0  0  0  0  0  0  0  0
  150.4870  140.0986  156.1388 C   0  0  0  0  0  0  0  0  0  0  0  0
  151.6021  140.7327  155.5377 O   0  0  0  0  0  0  0  0  0  0  0  0
  150.8186  139.9175  157.6392 C   0  0  0  0  0  0  0  0  0  0  0  0
  151.9168  139.1736  157.7780 F   0  0  0  0  0  0  0  0  0  0  0  0
  151.0399  141.0972  158.2201 F   0  0  0  0  0  0  0  0  0  0  0  0
  149.8179  139.3009  158.2695 F   0  0  0  0  0  0  0  0  0  0  0  0
  150.2862  138.7334  155.4289 C   0  0  0  0  0  0  0  0  0  0  0  0
  149.7588  138.8929  153.9892 C   0  0  0  0  0  0  0  0  0  0  0  0
  148.2055  137.4695  153.1358 H   0  0  0  0  0  0  0  0  0  0  0  0
  146.2359  136.0954  153.6020 H   0  0  0  0  0  0  0  0  0  0  0  0
  145.2318  137.5149  153.4891 H   0  0  0  0  0  0  0  0  0  0  0  0
  145.3534  137.5876  151.1374 H   0  0  0  0  0  0  0  0  0  0  0  0
  146.9444  136.8789  151.0844 H   0  0  0  0  0  0  0  0  0  0  0  0
  147.0422  134.2843  151.9818 H   0  0  0  0  0  0  0  0  0  0  0  0
  146.0186  132.0932  151.3567 H   0  0  0  0  0  0  0  0  0  0  0  0
  143.7195  132.0998  150.2266 H   0  0  0  0  0  0  0  0  0  0  0  0
  143.4959  136.2250  150.3609 H   0  0  0  0  0  0  0  0  0  0  0  0
  149.5652  141.4889  153.8341 H   0  0  0  0  0  0  0  0  0  0  0  0
  147.9350  141.7251  154.3622 H   0  0  0  0  0  0  0  0  0  0  0  0
  149.4765  142.0327  156.2762 H   0  0  0  0  0  0  0  0  0  0  0  0
  148.4294  140.6677  156.5508 H   0  0  0  0  0  0  0  0  0  0  0  0
  152.3202  140.7237  156.1523 H   0  0  0  0  0  0  0  0  0  0  0  0
  151.2190  138.1681  155.4210 H   0  0  0  0  0  0  0  0  0  0  0  0
  149.5735  138.1309  155.9934 H   0  0  0  0  0  0  0  0  0  0  0  0
  149.6213  137.9133  153.5295 H   0  0  0  0  0  0  0  0  0  0  0  0
  150.4963  139.4041  153.3690 H   0  0  0  0  0  0  0  0  0  0  0  0
  142.6731  134.1285  149.8371 H   0  0  0  0  0  0  0  0  0  0  0  0
  1  2  2  0  0  0  0
  2  3  1  0  0  0  0
  2 12  1  0  0  0  0
  3  4  1  0  0  0  0
  3 23  1  0  0  0  0
  4  5  1  0  0  0  0
  4 24  1  0  0  0  0
  4 25  1  0  0  0  0
  5  6  1  0  0  0  0
  5 26  1  0  0  0  0
  5 27  1  0  0  0  0
  6 11  1  0  0  0  0
  6  7  2  0  0  0  0
  7  8  1  0  0  0  0
  7 28  1  0  0  0  0
  8  9  2  0  0  0  0
  8 29  1  0  0  0  0
  9 10  1  0  0  0  0
  9 30  1  0  0  0  0
 10 11  2  0  0  0  0
 10 41  1  0  0  0  0
 11 31  1  0  0  0  0
 12 22  1  0  0  0  0
 12 13  1  0  0  0  0
 13 14  1  0  0  0  0
 13 32  1  0  0  0  0
 13 33  1  0  0  0  0
 14 15  1  0  0  0  0
 14 34  1  0  0  0  0
 14 35  1  0  0  0  0
 15 16  1  0  0  0  0
 15 17  1  0  0  0  0
 15 21  1  0  0  0  0
 16 36  1  0  0  0  0
 17 18  1  0  0  0  0
 17 19  1  0  0  0  0
 17 20  1  0  0  0  0
 21 22  1  0  0  0  0
 21 37  1  0  0  0  0
 21 38  1  0  0  0  0
 22 39  1  0  0  0  0
 22 40  1  0  0  0  0
M  CHG  1  10   1
M  END
> <s_m_source_file>
AV-unprocessed.smi

> <i_m_source_file_index>
2539

> <i_lp_mmshare_version>
43012

> <i_f3d_flags>
0

> <s_epik_input>
RkMoRikoRilDMShbT0hdKVtDSDJdW0NIMl1OKFtDSDJdW0NIMl0xKUMoPU8pW05IXVtDSDJdW0NIMl1jMltjSF1bY0hdW2NIXW5bY0hdMg==

> <s_epik_cmdline>
J2VwaWtfcHl0aG9uJywgJy1waCcsICc3LjAnLCAnLXRuJywgJzgnLCAnLW1hJywgJzIwMCcsICctbWV0YWxfYmluZGluZycsICctaW1hZScsICc8aW5maWxlLm1hZT4nLCAnLW9tYWUnLCAnPG91dGZpbGUubWFlPic=

> <r_epik_Ionization_Penalty>
2.21039

> <r_epik_Ionization_Penalty_Charging>
2.21033

> <r_epik_Ionization_Penalty_Neutral>
5.75735e-05

> <r_epik_State_Penalty>
2.3545

> <r_epik_Charging_Adjusted_Penalty>
4.56483

> <i_epik_Tot_Q>
1

> <i_epik_Tot_abs_Q>
1

> <r_epik_Metal_State_Penalty>
2.36861

> <b_epik_Metal_Only>
0

> <s_lp_Force_Field>
OPLS_2005

> <r_lp_Energy>
41.3462

> <b_lp_Chiralities_Consistent>
1

> <s_lp_Variant>
AV-unprocessed.smi:2539-2

> <Gold.Version>
5.8.1

> <Gold.Id.Protein>
6NUR|6NUR_protein|mol2

> <Gold.PLP.Fitness>
42.9699

> <Gold.PLP.PLP>
-34.0621

> <Gold.PLP.part.hbond>
-3.0000

> <Gold.PLP.part.metal>
0.0000

> <Gold.PLP.part.buried>
-0.2386

> <Gold.PLP.part.nonpolar>
-30.9674

> <Gold.PLP.part.repulsive>
0.1572

> <Gold.PLP.ligand.clash>
0.9169

> <Gold.PLP.ligand.torsion>
0.3684

> <Gold.PLP.Chemscore.Hbond>
3.4880

> <Gold.PLP.Chemscore.CHOScore>
0.0000

> <Gold.PLP.Chemscore.Metal>
0.0000

> <Gold.Chemscore.Hbonds>
donor molecule, donor type, donor heavy atom, donor atom, acceptor molecule, acceptor atom, score
      L1  H     3    23       P1  7948  0.80
      L1  H    10    41       P1 10186  2.00
      P1  H  7989  7998       L1    16  0.69

> <Gold.PLP.Chemscore.Internal.Correction>
0.0976

> <Gold.Rescore>
     Score         DG    S(hbond)    S(metal)    S(lipo)     H(rot)  DE(clash)    DE(int)     intcor
     15.45     -17.44       2.36        0.00      79.87       2.06       1.62       0.37       ----

> <Gold.Chemscore.Fitness>
15.4465

> <Gold.Chemscore.DG>
-17.4354

> <Gold.Chemscore.ZeroCoef>
-5.4800

> <Gold.Chemscore.Hbond>
2.3584

> <Gold.Chemscore.Metal>
0.0000

> <Gold.Chemscore.Lipo>
79.8701

> <Gold.Chemscore.Internal_Hbond>
0.0000

> <Gold.Chemscore.DEClash>
1.6190

> <Gold.Chemscore.DEInternal>
0.3699

> <Gold.Chemscore.Rot>
2.0572

> <Gold.Chemscore.Internal.Correction>
   9.000000E+99

> <Gold.Chemscore.Hbonds>
donor molecule, donor type, donor heavy atom, donor atom, acceptor molecule, acceptor atom, score
      L1  H     3    23       P1  7948  0.79
      L1  H    10    41       P1 10186  0.99
      P1  H  7989  7998       L1    16  0.62

> <Gold.Chemscore.Hbond.Weighted>
-7.8769

> <Gold.Chemscore.Metal.Weighted>
-0.0000

> <Gold.Chemscore.Lipo.Weighted>
-9.3448

> <Gold.Chemscore.Internal_Hbond.Weighted>
0.0000

> <Gold.Chemscore.DEClash.Weighted>
1.6190

> <Gold.Chemscore.DEInternal.Weighted>
0.3699

> <Gold.Chemscore.Rot.Weighted>
5.2663

> <Gold.Chemscore.Internal.Correction.Weighted>
   9.000000E+99

> <Gold.Protein.RotatedTorsions>
[ 6907 6896 6895 6894 ] final -139.51 input  -60.11 | X-H torsion
[ 7974 7965 7964 7962 ] final  -68.17 input  175.53 | X-H torsion
[ 8008 7997 7996 7995 ] final   48.74 input   59.86 | X-H torsion
[ 10167 10162 10161 10158 ] final  161.91 input  -65.29 | X-H torsion
[ 10718 10713 10712 10709 ] final   65.20 input   66.30 | X-H torsion
[ 10763 10752 10751 10750 ] final  170.36 input  -60.55 | X-H torsion
[ 11005 11000 10999 10996 ] final   24.65 input  -57.11 | X-H torsion

> <Gold.Protein.ActiveResidues>
 VAL166  LYS551  ARG553  GLY616  TRP617  ASP618  TYR619  PRO620  LYS621  CYS622 
 ASP623  PHE694  ASN695  SER759  ASP760  ASP761  ALA762  ILE779  LEU786  VAL792 
 PHE793  MET794  SER795  GLU796  ALA797  LYS798  CYS799  TRP800  GLU811  SER814 

> <Gold.Protein.RotatedAtoms>
  151.0487  133.5643  159.2644 H   0  0  0  0  0  0  0  0  0  0  0  0  # atno 6907 bound_to 6896
  151.2662  135.0669  159.9127 H   0  0  0  0  0  0  0  0  0  0  0  0  # atno 6908 bound_to 6896
  152.5378  134.0224  159.8042 H   0  0  0  0  0  0  0  0  0  0  0  0  # atno 6909 bound_to 6896
  145.7198  140.9043  143.0636 H   0  0  0  0  0  0  0  0  0  0  0  0  # atno 7974 bound_to 7965
  155.3907  140.3433  155.4251 H   0  0  0  0  0  0  0  0  0  0  0  0  # atno 8008 bound_to 7997
  156.1559  140.1585  156.8726 H   0  0  0  0  0  0  0  0  0  0  0  0  # atno 8009 bound_to 7997
  154.5094  140.0794  156.7942 H   0  0  0  0  0  0  0  0  0  0  0  0  # atno 8010 bound_to 7997
  139.4854  144.4490  151.8854 H   0  0  0  0  0  0  0  0  0  0  0  0  # atno 10167 bound_to 10162
  157.6090  130.9201  149.9946 H   0  0  0  0  0  0  0  0  0  0  0  0  # atno 10718 bound_to 10713
  154.3964  135.2754  155.2123 H   0  0  0  0  0  0  0  0  0  0  0  0  # atno 10763 bound_to 10752
  154.4168  135.6009  153.5989 H   0  0  0  0  0  0  0  0  0  0  0  0  # atno 10764 bound_to 10752
  152.9831  135.5962  154.4226 H   0  0  0  0  0  0  0  0  0  0  0  0  # atno 10765 bound_to 10752
  140.3564  134.2173  155.7675 H   0  0  0  0  0  0  0  0  0  0  0  0  # atno 11005 bound_to 11000
  144.6919  139.9187  143.7467 LP  0  0  0  0  0  0  0  0  0  0  0  0  # atno 17320 bound_to 7965
  146.0636  139.3628  143.0566 LP  0  0  0  0  0  0  0  0  0  0  0  0  # atno 17321 bound_to 7965
  140.3946  144.2572  150.5897 LP  0  0  0  0  0  0  0  0  0  0  0  0  # atno 17342 bound_to 10162
  140.5114  143.2289  151.8529 LP  0  0  0  0  0  0  0  0  0  0  0  0  # atno 17343 bound_to 10162
  156.1186  130.3647  149.9926 LP  0  0  0  0  0  0  0  0  0  0  0  0  # atno 17370 bound_to 10713
  156.8010  130.9290  151.3646 LP  0  0  0  0  0  0  0  0  0  0  0  0  # atno 17371 bound_to 10713
  141.1997  133.8005  157.0523 LP  0  0  0  0  0  0  0  0  0  0  0  0  # atno 17394 bound_to 11000
  140.0662  134.9728  157.1389 LP  0  0  0  0  0  0  0  0  0  0  0  0  # atno 17395 bound_to 11000

$$$$
