AV-unprocessed.smi:1313|AV-procd|sdf|5452|dock2
  -GOLD-   22720 5 23D 1   1.00000     0.00000
 Structure written by MMmdl.
 36 37  0  0  0  0  0  0  0  0  2 V2000
  148.5963  140.7224  153.9464 C   0  0  0  0  0  0  0  0  0  0  0  0
  149.5428  140.1826  154.9972 C   0  0  0  0  0  0  0  0  0  0  0  0
  149.0647  139.6215  156.0417 N   0  0  0  0  0  0  0  0  0  0  0  0
  149.9402  139.1186  157.0192 C   0  0  0  0  0  0  0  0  0  0  0  0
  149.2819  138.4681  158.2239 C   0  0  0  0  0  0  0  0  0  0  0  0
  151.2931  139.2164  156.8731 C   0  0  0  0  0  0  0  0  0  0  0  0
  152.2869  138.6872  157.9064 C   0  0  0  0  0  0  0  0  0  0  0  0
  153.1834  139.7460  158.5501 C   0  0  0  0  0  0  0  0  0  0  0  0
  154.4065  139.6087  158.5379 O   0  0  0  0  0  0  0  0  0  0  0  0
  152.5642  140.7945  159.1141 N   0  0  0  0  0  0  0  0  0  0  0  0
  153.2327  141.8914  159.8082 C   0  0  0  0  0  0  0  0  0  0  0  0
  152.7401  141.9989  161.2639 C   0  0  0  0  0  0  0  0  0  0  0  0
  152.4556  143.4823  161.5032 C   0  0  0  0  0  0  0  0  0  0  0  0
  152.0316  144.0069  160.1353 C   0  0  0  0  0  0  0  0  0  0  0  0
  152.9274  143.2528  159.1509 C   0  0  0  0  0  0  0  0  0  0  0  0
  151.8032  139.8672  155.6524 C   0  0  0  0  0  0  0  0  0  0  0  0
  153.0145  139.9735  155.4637 O   0  0  0  0  0  0  0  0  0  0  0  0
  150.8892  140.3353  154.7553 N   0  5  0  0  0  0  0  0  0  0  0  0
  147.5609  140.4750  154.1844 H   0  0  0  0  0  0  0  0  0  0  0  0
  148.8322  140.2982  152.9699 H   0  0  0  0  0  0  0  0  0  0  0  0
  148.6837  141.8073  153.8828 H   0  0  0  0  0  0  0  0  0  0  0  0
  149.5995  138.9520  159.1476 H   0  0  0  0  0  0  0  0  0  0  0  0
  149.5413  137.4106  158.2758 H   0  0  0  0  0  0  0  0  0  0  0  0
  148.1954  138.5426  158.1665 H   0  0  0  0  0  0  0  0  0  0  0  0
  151.7702  138.1511  158.7029 H   0  0  0  0  0  0  0  0  0  0  0  0
  152.9091  137.9283  157.4309 H   0  0  0  0  0  0  0  0  0  0  0  0
  151.5557  140.8246  159.0762 H   0  0  0  0  0  0  0  0  0  0  0  0
  154.3110  141.7209  159.8045 H   0  0  0  0  0  0  0  0  0  0  0  0
  151.8144  141.4366  161.3989 H   0  0  0  0  0  0  0  0  0  0  0  0
  153.4642  141.6011  161.9755 H   0  0  0  0  0  0  0  0  0  0  0  0
  151.6991  143.6471  162.2710 H   0  0  0  0  0  0  0  0  0  0  0  0
  153.3696  143.9857  161.8215 H   0  0  0  0  0  0  0  0  0  0  0  0
  150.9868  143.7517  159.9527 H   0  0  0  0  0  0  0  0  0  0  0  0
  152.1313  145.0894  160.0500 H   0  0  0  0  0  0  0  0  0  0  0  0
  153.8601  143.8027  159.0195 H   0  0  0  0  0  0  0  0  0  0  0  0
  152.4671  143.1676  158.1655 H   0  0  0  0  0  0  0  0  0  0  0  0
  1  2  1  0  0  0  0
  1 19  1  0  0  0  0
  1 20  1  0  0  0  0
  1 21  1  0  0  0  0
  2 18  1  0  0  0  0
  2  3  2  0  0  0  0
  3  4  1  0  0  0  0
  4  5  1  0  0  0  0
  4  6  2  0  0  0  0
  5 22  1  0  0  0  0
  5 23  1  0  0  0  0
  5 24  1  0  0  0  0
  6  7  1  0  0  0  0
  6 16  1  0  0  0  0
  7  8  1  0  0  0  0
  7 25  1  0  0  0  0
  7 26  1  0  0  0  0
  8  9  2  0  0  0  0
  8 10  1  0  0  0  0
 10 11  1  0  0  0  0
 10 27  1  0  0  0  0
 11 15  1  0  0  0  0
 11 12  1  0  0  0  0
 11 28  1  0  0  0  0
 12 13  1  0  0  0  0
 12 29  1  0  0  0  0
 12 30  1  0  0  0  0
 13 14  1  0  0  0  0
 13 31  1  0  0  0  0
 13 32  1  0  0  0  0
 14 15  1  0  0  0  0
 14 33  1  0  0  0  0
 14 34  1  0  0  0  0
 15 35  1  0  0  0  0
 15 36  1  0  0  0  0
 16 17  2  0  0  0  0
 16 18  1  0  0  0  0
M  CHG  1  18  -1
M  END
> <s_m_source_file>
AV-unprocessed.smi

> <i_m_source_file_index>
1313

> <i_lp_mmshare_version>
43012

> <i_f3d_flags>
0

> <s_epik_input>
W0NIM11jMW5jKFtDSDNdKWMoYyg9TylbbkhdMSlbQ0gyXUMoPU8pW05IXVtDSF0yW0NIMl1bQ0gyXVtDSDJdW0NIMl0y

> <s_epik_cmdline>
J2VwaWtfcHl0aG9uJywgJy1waCcsICc3LjAnLCAnLXRuJywgJzgnLCAnLW1hJywgJzIwMCcsICctbWV0YWxfYmluZGluZycsICctaW1hZScsICc8aW5maWxlLm1hZT4nLCAnLW9tYWUnLCAnPG91dGZpbGUubWFlPic=

> <r_lp_tautomer_probability>
0.839158

> <r_epik_Ionization_Penalty>
6.62586

> <r_epik_Ionization_Penalty_Charging>
7.38068e-08

> <r_epik_Ionization_Penalty_Neutral>
6.62586

> <r_epik_State_Penalty>
4.443

> <r_epik_Charging_Adjusted_Penalty>
4.443

> <i_epik_Tot_Q>
-1

> <i_epik_Tot_abs_Q>
1

> <r_epik_Metal_State_Penalty>
0.804085

> <b_epik_Metal_Only>
1

> <s_lp_Force_Field>
OPLS_2005

> <r_lp_Energy>
23.3314

> <b_lp_Chiralities_Consistent>
1

> <s_lp_Variant>
AV-unprocessed.smi:1313-3

> <Gold.Version>
5.8.1

> <Gold.Id.Protein>
6NUR|6NUR_protein|mol2

> <Gold.PLP.Fitness>
42.7723

> <Gold.PLP.PLP>
-33.8826

> <Gold.PLP.part.hbond>
-3.0392

> <Gold.PLP.part.metal>
0.0000

> <Gold.PLP.part.buried>
-2.1970

> <Gold.PLP.part.nonpolar>
-28.4317

> <Gold.PLP.part.repulsive>
0.1989

> <Gold.PLP.ligand.clash>
0.0000

> <Gold.PLP.ligand.torsion>
0.0453

> <Gold.PLP.Chemscore.Hbond>
2.9920

> <Gold.PLP.Chemscore.CHOScore>
0.0000

> <Gold.PLP.Chemscore.Metal>
0.0000

> <Gold.Chemscore.Hbonds>
donor molecule, donor type, donor heavy atom, donor atom, acceptor molecule, acceptor atom, score
      P1  H  7989  7998       L1    18  1.00
      P1  H  7997  8008       L1     9  0.88
      P1  H  7997  8009       L1    17  1.00

> <Gold.PLP.Chemscore.Internal.Correction>
0.0044

> <Gold.Rescore>
     Score         DG    S(hbond)    S(metal)    S(lipo)     H(rot)  DE(clash)    DE(int)     intcor
     20.15     -20.51       2.80        0.00      80.88       1.48       0.35       0.01       ----

> <Gold.Chemscore.Fitness>
20.1477

> <Gold.Chemscore.DG>
-20.5148

> <Gold.Chemscore.ZeroCoef>
-5.4800

> <Gold.Chemscore.Hbond>
2.8008

> <Gold.Chemscore.Metal>
0.0000

> <Gold.Chemscore.Lipo>
80.8800

> <Gold.Chemscore.Internal_Hbond>
0.0000

> <Gold.Chemscore.DEClash>
0.3531

> <Gold.Chemscore.DEInternal>
0.0140

> <Gold.Chemscore.Rot>
1.4776

> <Gold.Chemscore.Internal.Correction>
   9.000000E+99

> <Gold.Chemscore.Hbonds>
donor molecule, donor type, donor heavy atom, donor atom, acceptor molecule, acceptor atom, score
      P1  H  7989  7998       L1    18  0.66
      P1  H  7997  8008       L1     9  0.81
      P1  H  7997  8009       L1    17  0.92

> <Gold.Chemscore.Hbond.Weighted>
-9.3546

> <Gold.Chemscore.Metal.Weighted>
-0.0000

> <Gold.Chemscore.Lipo.Weighted>
-9.4630

> <Gold.Chemscore.Internal_Hbond.Weighted>
0.0000

> <Gold.Chemscore.DEClash.Weighted>
0.3531

> <Gold.Chemscore.DEInternal.Weighted>
0.0140

> <Gold.Chemscore.Rot.Weighted>
3.7827

> <Gold.Chemscore.Internal.Correction.Weighted>
   9.000000E+99

> <Gold.Protein.RotatedTorsions>
[ 6907 6896 6895 6894 ] final  143.67 input  -60.11 | X-H torsion
[ 7974 7965 7964 7962 ] final  138.82 input  175.53 | X-H torsion
[ 8008 7997 7996 7995 ] final -126.18 input   59.86 | X-H torsion
[ 10167 10162 10161 10158 ] final -129.72 input  -65.29 | X-H torsion
[ 10718 10713 10712 10709 ] final   -6.98 input   66.30 | X-H torsion
[ 10763 10752 10751 10750 ] final  -92.03 input  -60.55 | X-H torsion
[ 11005 11000 10999 10996 ] final  125.40 input  -57.11 | X-H torsion

> <Gold.Protein.ActiveResidues>
 VAL166  LYS551  ARG553  GLY616  TRP617  ASP618  TYR619  PRO620  LYS621  CYS622 
 ASP623  PHE694  ASN695  SER759  ASP760  ASP761  ALA762  ILE779  LEU786  VAL792 
 PHE793  MET794  SER795  GLU796  ALA797  LYS798  CYS799  TRP800  GLU811  SER814 

> <Gold.Protein.RotatedAtoms>
  152.2034  133.4858  159.5070 H   0  0  0  0  0  0  0  0  0  0  0  0  # atno 6907 bound_to 6896
  150.6974  134.1561  159.4167 H   0  0  0  0  0  0  0  0  0  0  0  0  # atno 6908 bound_to 6896
  151.9479  135.0183  160.0591 H   0  0  0  0  0  0  0  0  0  0  0  0  # atno 6909 bound_to 6896
  144.9337  139.5016  143.5605 H   0  0  0  0  0  0  0  0  0  0  0  0  # atno 7974 bound_to 7965
  155.2254  140.0423  157.2954 H   0  0  0  0  0  0  0  0  0  0  0  0  # atno 8008 bound_to 7997
  154.5922  140.2430  155.7875 H   0  0  0  0  0  0  0  0  0  0  0  0  # atno 8009 bound_to 7997
  156.2267  140.2952  156.0093 H   0  0  0  0  0  0  0  0  0  0  0  0  # atno 8010 bound_to 7997
  139.9368  143.6208  152.2514 H   0  0  0  0  0  0  0  0  0  0  0  0  # atno 10167 bound_to 10162
  156.7239  130.5159  149.5861 H   0  0  0  0  0  0  0  0  0  0  0  0  # atno 10718 bound_to 10713
  154.6820  135.5246  153.8275 H   0  0  0  0  0  0  0  0  0  0  0  0  # atno 10763 bound_to 10752
  153.0571  135.6554  154.0561 H   0  0  0  0  0  0  0  0  0  0  0  0  # atno 10764 bound_to 10752
  154.0446  135.2974  155.3329 H   0  0  0  0  0  0  0  0  0  0  0  0  # atno 10765 bound_to 10752
  139.9405  134.9636  156.8552 H   0  0  0  0  0  0  0  0  0  0  0  0  # atno 11005 bound_to 11000
  146.3257  139.8306  142.8909 LP  0  0  0  0  0  0  0  0  0  0  0  0  # atno 17320 bound_to 7965
  145.3101  141.0217  143.3559 LP  0  0  0  0  0  0  0  0  0  0  0  0  # atno 17321 bound_to 7965
  139.6737  144.7659  151.1736 LP  0  0  0  0  0  0  0  0  0  0  0  0  # atno 17342 bound_to 10162
  140.7622  143.5827  150.8878 LP  0  0  0  0  0  0  0  0  0  0  0  0  # atno 17343 bound_to 10162
  156.1575  130.6352  151.0677 LP  0  0  0  0  0  0  0  0  0  0  0  0  # atno 17370 bound_to 10713
  157.6887  131.0817  150.7170 LP  0  0  0  0  0  0  0  0  0  0  0  0  # atno 17371 bound_to 10713
  140.5965  134.0212  155.7520 LP  0  0  0  0  0  0  0  0  0  0  0  0  # atno 17394 bound_to 11000
  141.1037  133.9728  157.3035 LP  0  0  0  0  0  0  0  0  0  0  0  0  # atno 17395 bound_to 11000

$$$$
