#       Name:                AV-unprocessed.smi:2167
#       Creating user name   scv26
#       Creation time:       Fri Mar 27 12:00:49 2020


#       File generated by GOLD software.
#

@<TRIPOS>MOLECULE
AV-unprocessed.smi:2167
    46    47     1
SMALL
NO_CHARGES


@<TRIPOS>ATOM
      1 ****        -4.0262   1.4507   3.7592 C.3            1 S1                 0.0000
      2 ****        -3.4456   1.8520   2.3954 C.3            1 S1                 0.0000
      3 ****        -4.0352   1.0454   1.2294 C.3            1 S1                 0.0000
      4 ****        -1.9492   1.8326   2.3923 C.2            1 S1                 0.0000
      5 ****        -1.2213   0.7247   2.5620 N.2            1 S1                 0.0000
      6 ****         0.1554   0.9662   2.5052 C.2            1 S1                 0.0000
      7 ****         1.1286  -0.1692   2.6589 C.3            1 S1                 0.0000
      8 ****         1.2021  -1.0171   1.3846 C.2            1 S1                 0.0000
      9 ****         1.0830  -2.2400   1.4550 O.2            1 S1                 0.0000
     10 ****         1.4151  -0.3632   0.2298 N.am           1 S1                 0.0000
     11 ****         1.5313  -0.9823  -1.0916 C.3            1 S1                 0.0000
     12 ****         1.0937   0.0696  -2.1366 C.3            1 S1                 0.0000
     13 ****         0.6468  -0.5369  -3.4780 C.3            1 S1                 0.0000
     14 ****         1.7503  -1.2623  -4.2632 C.3            1 S1                 0.0000
     15 ****         2.3318  -2.4823  -3.5287 C.3            1 S1                 0.0000
     16 ****         3.2703  -2.0961  -2.4832 N.am           1 S1                 0.0000
     17 ****         2.9947  -1.3975  -1.3714 C.2            1 S1                 0.0000
     18 ****         3.8966  -1.0891  -0.5922 O.2            1 S1                 0.0000
     19 ****         0.4623   2.2894   2.3044 C.2            1 S1                 0.0000
     20 ****        -0.9668   3.2746   2.1608 S.3            1 S1                 0.0000
     21 ****        -3.6492   2.0980   4.5515 H              1 S1                 0.0000
     22 ****        -3.7645   0.4233   4.0145 H              1 S1                 0.0000
     23 ****        -5.1138   1.5265   3.7604 H              1 S1                 0.0000
     24 ****        -3.7391   2.8895   2.2304 H              1 S1                 0.0000
     25 ****        -3.6633   1.4112   0.2718 H              1 S1                 0.0000
     26 ****        -5.1228   1.1190   1.2112 H              1 S1                 0.0000
     27 ****        -3.7750  -0.0109   1.3064 H              1 S1                 0.0000
     28 ****         2.1278   0.2059   2.8828 H              1 S1                 0.0000
     29 ****         0.8426  -0.8037   3.4988 H              1 S1                 0.0000
     30 ****         1.5101   0.6411   0.2684 H              1 S1                 0.0000
     31 ****         0.8766  -1.8545  -1.1385 H              1 S1                 0.0000
     32 ****         0.2434   0.6290  -1.7425 H              1 S1                 0.0000
     33 ****         1.8786   0.8106  -2.2993 H              1 S1                 0.0000
     34 ****        -0.1846  -1.2216  -3.3056 H              1 S1                 0.0000
     35 ****         0.2468   0.2620  -4.1033 H              1 S1                 0.0000
     36 ****         1.3249  -1.5994  -5.2090 H              1 S1                 0.0000
     37 ****         2.5475  -0.5657  -4.5262 H              1 S1                 0.0000
     38 ****         1.5403  -3.1122  -3.1204 H              1 S1                 0.0000
     39 ****         2.8801  -3.1008  -4.2394 H              1 S1                 0.0000
     40 ****         4.2341  -2.3585  -2.6312 H              1 S1                 0.0000
     41 ****         1.4400   2.7418   2.2268 H              1 S1                 0.0000
     42 ****        -1.6184  -0.1805   2.7135 LP             1 S1                 0.0000
     43 ****         0.9387  -2.6780   2.3423 LP             1 S1                 0.0000
     44 ****         1.1306  -2.7956   0.6249 LP             1 S1                 0.0000
     45 ****         3.6870  -0.5642   0.2328 LP             1 S1                 0.0000
     46 ****         4.8389  -1.3635  -0.7842 LP             1 S1                 0.0000
@<TRIPOS>BOND
    1    1    2 1     
    2    1   21 1     
    3    1   22 1     
    4    1   23 1     
    5    2    3 1     
    6    2    4 1     
    7    2   24 1     
    8    3   25 1     
    9    3   26 1     
   10    3   27 1     
   11    4   20 1     
   12    4    5 2     
   13    5    6 1     
   14    6    7 1     
   15    6   19 2     
   16    7    8 1     
   17    7   28 1     
   18    7   29 1     
   19    8    9 2     
   20    8   10 am    
   21   10   11 1     
   22   10   30 1     
   23   11   17 1     
   24   11   12 1     
   25   11   31 1     
   26   12   13 1     
   27   12   32 1     
   28   12   33 1     
   29   13   14 1     
   30   13   34 1     
   31   13   35 1     
   32   14   15 1     
   33   14   36 1     
   34   14   37 1     
   35   15   16 1     
   36   15   38 1     
   37   15   39 1     
   38   16   17 am    
   39   16   40 1     
   40   17   18 2     
   41   19   20 1     
   42   19   41 1     
   43    5   42 1     
   44    9   43 1     
   45    9   44 1     
   46   18   45 1     
   47   18   46 1     
@<TRIPOS>SUBSTRUCTURE
      1 S1             1
@<TRIPOS>SET
LONE_PAIRS      STATIC     ATOMS    <user>   **** ""
5 42 43 44 45 46
DONOR_HYDROGENS      STATIC     ATOMS    <user>   **** ""
2 30 40
ATOM$BLUE        STATIC     ATOMS    COLORGROUP SYSTEM
5 42 43 44 45 46
ATOM$RED        STATIC     ATOMS    COLORGROUP SYSTEM
2 30 40
