AV-unprocessed.smi:1554|AV-procd|sdf|6258|dock4
  -GOLD-   22720 6443D 1   1.00000     0.00000
 Structure written by MMmdl.
 49 51  0  0  0  0  0  0  0  0  3 V2000
  152.0691  143.2960  161.0912 C   0  0  0  0  0  0  0  0  0  0  0  0
  151.9160  142.5591  159.7714 C   0  0  0  0  0  0  0  0  0  0  0  0
  151.0569  143.1041  158.7903 C   0  0  0  0  0  0  0  0  0  0  0  0
  150.9417  142.4098  157.5918 C   0  0  0  0  0  0  0  0  0  0  0  0
  150.1927  142.6802  156.4444 N   0  3  0  0  0  0  0  0  0  0  0  0
  150.4092  141.7045  155.5193 C   0  0  0  0  0  0  0  0  0  0  0  0
  151.2880  140.8159  156.0587 N   0  0  0  0  0  0  0  0  0  0  0  0
  151.8655  139.5898  155.4917 C   0  0  0  0  0  0  0  0  0  0  0  0
  150.8052  138.5045  155.2195 C   0  0  2  0  0  0  0  0  0  0  0  0
  151.4365  137.3730  154.6513 O   0  0  0  0  0  0  0  0  0  0  0  0
  149.7029  138.9987  154.2616 C   0  0  0  0  0  0  0  0  0  0  0  0
  148.6230  137.9923  154.0702 N   0  3  2  0  0  0  0  0  0  0  0  0
  147.3963  138.5448  153.4454 C   0  0  0  0  0  0  0  0  0  0  0  0
  146.5522  139.3232  154.4703 C   0  0  0  0  0  0  0  0  0  0  0  0
  146.2314  138.4705  155.5628 O   0  0  0  0  0  0  0  0  0  0  0  0
  147.3876  138.0114  156.2548 C   0  0  1  0  0  0  0  0  0  0  0  0
  146.9261  137.1644  157.4456 C   0  0  0  0  0  0  0  0  0  0  0  0
  148.2778  137.2057  155.2831 C   0  0  0  0  0  0  0  0  0  0  0  0
  151.6440  141.2130  157.3519 C   0  0  0  0  0  0  0  0  0  0  0  0
  152.4912  140.6599  158.3088 C   0  0  0  0  0  0  0  0  0  0  0  0
  152.6231  141.3519  159.5339 C   0  0  0  0  0  0  0  0  0  0  0  0
  153.5423  140.7738  160.5965 C   0  0  0  0  0  0  0  0  0  0  0  0
  151.4521  144.1945  161.1208 H   0  0  0  0  0  0  0  0  0  0  0  0
  153.1056  143.5988  161.2417 H   0  0  0  0  0  0  0  0  0  0  0  0
  151.7698  142.6586  161.9234 H   0  0  0  0  0  0  0  0  0  0  0  0
  150.5150  144.0223  158.9646 H   0  0  0  0  0  0  0  0  0  0  0  0
  149.9675  141.6500  154.5346 H   0  0  0  0  0  0  0  0  0  0  0  0
  152.3984  139.8550  154.5776 H   0  0  0  0  0  0  0  0  0  0  0  0
  152.6168  139.2238  156.1932 H   0  0  0  0  0  0  0  0  0  0  0  0
  150.3687  138.2011  156.1699 H   0  0  0  0  0  0  0  0  0  0  0  0
  151.2626  137.3623  153.7222 H   0  0  0  0  0  0  0  0  0  0  0  0
  149.2786  139.9345  154.6254 H   0  0  0  0  0  0  0  0  0  0  0  0
  150.1628  139.2335  153.3005 H   0  0  0  0  0  0  0  0  0  0  0  0
  147.6462  139.1722  152.5892 H   0  0  0  0  0  0  0  0  0  0  0  0
  146.8079  137.7144  153.0528 H   0  0  0  0  0  0  0  0  0  0  0  0
  147.0767  140.2122  154.8237 H   0  0  0  0  0  0  0  0  0  0  0  0
  145.6257  139.6648  154.0087 H   0  0  0  0  0  0  0  0  0  0  0  0
  147.9342  138.8711  156.6441 H   0  0  0  0  0  0  0  0  0  0  0  0
  147.7773  136.8003  158.0217 H   0  0  0  0  0  0  0  0  0  0  0  0
  146.3494  136.2993  157.1168 H   0  0  0  0  0  0  0  0  0  0  0  0
  146.2964  137.7480  158.1175 H   0  0  0  0  0  0  0  0  0  0  0  0
  147.7405  136.3135  154.9585 H   0  0  0  0  0  0  0  0  0  0  0  0
  149.1729  136.8492  155.7909 H   0  0  0  0  0  0  0  0  0  0  0  0
  153.0296  139.7416  158.1278 H   0  0  0  0  0  0  0  0  0  0  0  0
  154.0183  139.8540  160.2554 H   0  0  0  0  0  0  0  0  0  0  0  0
  152.9814  140.5421  161.5024 H   0  0  0  0  0  0  0  0  0  0  0  0
  154.3312  141.4829  160.8487 H   0  0  0  0  0  0  0  0  0  0  0  0
  148.9994  137.3368  153.3995 H   0  0  0  0  0  0  0  0  0  0  0  0
  149.5797  143.4726  156.3000 H   0  0  0  0  0  0  0  0  0  0  0  0
  1  2  1  0  0  0  0
  1 23  1  0  0  0  0
  1 24  1  0  0  0  0
  1 25  1  0  0  0  0
  2 21  1  0  0  0  0
  2  3  2  0  0  0  0
  3  4  1  0  0  0  0
  3 26  1  0  0  0  0
  4 19  2  0  0  0  0
  4  5  1  0  0  0  0
  5  6  2  0  0  0  0
  5 49  1  0  0  0  0
  6  7  1  0  0  0  0
  6 27  1  0  0  0  0
  7  8  1  0  0  0  0
  7 19  1  0  0  0  0
  8  9  1  0  0  0  0
  8 28  1  0  0  0  0
  8 29  1  0  0  0  0
  9 10  1  0  0  0  0
  9 11  1  0  0  0  0
  9 30  1  0  0  0  0
 10 31  1  0  0  0  0
 11 12  1  0  0  0  0
 11 32  1  0  0  0  0
 11 33  1  0  0  0  0
 12 18  1  0  0  0  0
 12 13  1  0  0  0  0
 12 48  1  0  0  0  0
 13 14  1  0  0  0  0
 13 34  1  0  0  0  0
 13 35  1  0  0  0  0
 14 15  1  0  0  0  0
 14 36  1  0  0  0  0
 14 37  1  0  0  0  0
 15 16  1  0  0  0  0
 16 17  1  0  0  0  0
 16 18  1  0  0  0  0
 16 38  1  0  0  0  0
 17 39  1  0  0  0  0
 17 40  1  0  0  0  0
 17 41  1  0  0  0  0
 18 42  1  0  0  0  0
 18 43  1  0  0  0  0
 19 20  1  0  0  0  0
 20 21  2  0  0  0  0
 20 44  1  0  0  0  0
 21 22  1  0  0  0  0
 22 45  1  0  0  0  0
 22 46  1  0  0  0  0
 22 47  1  0  0  0  0
M  CHG  1   5   1
M  CHG  1  12   1
M  END
> <s_m_source_file>
AV-unprocessed.smi

> <i_m_source_file_index>
1554

> <i_lp_mmshare_version>
43012

> <i_f3d_flags>
0

> <s_epik_input>
W0NIM11jKFtjSF0xKWMoW0NIM10pW2NIXWMoYzEyKW4oW2NIXW4yKVtDSDJdW0NASF0oW09IXSlbQ0gyXU4zW0NIMl1bQ0gyXU9bQ0BASF0oW0NIM10pW0NIMl0z

> <s_epik_cmdline>
J2VwaWtfcHl0aG9uJywgJy1waCcsICc3LjAnLCAnLXRuJywgJzgnLCAnLW1hJywgJzIwMCcsICctbWV0YWxfYmluZGluZycsICctaW1hZScsICc8aW5maWxlLm1hZT4nLCAnLW9tYWUnLCAnPG91dGZpbGUubWFlPic=

> <r_epik_Ionization_Penalty>
1.8848

> <r_epik_Ionization_Penalty_Charging>
1.88479

> <r_epik_Ionization_Penalty_Neutral>
1.42224e-05

> <r_epik_State_Penalty>
1.94551

> <r_epik_Charging_Adjusted_Penalty>
3.8303

> <i_epik_Tot_Q>
2

> <i_epik_Tot_abs_Q>
2

> <r_epik_Metal_State_Penalty>
5.95849

> <b_epik_Metal_Only>
0

> <s_lp_Force_Field>
OPLS_2005

> <r_lp_Energy>
31.481

> <b_lp_Chiralities_Consistent>
1

> <s_lp_Variant>
AV-unprocessed.smi:1554-19

> <Gold.Version>
5.8.1

> <Gold.Id.Protein>
6NUR|6NUR_protein|mol2

> <Gold.PLP.Fitness>
49.9069

> <Gold.PLP.PLP>
-37.5759

> <Gold.PLP.part.hbond>
-2.4745

> <Gold.PLP.part.metal>
0.0000

> <Gold.PLP.part.buried>
-4.4764

> <Gold.PLP.part.nonpolar>
-29.9487

> <Gold.PLP.part.repulsive>
0.0708

> <Gold.PLP.ligand.clash>
0.0000

> <Gold.PLP.ligand.torsion>
0.2027

> <Gold.PLP.Chemscore.Hbond>
4.2356

> <Gold.PLP.Chemscore.CHOScore>
0.0000

> <Gold.PLP.Chemscore.Metal>
0.0000

> <Gold.Chemscore.Hbonds>
donor molecule, donor type, donor heavy atom, donor atom, acceptor molecule, acceptor atom, score
      L1  H     5    49       P1  8028  2.00
      L1  H    12    48       P1  7948  2.00
      P1  H 10752 10765       L1    10  0.15

> <Gold.PLP.Chemscore.Internal.Correction>
0.0295

> <Gold.Rescore>
     Score         DG    S(hbond)    S(metal)    S(lipo)     H(rot)  DE(clash)    DE(int)     intcor
     18.33     -18.67       2.11        0.00      98.80       2.11       0.13       0.21       ----

> <Gold.Chemscore.Fitness>
18.3335

> <Gold.Chemscore.DG>
-18.6715

> <Gold.Chemscore.ZeroCoef>
-5.4800

> <Gold.Chemscore.Hbond>
2.1076

> <Gold.Chemscore.Metal>
0.0000

> <Gold.Chemscore.Lipo>
98.7985

> <Gold.Chemscore.Internal_Hbond>
0.0000

> <Gold.Chemscore.DEClash>
0.1310

> <Gold.Chemscore.DEInternal>
0.2070

> <Gold.Chemscore.Rot>
2.1122

> <Gold.Chemscore.Internal.Correction>
   9.000000E+99

> <Gold.Chemscore.Hbonds>
donor molecule, donor type, donor heavy atom, donor atom, acceptor molecule, acceptor atom, score
      L1  H     5    49       P1  8028  0.96
      L1  H    12    48       P1  7948  0.98
      P1  H 10752 10765       L1    10  0.01

> <Gold.Chemscore.Hbond.Weighted>
-7.0393

> <Gold.Chemscore.Metal.Weighted>
-0.0000

> <Gold.Chemscore.Lipo.Weighted>
-11.5594

> <Gold.Chemscore.Internal_Hbond.Weighted>
0.0000

> <Gold.Chemscore.DEClash.Weighted>
0.1310

> <Gold.Chemscore.DEInternal.Weighted>
0.2070

> <Gold.Chemscore.Rot.Weighted>
5.4073

> <Gold.Chemscore.Internal.Correction.Weighted>
   9.000000E+99

> <Gold.Protein.RotatedTorsions>
[ 6907 6896 6895 6894 ] final  151.99 input  -60.11 | X-H torsion
[ 7974 7965 7964 7962 ] final  155.86 input  175.53 | X-H torsion
[ 8008 7997 7996 7995 ] final -131.94 input   59.86 | X-H torsion
[ 10167 10162 10161 10158 ] final -142.70 input  -65.29 | X-H torsion
[ 10718 10713 10712 10709 ] final    6.43 input   66.30 | X-H torsion
[ 10763 10752 10751 10750 ] final  164.67 input  -60.55 | X-H torsion
[ 11005 11000 10999 10996 ] final  119.83 input  -57.11 | X-H torsion

> <Gold.Protein.ActiveResidues>
 VAL166  LYS551  ARG553  GLY616  TRP617  ASP618  TYR619  PRO620  LYS621  CYS622 
 ASP623  PHE694  ASN695  SER759  ASP760  ASP761  ALA762  ILE779  LEU786  VAL792 
 PHE793  MET794  SER795  GLU796  ALA797  LYS798  CYS799  TRP800  GLU811  SER814 

> <Gold.Protein.RotatedAtoms>
  152.0929  133.4210  159.4551 H   0  0  0  0  0  0  0  0  0  0  0  0  # atno 6907 bound_to 6896
  150.6862  134.2850  159.4652 H   0  0  0  0  0  0  0  0  0  0  0  0  # atno 6908 bound_to 6896
  152.0703  134.9537  160.0625 H   0  0  0  0  0  0  0  0  0  0  0  0  # atno 6909 bound_to 6896
  144.7998  139.7125  143.6186 H   0  0  0  0  0  0  0  0  0  0  0  0  # atno 7974 bound_to 7965
  155.3206  140.0462  157.3039 H   0  0  0  0  0  0  0  0  0  0  0  0  # atno 8008 bound_to 7997
  154.5382  140.2279  155.8652 H   0  0  0  0  0  0  0  0  0  0  0  0  # atno 8009 bound_to 7997
  156.1855  140.3063  155.9237 H   0  0  0  0  0  0  0  0  0  0  0  0  # atno 8010 bound_to 7997
  139.8064  143.7763  152.2661 H   0  0  0  0  0  0  0  0  0  0  0  0  # atno 10167 bound_to 10162
  156.9221  130.5794  149.5648 H   0  0  0  0  0  0  0  0  0  0  0  0  # atno 10718 bound_to 10713
  154.3124  135.2757  155.2559 H   0  0  0  0  0  0  0  0  0  0  0  0  # atno 10763 bound_to 10752
  154.4949  135.5823  153.6490 H   0  0  0  0  0  0  0  0  0  0  0  0  # atno 10764 bound_to 10752
  152.9886  135.6143  154.3302 H   0  0  0  0  0  0  0  0  0  0  0  0  # atno 10765 bound_to 10752
  139.9161  134.9631  156.7715 H   0  0  0  0  0  0  0  0  0  0  0  0  # atno 11005 bound_to 11000
  146.2277  139.5754  142.9576 LP  0  0  0  0  0  0  0  0  0  0  0  0  # atno 17320 bound_to 7965
  145.5581  141.0407  143.2241 LP  0  0  0  0  0  0  0  0  0  0  0  0  # atno 17321 bound_to 7965
  139.7899  144.7414  150.9970 LP  0  0  0  0  0  0  0  0  0  0  0  0  # atno 17342 bound_to 10162
  140.7819  143.4453  151.0491 LP  0  0  0  0  0  0  0  0  0  0  0  0  # atno 17343 bound_to 10162
  156.0486  130.5559  150.8938 LP  0  0  0  0  0  0  0  0  0  0  0  0  # atno 17370 bound_to 10713
  157.5901  131.0944  150.9132 LP  0  0  0  0  0  0  0  0  0  0  0  0  # atno 17371 bound_to 10713
  140.6617  133.9639  155.7808 LP  0  0  0  0  0  0  0  0  0  0  0  0  # atno 17394 bound_to 11000
  141.0639  134.0306  157.3621 LP  0  0  0  0  0  0  0  0  0  0  0  0  # atno 17395 bound_to 11000

$$$$
