#       Name:                AV-unprocessed.smi:2069
#       Creating user name   scv26
#       Creation time:       Fri Mar 27 11:13:03 2020


#       File generated by GOLD software.
#

@<TRIPOS>MOLECULE
AV-unprocessed.smi:2069
    45    46     1
SMALL
NO_CHARGES


@<TRIPOS>ATOM
      1 ****        -7.4286   3.1493  -0.9425 C.3            1 S1                 0.0000
      2 ****        -6.0135   2.6812  -0.9246 C.2            1 S1                 0.0000
      3 ****        -4.9775   3.5090  -0.7423 N.2            1 S1                 0.0000
      4 ****        -3.7609   2.8418  -0.7637 N.2            1 S1                 0.0000
      5 ****        -3.9160   1.5255  -0.9614 C.2            1 S1                 0.0000
      6 ****        -2.8365   0.6049  -1.0251 N.am           1 S1                 0.0000
      7 ****        -1.5215   0.8551  -0.8977 C.2            1 S1                 0.0000
      8 ****        -1.0221   1.9654  -0.7143 O.2            1 S1                 0.0000
      9 ****        -0.8007  -0.2730  -0.9851 N.am           1 S1                 0.0000
     10 ****         0.6559  -0.3547  -0.8949 C.3            1 S1                 0.0000
     11 ****         1.1561  -0.9152   0.4636 C.3            1 S1                 0.0000
     12 ****         0.6032  -0.0783   1.6441 C.3            1 S1                 0.0000
     13 ****         2.6537  -1.0157   0.4574 N.4            1 S1                 1.0000
     14 ****         3.3043  -1.0546   1.7969 C.3            1 S1                 0.0000
     15 ****         4.8362  -1.1206   1.6698 C.3            1 S1                 0.0000
     16 ****         5.2096  -2.2474   0.8914 O.3            1 S1                 0.0000
     17 ****         4.6865  -2.1646  -0.4256 C.3            1 S1                 0.0000
     18 ****         3.1504  -2.1521  -0.3663 C.3            1 S1                 0.0000
     19 ****        -5.5782   0.9900  -1.1388 S.3            1 S1                 0.0000
     20 ****        -7.4736   4.2388  -0.9560 H              1 S1                 0.0000
     21 ****        -7.9508   2.7886  -0.0564 H              1 S1                 0.0000
     22 ****        -7.9367   2.7689  -1.8286 H              1 S1                 0.0000
     23 ****        -3.0988  -0.3579  -1.1758 H              1 S1                 0.0000
     24 ****        -1.2955  -1.1403  -1.1353 H              1 S1                 0.0000
     25 ****         0.9640  -0.9933  -1.7203 H              1 S1                 0.0000
     26 ****         1.1132   0.6177  -1.0864 H              1 S1                 0.0000
     27 ****         0.7581  -1.9238   0.5871 H              1 S1                 0.0000
     28 ****        -0.4847  -0.0280   1.6302 H              1 S1                 0.0000
     29 ****         0.9786   0.9453   1.6175 H              1 S1                 0.0000
     30 ****         0.8547  -0.5123   2.6116 H              1 S1                 0.0000
     31 ****         3.0674  -0.1596   2.3713 H              1 S1                 0.0000
     32 ****         2.9370  -1.9149   2.3587 H              1 S1                 0.0000
     33 ****         5.2291  -0.2066   1.2214 H              1 S1                 0.0000
     34 ****         5.2903  -1.2089   2.6570 H              1 S1                 0.0000
     35 ****         5.0668  -1.2749  -0.9303 H              1 S1                 0.0000
     36 ****         5.0329  -3.0265  -0.9961 H              1 S1                 0.0000
     37 ****         2.7915  -3.0921   0.0560 H              1 S1                 0.0000
     38 ****         2.7705  -2.0992  -1.3845 H              1 S1                 0.0000
     39 ****         2.9871  -0.1687   0.0193 H              1 S1                 0.0000
     40 ****        -5.0697   4.4954  -0.6063 LP             1 S1                 0.0000
     41 ****        -2.8746   3.2897  -0.6458 LP             1 S1                 0.0000
     42 ****        -1.6085   2.7728  -0.6489 LP             1 S1                 0.0000
     43 ****        -0.0301   2.0599  -0.6308 LP             1 S1                 0.0000
     44 ****         4.8592  -3.0754   1.3290 LP             1 S1                 0.0000
     45 ****         6.2073  -2.2928   0.8427 LP             1 S1                 0.0000
@<TRIPOS>BOND
    1    1    2 1     
    2    1   20 1     
    3    1   21 1     
    4    1   22 1     
    5    2   19 1     
    6    2    3 2     
    7    3    4 1     
    8    4    5 2     
    9    5    6 1     
   10    5   19 1     
   11    6    7 am    
   12    6   23 1     
   13    7    8 2     
   14    7    9 am    
   15    9   10 1     
   16    9   24 1     
   17   10   11 1     
   18   10   25 1     
   19   10   26 1     
   20   11   12 1     
   21   11   13 1     
   22   11   27 1     
   23   12   28 1     
   24   12   29 1     
   25   12   30 1     
   26   13   18 1     
   27   13   14 1     
   28   13   39 1     
   29   14   15 1     
   30   14   31 1     
   31   14   32 1     
   32   15   16 1     
   33   15   33 1     
   34   15   34 1     
   35   16   17 1     
   36   17   18 1     
   37   17   35 1     
   38   17   36 1     
   39   18   37 1     
   40   18   38 1     
   41    3   40 1     
   42    4   41 1     
   43    8   42 1     
   44    8   43 1     
   45   16   44 1     
   46   16   45 1     
@<TRIPOS>SUBSTRUCTURE
      1 S1             1
@<TRIPOS>SET
LONE_PAIRS      STATIC     ATOMS    <user>   **** ""
6 40 41 42 43 44 45
DONOR_HYDROGENS      STATIC     ATOMS    <user>   **** ""
3 23 24 39
ATOM$BLUE        STATIC     ATOMS    COLORGROUP SYSTEM
6 40 41 42 43 44 45
ATOM$RED        STATIC     ATOMS    COLORGROUP SYSTEM
3 23 24 39
