#       Name:                AV-unprocessed.smi:53
#       Creating user name   scv26
#       Creation time:       Thu Mar 26 16:40:04 2020


#       File generated by GOLD software.
#

@<TRIPOS>MOLECULE
AV-unprocessed.smi:53
    41    42     1
SMALL
NO_CHARGES


@<TRIPOS>ATOM
      1 ****        -5.0402  -0.3378  -0.3968 N.pl3          1 S1                 0.0000
      2 ****        -3.7034  -0.4338  -0.4305 C.2            1 S1                 0.0000
      3 ****        -2.8848   0.7559  -0.3701 C.2            1 S1                 0.0000
      4 ****        -1.5456   0.5795  -0.4100 C.2            1 S1                 0.0000
      5 ****        -0.9677  -0.6804  -0.5052 N.am           1 S1                 0.0000
      6 ****         0.5371  -0.8813  -0.5588 C.3            1 S1                 0.0000
      7 ****         1.1628   0.3173  -0.9152 O.3            1 S1                 0.0000
      8 ****         1.8310   0.8762   0.2116 C.3            1 S1                 0.0000
      9 ****         2.9374   1.8524  -0.2238 C.3            1 S1                 0.0000
     10 ****         2.3838   3.1227  -0.4937 O.3            1 S1                 0.0000
     11 ****         2.3046  -0.3652   0.9767 C.3            1 S1                 0.0000
     12 ****         3.4891  -0.8961   0.4093 O.3            1 S1                 0.0000
     13 ****         1.1436  -1.3337   0.7937 C.3            1 S1                 0.0000
     14 ****         0.2528  -1.2164   1.8905 O.3            1 S1                 0.0000
     15 ****        -1.7974  -1.8261  -0.5604 C.2            1 S1                 0.0000
     16 ****        -1.3266  -2.9608  -0.6320 O.2            1 S1                 0.0000
     17 ****        -3.1516  -1.6283  -0.5192 N.2            1 S1                 0.0000
     18 ****         0.7123  -1.5908  -1.3701 H              1 S1                 0.0000
     19 ****         1.1029   1.3950   0.8379 H              1 S1                 0.0000
     20 ****         2.5056  -0.1439   2.0260 H              1 S1                 0.0000
     21 ****         1.4705  -2.3722   0.7247 H              1 S1                 0.0000
     22 ****        -5.6092  -1.1707  -0.4391 H              1 S1                 0.0000
     23 ****        -5.4761   0.5705  -0.3277 H              1 S1                 0.0000
     24 ****        -3.2921   1.7543  -0.2974 H              1 S1                 0.0000
     25 ****        -0.9313   1.4657  -0.3663 H              1 S1                 0.0000
     26 ****         3.6637   1.9782   0.5796 H              1 S1                 0.0000
     27 ****         3.4756   1.4821  -1.0970 H              1 S1                 0.0000
     28 ****         3.0801   3.7048  -0.7574 H              1 S1                 0.0000
     29 ****         4.1827  -0.2630   0.5134 H              1 S1                 0.0000
     30 ****        -0.5083  -1.7477   1.7108 H              1 S1                 0.0000
     31 ****         0.4750   0.9636  -1.2457 LP             1 S1                 0.0000
     32 ****         1.8287   0.1398  -1.6398 LP             1 S1                 0.0000
     33 ****         1.9403   3.4787   0.3288 LP             1 S1                 0.0000
     34 ****         1.7106   3.0475  -1.2294 LP             1 S1                 0.0000
     35 ****         3.3439  -1.0802  -0.5628 LP             1 S1                 0.0000
     36 ****         3.7351  -1.7454   0.8763 LP             1 S1                 0.0000
     37 ****        -0.0203  -0.2612   2.0042 LP             1 S1                 0.0000
     38 ****         0.6999  -1.5369   2.7256 LP             1 S1                 0.0000
     39 ****        -0.3353  -3.0904  -0.6525 LP             1 S1                 0.0000
     40 ****        -1.9354  -3.7533  -0.6697 LP             1 S1                 0.0000
     41 ****        -3.7509  -2.4279  -0.5583 LP             1 S1                 0.0000
@<TRIPOS>BOND
    1    1    2 1     
    2    1   22 1     
    3    1   23 1     
    4    2   17 2     
    5    2    3 1     
    6    3    4 2     
    7    3   24 1     
    8    4    5 1     
    9    4   25 1     
   10    5    6 1     
   11    5   15 am    
   12    6   18 1     
   13    6   13 1     
   14    6    7 1     
   15    7    8 1     
   16    8   19 1     
   17    8    9 1     
   18    8   11 1     
   19    9   10 1     
   20    9   26 1     
   21    9   27 1     
   22   10   28 1     
   23   11   20 1     
   24   11   12 1     
   25   11   13 1     
   26   12   29 1     
   27   13   21 1     
   28   13   14 1     
   29   14   30 1     
   30   15   16 2     
   31   15   17 1     
   32    7   31 1     
   33    7   32 1     
   34   10   33 1     
   35   10   34 1     
   36   12   35 1     
   37   12   36 1     
   38   14   37 1     
   39   14   38 1     
   40   16   39 1     
   41   16   40 1     
   42   17   41 1     
@<TRIPOS>SUBSTRUCTURE
      1 S1             1
@<TRIPOS>SET
LONE_PAIRS      STATIC     ATOMS    <user>   **** ""
11 31 32 33 34 35 36 37 38 39 40 41
DONOR_HYDROGENS      STATIC     ATOMS    <user>   **** ""
5 22 23 28 29 30
ATOM$BLUE        STATIC     ATOMS    COLORGROUP SYSTEM
11 31 32 33 34 35 36 37 38 39 40 41
ATOM$RED        STATIC     ATOMS    COLORGROUP SYSTEM
5 22 23 28 29 30
