AV-unprocessed.smi:249|AV-procd|sdf|1920|dock1
  -GOLD-   2262021 23D 1   1.00000     0.00000
 Structure written by MMmdl.
 64 67  0  0  0  0  0  0  0  0  2 V2000
  141.6549  134.8850  153.4841 C   0  0  0  0  0  0  0  0  0  0  0  0
  143.1033  134.6526  153.0271 C   0  0  0  0  0  0  0  0  0  0  0  0
  144.0350  134.3655  154.1576 N   0  3  2  0  0  0  0  0  0  0  0  0
  144.0078  135.3877  155.2422 C   0  0  0  0  0  0  0  0  0  0  0  0
  144.7040  136.6961  154.8200 C   0  0  0  0  0  0  0  0  0  0  0  0
  146.1497  136.4244  154.3592 C   0  0  2  0  0  0  0  0  0  0  0  0
  146.8473  137.6478  153.9477 N   0  0  0  0  0  0  0  0  0  0  0  0
  146.0836  138.7938  153.4553 C   0  0  0  0  0  0  0  0  0  0  0  0
  147.9845  137.9262  154.6356 C   0  0  0  0  0  0  0  0  0  0  0  0
  148.6702  136.9183  155.2384 N   0  0  0  0  0  0  0  0  0  0  0  0
  149.8008  137.1743  155.9030 C   0  0  0  0  0  0  0  0  0  0  0  0
  150.4117  138.3457  156.0892 N   0  0  0  0  0  0  0  0  0  0  0  0
  149.7229  139.3626  155.4976 C   0  0  0  0  0  0  0  0  0  0  0  0
  148.5147  139.2421  154.7547 C   0  0  0  0  0  0  0  0  0  0  0  0
  148.1096  140.4933  154.3038 N   0  0  0  0  0  0  0  0  0  0  0  0
  149.0292  141.3057  154.7488 C   0  0  0  0  0  0  0  0  0  0  0  0
  150.0250  140.7133  155.4924 N   0  0  0  0  0  0  0  0  0  0  0  0
  151.1642  141.3770  156.1014 C   0  0  0  0  0  0  0  0  0  0  0  0
  151.1863  141.3347  157.6524 C   0  0  1  0  0  0  0  0  0  0  0  0
  151.5612  139.9085  158.1177 C   0  0  0  0  0  0  0  0  0  0  0  0
  152.8650  139.5504  157.7051 O   0  0  0  0  0  0  0  0  0  0  0  0
  152.0720  142.4309  158.3143 C   0  0  2  0  0  0  0  0  0  0  0  0
  152.0151  142.4599  159.8340 C   0  0  0  0  0  0  0  0  0  0  0  0
  152.5603  143.8446  160.1505 C   0  0  0  0  0  0  0  0  0  0  0  0
  152.0257  144.6752  159.1318 O   0  0  0  0  0  0  0  0  0  0  0  0
  151.6902  143.8857  157.9942 C   0  0  0  0  0  0  0  0  0  0  0  0
  146.1724  135.3333  153.2709 C   0  0  0  0  0  0  0  0  0  0  0  0
  145.4449  134.0638  153.7603 C   0  0  2  0  0  0  0  0  0  0  0  0
  145.5704  132.8909  152.7710 C   0  0  0  0  0  0  0  0  0  0  0  0
  140.9888  134.9403  152.6228 H   0  0  0  0  0  0  0  0  0  0  0  0
  141.5394  135.8189  154.0332 H   0  0  0  0  0  0  0  0  0  0  0  0
  141.3046  134.0701  154.1183 H   0  0  0  0  0  0  0  0  0  0  0  0
  143.0759  133.8040  152.3466 H   0  0  0  0  0  0  0  0  0  0  0  0
  143.4516  135.5009  152.4384 H   0  0  0  0  0  0  0  0  0  0  0  0
  142.9912  135.5877  155.5761 H   0  0  0  0  0  0  0  0  0  0  0  0
  144.5203  134.9756  156.1127 H   0  0  0  0  0  0  0  0  0  0  0  0
  144.1322  137.1815  154.0293 H   0  0  0  0  0  0  0  0  0  0  0  0
  144.7078  137.3908  155.6607 H   0  0  0  0  0  0  0  0  0  0  0  0
  146.6703  136.0035  155.2189 H   0  0  0  0  0  0  0  0  0  0  0  0
  146.7486  139.5445  153.0259 H   0  0  0  0  0  0  0  0  0  0  0  0
  145.5164  139.2621  154.2600 H   0  0  0  0  0  0  0  0  0  0  0  0
  145.3863  138.4991  152.6726 H   0  0  0  0  0  0  0  0  0  0  0  0
  150.2849  136.3181  156.3493 H   0  0  0  0  0  0  0  0  0  0  0  0
  148.9982  142.3686  154.5580 H   0  0  0  0  0  0  0  0  0  0  0  0
  152.0617  140.9022  155.7033 H   0  0  0  0  0  0  0  0  0  0  0  0
  151.1872  142.4108  155.7543 H   0  0  0  0  0  0  0  0  0  0  0  0
  150.1653  141.4957  157.9995 H   0  0  0  0  0  0  0  0  0  0  0  0
  151.4973  139.8180  159.2019 H   0  0  0  0  0  0  0  0  0  0  0  0
  150.8571  139.1807  157.7131 H   0  0  0  0  0  0  0  0  0  0  0  0
  152.9819  138.6237  157.8503 H   0  0  0  0  0  0  0  0  0  0  0  0
  153.1120  142.2768  158.0218 H   0  0  0  0  0  0  0  0  0  0  0  0
  150.9839  142.3775  160.1811 H   0  0  0  0  0  0  0  0  0  0  0  0
  152.5999  141.6677  160.3023 H   0  0  0  0  0  0  0  0  0  0  0  0
  152.2777  144.1944  161.1437 H   0  0  0  0  0  0  0  0  0  0  0  0
  153.6487  143.8534  160.0805 H   0  0  0  0  0  0  0  0  0  0  0  0
  152.2120  144.2610  157.1148 H   0  0  0  0  0  0  0  0  0  0  0  0
  150.6182  143.9866  157.8217 H   0  0  0  0  0  0  0  0  0  0  0  0
  145.7100  135.6868  152.3498 H   0  0  0  0  0  0  0  0  0  0  0  0
  147.2072  135.0925  153.0229 H   0  0  0  0  0  0  0  0  0  0  0  0
  145.9473  133.7328  154.6707 H   0  0  0  0  0  0  0  0  0  0  0  0
  146.6102  132.5743  152.6849 H   0  0  0  0  0  0  0  0  0  0  0  0
  145.2387  133.1581  151.7678 H   0  0  0  0  0  0  0  0  0  0  0  0
  144.9933  132.0278  153.1040 H   0  0  0  0  0  0  0  0  0  0  0  0
  143.6854  133.5138  154.5734 H   0  0  0  0  0  0  0  0  0  0  0  0
  1  2  1  0  0  0  0
  1 30  1  0  0  0  0
  1 31  1  0  0  0  0
  1 32  1  0  0  0  0
  2  3  1  0  0  0  0
  2 33  1  0  0  0  0
  2 34  1  0  0  0  0
  3 28  1  0  0  0  0
  3  4  1  0  0  0  0
  3 64  1  0  0  0  0
  4  5  1  0  0  0  0
  4 35  1  0  0  0  0
  4 36  1  0  0  0  0
  5  6  1  0  0  0  0
  5 37  1  0  0  0  0
  5 38  1  0  0  0  0
  6  7  1  0  0  0  0
  6 27  1  0  0  0  0
  6 39  1  0  0  0  0
  7  8  1  0  0  0  0
  7  9  1  0  0  0  0
  8 40  1  0  0  0  0
  8 41  1  0  0  0  0
  8 42  1  0  0  0  0
  9 14  1  0  0  0  0
  9 10  2  0  0  0  0
 10 11  1  0  0  0  0
 11 12  2  0  0  0  0
 11 43  1  0  0  0  0
 12 13  1  0  0  0  0
 13 17  1  0  0  0  0
 13 14  2  0  0  0  0
 14 15  1  0  0  0  0
 15 16  2  0  0  0  0
 16 17  1  0  0  0  0
 16 44  1  0  0  0  0
 17 18  1  0  0  0  0
 18 19  1  0  0  0  0
 18 45  1  0  0  0  0
 18 46  1  0  0  0  0
 19 20  1  0  0  0  0
 19 22  1  0  0  0  0
 19 47  1  0  0  0  0
 20 21  1  0  0  0  0
 20 48  1  0  0  0  0
 20 49  1  0  0  0  0
 21 50  1  0  0  0  0
 22 26  1  0  0  0  0
 22 23  1  0  0  0  0
 22 51  1  0  0  0  0
 23 24  1  0  0  0  0
 23 52  1  0  0  0  0
 23 53  1  0  0  0  0
 24 25  1  0  0  0  0
 24 54  1  0  0  0  0
 24 55  1  0  0  0  0
 25 26  1  0  0  0  0
 26 56  1  0  0  0  0
 26 57  1  0  0  0  0
 27 28  1  0  0  0  0
 27 58  1  0  0  0  0
 27 59  1  0  0  0  0
 28 29  1  0  0  0  0
 28 60  1  0  0  0  0
 29 61  1  0  0  0  0
 29 62  1  0  0  0  0
 29 63  1  0  0  0  0
M  CHG  1   3   1
M  END
> <s_m_source_file>
AV-unprocessed.smi

> <i_m_source_file_index>
249

> <i_lp_mmshare_version>
43012

> <i_f3d_flags>
0

> <s_epik_input>
W0NIM11bQ0gyXU4xW0NIMl1bQ0gyXVtDQEhdKFtDSDJdW0NASF0xW0NIM10pTihbQ0gzXSljKG5bY0hdbjIpYyhjMjMpbltjSF1uM1tDSDJdW0NASF0oW0NIMl1bT0hdKVtDQEBIXTRbQ0gyXVtDSDJdT1tDSDJdNA==

> <s_epik_cmdline>
J2VwaWtfcHl0aG9uJywgJy1waCcsICc3LjAnLCAnLXRuJywgJzgnLCAnLW1hJywgJzIwMCcsICctbWV0YWxfYmluZGluZycsICctaW1hZScsICc8aW5maWxlLm1hZT4nLCAnLW9tYWUnLCAnPG91dGZpbGUubWFlPic=

> <r_lp_tautomer_probability>
1

> <r_epik_Ionization_Penalty>
0.00294688

> <r_epik_Ionization_Penalty_Charging>
0.00169971

> <r_epik_Ionization_Penalty_Neutral>
0.00124717

> <r_epik_State_Penalty>
-0

> <r_epik_Charging_Adjusted_Penalty>
0.00169971

> <i_epik_Tot_Q>
1

> <i_epik_Tot_abs_Q>
1

> <r_epik_Metal_State_Penalty>
-0

> <b_epik_Metal_Only>
0

> <s_lp_Force_Field>
OPLS_2005

> <r_lp_Energy>
55.0731

> <b_lp_Chiralities_Consistent>
1

> <s_lp_Variant>
AV-unprocessed.smi:249-23

> <Gold.Version>
5.8.1

> <Gold.Id.Protein>
6NUR|6NUR_protein|mol2

> <Gold.PLP.Fitness>
49.3010

> <Gold.PLP.PLP>
-37.8688

> <Gold.PLP.part.hbond>
-2.0000

> <Gold.PLP.part.metal>
0.0000

> <Gold.PLP.part.buried>
-6.2234

> <Gold.PLP.part.nonpolar>
-31.2160

> <Gold.PLP.part.repulsive>
0.2559

> <Gold.PLP.ligand.clash>
0.0000

> <Gold.PLP.ligand.torsion>
0.6985

> <Gold.PLP.Chemscore.Hbond>
2.9500

> <Gold.PLP.Chemscore.CHOScore>
0.9031

> <Gold.PLP.Chemscore.Metal>
0.0000

> <Gold.Chemscore.Hbonds>
donor molecule, donor type, donor heavy atom, donor atom, acceptor molecule, acceptor atom, score
      L1  H     3    64       P1 10957  1.98
      P1  H  7997  8010       L1    21  1.00
      L1  C    16    44       P1  8028  0.87

> <Gold.PLP.Chemscore.Internal.Correction>
1.2698

> <Gold.Rescore>
     Score         DG    S(hbond)    S(metal)    S(lipo)     H(rot)  DE(clash)    DE(int)     intcor
     12.43     -16.09       1.86        0.00      95.72       2.65       0.15       3.51       ----

> <Gold.Chemscore.Fitness>
12.4321

> <Gold.Chemscore.DG>
-16.0911

> <Gold.Chemscore.ZeroCoef>
-5.4800

> <Gold.Chemscore.Hbond>
1.8564

> <Gold.Chemscore.Metal>
0.0000

> <Gold.Chemscore.Lipo>
95.7151

> <Gold.Chemscore.Internal_Hbond>
0.0000

> <Gold.Chemscore.DEClash>
0.1470

> <Gold.Chemscore.DEInternal>
3.5121

> <Gold.Chemscore.Rot>
2.6515

> <Gold.Chemscore.Internal.Correction>
   9.000000E+99

> <Gold.Chemscore.Hbonds>
donor molecule, donor type, donor heavy atom, donor atom, acceptor molecule, acceptor atom, score
      L1  H     3    64       P1 10957  0.92
      P1  H  7997  8010       L1    21  0.30

> <Gold.Chemscore.Hbond.Weighted>
-6.2004

> <Gold.Chemscore.Metal.Weighted>
-0.0000

> <Gold.Chemscore.Lipo.Weighted>
-11.1987

> <Gold.Chemscore.Internal_Hbond.Weighted>
0.0000

> <Gold.Chemscore.DEClash.Weighted>
0.1470

> <Gold.Chemscore.DEInternal.Weighted>
3.5121

> <Gold.Chemscore.Rot.Weighted>
6.7880

> <Gold.Chemscore.Internal.Correction.Weighted>
   9.000000E+99

> <Gold.Protein.RotatedTorsions>
[ 6907 6896 6895 6894 ] final   15.46 input  -60.11 | X-H torsion
[ 7974 7965 7964 7962 ] final  -91.95 input  175.53 | X-H torsion
[ 8008 7997 7996 7995 ] final   32.53 input   59.86 | X-H torsion
[ 10167 10162 10161 10158 ] final  164.00 input  -65.29 | X-H torsion
[ 10718 10713 10712 10709 ] final   62.83 input   66.30 | X-H torsion
[ 10763 10752 10751 10750 ] final   66.81 input  -60.55 | X-H torsion
[ 11005 11000 10999 10996 ] final   -3.07 input  -57.11 | X-H torsion

> <Gold.Protein.ActiveResidues>
 VAL166  LYS551  ARG553  GLY616  TRP617  ASP618  TYR619  PRO620  LYS621  CYS622 
 ASP623  PHE694  ASN695  SER759  ASP760  ASP761  ALA762  ILE779  LEU786  VAL792 
 PHE793  MET794  SER795  GLU796  ALA797  LYS798  CYS799  TRP800  GLU811  SER814 

> <Gold.Protein.RotatedAtoms>
  151.8185  135.0659  160.0421 H   0  0  0  0  0  0  0  0  0  0  0  0  # atno 6907 bound_to 6896
  152.2968  133.5611  159.5601 H   0  0  0  0  0  0  0  0  0  0  0  0  # atno 6908 bound_to 6896
  150.7255  134.0265  159.3761 H   0  0  0  0  0  0  0  0  0  0  0  0  # atno 6909 bound_to 6896
  145.4063  140.9541  143.2259 H   0  0  0  0  0  0  0  0  0  0  0  0  # atno 7974 bound_to 7965
  155.1239  140.3251  155.4490 H   0  0  0  0  0  0  0  0  0  0  0  0  # atno 8008 bound_to 7997
  156.2654  140.2022  156.6309 H   0  0  0  0  0  0  0  0  0  0  0  0  # atno 8009 bound_to 7997
  154.6663  140.0541  157.0104 H   0  0  0  0  0  0  0  0  0  0  0  0  # atno 8010 bound_to 7997
  139.4882  144.4280  151.9106 H   0  0  0  0  0  0  0  0  0  0  0  0  # atno 10167 bound_to 10162
  157.5929  130.9072  149.9638 H   0  0  0  0  0  0  0  0  0  0  0  0  # atno 10718 bound_to 10713
  153.0157  135.5307  154.6882 H   0  0  0  0  0  0  0  0  0  0  0  0  # atno 10763 bound_to 10752
  154.6024  135.2869  155.0523 H   0  0  0  0  0  0  0  0  0  0  0  0  # atno 10764 bound_to 10752
  154.1575  135.6553  153.5030 H   0  0  0  0  0  0  0  0  0  0  0  0  # atno 10765 bound_to 10752
  140.6653  133.9284  155.8461 H   0  0  0  0  0  0  0  0  0  0  0  0  # atno 11005 bound_to 11000
  144.8339  139.5582  143.6931 LP  0  0  0  0  0  0  0  0  0  0  0  0  # atno 17320 bound_to 7965
  146.2727  139.6675  142.9285 LP  0  0  0  0  0  0  0  0  0  0  0  0  # atno 17321 bound_to 7965
  140.3726  144.2836  150.5918 LP  0  0  0  0  0  0  0  0  0  0  0  0  # atno 17342 bound_to 10162
  140.5305  143.2244  151.8246 LP  0  0  0  0  0  0  0  0  0  0  0  0  # atno 17343 bound_to 10162
  156.0986  130.3657  150.0260 LP  0  0  0  0  0  0  0  0  0  0  0  0  # atno 17370 bound_to 10713
  156.8379  130.9415  151.3633 LP  0  0  0  0  0  0  0  0  0  0  0  0  # atno 17371 bound_to 10713
  141.0434  134.0589  157.3874 LP  0  0  0  0  0  0  0  0  0  0  0  0  # atno 17394 bound_to 11000
  139.8999  135.0160  156.7218 LP  0  0  0  0  0  0  0  0  0  0  0  0  # atno 17395 bound_to 11000

$$$$
