AV-unprocessed.smi:1367|AV-procd|sdf|5573|dock2
  -GOLD-   22720 5163D 1   1.00000     0.00000
 Structure written by MMmdl.
 30 30  0  0  0  0  0  0  0  0  1 V2000
  146.1160  138.0556  152.9675 C   0  0  0  0  0  0  0  0  0  0  0  0
  147.0683  139.1042  153.4999 C   0  0  0  0  0  0  0  0  0  0  0  0
  146.4789  140.3420  153.6969 N   0  0  0  0  0  0  0  0  0  0  0  0
  147.2707  141.3655  154.1870 C   0  0  0  0  0  0  0  0  0  0  0  0
  146.5467  142.6872  154.3749 C   0  0  0  0  0  0  0  0  0  0  0  0
  148.5848  141.1672  154.4627 C   0  0  0  0  0  0  0  0  0  0  0  0
  149.4920  142.2725  155.0041 C   0  0  0  0  0  0  0  0  0  0  0  0
  150.1687  141.9796  156.3446 C   0  0  0  0  0  0  0  0  0  0  0  0
  150.7300  140.8998  156.5265 O   0  0  0  0  0  0  0  0  0  0  0  0
  150.1077  142.9468  157.2722 N   0  0  0  0  0  0  0  0  0  0  0  0
  150.6379  142.8482  158.6274 C   0  0  0  0  0  0  0  0  0  0  0  0
  151.4452  144.0972  159.0208 C   0  0  0  0  0  0  0  0  0  0  0  0
  152.0881  143.8591  160.1631 F   0  0  0  0  0  0  0  0  0  0  0  0
  152.3427  144.3828  158.0772 F   0  0  0  0  0  0  0  0  0  0  0  0
  150.6445  145.1485  159.1956 F   0  0  0  0  0  0  0  0  0  0  0  0
  149.1608  139.8225  154.2227 C   0  0  0  0  0  0  0  0  0  0  0  0
  150.3487  139.5832  154.4356 O   0  0  0  0  0  0  0  0  0  0  0  0
  148.3131  138.8168  153.7312 N   0  0  0  0  0  0  0  0  0  0  0  0
  145.5063  140.5337  153.5042 H   0  0  0  0  0  0  0  0  0  0  0  0
  146.6029  137.0814  152.9062 H   0  0  0  0  0  0  0  0  0  0  0  0
  145.7711  138.3283  151.9697 H   0  0  0  0  0  0  0  0  0  0  0  0
  145.2480  137.9610  153.6209 H   0  0  0  0  0  0  0  0  0  0  0  0
  146.5889  143.0014  155.4180 H   0  0  0  0  0  0  0  0  0  0  0  0
  145.4962  142.6132  154.0907 H   0  0  0  0  0  0  0  0  0  0  0  0
  147.0043  143.4634  153.7612 H   0  0  0  0  0  0  0  0  0  0  0  0
  148.9505  143.2146  155.0926 H   0  0  0  0  0  0  0  0  0  0  0  0
  150.2682  142.4708  154.2642 H   0  0  0  0  0  0  0  0  0  0  0  0
  149.6291  143.8030  157.0325 H   0  0  0  0  0  0  0  0  0  0  0  0
  149.8325  142.6728  159.3426 H   0  0  0  0  0  0  0  0  0  0  0  0
  151.2814  141.9689  158.6689 H   0  0  0  0  0  0  0  0  0  0  0  0
  1 20  1  0  0  0  0
  1 21  1  0  0  0  0
  1 22  1  0  0  0  0
  1  2  1  0  0  0  0
  2  3  1  0  0  0  0
  2 18  2  0  0  0  0
  3  4  1  0  0  0  0
  3 19  1  0  0  0  0
  4  6  2  0  0  0  0
  4  5  1  0  0  0  0
  5 23  1  0  0  0  0
  5 24  1  0  0  0  0
  5 25  1  0  0  0  0
  6 16  1  0  0  0  0
  6  7  1  0  0  0  0
  7  8  1  0  0  0  0
  7 26  1  0  0  0  0
  7 27  1  0  0  0  0
  8  9  2  0  0  0  0
  8 10  1  0  0  0  0
 10 11  1  0  0  0  0
 10 28  1  0  0  0  0
 11 12  1  0  0  0  0
 11 29  1  0  0  0  0
 11 30  1  0  0  0  0
 12 13  1  0  0  0  0
 12 14  1  0  0  0  0
 12 15  1  0  0  0  0
 16 17  2  0  0  0  0
 16 18  1  0  0  0  0
M  END
> <s_m_source_file>
AV-unprocessed.smi

> <i_m_source_file_index>
1367

> <i_lp_mmshare_version>
43012

> <i_f3d_flags>
0

> <s_epik_input>
W0NIM11jMW5jKFtDSDNdKWMoYyg9TylbbkhdMSlbQ0gyXUMoPU8pW05IXVtDSDJdQyhGKShGKUY=

> <s_epik_cmdline>
J2VwaWtfcHl0aG9uJywgJy1waCcsICc3LjAnLCAnLXRuJywgJzgnLCAnLW1hJywgJzIwMCcsICctbWV0YWxfYmluZGluZycsICctaW1hZScsICc8aW5maWxlLm1hZT4nLCAnLW9tYWUnLCAnPG91dGZpbGUubWFlPic=

> <r_lp_tautomer_probability>
0.156392

> <r_epik_Ionization_Penalty>
0.0162169

> <r_epik_Ionization_Penalty_Charging>
0.0161253

> <r_epik_Ionization_Penalty_Neutral>
9.15634e-05

> <r_epik_State_Penalty>
1.51104

> <r_epik_Charging_Adjusted_Penalty>
1.52717

> <i_epik_Tot_Q>
0

> <i_epik_Tot_abs_Q>
0

> <r_epik_Metal_State_Penalty>
1.71038

> <b_epik_Metal_Only>
0

> <s_lp_Force_Field>
OPLS_2005

> <r_lp_Energy>
7.37455

> <b_lp_Chiralities_Consistent>
1

> <s_lp_Variant>
AV-unprocessed.smi:1367-2

> <Gold.Version>
5.8.1

> <Gold.Id.Protein>
6NUR|6NUR_protein|mol2

> <Gold.PLP.Fitness>
43.5531

> <Gold.PLP.PLP>
-36.0209

> <Gold.PLP.part.hbond>
-2.8396

> <Gold.PLP.part.metal>
0.0000

> <Gold.PLP.part.buried>
0.1449

> <Gold.PLP.part.nonpolar>
-34.1777

> <Gold.PLP.part.repulsive>
0.3814

> <Gold.PLP.ligand.clash>
0.0000

> <Gold.PLP.ligand.torsion>
0.3034

> <Gold.PLP.Chemscore.Hbond>
2.7080

> <Gold.PLP.Chemscore.CHOScore>
0.0000

> <Gold.PLP.Chemscore.Metal>
0.0000

> <Gold.Chemscore.Hbonds>
donor molecule, donor type, donor heavy atom, donor atom, acceptor molecule, acceptor atom, score
      L1  H     3    19       P1 10175  0.84
      L1  H    10    28       P1  8028  0.90
      P1  H  7989  7998       L1    17  0.98

> <Gold.PLP.Chemscore.Internal.Correction>
0.0149

> <Gold.Rescore>
     Score         DG    S(hbond)    S(metal)    S(lipo)     H(rot)  DE(clash)    DE(int)     intcor
     10.15     -14.71       2.39        0.00      52.16       1.90       1.93       2.63       ----

> <Gold.Chemscore.Fitness>
10.1488

> <Gold.Chemscore.DG>
-14.7055

> <Gold.Chemscore.ZeroCoef>
-5.4800

> <Gold.Chemscore.Hbond>
2.3888

> <Gold.Chemscore.Metal>
0.0000

> <Gold.Chemscore.Lipo>
52.1623

> <Gold.Chemscore.Internal_Hbond>
0.0000

> <Gold.Chemscore.DEClash>
1.9312

> <Gold.Chemscore.DEInternal>
2.6255

> <Gold.Chemscore.Rot>
1.8968

> <Gold.Chemscore.Internal.Correction>
   9.000000E+99

> <Gold.Chemscore.Hbonds>
donor molecule, donor type, donor heavy atom, donor atom, acceptor molecule, acceptor atom, score
      L1  H     3    19       P1 10175  0.79
      L1  H    10    28       P1  8028  0.78
      P1  H  7989  7998       L1    17  0.80

> <Gold.Chemscore.Hbond.Weighted>
-7.9785

> <Gold.Chemscore.Metal.Weighted>
-0.0000

> <Gold.Chemscore.Lipo.Weighted>
-6.1030

> <Gold.Chemscore.Internal_Hbond.Weighted>
0.0000

> <Gold.Chemscore.DEClash.Weighted>
1.9312

> <Gold.Chemscore.DEInternal.Weighted>
2.6255

> <Gold.Chemscore.Rot.Weighted>
4.8559

> <Gold.Chemscore.Internal.Correction.Weighted>
   9.000000E+99

> <Gold.Protein.RotatedTorsions>
[ 6907 6896 6895 6894 ] final  -54.36 input  -60.11 | X-H torsion
[ 7974 7965 7964 7962 ] final -134.27 input  175.53 | X-H torsion
[ 8008 7997 7996 7995 ] final   13.33 input   59.86 | X-H torsion
[ 10167 10162 10161 10158 ] final   -5.65 input  -65.29 | X-H torsion
[ 10718 10713 10712 10709 ] final -119.12 input   66.30 | X-H torsion
[ 10763 10752 10751 10750 ] final  -24.44 input  -60.55 | X-H torsion
[ 11005 11000 10999 10996 ] final   12.40 input  -57.11 | X-H torsion

> <Gold.Protein.ActiveResidues>
 VAL166  LYS551  ARG553  GLY616  TRP617  ASP618  TYR619  PRO620  LYS621  CYS622 
 ASP623  PHE694  ASN695  SER759  ASP760  ASP761  ALA762  ILE779  LEU786  VAL792 
 PHE793  MET794  SER795  GLU796  ALA797  LYS798  CYS799  TRP800  GLU811  SER814 

> <Gold.Protein.RotatedAtoms>
  150.8345  134.7612  159.6880 H   0  0  0  0  0  0  0  0  0  0  0  0  # atno 6907 bound_to 6896
  152.4444  134.5522  159.9880 H   0  0  0  0  0  0  0  0  0  0  0  0  # atno 6908 bound_to 6896
  151.5675  133.3357  159.3019 H   0  0  0  0  0  0  0  0  0  0  0  0  # atno 6909 bound_to 6896
  144.9118  140.6904  143.5020 H   0  0  0  0  0  0  0  0  0  0  0  0  # atno 7974 bound_to 7965
  154.8329  140.2902  155.5710 H   0  0  0  0  0  0  0  0  0  0  0  0  # atno 8008 bound_to 7997
  156.3007  140.2528  156.3189 H   0  0  0  0  0  0  0  0  0  0  0  0  # atno 8009 bound_to 7997
  154.9211  140.0386  157.1987 H   0  0  0  0  0  0  0  0  0  0  0  0  # atno 8010 bound_to 7997
  140.6970  143.6284  150.8546 H   0  0  0  0  0  0  0  0  0  0  0  0  # atno 10167 bound_to 10162
  156.1157  130.6284  150.9377 H   0  0  0  0  0  0  0  0  0  0  0  0  # atno 10718 bound_to 10713
  153.6838  135.6965  153.5110 H   0  0  0  0  0  0  0  0  0  0  0  0  # atno 10763 bound_to 10752
  153.2465  135.4289  155.0752 H   0  0  0  0  0  0  0  0  0  0  0  0  # atno 10764 bound_to 10752
  154.8392  135.3520  154.6381 H   0  0  0  0  0  0  0  0  0  0  0  0  # atno 10765 bound_to 10752
  140.4924  134.0827  155.7774 H   0  0  0  0  0  0  0  0  0  0  0  0  # atno 11005 bound_to 11000
  145.3442  139.1724  143.4469 LP  0  0  0  0  0  0  0  0  0  0  0  0  # atno 17320 bound_to 7965
  146.3162  140.3486  142.8654 LP  0  0  0  0  0  0  0  0  0  0  0  0  # atno 17321 bound_to 7965
  140.0003  143.5751  152.2878 LP  0  0  0  0  0  0  0  0  0  0  0  0  # atno 17342 bound_to 10162
  139.6438  144.7657  151.2285 LP  0  0  0  0  0  0  0  0  0  0  0  0  # atno 17343 bound_to 10162
  157.6340  131.0918  150.8385 LP  0  0  0  0  0  0  0  0  0  0  0  0  # atno 17370 bound_to 10713
  156.8488  130.5073  149.5314 LP  0  0  0  0  0  0  0  0  0  0  0  0  # atno 17371 bound_to 10713
  141.1477  133.9025  157.2174 LP  0  0  0  0  0  0  0  0  0  0  0  0  # atno 17394 bound_to 11000
  139.9761  135.0113  156.9635 LP  0  0  0  0  0  0  0  0  0  0  0  0  # atno 17395 bound_to 11000

$$$$
