AV-unprocessed.smi:2562|AV-procd|sdf|10050|dock3
  -GOLD-   2272014 93D 1   1.00000     0.00000
 Structure written by MMmdl.
 31 32  0  0  0  0  0  0  0  0  2 V2000
  151.8829  145.4062  160.1079 C   0  0  0  0  0  0  0  0  0  0  0  0
  152.0549  144.1594  159.2336 C   0  0  0  0  0  0  0  0  0  0  0  0
  151.0835  144.1372  158.0449 C   0  0  0  0  0  0  0  0  0  0  0  0
  151.0245  142.8032  157.3760 C   0  0  0  0  0  0  0  0  0  0  0  0
  151.7405  141.7348  157.7385 N   0  0  0  0  0  0  0  0  0  0  0  0
  151.3878  140.7352  156.8481 N   0  0  0  0  0  0  0  0  0  0  0  0
  150.4956  141.2911  156.0215 C   0  0  0  0  0  0  0  0  0  0  0  0
  149.8188  140.5861  154.8887 C   0  0  2  0  0  0  0  0  0  0  0  0
  148.7237  141.4470  154.2298 C   0  0  0  0  0  0  0  0  0  0  0  0
  148.0253  140.6655  153.1904 N   0  3  0  0  0  0  0  0  0  0  0  0
  147.4943  139.3990  153.7320 C   0  0  0  0  0  0  0  0  0  0  0  0
  148.6201  138.6011  154.4133 C   0  0  0  0  0  0  0  0  0  0  0  0
  149.2341  139.3994  155.4197 O   0  0  0  0  0  0  0  0  0  0  0  0
  150.2392  142.5747  156.3135 N   0  0  0  0  0  0  0  0  0  0  0  0
  149.6121  143.2150  155.8484 H   0  0  0  0  0  0  0  0  0  0  0  0
  152.5820  145.3938  160.9443 H   0  0  0  0  0  0  0  0  0  0  0  0
  150.8743  145.4622  160.5181 H   0  0  0  0  0  0  0  0  0  0  0  0
  152.0641  146.3168  159.5362 H   0  0  0  0  0  0  0  0  0  0  0  0
  153.0819  144.1140  158.8692 H   0  0  0  0  0  0  0  0  0  0  0  0
  151.9047  143.2689  159.8454 H   0  0  0  0  0  0  0  0  0  0  0  0
  150.0790  144.4006  158.3790 H   0  0  0  0  0  0  0  0  0  0  0  0
  151.3735  144.8897  157.3102 H   0  0  0  0  0  0  0  0  0  0  0  0
  150.5751  140.3132  154.1500 H   0  0  0  0  0  0  0  0  0  0  0  0
  147.9968  141.7769  154.9736 H   0  0  0  0  0  0  0  0  0  0  0  0
  149.1544  142.3423  153.7808 H   0  0  0  0  0  0  0  0  0  0  0  0
  147.2660  141.2132  152.8109 H   0  0  0  0  0  0  0  0  0  0  0  0
  146.7020  139.6194  154.4487 H   0  0  0  0  0  0  0  0  0  0  0  0
  147.0464  138.8190  152.9250 H   0  0  0  0  0  0  0  0  0  0  0  0
  148.2164  137.6993  154.8741 H   0  0  0  0  0  0  0  0  0  0  0  0
  149.3658  138.2797  153.6843 H   0  0  0  0  0  0  0  0  0  0  0  0
  148.6795  140.4520  152.4510 H   0  0  0  0  0  0  0  0  0  0  0  0
  1  2  1  0  0  0  0
  1 16  1  0  0  0  0
  1 17  1  0  0  0  0
  1 18  1  0  0  0  0
  2  3  1  0  0  0  0
  2 19  1  0  0  0  0
  2 20  1  0  0  0  0
  3 21  1  0  0  0  0
  3 22  1  0  0  0  0
  3  4  1  0  0  0  0
  4  5  2  0  0  0  0
  4 14  1  0  0  0  0
  5  6  1  0  0  0  0
  6  7  2  0  0  0  0
  7 14  1  0  0  0  0
  7  8  1  0  0  0  0
  8 13  1  0  0  0  0
  8  9  1  0  0  0  0
  8 23  1  0  0  0  0
  9 10  1  0  0  0  0
  9 24  1  0  0  0  0
  9 25  1  0  0  0  0
 10 11  1  0  0  0  0
 10 26  1  0  0  0  0
 10 31  1  0  0  0  0
 11 12  1  0  0  0  0
 11 27  1  0  0  0  0
 11 28  1  0  0  0  0
 12 13  1  0  0  0  0
 12 29  1  0  0  0  0
 12 30  1  0  0  0  0
 14 15  1  0  0  0  0
M  CHG  1  10   1
M  END
> <s_m_source_file>
AV-unprocessed.smi

> <i_m_source_file_index>
2562

> <i_lp_mmshare_version>
43012

> <i_f3d_flags>
0

> <s_epik_input>
W0NIM11bQ0gyXVtDSDJdYzFuW25IXWMobjEpW0NAQEhdMltDSDJdW05IXVtDSDJdW0NIMl1PMg==

> <s_epik_cmdline>
J2VwaWtfcHl0aG9uJywgJy1waCcsICc3LjAnLCAnLXRuJywgJzgnLCAnLW1hJywgJzIwMCcsICctbWV0YWxfYmluZGluZycsICctaW1hZScsICc8aW5maWxlLm1hZT4nLCAnLW9tYWUnLCAnPG91dGZpbGUubWFlPic=

> <r_lp_tautomer_probability>
0.0517155

> <r_epik_Ionization_Penalty>
0.274244

> <r_epik_Ionization_Penalty_Charging>
0.125708

> <r_epik_Ionization_Penalty_Neutral>
0.148536

> <r_epik_State_Penalty>
1.9659

> <r_epik_Charging_Adjusted_Penalty>
2.09161

> <i_epik_Tot_Q>
1

> <i_epik_Tot_abs_Q>
1

> <r_epik_Metal_State_Penalty>
2.08836

> <b_epik_Metal_Only>
0

> <s_lp_Force_Field>
OPLS_2005

> <r_lp_Energy>
13.0069

> <b_lp_Chiralities_Consistent>
1

> <s_lp_Variant>
AV-unprocessed.smi:2562-9

> <Gold.Version>
5.8.1

> <Gold.Id.Protein>
6NUR|6NUR_protein|mol2

> <Gold.PLP.Fitness>
34.8754

> <Gold.PLP.PLP>
-29.1331

> <Gold.PLP.part.hbond>
-2.0000

> <Gold.PLP.part.metal>
0.0000

> <Gold.PLP.part.buried>
-2.8015

> <Gold.PLP.part.nonpolar>
-25.0751

> <Gold.PLP.part.repulsive>
0.2848

> <Gold.PLP.ligand.clash>
0.0000

> <Gold.PLP.ligand.torsion>
0.1301

> <Gold.PLP.Chemscore.Hbond>
2.0000

> <Gold.PLP.Chemscore.CHOScore>
0.0000

> <Gold.PLP.Chemscore.Metal>
0.0000

> <Gold.Chemscore.Hbonds>
donor molecule, donor type, donor heavy atom, donor atom, acceptor molecule, acceptor atom, score
      L1  H    10    31       P1  7957  1.00
      L1  H    14    15       P1  8028  1.00

> <Gold.PLP.Chemscore.Internal.Correction>
0.0025

> <Gold.Rescore>
     Score         DG    S(hbond)    S(metal)    S(lipo)     H(rot)  DE(clash)    DE(int)     intcor
     15.33     -15.40       1.98        0.00      61.36       1.51       0.01       0.07       ----

> <Gold.Chemscore.Fitness>
15.3305

> <Gold.Chemscore.DG>
-15.4041

> <Gold.Chemscore.ZeroCoef>
-5.4800

> <Gold.Chemscore.Hbond>
1.9803

> <Gold.Chemscore.Metal>
0.0000

> <Gold.Chemscore.Lipo>
61.3632

> <Gold.Chemscore.Internal_Hbond>
0.0000

> <Gold.Chemscore.DEClash>
0.0071

> <Gold.Chemscore.DEInternal>
0.0666

> <Gold.Chemscore.Rot>
1.5115

> <Gold.Chemscore.Internal.Correction>
   9.000000E+99

> <Gold.Chemscore.Hbonds>
donor molecule, donor type, donor heavy atom, donor atom, acceptor molecule, acceptor atom, score
      L1  H    10    31       P1  7957  1.00
      L1  H    14    15       P1  8028  0.97

> <Gold.Chemscore.Hbond.Weighted>
-6.6141

> <Gold.Chemscore.Metal.Weighted>
-0.0000

> <Gold.Chemscore.Lipo.Weighted>
-7.1795

> <Gold.Chemscore.Internal_Hbond.Weighted>
0.0000

> <Gold.Chemscore.DEClash.Weighted>
0.0071

> <Gold.Chemscore.DEInternal.Weighted>
0.0666

> <Gold.Chemscore.Rot.Weighted>
3.8695

> <Gold.Chemscore.Internal.Correction.Weighted>
   9.000000E+99

> <Gold.Protein.RotatedTorsions>
[ 6907 6896 6895 6894 ] final  142.04 input  -60.11 | X-H torsion
[ 7974 7965 7964 7962 ] final   72.97 input  175.53 | X-H torsion
[ 8008 7997 7996 7995 ] final   -1.61 input   59.86 | X-H torsion
[ 10167 10162 10161 10158 ] final   54.69 input  -65.29 | X-H torsion
[ 10718 10713 10712 10709 ] final   94.59 input   66.30 | X-H torsion
[ 10763 10752 10751 10750 ] final  168.31 input  -60.55 | X-H torsion
[ 11005 11000 10999 10996 ] final  129.01 input  -57.11 | X-H torsion

> <Gold.Protein.ActiveResidues>
 VAL166  LYS551  ARG553  GLY616  TRP617  ASP618  TYR619  PRO620  LYS621  CYS622 
 ASP623  PHE694  ASN695  SER759  ASP760  ASP761  ALA762  ILE779  LEU786  VAL792 
 PHE793  MET794  SER795  GLU796  ALA797  LYS798  CYS799  TRP800  GLU811  SER814 

> <Gold.Protein.RotatedAtoms>
  152.2237  133.5003  159.5176 H   0  0  0  0  0  0  0  0  0  0  0  0  # atno 6907 bound_to 6896
  150.7019  134.1309  159.4078 H   0  0  0  0  0  0  0  0  0  0  0  0  # atno 6908 bound_to 6896
  151.9230  135.0290  160.0574 H   0  0  0  0  0  0  0  0  0  0  0  0  # atno 6909 bound_to 6896
  145.7468  139.2743  143.1454 H   0  0  0  0  0  0  0  0  0  0  0  0  # atno 7974 bound_to 7965
  154.6449  140.2555  155.7280 H   0  0  0  0  0  0  0  0  0  0  0  0  # atno 8008 bound_to 7997
  156.2547  140.2880  156.0779 H   0  0  0  0  0  0  0  0  0  0  0  0  # atno 8009 bound_to 7997
  155.1540  140.0383  157.2818 H   0  0  0  0  0  0  0  0  0  0  0  0  # atno 8010 bound_to 7997
  140.2274  144.3723  150.6427 H   0  0  0  0  0  0  0  0  0  0  0  0  # atno 10167 bound_to 10162
  157.6946  131.0517  150.4209 H   0  0  0  0  0  0  0  0  0  0  0  0  # atno 10718 bound_to 10713
  154.3666  135.2753  155.2290 H   0  0  0  0  0  0  0  0  0  0  0  0  # atno 10763 bound_to 10752
  154.4455  135.5944  153.6160 H   0  0  0  0  0  0  0  0  0  0  0  0  # atno 10764 bound_to 10752
  152.9840  135.6029  154.3893 H   0  0  0  0  0  0  0  0  0  0  0  0  # atno 10765 bound_to 10752
  139.9592  134.9606  156.9086 H   0  0  0  0  0  0  0  0  0  0  0  0  # atno 11005 bound_to 11000
  146.0395  140.8179  142.9835 LP  0  0  0  0  0  0  0  0  0  0  0  0  # atno 17320 bound_to 7965
  144.6858  140.2889  143.7281 LP  0  0  0  0  0  0  0  0  0  0  0  0  # atno 17321 bound_to 7965
  140.6210  143.2176  151.6693 LP  0  0  0  0  0  0  0  0  0  0  0  0  # atno 17342 bound_to 10162
  139.5122  144.3483  152.0676 LP  0  0  0  0  0  0  0  0  0  0  0  0  # atno 17343 bound_to 10162
  156.4584  130.4026  149.6591 LP  0  0  0  0  0  0  0  0  0  0  0  0  # atno 17370 bound_to 10713
  156.3715  130.7533  151.2517 LP  0  0  0  0  0  0  0  0  0  0  0  0  # atno 17371 bound_to 10713
  140.5539  134.0600  155.7378 LP  0  0  0  0  0  0  0  0  0  0  0  0  # atno 17394 bound_to 11000
  141.1267  133.9371  157.2620 LP  0  0  0  0  0  0  0  0  0  0  0  0  # atno 17395 bound_to 11000

$$$$
