AV-unprocessed.smi:123|AV-procd|sdf|1143|dock9
  -GOLD-   2262018273D 1   1.00000     0.00000
 Structure written by MMmdl.
 43 45  0  0  0  0  0  0  0  0  1 V2000
  150.4785  142.6083  157.0189 C   0  0  0  0  0  0  0  0  0  0  0  0
  151.6459  141.7716  157.5735 C   0  0  2  0  0  0  0  0  0  0  0  0
  151.3722  140.3384  157.4556 N   0  0  0  0  0  0  0  0  0  0  0  0
  151.1738  139.6475  156.3202 C   0  0  0  0  0  0  0  0  0  0  0  0
  151.1848  140.1634  155.2015 O   0  0  0  0  0  0  0  0  0  0  0  0
  150.9165  138.1427  156.4923 C   0  0  0  0  0  0  0  0  0  0  0  0
  149.6703  137.8420  157.2311 N   0  0  0  0  0  0  0  0  0  0  0  0
  148.4338  138.2196  156.6498 C   0  0  0  0  0  0  0  0  0  0  0  0
  148.3883  138.7769  155.5519 O   0  0  0  0  0  0  0  0  0  0  0  0
  147.2459  137.9080  157.4366 C   0  0  0  0  0  0  0  0  0  0  0  0
  146.0291  138.2168  156.9570 F   0  0  0  0  0  0  0  0  0  0  0  0
  147.3495  137.3116  158.6415 C   0  0  0  0  0  0  0  0  0  0  0  0
  148.5630  136.9652  159.2042 N   0  0  0  0  0  0  0  0  0  0  0  0
  148.6136  136.3053  160.5617 C   0  0  2  0  0  0  0  0  0  0  0  0
  147.9105  134.9420  160.5235 C   0  0  0  0  0  0  0  0  0  0  0  0
  146.5978  135.2328  161.2220 C   0  0  0  0  0  0  0  0  0  0  0  0
  147.0016  136.3282  162.2005 C   0  0  0  0  0  0  0  0  0  0  0  0
  147.9354  137.1180  161.4748 O   0  0  0  0  0  0  0  0  0  0  0  0
  149.7603  137.2202  158.5001 C   0  0  0  0  0  0  0  0  0  0  0  0
  150.8539  136.9074  158.9753 O   0  0  0  0  0  0  0  0  0  0  0  0
  152.0682  142.1652  158.9592 C   0  0  0  0  0  0  0  0  0  0  0  0
  151.6957  143.1632  159.8189 C   0  0  0  0  0  0  0  0  0  0  0  0
  152.4788  142.9977  160.9943 C   0  0  0  0  0  0  0  0  0  0  0  0
  153.2781  141.9149  160.7639 C   0  0  0  0  0  0  0  0  0  0  0  0
  153.0428  141.3981  159.5277 O   0  0  0  0  0  0  0  0  0  0  0  0
  150.7415  143.6656  156.9773 H   0  0  0  0  0  0  0  0  0  0  0  0
  149.5842  142.5165  157.6360 H   0  0  0  0  0  0  0  0  0  0  0  0
  150.2178  142.2961  156.0070 H   0  0  0  0  0  0  0  0  0  0  0  0
  152.4981  141.9515  156.9174 H   0  0  0  0  0  0  0  0  0  0  0  0
  151.3365  139.8217  158.3222 H   0  0  0  0  0  0  0  0  0  0  0  0
  150.9004  137.6724  155.5076 H   0  0  0  0  0  0  0  0  0  0  0  0
  151.7871  137.7020  156.9800 H   0  0  0  0  0  0  0  0  0  0  0  0
  146.4402  137.1005  159.1841 H   0  0  0  0  0  0  0  0  0  0  0  0
  149.6614  136.2413  160.8570 H   0  0  0  0  0  0  0  0  0  0  0  0
  147.7955  134.5619  159.5074 H   0  0  0  0  0  0  0  0  0  0  0  0
  148.5024  134.2312  161.1012 H   0  0  0  0  0  0  0  0  0  0  0  0
  145.8655  135.6134  160.5092 H   0  0  0  0  0  0  0  0  0  0  0  0
  146.1723  134.3580  161.7139 H   0  0  0  0  0  0  0  0  0  0  0  0
  146.1547  136.9225  162.5439 H   0  0  0  0  0  0  0  0  0  0  0  0
  147.4969  135.8995  163.0729 H   0  0  0  0  0  0  0  0  0  0  0  0
  150.9470  143.9176  159.6278 H   0  0  0  0  0  0  0  0  0  0  0  0
  152.4603  143.5949  161.8938 H   0  0  0  0  0  0  0  0  0  0  0  0
  154.0332  141.4033  161.3422 H   0  0  0  0  0  0  0  0  0  0  0  0
  1  2  1  0  0  0  0
  1 26  1  0  0  0  0
  1 27  1  0  0  0  0
  1 28  1  0  0  0  0
  2  3  1  0  0  0  0
  2 21  1  0  0  0  0
  2 29  1  0  0  0  0
  3  4  1  0  0  0  0
  3 30  1  0  0  0  0
  4  5  2  0  0  0  0
  4  6  1  0  0  0  0
  6  7  1  0  0  0  0
  6 31  1  0  0  0  0
  6 32  1  0  0  0  0
  7 19  1  0  0  0  0
  7  8  1  0  0  0  0
  8  9  2  0  0  0  0
  8 10  1  0  0  0  0
 10 11  1  0  0  0  0
 10 12  2  0  0  0  0
 12 13  1  0  0  0  0
 12 33  1  0  0  0  0
 13 14  1  0  0  0  0
 13 19  1  0  0  0  0
 14 18  1  0  0  0  0
 14 15  1  0  0  0  0
 14 34  1  0  0  0  0
 15 16  1  0  0  0  0
 15 35  1  0  0  0  0
 15 36  1  0  0  0  0
 16 17  1  0  0  0  0
 16 37  1  0  0  0  0
 16 38  1  0  0  0  0
 17 18  1  0  0  0  0
 17 39  1  0  0  0  0
 17 40  1  0  0  0  0
 19 20  2  0  0  0  0
 21 25  1  0  0  0  0
 21 22  2  0  0  0  0
 22 23  1  0  0  0  0
 22 41  1  0  0  0  0
 23 24  2  0  0  0  0
 23 42  1  0  0  0  0
 24 25  1  0  0  0  0
 24 43  1  0  0  0  0
M  END
> <s_m_source_file>
AV-unprocessed.smi

> <i_m_source_file_index>
123

> <i_lp_mmshare_version>
43012

> <i_f3d_flags>
0

> <s_epik_input>
bzFbY0hdW2NIXVtjSF1jMVtDQEhdKFtDSDNdKVtOSF1DKD1PKVtDSDJdbjJjKD1PKWMoRilbY0hdbihjMj1PKVtDQEBIXTNbQ0gyXVtDSDJdW0NIMl1PMw==

> <s_epik_cmdline>
J2VwaWtfcHl0aG9uJywgJy1waCcsICc3LjAnLCAnLXRuJywgJzgnLCAnLW1hJywgJzIwMCcsICctbWV0YWxfYmluZGluZycsICctaW1hZScsICc8aW5maWxlLm1hZT4nLCAnLW9tYWUnLCAnPG91dGZpbGUubWFlPic=

> <r_lp_tautomer_probability>
1

> <r_epik_Ionization_Penalty>
2.31906e-08

> <r_epik_Ionization_Penalty_Charging>
3.85846e-09

> <r_epik_Ionization_Penalty_Neutral>
1.93321e-08

> <r_epik_State_Penalty>
-0

> <r_epik_Charging_Adjusted_Penalty>
3.85846e-09

> <i_epik_Tot_Q>
0

> <i_epik_Tot_abs_Q>
0

> <r_epik_Metal_State_Penalty>
-0

> <b_epik_Metal_Only>
0

> <s_epik_Chemistry_Notes>
This compound contains an acetal/aminal-like group ( X-CH(R)-Y where X, Y are N, S, or O) that may be acid/base labile, releasing an aldehyde.

> <s_lp_Force_Field>
OPLS_2005

> <r_lp_Energy>
21.3093

> <b_lp_Chiralities_Consistent>
1

> <s_lp_Variant>
AV-unprocessed.smi:123-1

> <Gold.Version>
5.8.1

> <Gold.Id.Protein>
6NUR|6NUR_protein|mol2

> <Gold.PLP.Fitness>
48.4327

> <Gold.PLP.PLP>
-38.5800

> <Gold.PLP.part.hbond>
-3.9893

> <Gold.PLP.part.metal>
0.0000

> <Gold.PLP.part.buried>
-5.9442

> <Gold.PLP.part.nonpolar>
-28.8046

> <Gold.PLP.part.repulsive>
0.0883

> <Gold.PLP.ligand.clash>
0.0000

> <Gold.PLP.ligand.torsion>
0.2833

> <Gold.PLP.Chemscore.Hbond>
3.4368

> <Gold.PLP.Chemscore.CHOScore>
0.0000

> <Gold.PLP.Chemscore.Metal>
0.0000

> <Gold.Chemscore.Hbonds>
donor molecule, donor type, donor heavy atom, donor atom, acceptor molecule, acceptor atom, score
      P1  H  6896  6909       L1    20  0.89
      P1  H  6931  6943       L1    18  1.00
      P1  H  6934  6947       L1    18  0.55
      P1  H  7989  7998       L1     5  1.00

> <Gold.PLP.Chemscore.Internal.Correction>
0.1090

> <Gold.Rescore>
     Score         DG    S(hbond)    S(metal)    S(lipo)     H(rot)  DE(clash)    DE(int)     intcor
     18.96     -19.47       3.06        0.00      81.14       2.23       0.07       0.43       ----

> <Gold.Chemscore.Fitness>
18.9605

> <Gold.Chemscore.DG>
-19.4670

> <Gold.Chemscore.ZeroCoef>
-5.4800

> <Gold.Chemscore.Hbond>
3.0581

> <Gold.Chemscore.Metal>
0.0000

> <Gold.Chemscore.Lipo>
81.1420

> <Gold.Chemscore.Internal_Hbond>
0.0000

> <Gold.Chemscore.DEClash>
0.0728

> <Gold.Chemscore.DEInternal>
0.4336

> <Gold.Chemscore.Rot>
2.2347

> <Gold.Chemscore.Internal.Correction>
   9.000000E+99

> <Gold.Chemscore.Hbonds>
donor molecule, donor type, donor heavy atom, donor atom, acceptor molecule, acceptor atom, score
      P1  H  6896  6909       L1    20  0.75
      P1  H  6931  6943       L1    18  0.49
      P1  H  6934  6947       L1    18  0.48
      P1  H  7989  7998       L1     5  0.98

> <Gold.Chemscore.Hbond.Weighted>
-10.2142

> <Gold.Chemscore.Metal.Weighted>
-0.0000

> <Gold.Chemscore.Lipo.Weighted>
-9.4936

> <Gold.Chemscore.Internal_Hbond.Weighted>
0.0000

> <Gold.Chemscore.DEClash.Weighted>
0.0728

> <Gold.Chemscore.DEInternal.Weighted>
0.4336

> <Gold.Chemscore.Rot.Weighted>
5.7208

> <Gold.Chemscore.Internal.Correction.Weighted>
   9.000000E+99

> <Gold.Protein.RotatedTorsions>
[ 6907 6896 6895 6894 ] final   81.48 input  -60.11 | X-H torsion
[ 7974 7965 7964 7962 ] final   72.37 input  175.53 | X-H torsion
[ 8008 7997 7996 7995 ] final  -12.88 input   59.86 | X-H torsion
[ 10167 10162 10161 10158 ] final  -59.09 input  -65.29 | X-H torsion
[ 10718 10713 10712 10709 ] final   41.19 input   66.30 | X-H torsion
[ 10763 10752 10751 10750 ] final   33.80 input  -60.55 | X-H torsion
[ 11005 11000 10999 10996 ] final   65.99 input  -57.11 | X-H torsion

> <Gold.Protein.ActiveResidues>
 VAL166  LYS551  ARG553  GLY616  TRP617  ASP618  TYR619  PRO620  LYS621  CYS622 
 ASP623  PHE694  ASN695  SER759  ASP760  ASP761  ALA762  ILE779  LEU786  VAL792 
 PHE793  MET794  SER795  GLU796  ALA797  LYS798  CYS799  TRP800  GLU811  SER814 

> <Gold.Protein.RotatedAtoms>
  152.5269  134.3198  159.9143 H   0  0  0  0  0  0  0  0  0  0  0  0  # atno 6907 bound_to 6896
  151.3147  133.4059  159.2657 H   0  0  0  0  0  0  0  0  0  0  0  0  # atno 6908 bound_to 6896
  151.0009  134.9338  159.8010 H   0  0  0  0  0  0  0  0  0  0  0  0  # atno 6909 bound_to 6896
  145.7542  139.2772  143.1414 H   0  0  0  0  0  0  0  0  0  0  0  0  # atno 7974 bound_to 7965
  154.5339  140.2264  155.8756 H   0  0  0  0  0  0  0  0  0  0  0  0  # atno 8008 bound_to 7997
  156.1792  140.3104  155.9079 H   0  0  0  0  0  0  0  0  0  0  0  0  # atno 8009 bound_to 7997
  155.3394  140.0449  157.3035 H   0  0  0  0  0  0  0  0  0  0  0  0  # atno 8010 bound_to 7997
  140.6157  143.2401  151.5603 H   0  0  0  0  0  0  0  0  0  0  0  0  # atno 10167 bound_to 10162
  157.3908  130.7805  149.7268 H   0  0  0  0  0  0  0  0  0  0  0  0  # atno 10718 bound_to 10713
  153.0194  135.6377  154.1568 H   0  0  0  0  0  0  0  0  0  0  0  0  # atno 10763 bound_to 10752
  154.1304  135.2841  155.3188 H   0  0  0  0  0  0  0  0  0  0  0  0  # atno 10764 bound_to 10752
  154.6198  135.5528  153.7625 H   0  0  0  0  0  0  0  0  0  0  0  0  # atno 10765 bound_to 10752
  139.9860  134.6667  156.0176 H   0  0  0  0  0  0  0  0  0  0  0  0  # atno 11005 bound_to 11000
  146.0327  140.8242  142.9868 LP  0  0  0  0  0  0  0  0  0  0  0  0  # atno 17320 bound_to 7965
  144.6843  140.2793  143.7294 LP  0  0  0  0  0  0  0  0  0  0  0  0  # atno 17321 bound_to 7965
  139.5396  144.2683  152.1324 LP  0  0  0  0  0  0  0  0  0  0  0  0  # atno 17342 bound_to 10162
  140.1892  144.4768  150.6488 LP  0  0  0  0  0  0  0  0  0  0  0  0  # atno 17343 bound_to 10162
  155.9798  130.4036  150.3567 LP  0  0  0  0  0  0  0  0  0  0  0  0  # atno 17370 bound_to 10713
  157.1683  131.0362  151.2808 LP  0  0  0  0  0  0  0  0  0  0  0  0  # atno 17371 bound_to 10713
  141.1525  133.6547  156.4057 LP  0  0  0  0  0  0  0  0  0  0  0  0  # atno 17394 bound_to 11000
  140.5002  134.6493  157.5245 LP  0  0  0  0  0  0  0  0  0  0  0  0  # atno 17395 bound_to 11000

$$$$
