AV-unprocessed.smi:1526|AV-procd|sdf|6146|dock3
  -GOLD-   22720 6293D 1   1.00000     0.00000
 Structure written by MMmdl.
 34 35  0  0  0  0  0  0  0  0  3 V2000
  151.4564  142.1813  158.0624 O   0  0  0  0  0  0  0  0  0  0  0  0
  150.7810  142.8303  157.2648 C   0  0  0  0  0  0  0  0  0  0  0  0
  149.4656  142.2309  156.7367 C   0  0  0  0  0  0  0  0  0  0  0  0
  149.6257  141.0631  155.8502 N   0  0  0  0  0  0  0  0  0  0  0  0
  150.9328  140.5653  155.6800 C   0  0  0  0  0  0  0  0  0  0  0  0
  151.1975  139.4993  154.8996 C   0  0  0  0  0  0  0  0  0  0  0  0
  152.5449  138.9970  154.7435 N   0  3  0  0  0  0  0  0  0  0  0  0
  152.7067  137.8989  154.2210 O   0  0  0  0  0  0  0  0  0  0  0  0
  153.4847  139.6809  155.1378 O   0  5  0  0  0  0  0  0  0  0  0  0
  150.0822  138.8656  154.2232 C   0  0  0  0  0  0  0  0  0  0  0  0
  148.8290  139.3340  154.3851 C   0  0  0  0  0  0  0  0  0  0  0  0
  148.5426  140.4901  155.2407 C   0  0  0  0  0  0  0  0  0  0  0  0
  147.3985  140.9131  155.4051 O   0  0  0  0  0  0  0  0  0  0  0  0
  151.1452  144.0467  156.8293 N   0  0  0  0  0  0  0  0  0  0  0  0
  152.3675  144.7371  157.2100 C   0  0  0  0  0  0  0  0  0  0  0  0
  152.2890  145.1688  158.6690 C   0  0  0  0  0  0  0  0  0  0  0  0
  152.6514  144.1720  159.7813 C   0  0  0  0  0  0  0  0  0  0  0  0
  151.5620  144.8128  160.6455 C   0  0  0  0  0  0  0  0  0  0  0  0
  150.9191  145.3119  159.3483 C   0  0  0  0  0  0  0  0  0  0  0  0
  148.8361  141.9745  157.5906 H   0  0  0  0  0  0  0  0  0  0  0  0
  148.9213  143.0218  156.2186 H   0  0  0  0  0  0  0  0  0  0  0  0
  151.6914  141.1028  156.2310 H   0  0  0  0  0  0  0  0  0  0  0  0
  150.2435  138.0114  153.5823 H   0  0  0  0  0  0  0  0  0  0  0  0
  148.0127  138.8467  153.8723 H   0  0  0  0  0  0  0  0  0  0  0  0
  150.5395  144.5202  156.1753 H   0  0  0  0  0  0  0  0  0  0  0  0
  153.2204  144.0755  157.0531 H   0  0  0  0  0  0  0  0  0  0  0  0
  152.5112  145.6026  156.5611 H   0  0  0  0  0  0  0  0  0  0  0  0
  152.8539  146.0901  158.8298 H   0  0  0  0  0  0  0  0  0  0  0  0
  152.4243  143.1382  159.5149 H   0  0  0  0  0  0  0  0  0  0  0  0
  153.6650  144.2724  160.1710 H   0  0  0  0  0  0  0  0  0  0  0  0
  150.9553  144.1076  161.2144 H   0  0  0  0  0  0  0  0  0  0  0  0
  151.9395  145.6233  161.2709 H   0  0  0  0  0  0  0  0  0  0  0  0
  150.5346  146.3315  159.3911 H   0  0  0  0  0  0  0  0  0  0  0  0
  150.1747  144.6180  158.9540 H   0  0  0  0  0  0  0  0  0  0  0  0
  1  2  2  0  0  0  0
  2  3  1  0  0  0  0
  2 14  1  0  0  0  0
  3  4  1  0  0  0  0
  3 20  1  0  0  0  0
  3 21  1  0  0  0  0
  4 12  1  0  0  0  0
  4  5  1  0  0  0  0
  5  6  2  0  0  0  0
  5 22  1  0  0  0  0
  6  7  1  0  0  0  0
  6 10  1  0  0  0  0
  7  8  2  0  0  0  0
  7  9  1  0  0  0  0
 10 11  2  0  0  0  0
 10 23  1  0  0  0  0
 11 12  1  0  0  0  0
 11 24  1  0  0  0  0
 12 13  2  0  0  0  0
 14 15  1  0  0  0  0
 14 25  1  0  0  0  0
 15 16  1  0  0  0  0
 15 26  1  0  0  0  0
 15 27  1  0  0  0  0
 16 19  1  0  0  0  0
 16 17  1  0  0  0  0
 16 28  1  0  0  0  0
 17 18  1  0  0  0  0
 17 29  1  0  0  0  0
 17 30  1  0  0  0  0
 18 19  1  0  0  0  0
 18 31  1  0  0  0  0
 18 32  1  0  0  0  0
 19 33  1  0  0  0  0
 19 34  1  0  0  0  0
M  CHG  1   7   1
M  CHG  1   9  -1
M  END
> <s_m_source_file>
AV-unprocessed.smi

> <i_m_source_file_index>
1526

> <i_lp_mmshare_version>
43012

> <i_f3d_flags>
0

> <s_epik_input>
W0NIMl0xW0NIMl1bQ0gyXVtDSF0xW0NIMl1bTkhdQyg9TylbQ0gyXW4yW2NIXWMoW04rXSg9TylbTy1dKVtjSF1bY0hdYzI9Tw==

> <s_epik_cmdline>
J2VwaWtfcHl0aG9uJywgJy1waCcsICc3LjAnLCAnLXRuJywgJzgnLCAnLW1hJywgJzIwMCcsICctbWV0YWxfYmluZGluZycsICctaW1hZScsICc8aW5maWxlLm1hZT4nLCAnLW9tYWUnLCAnPG91dGZpbGUubWFlPic=

> <r_lp_tautomer_probability>
1

> <r_epik_Ionization_Penalty>
1.93777e-08

> <r_epik_Ionization_Penalty_Charging>
7.59562e-11

> <r_epik_Ionization_Penalty_Neutral>
1.93017e-08

> <r_epik_State_Penalty>
-0

> <r_epik_Charging_Adjusted_Penalty>
7.59562e-11

> <i_epik_Tot_Q>
0

> <i_epik_Tot_abs_Q>
2

> <r_epik_Metal_State_Penalty>
-0

> <b_epik_Metal_Only>
0

> <s_lp_Force_Field>
OPLS_2005

> <r_lp_Energy>
24.467

> <b_lp_Chiralities_Consistent>
1

> <s_lp_Variant>
AV-unprocessed.smi:1526-1

> <Gold.Version>
5.8.1

> <Gold.Id.Protein>
6NUR|6NUR_protein|mol2

> <Gold.PLP.Fitness>
49.7434

> <Gold.PLP.PLP>
-42.9249

> <Gold.PLP.part.hbond>
-3.0000

> <Gold.PLP.part.metal>
0.0000

> <Gold.PLP.part.buried>
-3.9044

> <Gold.PLP.part.nonpolar>
-36.2335

> <Gold.PLP.part.repulsive>
0.2116

> <Gold.PLP.ligand.clash>
0.0000

> <Gold.PLP.ligand.torsion>
0.6030

> <Gold.PLP.Chemscore.Hbond>
2.6400

> <Gold.PLP.Chemscore.CHOScore>
0.0000

> <Gold.PLP.Chemscore.Metal>
0.0000

> <Gold.Chemscore.Hbonds>
donor molecule, donor type, donor heavy atom, donor atom, acceptor molecule, acceptor atom, score
      L1  H    14    25       P1  8028  0.93
      P1  H  7997  8009       L1     9  0.60
      P1  H 10752 10764       L1     8  0.28

> <Gold.PLP.Chemscore.Internal.Correction>
0.1043

> <Gold.Rescore>
     Score         DG    S(hbond)    S(metal)    S(lipo)     H(rot)  DE(clash)    DE(int)     intcor
     17.69     -20.68       2.77        0.00      90.67       1.82       0.72       2.27       ----

> <Gold.Chemscore.Fitness>
17.6887

> <Gold.Chemscore.DG>
-20.6802

> <Gold.Chemscore.ZeroCoef>
-5.4800

> <Gold.Chemscore.Hbond>
2.7690

> <Gold.Chemscore.Metal>
0.0000

> <Gold.Chemscore.Lipo>
90.6706

> <Gold.Chemscore.Internal_Hbond>
0.0000

> <Gold.Chemscore.DEClash>
0.7177

> <Gold.Chemscore.DEInternal>
2.2738

> <Gold.Chemscore.Rot>
1.8190

> <Gold.Chemscore.Internal.Correction>
   9.000000E+99

> <Gold.Chemscore.Hbonds>
donor molecule, donor type, donor heavy atom, donor atom, acceptor molecule, acceptor atom, score
      L1  H    14    25       P1  8028  0.90
      P1  H  7997  8009       L1     9  0.58
      P1  H 10752 10764       L1     8  0.29

> <Gold.Chemscore.Hbond.Weighted>
-9.2484

> <Gold.Chemscore.Metal.Weighted>
-0.0000

> <Gold.Chemscore.Lipo.Weighted>
-10.6085

> <Gold.Chemscore.Internal_Hbond.Weighted>
0.0000

> <Gold.Chemscore.DEClash.Weighted>
0.7177

> <Gold.Chemscore.DEInternal.Weighted>
2.2738

> <Gold.Chemscore.Rot.Weighted>
4.6567

> <Gold.Chemscore.Internal.Correction.Weighted>
   9.000000E+99

> <Gold.Protein.RotatedTorsions>
[ 6907 6896 6895 6894 ] final  -26.86 input  -60.11 | X-H torsion
[ 7974 7965 7964 7962 ] final   47.90 input  175.53 | X-H torsion
[ 8008 7997 7996 7995 ] final -146.84 input   59.86 | X-H torsion
[ 10167 10162 10161 10158 ] final   80.68 input  -65.29 | X-H torsion
[ 10718 10713 10712 10709 ] final  111.23 input   66.30 | X-H torsion
[ 10763 10752 10751 10750 ] final  -94.72 input  -60.55 | X-H torsion
[ 11005 11000 10999 10996 ] final -177.44 input  -57.11 | X-H torsion

> <Gold.Protein.ActiveResidues>
 VAL166  LYS551  ARG553  GLY616  TRP617  ASP618  TYR619  PRO620  LYS621  CYS622 
 ASP623  PHE694  ASN695  SER759  ASP760  ASP761  ALA762  ILE779  LEU786  VAL792 
 PHE793  MET794  SER795  GLU796  ALA797  LYS798  CYS799  TRP800  GLU811  SER814 

> <Gold.Protein.RotatedAtoms>
  151.1550  135.0246  159.8684 H   0  0  0  0  0  0  0  0  0  0  0  0  # atno 6907 bound_to 6896
  152.5452  134.1344  159.8463 H   0  0  0  0  0  0  0  0  0  0  0  0  # atno 6908 bound_to 6896
  151.1434  133.4910  159.2629 H   0  0  0  0  0  0  0  0  0  0  0  0  # atno 6909 bound_to 6896
  146.0255  139.4701  142.9870 H   0  0  0  0  0  0  0  0  0  0  0  0  # atno 7974 bound_to 7965
  155.5658  140.0629  157.2818 H   0  0  0  0  0  0  0  0  0  0  0  0  # atno 8008 bound_to 7997
  154.4376  140.1877  156.0875 H   0  0  0  0  0  0  0  0  0  0  0  0  # atno 8009 bound_to 7997
  156.0413  140.3295  155.7250 H   0  0  0  0  0  0  0  0  0  0  0  0  # atno 8010 bound_to 7997
  139.9472  144.6050  150.8195 H   0  0  0  0  0  0  0  0  0  0  0  0  # atno 10167 bound_to 10162
  157.6455  131.0947  150.6718 H   0  0  0  0  0  0  0  0  0  0  0  0  # atno 10718 bound_to 10713
  154.7081  135.5147  153.8625 H   0  0  0  0  0  0  0  0  0  0  0  0  # atno 10763 bound_to 10752
  153.0758  135.6616  154.0158 H   0  0  0  0  0  0  0  0  0  0  0  0  # atno 10764 bound_to 10752
  154.0005  135.3011  155.3382 H   0  0  0  0  0  0  0  0  0  0  0  0  # atno 10765 bound_to 10752
  140.4408  134.6433  157.4757 H   0  0  0  0  0  0  0  0  0  0  0  0  # atno 11005 bound_to 11000
  145.7125  141.0101  143.1446 LP  0  0  0  0  0  0  0  0  0  0  0  0  # atno 17320 bound_to 7965
  144.7008  139.8774  143.7445 LP  0  0  0  0  0  0  0  0  0  0  0  0  # atno 17321 bound_to 7965
  140.7594  143.3127  151.2806 LP  0  0  0  0  0  0  0  0  0  0  0  0  # atno 17342 bound_to 10162
  139.6657  144.0109  152.2721 LP  0  0  0  0  0  0  0  0  0  0  0  0  # atno 17343 bound_to 10162
  156.7036  130.4630  149.5566 LP  0  0  0  0  0  0  0  0  0  0  0  0  # atno 17370 bound_to 10713
  156.1778  130.6479  151.0915 LP  0  0  0  0  0  0  0  0  0  0  0  0  # atno 17371 bound_to 10713
  140.0071  134.6747  155.9438 LP  0  0  0  0  0  0  0  0  0  0  0  0  # atno 17394 bound_to 11000
  141.1706  133.6537  156.4638 LP  0  0  0  0  0  0  0  0  0  0  0  0  # atno 17395 bound_to 11000

$$$$
