AV-unprocessed.smi:1623|AV-procd|sdf|6502|dock6
  -GOLD-   22720 7173D 1   1.00000     0.00000
 Structure written by MMmdl.
 42 43  0  0  0  0  0  0  0  0  1 V2000
  146.0206  145.3741  152.9020 C   0  0  0  0  0  0  0  0  0  0  0  0
  146.0425  144.1831  153.8218 C   0  0  0  0  0  0  0  0  0  0  0  0
  146.6738  143.1363  153.4014 N   0  0  0  0  0  0  0  0  0  0  0  0
  146.7552  141.9910  154.1673 N   0  0  0  0  0  0  0  0  0  0  0  0
  147.4920  140.8968  153.5258 C   0  0  0  0  0  0  0  0  0  0  0  0
  148.6302  140.3652  154.4258 C   0  0  1  0  0  0  0  0  0  0  0  0
  149.4368  139.4866  153.6675 O   0  0  0  0  0  0  0  0  0  0  0  0
  149.5358  141.4953  154.9342 C   0  0  0  0  0  0  0  0  0  0  0  0
  149.7490  141.3061  156.3252 O   0  0  0  0  0  0  0  0  0  0  0  0
  151.0326  140.7945  156.6514 C   0  0  0  0  0  0  0  0  0  0  0  0
  151.6531  141.4717  157.8648 C   0  0  0  0  0  0  0  0  0  0  0  0
  151.7538  142.8794  157.8950 C   0  0  0  0  0  0  0  0  0  0  0  0
  152.3230  143.5292  159.0067 C   0  0  0  0  0  0  0  0  0  0  0  0
  152.7991  142.7745  160.0948 C   0  0  0  0  0  0  0  0  0  0  0  0
  152.7069  141.3701  160.0690 C   0  0  0  0  0  0  0  0  0  0  0  0
  152.1373  140.7147  158.9589 C   0  0  0  0  0  0  0  0  0  0  0  0
  152.0464  138.9881  158.9667 Cl  0  0  0  0  0  0  0  0  0  0  0  0
  146.2023  141.8413  155.4049 C   0  0  0  0  0  0  0  0  0  0  0  0
  146.2959  140.7965  156.0513 O   0  0  0  0  0  0  0  0  0  0  0  0
  145.4886  143.0305  155.8753 C   0  0  0  0  0  0  0  0  0  0  0  0
  144.8914  142.9160  157.1667 C   0  0  0  0  0  0  0  0  0  0  0  0
  144.4220  142.8363  158.2219 N   0  0  0  0  0  0  0  0  0  0  0  0
  145.3985  144.1617  155.1315 C   0  0  0  0  0  0  0  0  0  0  0  0
  144.6663  145.4217  155.5726 C   0  0  0  0  0  0  0  0  0  0  0  0
  144.9972  145.6391  152.6354 H   0  0  0  0  0  0  0  0  0  0  0  0
  146.5624  145.1816  151.9745 H   0  0  0  0  0  0  0  0  0  0  0  0
  146.4822  146.2394  153.3784 H   0  0  0  0  0  0  0  0  0  0  0  0
  146.8200  140.0874  153.2328 H   0  0  0  0  0  0  0  0  0  0  0  0
  147.9009  141.2628  152.5823 H   0  0  0  0  0  0  0  0  0  0  0  0
  148.2358  139.8183  155.2834 H   0  0  0  0  0  0  0  0  0  0  0  0
  149.5388  139.8486  152.8004 H   0  0  0  0  0  0  0  0  0  0  0  0
  150.5002  141.4716  154.4241 H   0  0  0  0  0  0  0  0  0  0  0  0
  149.0787  142.4640  154.7262 H   0  0  0  0  0  0  0  0  0  0  0  0
  150.9277  139.7321  156.8726 H   0  0  0  0  0  0  0  0  0  0  0  0
  151.6938  140.8614  155.7861 H   0  0  0  0  0  0  0  0  0  0  0  0
  151.3903  143.4679  157.0652 H   0  0  0  0  0  0  0  0  0  0  0  0
  152.3946  144.6067  159.0239 H   0  0  0  0  0  0  0  0  0  0  0  0
  153.2360  143.2721  160.9479 H   0  0  0  0  0  0  0  0  0  0  0  0
  153.0755  140.7940  160.9051 H   0  0  0  0  0  0  0  0  0  0  0  0
  144.2150  145.3132  156.5584 H   0  0  0  0  0  0  0  0  0  0  0  0
  143.8663  145.6648  154.8724 H   0  0  0  0  0  0  0  0  0  0  0  0
  145.3531  146.2673  155.6185 H   0  0  0  0  0  0  0  0  0  0  0  0
  1  2  1  0  0  0  0
  1 25  1  0  0  0  0
  1 26  1  0  0  0  0
  1 27  1  0  0  0  0
  2 23  1  0  0  0  0
  2  3  2  0  0  0  0
  3  4  1  0  0  0  0
  4  5  1  0  0  0  0
  4 18  1  0  0  0  0
  5  6  1  0  0  0  0
  5 28  1  0  0  0  0
  5 29  1  0  0  0  0
  6  7  1  0  0  0  0
  6  8  1  0  0  0  0
  6 30  1  0  0  0  0
  7 31  1  0  0  0  0
  8  9  1  0  0  0  0
  8 32  1  0  0  0  0
  8 33  1  0  0  0  0
  9 10  1  0  0  0  0
 10 11  1  0  0  0  0
 10 34  1  0  0  0  0
 10 35  1  0  0  0  0
 11 16  1  0  0  0  0
 11 12  2  0  0  0  0
 12 13  1  0  0  0  0
 12 36  1  0  0  0  0
 13 14  2  0  0  0  0
 13 37  1  0  0  0  0
 14 15  1  0  0  0  0
 14 38  1  0  0  0  0
 15 16  2  0  0  0  0
 15 39  1  0  0  0  0
 16 17  1  0  0  0  0
 18 19  2  0  0  0  0
 18 20  1  0  0  0  0
 20 21  1  0  0  0  0
 20 23  2  0  0  0  0
 21 22  3  0  0  0  0
 23 24  1  0  0  0  0
 24 40  1  0  0  0  0
 24 41  1  0  0  0  0
 24 42  1  0  0  0  0
M  END
> <s_m_source_file>
AV-unprocessed.smi

> <i_m_source_file_index>
1623

> <i_lp_mmshare_version>
43012

> <i_f3d_flags>
0

> <s_epik_input>
TiNDYyhjMVtDSDNdKWMoPU8pbihuYzFbQ0gzXSlbQ0gyXVtDQEhdKFtPSF0pW0NIMl1PW0NIMl1jMltjSF1bY0hdW2NIXVtjSF1jMkNs

> <s_epik_cmdline>
J2VwaWtfcHl0aG9uJywgJy1waCcsICc3LjAnLCAnLXRuJywgJzgnLCAnLW1hJywgJzIwMCcsICctbWV0YWxfYmluZGluZycsICctaW1hZScsICc8aW5maWxlLm1hZT4nLCAnLW9tYWUnLCAnPG91dGZpbGUubWFlPic=

> <r_lp_tautomer_probability>
1

> <r_epik_Ionization_Penalty>
6.50533e-08

> <r_epik_Ionization_Penalty_Charging>
2.19172e-10

> <r_epik_Ionization_Penalty_Neutral>
6.48342e-08

> <r_epik_State_Penalty>
-0

> <r_epik_Charging_Adjusted_Penalty>
2.19172e-10

> <i_epik_Tot_Q>
0

> <i_epik_Tot_abs_Q>
0

> <r_epik_Metal_State_Penalty>
-0

> <b_epik_Metal_Only>
0

> <s_lp_Force_Field>
OPLS_2005

> <r_lp_Energy>
29.8059

> <b_lp_Chiralities_Consistent>
1

> <s_lp_Variant>
AV-unprocessed.smi:1623-2

> <Gold.Version>
5.8.1

> <Gold.Id.Protein>
6NUR|6NUR_protein|mol2

> <Gold.PLP.Fitness>
50.1445

> <Gold.PLP.PLP>
-49.7739

> <Gold.PLP.part.hbond>
-1.4720

> <Gold.PLP.part.metal>
0.0000

> <Gold.PLP.part.buried>
-2.6532

> <Gold.PLP.part.nonpolar>
-46.0787

> <Gold.PLP.part.repulsive>
0.4952

> <Gold.PLP.ligand.clash>
0.0000

> <Gold.PLP.ligand.torsion>
1.4041

> <Gold.PLP.Chemscore.Hbond>
1.0000

> <Gold.PLP.Chemscore.CHOScore>
0.0000

> <Gold.PLP.Chemscore.Metal>
0.0000

> <Gold.Chemscore.Hbonds>
donor molecule, donor type, donor heavy atom, donor atom, acceptor molecule, acceptor atom, score
      L1  H     7    31       P1  7957  1.00

> <Gold.PLP.Chemscore.Internal.Correction>
0.1788

> <Gold.Rescore>
     Score         DG    S(hbond)    S(metal)    S(lipo)     H(rot)  DE(clash)    DE(int)     intcor
     14.53     -17.25       1.00        0.00     126.27       2.48       0.22       2.50       ----

> <Gold.Chemscore.Fitness>
14.5334

> <Gold.Chemscore.DG>
-17.2474

> <Gold.Chemscore.ZeroCoef>
-5.4800

> <Gold.Chemscore.Hbond>
0.9988

> <Gold.Chemscore.Metal>
0.0000

> <Gold.Chemscore.Lipo>
126.2749

> <Gold.Chemscore.Internal_Hbond>
0.0000

> <Gold.Chemscore.DEClash>
0.2182

> <Gold.Chemscore.DEInternal>
2.4958

> <Gold.Chemscore.Rot>
2.4777

> <Gold.Chemscore.Internal.Correction>
   9.000000E+99

> <Gold.Chemscore.Hbonds>
donor molecule, donor type, donor heavy atom, donor atom, acceptor molecule, acceptor atom, score
      L1  H     7    31       P1  7957  1.00

> <Gold.Chemscore.Hbond.Weighted>
-3.3361

> <Gold.Chemscore.Metal.Weighted>
-0.0000

> <Gold.Chemscore.Lipo.Weighted>
-14.7742

> <Gold.Chemscore.Internal_Hbond.Weighted>
0.0000

> <Gold.Chemscore.DEClash.Weighted>
0.2182

> <Gold.Chemscore.DEInternal.Weighted>
2.4958

> <Gold.Chemscore.Rot.Weighted>
6.3428

> <Gold.Chemscore.Internal.Correction.Weighted>
   9.000000E+99

> <Gold.Protein.RotatedTorsions>
[ 6907 6896 6895 6894 ] final  139.43 input  -60.11 | X-H torsion
[ 7974 7965 7964 7962 ] final   19.77 input  175.53 | X-H torsion
[ 8008 7997 7996 7995 ] final -150.61 input   59.86 | X-H torsion
[ 10167 10162 10161 10158 ] final   -7.56 input  -65.29 | X-H torsion
[ 10718 10713 10712 10709 ] final -150.73 input   66.30 | X-H torsion
[ 10763 10752 10751 10750 ] final  171.24 input  -60.55 | X-H torsion
[ 11005 11000 10999 10996 ] final   44.27 input  -57.11 | X-H torsion

> <Gold.Protein.ActiveResidues>
 VAL166  LYS551  ARG553  GLY616  TRP617  ASP618  TYR619  PRO620  LYS621  CYS622 
 ASP623  PHE694  ASN695  SER759  ASP760  ASP761  ALA762  ILE779  LEU786  VAL792 
 PHE793  MET794  SER795  GLU796  ALA797  LYS798  CYS799  TRP800  GLU811  SER814 

> <Gold.Protein.RotatedAtoms>
  152.2550  133.5247  159.5347 H   0  0  0  0  0  0  0  0  0  0  0  0  # atno 6907 bound_to 6896
  150.7106  134.0908  159.3940 H   0  0  0  0  0  0  0  0  0  0  0  0  # atno 6908 bound_to 6896
  151.8827  135.0447  160.0541 H   0  0  0  0  0  0  0  0  0  0  0  0  # atno 6909 bound_to 6896
  146.2137  139.8266  142.8669 H   0  0  0  0  0  0  0  0  0  0  0  0  # atno 7974 bound_to 7965
  155.6263  140.0687  157.2663 H   0  0  0  0  0  0  0  0  0  0  0  0  # atno 8008 bound_to 7997
  154.4217  140.1775  156.1473 H   0  0  0  0  0  0  0  0  0  0  0  0  # atno 8009 bound_to 7997
  155.9969  140.3340  155.6810 H   0  0  0  0  0  0  0  0  0  0  0  0  # atno 8010 bound_to 7997
  140.7032  143.6067  150.8744 H   0  0  0  0  0  0  0  0  0  0  0  0  # atno 10167 bound_to 10162
  156.4499  130.8163  151.2393 H   0  0  0  0  0  0  0  0  0  0  0  0  # atno 10718 bound_to 10713
  154.4091  135.2756  155.2048 H   0  0  0  0  0  0  0  0  0  0  0  0  # atno 10763 bound_to 10752
  154.4042  135.6037  153.5918 H   0  0  0  0  0  0  0  0  0  0  0  0  # atno 10764 bound_to 10752
  152.9831  135.5933  154.4370 H   0  0  0  0  0  0  0  0  0  0  0  0  # atno 10765 bound_to 10752
  140.1567  134.4393  155.8345 H   0  0  0  0  0  0  0  0  0  0  0  0  # atno 11005 bound_to 11000
  145.3041  141.0202  143.3592 LP  0  0  0  0  0  0  0  0  0  0  0  0  # atno 17320 bound_to 7965
  144.8984  139.4682  143.6644 LP  0  0  0  0  0  0  0  0  0  0  0  0  # atno 17321 bound_to 7965
  139.9791  143.5971  152.2949 LP  0  0  0  0  0  0  0  0  0  0  0  0  # atno 17342 bound_to 10162
  139.6586  144.7662  151.2008 LP  0  0  0  0  0  0  0  0  0  0  0  0  # atno 17343 bound_to 10162
  157.7503  131.0141  150.3451 LP  0  0  0  0  0  0  0  0  0  0  0  0  # atno 17370 bound_to 10713
  156.3827  130.3883  149.7089 LP  0  0  0  0  0  0  0  0  0  0  0  0  # atno 17371 bound_to 10713
  141.2205  133.6895  156.7520 LP  0  0  0  0  0  0  0  0  0  0  0  0  # atno 17394 bound_to 11000
  140.2539  134.8519  157.3694 LP  0  0  0  0  0  0  0  0  0  0  0  0  # atno 17395 bound_to 11000

$$$$
