#       Name:                AV-unprocessed.smi:114
#       Creating user name   scv26
#       Creation time:       Thu Mar 26 18:22:45 2020


#       File generated by GOLD software.
#

@<TRIPOS>MOLECULE
AV-unprocessed.smi:114
    43    45     1
SMALL
NO_CHARGES


@<TRIPOS>ATOM
      1 ****        -5.1129  -0.1343  -0.4547 N.pl3          1 S1                 0.0000
      2 ****        -3.8259   0.2411  -0.4569 C.ar           1 S1                 0.0000
      3 ****        -3.5402   1.5635  -0.4626 N.ar           1 S1                 0.0000
      4 ****        -2.2680   1.9788  -0.4666 C.ar           1 S1                 0.0000
      5 ****        -2.0715   3.3182  -0.4703 F              1 S1                 0.0000
      6 ****        -1.1681   1.2187  -0.4666 N.ar           1 S1                 0.0000
      7 ****        -1.4477  -0.1165  -0.4609 C.ar           1 S1                 0.0000
      8 ****        -2.7519  -0.6824  -0.4544 C.ar           1 S1                 0.0000
      9 ****        -2.6696  -2.0673  -0.4471 N.2            1 S1                 0.0000
     10 ****        -1.3854  -2.3029  -0.4514 C.2            1 S1                 0.0000
     11 ****        -0.5750  -1.1889  -0.4642 N.pl3          1 S1                 0.0000
     12 ****         0.9220  -1.1797  -0.4711 C.3            1 S1                 0.0000
     13 ****         1.3792   0.0060  -1.0437 O.3            1 S1                 0.0000
     14 ****         2.4786   0.5504  -0.3092 C.3            1 S1                 0.0000
     15 ****         2.0511   1.9302   0.2350 C.3            1 S1                 0.0000
     16 ****         2.0076   2.8695  -0.8178 O.3            1 S1                 0.0000
     17 ****         2.7931  -0.5097   0.7655 C.3            1 S1                 0.0000
     18 ****         3.2575   0.0341   1.9865 O.3            1 S1                 0.0000
     19 ****         1.4730  -1.2404   0.9511 C.3            1 S1                 0.0000
     20 ****         1.7283  -2.5699   1.3605 O.3            1 S1                 0.0000
     21 ****         1.2158  -2.0251  -1.0951 H              1 S1                 0.0000
     22 ****         3.3427   0.6682  -0.9644 H              1 S1                 0.0000
     23 ****         3.5472  -1.1928   0.3702 H              1 S1                 0.0000
     24 ****         0.8079  -0.7113   1.6363 H              1 S1                 0.0000
     25 ****        -5.3494  -1.1162  -0.4511 H              1 S1                 0.0000
     26 ****        -5.8428   0.5633  -0.4596 H              1 S1                 0.0000
     27 ****        -0.9878  -3.3075  -0.4436 H              1 S1                 0.0000
     28 ****         1.0941   1.8837   0.7528 H              1 S1                 0.0000
     29 ****         2.7800   2.3100   0.9506 H              1 S1                 0.0000
     30 ****         1.7147   3.6977  -0.4694 H              1 S1                 0.0000
     31 ****         4.0764   0.4776   1.8264 H              1 S1                 0.0000
     32 ****         2.3268  -2.9651   0.7454 H              1 S1                 0.0000
     33 ****        -4.2827   2.2333  -0.4638 LP             1 S1                 0.0000
     34 ****        -0.2394   1.5894  -0.4704 LP             1 S1                 0.0000
     35 ****        -3.4185  -2.7300  -0.4402 LP             1 S1                 0.0000
     36 ****         0.6329   0.6715  -1.0532 LP             1 S1                 0.0000
     37 ****         1.6737  -0.1780  -1.9814 LP             1 S1                 0.0000
     38 ****         1.3715   2.5564  -1.5230 LP             1 S1                 0.0000
     39 ****         2.9197   2.9740  -1.2143 LP             1 S1                 0.0000
     40 ****         3.3962  -0.7000   2.6513 LP             1 S1                 0.0000
     41 ****         2.5863   0.6840   2.3429 LP             1 S1                 0.0000
     42 ****         0.8727  -3.0873   1.3779 LP             1 S1                 0.0000
     43 ****         2.1357  -2.5689   2.2737 LP             1 S1                 0.0000
@<TRIPOS>BOND
    1    1    2 1     
    2    1   25 1     
    3    1   26 1     
    4    2    8 ar    
    5    2    3 ar    
    6    3    4 ar    
    7    4    5 1     
    8    4    6 ar    
    9    6    7 ar    
   10    7   11 1     
   11    7    8 ar    
   12    8    9 1     
   13    9   10 2     
   14   10   11 1     
   15   10   27 1     
   16   11   12 1     
   17   12   21 1     
   18   12   19 1     
   19   12   13 1     
   20   13   14 1     
   21   14   22 1     
   22   14   15 1     
   23   14   17 1     
   24   15   16 1     
   25   15   28 1     
   26   15   29 1     
   27   16   30 1     
   28   17   23 1     
   29   17   18 1     
   30   17   19 1     
   31   18   31 1     
   32   19   24 1     
   33   19   20 1     
   34   20   32 1     
   35    3   33 1     
   36    6   34 1     
   37    9   35 1     
   38   13   36 1     
   39   13   37 1     
   40   16   38 1     
   41   16   39 1     
   42   18   40 1     
   43   18   41 1     
   44   20   42 1     
   45   20   43 1     
@<TRIPOS>SUBSTRUCTURE
      1 S1             1
@<TRIPOS>SET
LONE_PAIRS      STATIC     ATOMS    <user>   **** ""
11 33 34 35 36 37 38 39 40 41 42 43
DONOR_HYDROGENS      STATIC     ATOMS    <user>   **** ""
5 25 26 30 31 32
ATOM$BLUE        STATIC     ATOMS    COLORGROUP SYSTEM
11 33 34 35 36 37 38 39 40 41 42 43
ATOM$RED        STATIC     ATOMS    COLORGROUP SYSTEM
5 25 26 30 31 32
