AV-unprocessed.smi:3258|AV-procd|sdf|12470|dock3
  -GOLD-   2272018373D 1   1.00000     0.00000
 Structure written by MMmdl.
 38 39  0  0  0  0  0  0  0  0  1 V2000
  147.1396  132.3797  154.5802 C   0  0  0  0  0  0  0  0  0  0  0  0
  146.7439  133.2115  153.3490 C   0  0  2  0  0  0  0  0  0  0  0  0
  147.1037  132.5295  152.0107 C   0  0  0  0  0  0  0  0  0  0  0  0
  146.0349  132.6161  151.0321 N   0  0  0  0  0  0  0  0  0  0  0  0
  145.9846  132.0581  149.7722 C   0  0  0  0  0  0  0  0  0  0  0  0
  144.7861  132.4087  149.2201 C   0  0  0  0  0  0  0  0  0  0  0  0
  144.1630  133.1896  150.2335 C   0  0  0  0  0  0  0  0  0  0  0  0
  144.9119  133.3108  151.3177 N   0  0  0  0  0  0  0  0  0  0  0  0
  147.3813  134.5225  153.4323 N   0  0  0  0  0  0  0  0  0  0  0  0
  147.1421  135.4393  154.3807 C   0  0  0  0  0  0  0  0  0  0  0  0
  146.3465  135.2820  155.3070 O   0  0  0  0  0  0  0  0  0  0  0  0
  147.8684  136.5501  154.1922 N   0  0  0  0  0  0  0  0  0  0  0  0
  147.8323  137.7370  155.0410 C   0  0  0  0  0  0  0  0  0  0  0  0
  148.5347  138.9382  154.3803 C   0  0  1  0  0  0  0  0  0  0  0  0
  148.0875  140.3017  154.8721 C   0  0  0  0  0  0  0  0  0  0  0  0
  149.2455  141.1938  154.4344 C   0  0  0  0  0  0  0  0  0  0  0  0
  150.4051  140.3656  154.4468 O   0  0  0  0  0  0  0  0  0  0  0  0
  150.0339  139.0085  154.6670 C   0  0  0  0  0  0  0  0  0  0  0  0
  146.6104  131.4269  154.6058 H   0  0  0  0  0  0  0  0  0  0  0  0
  146.8979  132.9068  155.5037 H   0  0  0  0  0  0  0  0  0  0  0  0
  148.2090  132.1666  154.5875 H   0  0  0  0  0  0  0  0  0  0  0  0
  145.6616  133.3510  153.3867 H   0  0  0  0  0  0  0  0  0  0  0  0
  147.9913  132.9903  151.5753 H   0  0  0  0  0  0  0  0  0  0  0  0
  147.3498  131.4789  152.1748 H   0  0  0  0  0  0  0  0  0  0  0  0
  146.7982  131.4664  149.3785 H   0  0  0  0  0  0  0  0  0  0  0  0
  144.4112  132.1470  148.2418 H   0  0  0  0  0  0  0  0  0  0  0  0
  143.1949  133.6681  150.2140 H   0  0  0  0  0  0  0  0  0  0  0  0
  148.0520  134.7475  152.7120 H   0  0  0  0  0  0  0  0  0  0  0  0
  148.4925  136.5792  153.3992 H   0  0  0  0  0  0  0  0  0  0  0  0
  146.8057  137.9907  155.3108 H   0  0  0  0  0  0  0  0  0  0  0  0
  148.3386  137.4900  155.9743 H   0  0  0  0  0  0  0  0  0  0  0  0
  148.3916  138.8928  153.2992 H   0  0  0  0  0  0  0  0  0  0  0  0
  147.1306  140.6184  154.4564 H   0  0  0  0  0  0  0  0  0  0  0  0
  148.0049  140.3052  155.9600 H   0  0  0  0  0  0  0  0  0  0  0  0
  149.0870  141.5509  153.4160 H   0  0  0  0  0  0  0  0  0  0  0  0
  149.3683  142.0621  155.0820 H   0  0  0  0  0  0  0  0  0  0  0  0
  150.2403  138.7608  155.7093 H   0  0  0  0  0  0  0  0  0  0  0  0
  150.6123  138.3309  154.0384 H   0  0  0  0  0  0  0  0  0  0  0  0
  1  2  1  0  0  0  0
  1 19  1  0  0  0  0
  1 20  1  0  0  0  0
  1 21  1  0  0  0  0
  2  3  1  0  0  0  0
  2  9  1  0  0  0  0
  2 22  1  0  0  0  0
  3  4  1  0  0  0  0
  3 23  1  0  0  0  0
  3 24  1  0  0  0  0
  4  8  1  0  0  0  0
  4  5  1  0  0  0  0
  5  6  2  0  0  0  0
  5 25  1  0  0  0  0
  6  7  1  0  0  0  0
  6 26  1  0  0  0  0
  7  8  2  0  0  0  0
  7 27  1  0  0  0  0
  9 10  1  0  0  0  0
  9 28  1  0  0  0  0
 10 11  2  0  0  0  0
 10 12  1  0  0  0  0
 12 13  1  0  0  0  0
 12 29  1  0  0  0  0
 13 14  1  0  0  0  0
 13 30  1  0  0  0  0
 13 31  1  0  0  0  0
 14 18  1  0  0  0  0
 14 15  1  0  0  0  0
 14 32  1  0  0  0  0
 15 16  1  0  0  0  0
 15 33  1  0  0  0  0
 15 34  1  0  0  0  0
 16 17  1  0  0  0  0
 16 35  1  0  0  0  0
 16 36  1  0  0  0  0
 17 18  1  0  0  0  0
 18 37  1  0  0  0  0
 18 38  1  0  0  0  0
M  END
> <s_m_source_file>
AV-unprocessed.smi

> <i_m_source_file_index>
3258

> <i_lp_mmshare_version>
43012

> <i_f3d_flags>
0

> <s_epik_input>
bjFbY0hdW2NIXVtjSF1uMVtDSDJdW0NAQEhdKFtDSDNdKVtOSF1DKD1PKVtOSF1bQ0gyXVtDQEBIXTJbQ0gyXVtDSDJdT1tDSDJdMg==

> <s_epik_cmdline>
J2VwaWtfcHl0aG9uJywgJy1waCcsICc3LjAnLCAnLXRuJywgJzgnLCAnLW1hJywgJzIwMCcsICctbWV0YWxfYmluZGluZycsICctaW1hZScsICc8aW5maWxlLm1hZT4nLCAnLW9tYWUnLCAnPG91dGZpbGUubWFlPic=

> <r_lp_tautomer_probability>
1

> <r_epik_Ionization_Penalty>
6.85079e-05

> <r_epik_Ionization_Penalty_Charging>
0

> <r_epik_Ionization_Penalty_Neutral>
6.85079e-05

> <r_epik_State_Penalty>
-0

> <r_epik_Charging_Adjusted_Penalty>
0

> <i_epik_Tot_Q>
0

> <i_epik_Tot_abs_Q>
0

> <r_epik_Metal_State_Penalty>
-0

> <b_epik_Metal_Only>
0

> <s_lp_Force_Field>
OPLS_2005

> <r_lp_Energy>
15.6708

> <b_lp_Chiralities_Consistent>
1

> <s_lp_Variant>
AV-unprocessed.smi:3258-3

> <Gold.Version>
5.8.1

> <Gold.Id.Protein>
6NUR|6NUR_protein|mol2

> <Gold.PLP.Fitness>
41.7222

> <Gold.PLP.PLP>
-28.9968

> <Gold.PLP.part.hbond>
-3.0000

> <Gold.PLP.part.metal>
0.0000

> <Gold.PLP.part.buried>
-2.5480

> <Gold.PLP.part.nonpolar>
-22.5332

> <Gold.PLP.part.repulsive>
0.2455

> <Gold.PLP.ligand.clash>
0.0000

> <Gold.PLP.ligand.torsion>
1.0358

> <Gold.PLP.Chemscore.Hbond>
2.9120

> <Gold.PLP.Chemscore.CHOScore>
2.0000

> <Gold.PLP.Chemscore.Metal>
0.0000

> <Gold.Chemscore.Hbonds>
donor molecule, donor type, donor heavy atom, donor atom, acceptor molecule, acceptor atom, score
      L1  H     9    28       P1  7948  0.90
      L1  H    12    29       P1  7948  1.00
      P1  H  7989  7998       L1    17  1.00
      L1  C     5    25       P1 10747  1.00
      L1  C     7    27       P1 10186  1.00

> <Gold.PLP.Chemscore.Internal.Correction>
0.0611

> <Gold.Rescore>
     Score         DG    S(hbond)    S(metal)    S(lipo)     H(rot)  DE(clash)    DE(int)     intcor
     16.99     -17.93       2.70        0.00      70.21       1.87       0.04       0.90       ----

> <Gold.Chemscore.Fitness>
16.9947

> <Gold.Chemscore.DG>
-17.9345

> <Gold.Chemscore.ZeroCoef>
-5.4800

> <Gold.Chemscore.Hbond>
2.7045

> <Gold.Chemscore.Metal>
0.0000

> <Gold.Chemscore.Lipo>
70.2103

> <Gold.Chemscore.Internal_Hbond>
0.0000

> <Gold.Chemscore.DEClash>
0.0411

> <Gold.Chemscore.DEInternal>
0.8986

> <Gold.Chemscore.Rot>
1.8724

> <Gold.Chemscore.Internal.Correction>
   9.000000E+99

> <Gold.Chemscore.Hbonds>
donor molecule, donor type, donor heavy atom, donor atom, acceptor molecule, acceptor atom, score
      L1  H     9    28       P1  7948  0.64
      L1  H    12    29       P1  7948  0.98
      P1  H  7989  7998       L1    17  0.84

> <Gold.Chemscore.Hbond.Weighted>
-9.0331

> <Gold.Chemscore.Metal.Weighted>
-0.0000

> <Gold.Chemscore.Lipo.Weighted>
-8.2146

> <Gold.Chemscore.Internal_Hbond.Weighted>
0.0000

> <Gold.Chemscore.DEClash.Weighted>
0.0411

> <Gold.Chemscore.DEInternal.Weighted>
0.8986

> <Gold.Chemscore.Rot.Weighted>
4.7933

> <Gold.Chemscore.Internal.Correction.Weighted>
   9.000000E+99

> <Gold.Protein.RotatedTorsions>
[ 6907 6896 6895 6894 ] final -157.23 input  -60.11 | X-H torsion
[ 7974 7965 7964 7962 ] final  -69.63 input  175.53 | X-H torsion
[ 8008 7997 7996 7995 ] final   94.86 input   59.86 | X-H torsion
[ 10167 10162 10161 10158 ] final  -24.90 input  -65.29 | X-H torsion
[ 10718 10713 10712 10709 ] final   44.27 input   66.30 | X-H torsion
[ 10763 10752 10751 10750 ] final  -42.53 input  -60.55 | X-H torsion
[ 11005 11000 10999 10996 ] final  125.72 input  -57.11 | X-H torsion

> <Gold.Protein.ActiveResidues>
 VAL166  LYS551  ARG553  GLY616  TRP617  ASP618  TYR619  PRO620  LYS621  CYS622 
 ASP623  PHE694  ASN695  SER759  ASP760  ASP761  ALA762  ILE779  LEU786  VAL792 
 PHE793  MET794  SER795  GLU796  ALA797  LYS798  CYS799  TRP800  GLU811  SER814 

> <Gold.Protein.RotatedAtoms>
  151.2997  133.4128  159.2638 H   0  0  0  0  0  0  0  0  0  0  0  0  # atno 6907 bound_to 6896
  151.0206  134.9466  159.8068 H   0  0  0  0  0  0  0  0  0  0  0  0  # atno 6908 bound_to 6896
  152.5323  134.2960  159.9113 H   0  0  0  0  0  0  0  0  0  0  0  0  # atno 6909 bound_to 6896
  145.7012  140.9115  143.0730 H   0  0  0  0  0  0  0  0  0  0  0  0  # atno 7974 bound_to 7965
  156.0626  140.3294  155.7479 H   0  0  0  0  0  0  0  0  0  0  0  0  # atno 8008 bound_to 7997
  155.5432  140.0603  157.2883 H   0  0  0  0  0  0  0  0  0  0  0  0  # atno 8009 bound_to 7997
  154.4489  140.1907  156.0600 H   0  0  0  0  0  0  0  0  0  0  0  0  # atno 8010 bound_to 7997
  140.7287  143.4312  151.0799 H   0  0  0  0  0  0  0  0  0  0  0  0  # atno 10167 bound_to 10162
  157.4250  130.7991  149.7550 H   0  0  0  0  0  0  0  0  0  0  0  0  # atno 10718 bound_to 10713
  153.9806  135.6717  153.4750 H   0  0  0  0  0  0  0  0  0  0  0  0  # atno 10763 bound_to 10752
  153.0750  135.4953  154.8381 H   0  0  0  0  0  0  0  0  0  0  0  0  # atno 10764 bound_to 10752
  154.7166  135.3108  154.9075 H   0  0  0  0  0  0  0  0  0  0  0  0  # atno 10765 bound_to 10752
  139.9420  134.9634  156.8600 H   0  0  0  0  0  0  0  0  0  0  0  0  # atno 11005 bound_to 11000
  144.6968  139.8951  143.7455 LP  0  0  0  0  0  0  0  0  0  0  0  0  # atno 17320 bound_to 7965
  146.0796  139.3783  143.0473 LP  0  0  0  0  0  0  0  0  0  0  0  0  # atno 17321 bound_to 7965
  139.7969  143.8138  152.3158 LP  0  0  0  0  0  0  0  0  0  0  0  0  # atno 17342 bound_to 10162
  139.8142  144.7323  150.9658 LP  0  0  0  0  0  0  0  0  0  0  0  0  # atno 17343 bound_to 10162
  155.9893  130.3952  150.3078 LP  0  0  0  0  0  0  0  0  0  0  0  0  # atno 17370 bound_to 10713
  157.1230  131.0251  151.3001 LP  0  0  0  0  0  0  0  0  0  0  0  0  # atno 17371 bound_to 10713
  140.5928  134.0246  155.7506 LP  0  0  0  0  0  0  0  0  0  0  0  0  # atno 17394 bound_to 11000
  141.1058  133.9696  157.2999 LP  0  0  0  0  0  0  0  0  0  0  0  0  # atno 17395 bound_to 11000

$$$$
