AV-unprocessed.smi:3284|AV-procd|sdf|12578|dock5
  -GOLD-   2272018503D 1   1.00000     0.00000
 Structure written by MMmdl.
 45 46  0  0  0  0  0  0  0  0  3 V2000
  153.2236  141.6993  161.2121 C   0  0  0  0  0  0  0  0  0  0  0  0
  152.6105  142.8846  160.4848 C   0  0  0  0  0  0  0  0  0  0  0  0
  152.4004  144.0389  161.1460 C   0  0  0  0  0  0  0  0  0  0  0  0
  151.8674  145.3008  160.5083 C   0  0  0  0  0  0  0  0  0  0  0  0
  152.0821  145.2812  158.9931 C   0  0  0  0  0  0  0  0  0  0  0  0
  151.5791  143.9676  158.3726 C   0  0  1  0  0  0  0  0  0  0  0  0
  151.7363  144.0318  156.8409 C   0  0  0  0  0  0  0  0  0  0  0  0
  152.2715  142.7129  158.9895 C   0  0  2  0  0  0  0  0  0  0  0  0
  151.4184  141.4469  158.7126 C   0  0  0  0  0  0  0  0  0  0  0  0
  151.8374  140.7257  157.4929 N   0  3  0  0  0  0  0  0  0  0  0  0
  150.7305  140.4112  156.5686 C   0  0  0  0  0  0  0  0  0  0  0  0
  150.4446  141.5892  155.6271 C   0  0  0  0  0  0  0  0  0  0  0  0
  149.1907  141.4047  154.8281 C   0  0  0  0  0  0  0  0  0  0  0  0
  148.2205  142.3149  154.6782 N   0  3  0  0  0  0  0  0  0  0  0  0
  147.2134  141.8149  153.8977 C   0  0  0  0  0  0  0  0  0  0  0  0
  147.5829  140.5396  153.5589 C   0  0  0  0  0  0  0  0  0  0  0  0
  148.8011  140.3138  154.1471 N   0  0  0  0  0  0  0  0  0  0  0  0
  149.5934  139.0847  154.0659 C   0  0  0  0  0  0  0  0  0  0  0  0
  154.0716  141.3036  160.6525 H   0  0  0  0  0  0  0  0  0  0  0  0
  152.4896  140.9067  161.3550 H   0  0  0  0  0  0  0  0  0  0  0  0
  153.5866  141.9860  162.1997 H   0  0  0  0  0  0  0  0  0  0  0  0
  152.6305  144.1068  162.1996 H   0  0  0  0  0  0  0  0  0  0  0  0
  150.8084  145.3959  160.7505 H   0  0  0  0  0  0  0  0  0  0  0  0
  152.3751  146.1631  160.9413 H   0  0  0  0  0  0  0  0  0  0  0  0
  151.5730  146.1354  158.5450 H   0  0  0  0  0  0  0  0  0  0  0  0
  153.1438  145.4056  158.7742 H   0  0  0  0  0  0  0  0  0  0  0  0
  150.5119  143.9064  158.5928 H   0  0  0  0  0  0  0  0  0  0  0  0
  152.7868  144.0900  156.5540 H   0  0  0  0  0  0  0  0  0  0  0  0
  151.2380  144.9128  156.4349 H   0  0  0  0  0  0  0  0  0  0  0  0
  151.3048  143.1662  156.3408 H   0  0  0  0  0  0  0  0  0  0  0  0
  153.2328  142.5962  158.4863 H   0  0  0  0  0  0  0  0  0  0  0  0
  151.4694  140.7778  159.5730 H   0  0  0  0  0  0  0  0  0  0  0  0
  150.3667  141.6993  158.5853 H   0  0  0  0  0  0  0  0  0  0  0  0
  152.5222  141.2881  157.0079 H   0  0  0  0  0  0  0  0  0  0  0  0
  150.9928  139.5242  155.9906 H   0  0  0  0  0  0  0  0  0  0  0  0
  149.8369  140.1682  157.1453 H   0  0  0  0  0  0  0  0  0  0  0  0
  150.3284  142.5159  156.1907 H   0  0  0  0  0  0  0  0  0  0  0  0
  151.2642  141.7408  154.9239 H   0  0  0  0  0  0  0  0  0  0  0  0
  146.3323  142.3888  153.6486 H   0  0  0  0  0  0  0  0  0  0  0  0
  147.0804  139.7954  152.9576 H   0  0  0  0  0  0  0  0  0  0  0  0
  149.0180  138.3119  153.5550 H   0  0  0  0  0  0  0  0  0  0  0  0
  149.8408  138.7420  155.0708 H   0  0  0  0  0  0  0  0  0  0  0  0
  150.5077  139.2826  153.5057 H   0  0  0  0  0  0  0  0  0  0  0  0
  152.2738  139.8592  157.7753 H   0  0  0  0  0  0  0  0  0  0  0  0
  148.2318  143.2435  155.0813 H   0  0  0  0  0  0  0  0  0  0  0  0
  1  2  1  0  0  0  0
  1 19  1  0  0  0  0
  1 20  1  0  0  0  0
  1 21  1  0  0  0  0
  2  8  1  0  0  0  0
  2  3  2  0  0  0  0
  3  4  1  0  0  0  0
  3 22  1  0  0  0  0
  4  5  1  0  0  0  0
  4 23  1  0  0  0  0
  4 24  1  0  0  0  0
  5  6  1  0  0  0  0
  5 25  1  0  0  0  0
  5 26  1  0  0  0  0
  6  7  1  0  0  0  0
  6  8  1  0  0  0  0
  6 27  1  0  0  0  0
  7 28  1  0  0  0  0
  7 29  1  0  0  0  0
  7 30  1  0  0  0  0
  8  9  1  0  0  0  0
  8 31  1  0  0  0  0
  9 10  1  0  0  0  0
  9 32  1  0  0  0  0
  9 33  1  0  0  0  0
 10 11  1  0  0  0  0
 10 34  1  0  0  0  0
 10 44  1  0  0  0  0
 11 12  1  0  0  0  0
 11 35  1  0  0  0  0
 11 36  1  0  0  0  0
 12 13  1  0  0  0  0
 12 37  1  0  0  0  0
 12 38  1  0  0  0  0
 13 17  1  0  0  0  0
 13 14  2  0  0  0  0
 14 15  1  0  0  0  0
 14 45  1  0  0  0  0
 15 16  2  0  0  0  0
 15 39  1  0  0  0  0
 16 17  1  0  0  0  0
 16 40  1  0  0  0  0
 17 18  1  0  0  0  0
 18 41  1  0  0  0  0
 18 42  1  0  0  0  0
 18 43  1  0  0  0  0
M  CHG  1  10   1
M  CHG  1  14   1
M  END
> <s_m_source_file>
AV-unprocessed.smi

> <i_m_source_file_index>
3284

> <i_lp_mmshare_version>
43012

> <i_f3d_flags>
0

> <s_epik_input>
W0NIM11DMT1bQ0hdW0NIMl1bQ0gyXVtDQEBIXShbQ0gzXSlbQ0BIXTFbQ0gyXVtOSF1bQ0gyXVtDSDJdYzJuW2NIXVtjSF1uMltDSDNd

> <s_epik_cmdline>
J2VwaWtfcHl0aG9uJywgJy1waCcsICc3LjAnLCAnLXRuJywgJzgnLCAnLW1hJywgJzIwMCcsICctbWV0YWxfYmluZGluZycsICctaW1hZScsICc8aW5maWxlLm1hZT4nLCAnLW9tYWUnLCAnPG91dGZpbGUubWFlPic=

> <r_lp_tautomer_probability>
1

> <r_epik_Ionization_Penalty>
0.892846

> <r_epik_Ionization_Penalty_Charging>
0.00275802

> <r_epik_Ionization_Penalty_Neutral>
0.890088

> <r_epik_State_Penalty>
0.485211

> <r_epik_Charging_Adjusted_Penalty>
0.487969

> <i_epik_Tot_Q>
2

> <i_epik_Tot_abs_Q>
2

> <r_epik_Metal_State_Penalty>
4.22898

> <b_epik_Metal_Only>
0

> <s_lp_Force_Field>
OPLS_2005

> <r_lp_Energy>
22.9484

> <b_lp_Chiralities_Consistent>
1

> <s_lp_Variant>
AV-unprocessed.smi:3284-7

> <Gold.Version>
5.8.1

> <Gold.Id.Protein>
6NUR|6NUR_protein|mol2

> <Gold.PLP.Fitness>
51.8168

> <Gold.PLP.PLP>
-48.0801

> <Gold.PLP.part.hbond>
-1.0000

> <Gold.PLP.part.metal>
0.0000

> <Gold.PLP.part.buried>
-3.0564

> <Gold.PLP.part.nonpolar>
-43.1935

> <Gold.PLP.part.repulsive>
0.2796

> <Gold.PLP.ligand.clash>
0.0000

> <Gold.PLP.ligand.torsion>
1.1678

> <Gold.PLP.Chemscore.Hbond>
2.0000

> <Gold.PLP.Chemscore.CHOScore>
0.0000

> <Gold.PLP.Chemscore.Metal>
0.0000

> <Gold.Chemscore.Hbonds>
donor molecule, donor type, donor heavy atom, donor atom, acceptor molecule, acceptor atom, score
      L1  H    14    45       P1  8028  2.00

> <Gold.PLP.Chemscore.Internal.Correction>
0.0724

> <Gold.Rescore>
     Score         DG    S(hbond)    S(metal)    S(lipo)     H(rot)  DE(clash)    DE(int)     intcor
     18.90     -20.65       0.98        0.00     138.87       1.70       0.59       1.16       ----

> <Gold.Chemscore.Fitness>
18.8985

> <Gold.Chemscore.DG>
-20.6531

> <Gold.Chemscore.ZeroCoef>
-5.4800

> <Gold.Chemscore.Hbond>
0.9810

> <Gold.Chemscore.Metal>
0.0000

> <Gold.Chemscore.Lipo>
138.8708

> <Gold.Chemscore.Internal_Hbond>
0.0000

> <Gold.Chemscore.DEClash>
0.5932

> <Gold.Chemscore.DEInternal>
1.1614

> <Gold.Chemscore.Rot>
1.6997

> <Gold.Chemscore.Internal.Correction>
   9.000000E+99

> <Gold.Chemscore.Hbonds>
donor molecule, donor type, donor heavy atom, donor atom, acceptor molecule, acceptor atom, score
      L1  H    14    45       P1  8028  0.96

> <Gold.Chemscore.Hbond.Weighted>
-3.2764

> <Gold.Chemscore.Metal.Weighted>
-0.0000

> <Gold.Chemscore.Lipo.Weighted>
-16.2479

> <Gold.Chemscore.Internal_Hbond.Weighted>
0.0000

> <Gold.Chemscore.DEClash.Weighted>
0.5932

> <Gold.Chemscore.DEInternal.Weighted>
1.1614

> <Gold.Chemscore.Rot.Weighted>
4.3512

> <Gold.Chemscore.Internal.Correction.Weighted>
   9.000000E+99

> <Gold.Protein.RotatedTorsions>
[ 6907 6896 6895 6894 ] final  -21.99 input  -60.11 | X-H torsion
[ 7974 7965 7964 7962 ] final  -48.97 input  175.53 | X-H torsion
[ 8008 7997 7996 7995 ] final   93.56 input   59.86 | X-H torsion
[ 10167 10162 10161 10158 ] final  -84.23 input  -65.29 | X-H torsion
[ 10718 10713 10712 10709 ] final   79.24 input   66.30 | X-H torsion
[ 10763 10752 10751 10750 ] final  -55.33 input  -60.55 | X-H torsion
[ 11005 11000 10999 10996 ] final -122.34 input  -57.11 | X-H torsion

> <Gold.Protein.ActiveResidues>
 VAL166  LYS551  ARG553  GLY616  TRP617  ASP618  TYR619  PRO620  LYS621  CYS622 
 ASP623  PHE694  ASN695  SER759  ASP760  ASP761  ALA762  ILE779  LEU786  VAL792 
 PHE793  MET794  SER795  GLU796  ALA797  LYS798  CYS799  TRP800  GLU811  SER814 

> <Gold.Protein.RotatedAtoms>
  151.2251  135.0533  159.8965 H   0  0  0  0  0  0  0  0  0  0  0  0  # atno 6907 bound_to 6896
  152.5411  134.0598  159.8157 H   0  0  0  0  0  0  0  0  0  0  0  0  # atno 6908 bound_to 6896
  151.0769  133.5372  159.2655 H   0  0  0  0  0  0  0  0  0  0  0  0  # atno 6909 bound_to 6896
  145.9456  140.7621  142.9530 H   0  0  0  0  0  0  0  0  0  0  0  0  # atno 7974 bound_to 7965
  156.0481  140.3311  155.7319 H   0  0  0  0  0  0  0  0  0  0  0  0  # atno 8008 bound_to 7997
  155.5643  140.0622  157.2839 H   0  0  0  0  0  0  0  0  0  0  0  0  # atno 8009 bound_to 7997
  154.4423  140.1872  156.0803 H   0  0  0  0  0  0  0  0  0  0  0  0  # atno 8010 bound_to 7997
  140.4152  143.2606  151.8964 H   0  0  0  0  0  0  0  0  0  0  0  0  # atno 10167 bound_to 10162
  157.6770  130.9905  150.1904 H   0  0  0  0  0  0  0  0  0  0  0  0  # atno 10718 bound_to 10713
  154.1891  135.6430  153.5055 H   0  0  0  0  0  0  0  0  0  0  0  0  # atno 10763 bound_to 10752
  153.0039  135.5424  154.6434 H   0  0  0  0  0  0  0  0  0  0  0  0  # atno 10764 bound_to 10752
  154.5818  135.2926  155.0698 H   0  0  0  0  0  0  0  0  0  0  0  0  # atno 10765 bound_to 10752
  141.0002  134.0413  157.3546 H   0  0  0  0  0  0  0  0  0  0  0  0  # atno 11005 bound_to 11000
  144.6786  140.2350  143.7350 LP  0  0  0  0  0  0  0  0  0  0  0  0  # atno 17320 bound_to 7965
  145.8241  139.2057  143.1921 LP  0  0  0  0  0  0  0  0  0  0  0  0  # atno 17321 bound_to 7965
  139.4782  144.5495  151.8407 LP  0  0  0  0  0  0  0  0  0  0  0  0  # atno 17342 bound_to 10162
  140.4594  144.1744  150.5905 LP  0  0  0  0  0  0  0  0  0  0  0  0  # atno 17343 bound_to 10162
  156.2617  130.3711  149.8124 LP  0  0  0  0  0  0  0  0  0  0  0  0  # atno 17370 bound_to 10713
  156.5867  130.8489  151.3397 LP  0  0  0  0  0  0  0  0  0  0  0  0  # atno 17371 bound_to 10713
  139.9035  135.0172  156.7379 LP  0  0  0  0  0  0  0  0  0  0  0  0  # atno 17394 bound_to 11000
  140.6901  133.9398  155.7961 LP  0  0  0  0  0  0  0  0  0  0  0  0  # atno 17395 bound_to 11000

$$$$
