AV-unprocessed.smi:1203|AV-procd|sdf|5035|dock8
  -GOLD-   22720 4 63D 1   1.00000     0.00000
 Structure written by MMmdl.
 40 41  0  0  0  0  0  0  0  0  2 V2000
  145.5768  136.3471  160.4413 C   0  0  0  0  0  0  0  0  0  0  0  0
  147.4103  136.3776  160.5823 S   0  0  0  0  0  0  0  0  0  0  0  0
  147.7690  137.0592  161.8354 O   0  0  0  0  0  0  0  0  0  0  0  0
  147.9358  135.0328  160.3034 O   0  0  0  0  0  0  0  0  0  0  0  0
  147.8820  137.4107  159.2773 N   0  0  0  0  0  0  0  0  0  0  0  0
  146.8379  138.1311  158.5366 C   0  0  0  0  0  0  0  0  0  0  0  0
  147.4458  138.4473  157.1734 C   0  0  0  0  0  0  0  0  0  0  0  0
  148.3875  137.2749  156.9396 C   0  0  0  0  0  0  0  0  0  0  0  0
  148.9138  136.9282  158.3434 C   0  0  1  0  0  0  0  0  0  0  0  0
  150.2999  137.5178  158.6342 C   0  0  0  0  0  0  0  0  0  0  0  0
  151.1315  136.8799  159.2805 O   0  0  0  0  0  0  0  0  0  0  0  0
  150.5408  138.7365  158.1280 N   0  0  0  0  0  0  0  0  0  0  0  0
  151.7896  139.4786  158.2690 C   0  0  0  0  0  0  0  0  0  0  0  0
  151.7644  140.4906  159.4324 C   0  0  0  0  0  0  0  0  0  0  0  0
  151.7865  141.9421  158.9831 C   0  0  0  0  0  0  0  0  0  0  0  0
  152.7812  142.8266  159.4552 C   0  0  0  0  0  0  0  0  0  0  0  0
  152.7726  144.1700  159.0261 C   0  0  0  0  0  0  0  0  0  0  0  0
  151.7714  144.5980  158.1305 C   0  0  0  0  0  0  0  0  0  0  0  0
  150.8379  143.7225  157.6977 N   0  3  0  0  0  0  0  0  0  0  0  0
  150.8087  142.4297  158.0889 C   0  0  0  0  0  0  0  0  0  0  0  0
  145.1593  135.7810  161.2737 H   0  0  0  0  0  0  0  0  0  0  0  0
  145.2905  135.8693  159.5044 H   0  0  0  0  0  0  0  0  0  0  0  0
  145.1904  137.3650  160.4599 H   0  0  0  0  0  0  0  0  0  0  0  0
  145.9670  137.4854  158.4171 H   0  0  0  0  0  0  0  0  0  0  0  0
  146.5283  139.0284  159.0727 H   0  0  0  0  0  0  0  0  0  0  0  0
  146.6955  138.5516  156.3892 H   0  0  0  0  0  0  0  0  0  0  0  0
  148.0126  139.3779  157.2245 H   0  0  0  0  0  0  0  0  0  0  0  0
  147.8290  136.4277  156.5389 H   0  0  0  0  0  0  0  0  0  0  0  0
  149.1721  137.5137  156.2200 H   0  0  0  0  0  0  0  0  0  0  0  0
  148.9829  135.8413  158.4184 H   0  0  0  0  0  0  0  0  0  0  0  0
  149.8027  139.1822  157.6020 H   0  0  0  0  0  0  0  0  0  0  0  0
  152.5785  138.7468  158.4434 H   0  0  0  0  0  0  0  0  0  0  0  0
  152.0384  139.9804  157.3326 H   0  0  0  0  0  0  0  0  0  0  0  0
  150.8757  140.3256  160.0423 H   0  0  0  0  0  0  0  0  0  0  0  0
  152.6154  140.3113  160.0907 H   0  0  0  0  0  0  0  0  0  0  0  0
  153.5408  142.4814  160.1417 H   0  0  0  0  0  0  0  0  0  0  0  0
  153.5229  144.8622  159.3791 H   0  0  0  0  0  0  0  0  0  0  0  0
  151.6887  145.6062  157.7515 H   0  0  0  0  0  0  0  0  0  0  0  0
  150.0071  141.8311  157.6810 H   0  0  0  0  0  0  0  0  0  0  0  0
  150.1223  144.0524  157.0499 H   0  0  0  0  0  0  0  0  0  0  0  0
  1  2  1  0  0  0  0
  1 21  1  0  0  0  0
  1 22  1  0  0  0  0
  1 23  1  0  0  0  0
  2  3  2  0  0  0  0
  2  4  2  0  0  0  0
  2  5  1  0  0  0  0
  5  9  1  0  0  0  0
  5  6  1  0  0  0  0
  6  7  1  0  0  0  0
  6 24  1  0  0  0  0
  6 25  1  0  0  0  0
  7  8  1  0  0  0  0
  7 26  1  0  0  0  0
  7 27  1  0  0  0  0
  8  9  1  0  0  0  0
  8 28  1  0  0  0  0
  8 29  1  0  0  0  0
  9 10  1  0  0  0  0
  9 30  1  0  0  0  0
 10 11  2  0  0  0  0
 10 12  1  0  0  0  0
 12 13  1  0  0  0  0
 12 31  1  0  0  0  0
 13 14  1  0  0  0  0
 13 32  1  0  0  0  0
 13 33  1  0  0  0  0
 14 15  1  0  0  0  0
 14 34  1  0  0  0  0
 14 35  1  0  0  0  0
 15 20  1  0  0  0  0
 15 16  2  0  0  0  0
 16 17  1  0  0  0  0
 16 36  1  0  0  0  0
 17 18  2  0  0  0  0
 17 37  1  0  0  0  0
 18 19  1  0  0  0  0
 18 38  1  0  0  0  0
 19 20  2  0  0  0  0
 19 40  1  0  0  0  0
 20 39  1  0  0  0  0
M  CHG  1  19   1
M  END
> <s_m_source_file>
AV-unprocessed.smi

> <i_m_source_file_index>
1203

> <i_lp_mmshare_version>
43012

> <i_f3d_flags>
0

> <s_epik_input>
W0NIM11TKD1PKSg9TylOMVtDSDJdW0NIMl1bQ0gyXVtDQEhdMUMoPU8pW05IXVtDSDJdW0NIMl1jMltjSF1bY0hdW2NIXW5bY0hdMg==

> <s_epik_cmdline>
J2VwaWtfcHl0aG9uJywgJy1waCcsICc3LjAnLCAnLXRuJywgJzgnLCAnLW1hJywgJzIwMCcsICctbWV0YWxfYmluZGluZycsICctaW1hZScsICc8aW5maWxlLm1hZT4nLCAnLW9tYWUnLCAnPG91dGZpbGUubWFlPic=

> <r_epik_Ionization_Penalty>
2.2835

> <r_epik_Ionization_Penalty_Charging>
2.2835

> <r_epik_Ionization_Penalty_Neutral>
1.4017e-07

> <r_epik_State_Penalty>
2.43297

> <r_epik_Charging_Adjusted_Penalty>
4.71647

> <i_epik_Tot_Q>
1

> <i_epik_Tot_abs_Q>
1

> <r_epik_Metal_State_Penalty>
2.44558

> <b_epik_Metal_Only>
0

> <s_lp_Force_Field>
OPLS_2005

> <r_lp_Energy>
11.8017

> <b_lp_Chiralities_Consistent>
1

> <s_lp_Variant>
AV-unprocessed.smi:1203-3

> <Gold.Version>
5.8.1

> <Gold.Id.Protein>
6NUR|6NUR_protein|mol2

> <Gold.PLP.Fitness>
44.1129

> <Gold.PLP.PLP>
-32.3765

> <Gold.PLP.part.hbond>
-4.0000

> <Gold.PLP.part.metal>
0.0000

> <Gold.PLP.part.buried>
-4.9707

> <Gold.PLP.part.nonpolar>
-22.9700

> <Gold.PLP.part.repulsive>
0.0639

> <Gold.PLP.ligand.clash>
0.0000

> <Gold.PLP.ligand.torsion>
1.4313

> <Gold.PLP.Chemscore.Hbond>
4.6978

> <Gold.PLP.Chemscore.CHOScore>
0.0000

> <Gold.PLP.Chemscore.Metal>
0.0000

> <Gold.Chemscore.Hbonds>
donor molecule, donor type, donor heavy atom, donor atom, acceptor molecule, acceptor atom, score
      L1  H    19    40       P1  8028  2.00
      P1  H  6896  6908       L1    11  1.00
      P1  H  6931  6943       L1     3  1.00
      P1  H  6934  6947       L1     3  0.19

> <Gold.PLP.Chemscore.Internal.Correction>
0.5056

> <Gold.Rescore>
     Score         DG    S(hbond)    S(metal)    S(lipo)     H(rot)  DE(clash)    DE(int)     intcor
     20.09     -21.49       3.70        0.00      75.00       2.00       0.03       1.37       ----

> <Gold.Chemscore.Fitness>
20.0940

> <Gold.Chemscore.DG>
-21.4913

> <Gold.Chemscore.ZeroCoef>
-5.4800

> <Gold.Chemscore.Hbond>
3.7029

> <Gold.Chemscore.Metal>
0.0000

> <Gold.Chemscore.Lipo>
74.9954

> <Gold.Chemscore.Internal_Hbond>
0.0000

> <Gold.Chemscore.DEClash>
0.0270

> <Gold.Chemscore.DEInternal>
1.3703

> <Gold.Chemscore.Rot>
2.0043

> <Gold.Chemscore.Internal.Correction>
   9.000000E+99

> <Gold.Chemscore.Hbonds>
donor molecule, donor type, donor heavy atom, donor atom, acceptor molecule, acceptor atom, score
      L1  H    19    40       P1  8028  0.91
      P1  H  6896  6908       L1    11  0.99
      P1  H  6931  6943       L1     3  0.98
      P1  H  6934  6947       L1     3  0.01

> <Gold.Chemscore.Hbond.Weighted>
-12.3677

> <Gold.Chemscore.Metal.Weighted>
-0.0000

> <Gold.Chemscore.Lipo.Weighted>
-8.7745

> <Gold.Chemscore.Internal_Hbond.Weighted>
0.0000

> <Gold.Chemscore.DEClash.Weighted>
0.0270

> <Gold.Chemscore.DEInternal.Weighted>
1.3703

> <Gold.Chemscore.Rot.Weighted>
5.1309

> <Gold.Chemscore.Internal.Correction.Weighted>
   9.000000E+99

> <Gold.Protein.RotatedTorsions>
[ 6907 6896 6895 6894 ] final -145.33 input  -60.11 | X-H torsion
[ 7974 7965 7964 7962 ] final -163.49 input  175.53 | X-H torsion
[ 8008 7997 7996 7995 ] final -171.17 input   59.86 | X-H torsion
[ 10167 10162 10161 10158 ] final   74.82 input  -65.29 | X-H torsion
[ 10718 10713 10712 10709 ] final   46.43 input   66.30 | X-H torsion
[ 10763 10752 10751 10750 ] final -171.98 input  -60.55 | X-H torsion
[ 11005 11000 10999 10996 ] final -140.31 input  -57.11 | X-H torsion

> <Gold.Protein.ActiveResidues>
 VAL166  LYS551  ARG553  GLY616  TRP617  ASP618  TYR619  PRO620  LYS621  CYS622 
 ASP623  PHE694  ASN695  SER759  ASP760  ASP761  ALA762  ILE779  LEU786  VAL792 
 PHE793  MET794  SER795  GLU796  ALA797  LYS798  CYS799  TRP800  GLU811  SER814 

> <Gold.Protein.RotatedAtoms>
  151.1263  133.5068  159.2600 H   0  0  0  0  0  0  0  0  0  0  0  0  # atno 6907 bound_to 6896
  151.1806  135.0359  159.8801 H   0  0  0  0  0  0  0  0  0  0  0  0  # atno 6908 bound_to 6896
  152.5458  134.1116  159.8414 H   0  0  0  0  0  0  0  0  0  0  0  0  # atno 6909 bound_to 6896
  144.7324  140.3099  143.6190 H   0  0  0  0  0  0  0  0  0  0  0  0  # atno 7974 bound_to 7965
  155.9280  140.1086  157.1155 H   0  0  0  0  0  0  0  0  0  0  0  0  # atno 8008 bound_to 7997
  154.4065  140.1243  156.4830 H   0  0  0  0  0  0  0  0  0  0  0  0  # atno 8009 bound_to 7997
  155.7115  140.3471  155.4978 H   0  0  0  0  0  0  0  0  0  0  0  0  # atno 8010 bound_to 7997
  140.0096  144.5624  150.7670 H   0  0  0  0  0  0  0  0  0  0  0  0  # atno 10167 bound_to 10162
  157.4480  130.8121  149.7760 H   0  0  0  0  0  0  0  0  0  0  0  0  # atno 10718 bound_to 10713
  154.6244  135.2879  155.0289 H   0  0  0  0  0  0  0  0  0  0  0  0  # atno 10763 bound_to 10752
  154.1472  135.6509  153.4959 H   0  0  0  0  0  0  0  0  0  0  0  0  # atno 10764 bound_to 10752
  153.0250  135.5347  154.7046 H   0  0  0  0  0  0  0  0  0  0  0  0  # atno 10765 bound_to 10752
  140.8435  134.2373  157.4798 H   0  0  0  0  0  0  0  0  0  0  0  0  # atno 11005 bound_to 11000
  145.7675  139.1846  143.2231 LP  0  0  0  0  0  0  0  0  0  0  0  0  # atno 17320 bound_to 7965
  146.0937  140.7626  142.9583 LP  0  0  0  0  0  0  0  0  0  0  0  0  # atno 17321 bound_to 7965
  140.7387  143.2781  151.3680 LP  0  0  0  0  0  0  0  0  0  0  0  0  # atno 17342 bound_to 10162
  139.6214  144.0899  152.2395 LP  0  0  0  0  0  0  0  0  0  0  0  0  # atno 17343 bound_to 10162
  155.9975  130.3899  150.2736 LP  0  0  0  0  0  0  0  0  0  0  0  0  # atno 17370 bound_to 10713
  157.0906  131.0168  151.3123 LP  0  0  0  0  0  0  0  0  0  0  0  0  # atno 17371 bound_to 10713
  139.8703  134.9647  156.4505 LP  0  0  0  0  0  0  0  0  0  0  0  0  # atno 17394 bound_to 11000
  140.8869  133.7876  155.9528 LP  0  0  0  0  0  0  0  0  0  0  0  0  # atno 17395 bound_to 11000

$$$$
