#       Name:                AV-unprocessed.smi:2340
#       Creating user name   scv26
#       Creation time:       Fri Mar 27 12:56:33 2020


#       File generated by GOLD software.
#

@<TRIPOS>MOLECULE
AV-unprocessed.smi:2340
    45    46     1
SMALL
NO_CHARGES


@<TRIPOS>ATOM
      1 ****        -4.6467  -0.8709  -1.8035 C.3            1 S1                 0.0000
      2 ****        -3.7922   0.3448  -1.6283 C.2            1 S1                 0.0000
      3 ****        -3.3273   1.1769  -2.6156 C.2            1 S1                 0.0000
      4 ****        -2.3549   2.4699  -1.9705 S.3            1 S1                 0.0000
      5 ****        -2.6289   1.8291  -0.3523 C.2            1 S1                 0.0000
      6 ****        -2.0402   2.4314   0.8886 C.3            1 S1                 0.0000
      7 ****        -2.5240   3.8715   1.1106 C.3            1 S1                 0.0000
      8 ****        -0.5041   2.3169   0.9292 C.3            1 S1                 0.0000
      9 ****        -0.0681   0.9414   0.7184 N.am           1 S1                 0.0000
     10 ****         1.1803   0.5761   0.4049 C.2            1 S1                 0.0000
     11 ****         2.1190   1.3627   0.2800 O.2            1 S1                 0.0000
     12 ****         1.2797  -0.7496   0.2423 N.am           1 S1                 0.0000
     13 ****         2.5058  -1.4644  -0.0963 C.3            1 S1                 0.0000
     14 ****         2.2117  -2.7574  -0.8286 C.3            1 S1                 0.0000
     15 ****         3.4684  -3.5722  -0.5457 C.3            1 S1                 0.0000
     16 ****         3.9139  -3.1656   0.7438 O.3            1 S1                 0.0000
     17 ****         3.2421  -1.9756   1.1496 C.3            1 S1                 0.0000
     18 ****         4.2458  -0.9805   1.7448 C.3            1 S1                 0.0000
     19 ****        -3.3869   0.7286  -0.3469 N.2            1 S1                 0.0000
     20 ****        -4.8214  -1.0870  -2.8578 H              1 S1                 0.0000
     21 ****        -5.6190  -0.7399  -1.3282 H              1 S1                 0.0000
     22 ****        -4.1769  -1.7497  -1.3614 H              1 S1                 0.0000
     23 ****        -3.4941   1.1065  -3.6804 H              1 S1                 0.0000
     24 ****        -2.4191   1.8473   1.7292 H              1 S1                 0.0000
     25 ****        -3.6127   3.9161   1.1558 H              1 S1                 0.0000
     26 ****        -2.1965   4.5307   0.3062 H              1 S1                 0.0000
     27 ****        -2.1375   4.2743   2.0471 H              1 S1                 0.0000
     28 ****        -0.0697   2.9564   0.1585 H              1 S1                 0.0000
     29 ****        -0.1219   2.6705   1.8877 H              1 S1                 0.0000
     30 ****        -0.7721   0.2220   0.7990 H              1 S1                 0.0000
     31 ****         0.4476  -1.3076   0.3655 H              1 S1                 0.0000
     32 ****         3.1699  -0.8531  -0.7111 H              1 S1                 0.0000
     33 ****         1.3441  -3.2575  -0.3946 H              1 S1                 0.0000
     34 ****         2.0270  -2.6161  -1.8939 H              1 S1                 0.0000
     35 ****         3.2885  -4.6468  -0.5867 H              1 S1                 0.0000
     36 ****         4.2462  -3.3306  -1.2711 H              1 S1                 0.0000
     37 ****         2.5180  -2.2659   1.9128 H              1 S1                 0.0000
     38 ****         3.7464  -0.0734   2.0851 H              1 S1                 0.0000
     39 ****         4.9996  -0.6935   1.0112 H              1 S1                 0.0000
     40 ****         4.7616  -1.4145   2.6013 H              1 S1                 0.0000
     41 ****         1.9716   2.3425   0.4149 LP             1 S1                 0.0000
     42 ****         3.0289   1.0218   0.0437 LP             1 S1                 0.0000
     43 ****         4.8985  -2.9940   0.7132 LP             1 S1                 0.0000
     44 ****         3.7227  -3.8930   1.4029 LP             1 S1                 0.0000
     45 ****        -3.6373   0.2328   0.4847 LP             1 S1                 0.0000
@<TRIPOS>BOND
    1    1    2 1     
    2    1   20 1     
    3    1   21 1     
    4    1   22 1     
    5    2   19 1     
    6    2    3 2     
    7    3    4 1     
    8    3   23 1     
    9    4    5 1     
   10    5    6 1     
   11    5   19 2     
   12    6    7 1     
   13    6    8 1     
   14    6   24 1     
   15    7   25 1     
   16    7   26 1     
   17    7   27 1     
   18    8    9 1     
   19    8   28 1     
   20    8   29 1     
   21    9   10 am    
   22    9   30 1     
   23   10   11 2     
   24   10   12 am    
   25   12   13 1     
   26   12   31 1     
   27   13   17 1     
   28   13   14 1     
   29   13   32 1     
   30   14   15 1     
   31   14   33 1     
   32   14   34 1     
   33   15   16 1     
   34   15   35 1     
   35   15   36 1     
   36   16   17 1     
   37   17   18 1     
   38   17   37 1     
   39   18   38 1     
   40   18   39 1     
   41   18   40 1     
   42   11   41 1     
   43   11   42 1     
   44   16   43 1     
   45   16   44 1     
   46   19   45 1     
@<TRIPOS>SUBSTRUCTURE
      1 S1             1
@<TRIPOS>SET
LONE_PAIRS      STATIC     ATOMS    <user>   **** ""
5 41 42 43 44 45
DONOR_HYDROGENS      STATIC     ATOMS    <user>   **** ""
2 30 31
ATOM$BLUE        STATIC     ATOMS    COLORGROUP SYSTEM
5 41 42 43 44 45
ATOM$RED        STATIC     ATOMS    COLORGROUP SYSTEM
2 30 31
