AV-unprocessed.smi:287|AV-procd|sdf|2192|dock4
  -GOLD-   2262021583D 1   1.00000     0.00000
 Structure written by MMmdl.
 55 58  0  0  0  0  0  0  0  0  1 V2000
  150.9961  142.8714  158.4826 C   0  0  0  0  0  0  0  0  0  0  0  0
  150.4811  141.7266  157.6794 C   0  0  0  0  0  0  0  0  0  0  0  0
  150.7054  141.2895  156.4067 C   0  0  0  0  0  0  0  0  0  0  0  0
  149.9165  140.1161  156.2135 C   0  0  0  0  0  0  0  0  0  0  0  0
  149.8487  139.2822  154.9410 C   0  0  2  0  0  0  0  0  0  0  0  0
  151.2406  138.7156  154.6161 C   0  0  0  0  0  0  0  0  0  0  0  0
  149.4771  140.0406  153.8064 O   0  0  0  0  0  0  0  0  0  0  0  0
  148.8166  138.1358  155.0413 C   0  0  0  0  0  0  0  0  0  0  0  0
  149.2940  137.0131  155.8422 N   0  0  0  0  0  0  0  0  0  0  0  0
  149.0254  135.7465  155.4641 C   0  0  0  0  0  0  0  0  0  0  0  0
  149.8927  134.7364  155.7341 N   0  0  0  0  0  0  0  0  0  0  0  0
  149.6012  133.4890  155.3540 C   0  0  0  0  0  0  0  0  0  0  0  0
  148.5211  133.0449  154.7084 N   0  0  0  0  0  0  0  0  0  0  0  0
  147.6474  134.0571  154.4335 C   0  0  0  0  0  0  0  0  0  0  0  0
  147.8271  135.4257  154.7763 C   0  0  0  0  0  0  0  0  0  0  0  0
  146.7361  136.1679  154.3429 N   0  0  0  0  0  0  0  0  0  0  0  0
  145.9573  135.2841  153.7791 C   0  0  0  0  0  0  0  0  0  0  0  0
  146.4256  133.9891  153.7928 N   0  0  0  0  0  0  0  0  0  0  0  0
  145.7535  132.7730  153.2374 C   0  0  1  0  0  0  0  0  0  0  0  0
  144.6266  133.1546  152.5194 O   0  0  0  0  0  0  0  0  0  0  0  0
  144.3566  132.1795  151.5179 C   0  0  1  0  0  0  0  0  0  0  0  0
  143.8891  132.8876  150.2330 C   0  0  0  0  0  0  0  0  0  0  0  0
  142.9620  132.1086  149.5053 O   0  0  0  0  0  0  0  0  0  0  0  0
  145.6158  131.2959  151.3822 C   0  0  2  0  0  0  0  0  0  0  0  0
  145.3329  129.9980  151.8707 O   0  0  0  0  0  0  0  0  0  0  0  0
  146.6464  131.9723  152.2791 C   0  0  1  0  0  0  0  0  0  0  0  0
  147.5295  132.7794  151.5221 O   0  0  0  0  0  0  0  0  0  0  0  0
  149.2515  139.9416  157.4035 C   0  0  0  0  0  0  0  0  0  0  0  0
  148.2616  138.9408  157.9016 C   0  0  0  0  0  0  0  0  0  0  0  0
  149.5920  140.9104  158.2986 O   0  0  0  0  0  0  0  0  0  0  0  0
  145.4463  132.1920  154.1081 H   0  0  0  0  0  0  0  0  0  0  0  0
  143.5214  131.5839  151.8905 H   0  0  0  0  0  0  0  0  0  0  0  0
  145.9628  131.1971  150.3527 H   0  0  0  0  0  0  0  0  0  0  0  0
  147.2481  131.2625  152.8487 H   0  0  0  0  0  0  0  0  0  0  0  0
  151.7696  143.4126  157.9374 H   0  0  0  0  0  0  0  0  0  0  0  0
  151.4262  142.5228  159.4216 H   0  0  0  0  0  0  0  0  0  0  0  0
  150.1937  143.5714  158.7157 H   0  0  0  0  0  0  0  0  0  0  0  0
  151.3684  141.7554  155.6927 H   0  0  0  0  0  0  0  0  0  0  0  0
  151.6056  138.0781  155.4221 H   0  0  0  0  0  0  0  0  0  0  0  0
  151.9700  139.5142  154.4742 H   0  0  0  0  0  0  0  0  0  0  0  0
  151.2261  138.1155  153.7055 H   0  0  0  0  0  0  0  0  0  0  0  0
  149.3671  139.4519  153.0754 H   0  0  0  0  0  0  0  0  0  0  0  0
  147.8631  138.4999  155.4272 H   0  0  0  0  0  0  0  0  0  0  0  0
  148.6219  137.7558  154.0372 H   0  0  0  0  0  0  0  0  0  0  0  0
  149.8762  137.2485  156.6336 H   0  0  0  0  0  0  0  0  0  0  0  0
  150.3371  132.7390  155.6035 H   0  0  0  0  0  0  0  0  0  0  0  0
  145.0091  135.5544  153.3378 H   0  0  0  0  0  0  0  0  0  0  0  0
  143.4034  133.8293  150.4894 H   0  0  0  0  0  0  0  0  0  0  0  0
  144.7404  133.1303  149.5966 H   0  0  0  0  0  0  0  0  0  0  0  0
  142.1837  132.6241  149.3593 H   0  0  0  0  0  0  0  0  0  0  0  0
  144.4013  129.8513  151.8135 H   0  0  0  0  0  0  0  0  0  0  0  0
  148.1621  132.2175  151.1011 H   0  0  0  0  0  0  0  0  0  0  0  0
  147.4176  138.8581  157.2165 H   0  0  0  0  0  0  0  0  0  0  0  0
  147.8716  139.2237  158.8797 H   0  0  0  0  0  0  0  0  0  0  0  0
  148.7212  137.9568  157.9950 H   0  0  0  0  0  0  0  0  0  0  0  0
  1  2  1  0  0  0  0
  1 35  1  0  0  0  0
  1 36  1  0  0  0  0
  1 37  1  0  0  0  0
  2 30  1  0  0  0  0
  2  3  2  0  0  0  0
  3  4  1  0  0  0  0
  3 38  1  0  0  0  0
  4  5  1  0  0  0  0
  4 28  2  0  0  0  0
  5  6  1  0  0  0  0
  5  7  1  0  0  0  0
  5  8  1  0  0  0  0
  6 39  1  0  0  0  0
  6 40  1  0  0  0  0
  6 41  1  0  0  0  0
  7 42  1  0  0  0  0
  8  9  1  0  0  0  0
  8 43  1  0  0  0  0
  8 44  1  0  0  0  0
  9 10  1  0  0  0  0
  9 45  1  0  0  0  0
 10 15  1  0  0  0  0
 10 11  2  0  0  0  0
 11 12  1  0  0  0  0
 12 13  2  0  0  0  0
 12 46  1  0  0  0  0
 13 14  1  0  0  0  0
 14 18  1  0  0  0  0
 14 15  2  0  0  0  0
 15 16  1  0  0  0  0
 16 17  2  0  0  0  0
 17 18  1  0  0  0  0
 17 47  1  0  0  0  0
 18 19  1  0  0  0  0
 19 31  1  0  0  0  0
 19 26  1  0  0  0  0
 19 20  1  0  0  0  0
 20 21  1  0  0  0  0
 21 32  1  0  0  0  0
 21 22  1  0  0  0  0
 21 24  1  0  0  0  0
 22 23  1  0  0  0  0
 22 48  1  0  0  0  0
 22 49  1  0  0  0  0
 23 50  1  0  0  0  0
 24 33  1  0  0  0  0
 24 25  1  0  0  0  0
 24 26  1  0  0  0  0
 25 51  1  0  0  0  0
 26 34  1  0  0  0  0
 26 27  1  0  0  0  0
 27 52  1  0  0  0  0
 28 29  1  0  0  0  0
 28 30  1  0  0  0  0
 29 53  1  0  0  0  0
 29 54  1  0  0  0  0
 29 55  1  0  0  0  0
M  END
> <s_m_source_file>
AV-unprocessed.smi

> <i_m_source_file_index>
287

> <i_lp_mmshare_version>
43012

> <i_f3d_flags>
0

> <s_epik_input>
W0NIM11jMVtjSF1jKGMobzEpW0NIM10pW0NAQF0oW0NIM10pKFtPSF0pW0NIMl1bTkhdYyhuW2NIXW4yKWMoYzIzKW5bY0hdbjNbQ0BASF00T1tDQEhdKFtDSDJdW09IXSlbQ0BASF0oW09IXSlbQ0BIXTRbT0hd

> <s_epik_cmdline>
J2VwaWtfcHl0aG9uJywgJy1waCcsICc3LjAnLCAnLXRuJywgJzgnLCAnLW1hJywgJzIwMCcsICctbWV0YWxfYmluZGluZycsICctaW1hZScsICc8aW5maWxlLm1hZT4nLCAnLW9tYWUnLCAnPG91dGZpbGUubWFlPic=

> <r_lp_tautomer_probability>
1

> <r_epik_Ionization_Penalty>
0.000992612

> <r_epik_Ionization_Penalty_Charging>
0

> <r_epik_Ionization_Penalty_Neutral>
0.000992612

> <r_epik_State_Penalty>
-0

> <r_epik_Charging_Adjusted_Penalty>
0

> <i_epik_Tot_Q>
0

> <i_epik_Tot_abs_Q>
0

> <r_epik_Metal_State_Penalty>
-0

> <b_epik_Metal_Only>
0

> <s_epik_Chemistry_Notes>
This compound contains an acetal/aminal-like group ( X-CH(R)-Y where X, Y are N, S, or O) that may be acid/base labile, releasing an aldehyde.

> <s_lp_Force_Field>
OPLS_2005

> <r_lp_Energy>
44.6889

> <b_lp_Chiralities_Consistent>
1

> <s_lp_Variant>
AV-unprocessed.smi:287-16

> <Gold.Version>
5.8.1

> <Gold.Id.Protein>
6NUR|6NUR_protein|mol2

> <Gold.PLP.Fitness>
49.8313

> <Gold.PLP.PLP>
-41.0305

> <Gold.PLP.part.hbond>
-5.4580

> <Gold.PLP.part.metal>
0.0000

> <Gold.PLP.part.buried>
-8.1781

> <Gold.PLP.part.nonpolar>
-28.3549

> <Gold.PLP.part.repulsive>
0.6990

> <Gold.PLP.ligand.clash>
0.0000

> <Gold.PLP.ligand.torsion>
1.0982

> <Gold.PLP.Chemscore.Hbond>
3.6305

> <Gold.PLP.Chemscore.CHOScore>
0.0000

> <Gold.PLP.Chemscore.Metal>
0.0000

> <Gold.Chemscore.Hbonds>
donor molecule, donor type, donor heavy atom, donor atom, acceptor molecule, acceptor atom, score
      L1  H     7    42       P1  7957  0.46
      L1  H    23    50       P1 10186  0.71
      L1  H    27    52       P1 10747  1.00
      P1  H  7989  7998       L1     7  0.15
      P1  H 10785 10796       L1    23  0.76

> <Gold.PLP.Chemscore.Internal.Correction>
0.1057

> <Gold.Rescore>
     Score         DG    S(hbond)    S(metal)    S(lipo)     H(rot)  DE(clash)    DE(int)     intcor
      8.18     -11.67       3.10        0.00      79.73       5.27       0.05       3.44       ----

> <Gold.Chemscore.Fitness>
8.1785

> <Gold.Chemscore.DG>
-11.6689

> <Gold.Chemscore.ZeroCoef>
-5.4800

> <Gold.Chemscore.Hbond>
3.0971

> <Gold.Chemscore.Metal>
0.0000

> <Gold.Chemscore.Lipo>
79.7298

> <Gold.Chemscore.Internal_Hbond>
0.0000

> <Gold.Chemscore.DEClash>
0.0547

> <Gold.Chemscore.DEInternal>
3.4357

> <Gold.Chemscore.Rot>
5.2672

> <Gold.Chemscore.Internal.Correction>
   9.000000E+99

> <Gold.Chemscore.Hbonds>
donor molecule, donor type, donor heavy atom, donor atom, acceptor molecule, acceptor atom, score
      L1  H     7    42       P1  7957  0.43
      L1  H    23    50       P1 10186  0.69
      L1  H    27    52       P1 10747  1.00
      P1  H  7989  7998       L1     7  0.01
      P1  H 10785 10796       L1    23  0.76

> <Gold.Chemscore.Hbond.Weighted>
-10.3445

> <Gold.Chemscore.Metal.Weighted>
-0.0000

> <Gold.Chemscore.Lipo.Weighted>
-9.3284

> <Gold.Chemscore.Internal_Hbond.Weighted>
0.0000

> <Gold.Chemscore.DEClash.Weighted>
0.0547

> <Gold.Chemscore.DEInternal.Weighted>
3.4357

> <Gold.Chemscore.Rot.Weighted>
13.4839

> <Gold.Chemscore.Internal.Correction.Weighted>
   9.000000E+99

> <Gold.Protein.RotatedTorsions>
[ 6907 6896 6895 6894 ] final -133.91 input  -60.11 | X-H torsion
[ 7974 7965 7964 7962 ] final -147.30 input  175.53 | X-H torsion
[ 8008 7997 7996 7995 ] final -120.28 input   59.86 | X-H torsion
[ 10167 10162 10161 10158 ] final  -53.79 input  -65.29 | X-H torsion
[ 10718 10713 10712 10709 ] final  -82.04 input   66.30 | X-H torsion
[ 10763 10752 10751 10750 ] final  -55.55 input  -60.55 | X-H torsion
[ 11005 11000 10999 10996 ] final   73.75 input  -57.11 | X-H torsion

> <Gold.Protein.ActiveResidues>
 VAL166  LYS551  ARG553  GLY616  TRP617  ASP618  TYR619  PRO620  LYS621  CYS622 
 ASP623  PHE694  ASN695  SER759  ASP760  ASP761  ALA762  ILE779  LEU786  VAL792 
 PHE793  MET794  SER795  GLU796  ALA797  LYS798  CYS799  TRP800  GLU811  SER814 

> <Gold.Protein.RotatedAtoms>
  150.9795  133.6260  159.2724 H   0  0  0  0  0  0  0  0  0  0  0  0  # atno 6907 bound_to 6896
  151.3520  135.0885  159.9416 H   0  0  0  0  0  0  0  0  0  0  0  0  # atno 6908 bound_to 6896
  152.5211  133.9386  159.7670 H   0  0  0  0  0  0  0  0  0  0  0  0  # atno 6909 bound_to 6896
  144.8102  140.5344  143.5647 H   0  0  0  0  0  0  0  0  0  0  0  0  # atno 7974 bound_to 7965
  155.1293  140.0400  157.2770 H   0  0  0  0  0  0  0  0  0  0  0  0  # atno 8008 bound_to 7997
  154.6555  140.2579  155.7140 H   0  0  0  0  0  0  0  0  0  0  0  0  # atno 8009 bound_to 7997
  156.2596  140.2827  156.1006 H   0  0  0  0  0  0  0  0  0  0  0  0  # atno 8010 bound_to 7997
  140.6465  143.2539  151.4844 H   0  0  0  0  0  0  0  0  0  0  0  0  # atno 10167 bound_to 10162
  156.0040  130.4622  150.4044 H   0  0  0  0  0  0  0  0  0  0  0  0  # atno 10718 bound_to 10713
  154.1926  135.6425  153.5064 H   0  0  0  0  0  0  0  0  0  0  0  0  # atno 10763 bound_to 10752
  153.0031  135.5432  154.6399 H   0  0  0  0  0  0  0  0  0  0  0  0  # atno 10764 bound_to 10752
  154.5792  135.2923  155.0723 H   0  0  0  0  0  0  0  0  0  0  0  0  # atno 10765 bound_to 10752
  139.9424  134.7374  156.1064 H   0  0  0  0  0  0  0  0  0  0  0  0  # atno 11005 bound_to 11000
  145.5342  139.1475  143.3483 LP  0  0  0  0  0  0  0  0  0  0  0  0  # atno 17320 bound_to 7965
  146.2400  140.5482  142.8938 LP  0  0  0  0  0  0  0  0  0  0  0  0  # atno 17321 bound_to 7965
  139.5676  144.2004  152.1789 LP  0  0  0  0  0  0  0  0  0  0  0  0  # atno 17342 bound_to 10162
  140.1290  144.5305  150.6814 LP  0  0  0  0  0  0  0  0  0  0  0  0  # atno 17343 bound_to 10162
  157.2111  131.0460  151.2598 LP  0  0  0  0  0  0  0  0  0  0  0  0  # atno 17370 bound_to 10713
  157.3887  130.7270  149.6682 LP  0  0  0  0  0  0  0  0  0  0  0  0  # atno 17371 bound_to 10713
  141.1064  133.6658  156.2873 LP  0  0  0  0  0  0  0  0  0  0  0  0  # atno 17394 bound_to 11000
  140.5918  134.5643  157.5501 LP  0  0  0  0  0  0  0  0  0  0  0  0  # atno 17395 bound_to 11000

$$$$
