AV-unprocessed.smi:1047|AV-procd|sdf|4598|dock5
  -GOLD-   22720 3 83D 1   1.00000     0.00000
 Structure written by MMmdl.
 57 59  0  0  0  0  0  0  0  0  3 V2000
  147.8382  132.1581  160.7763 C   0  0  0  0  0  0  0  0  0  0  0  0
  147.5581  133.3193  161.7409 C   0  0  0  0  0  0  0  0  0  0  0  0
  146.6753  134.3567  161.1441 N   0  3  1  0  0  0  0  0  0  0  0  0
  146.1503  135.3269  162.1357 C   0  0  0  0  0  0  0  0  0  0  0  0
  147.2165  136.3723  162.5094 C   0  0  0  0  0  0  0  0  0  0  0  0
  147.6707  137.0267  161.3308 O   0  0  0  0  0  0  0  0  0  0  0  0
  148.2909  136.1329  160.4123 C   0  0  2  0  0  0  0  0  0  0  0  0
  148.8109  136.9683  159.2318 C   0  0  0  0  0  0  0  0  0  0  0  0
  150.2596  137.1415  159.2970 N   0  0  0  0  0  0  0  0  0  0  0  0
  150.7367  138.3131  158.5673 C   0  0  0  0  0  0  0  0  0  0  0  0
  150.8943  138.0111  157.0674 C   0  0  2  0  0  0  0  0  0  0  0  0
  151.4980  136.7394  156.9349 O   0  0  0  0  0  0  0  0  0  0  0  0
  151.7688  139.0677  156.3626 C   0  0  0  0  0  0  0  0  0  0  0  0
  151.2045  140.4237  156.4359 N   0  0  0  0  0  0  0  0  0  0  0  0
  150.3588  141.0592  155.5801 C   0  0  0  0  0  0  0  0  0  0  0  0
  150.1218  142.3020  156.0831 N   0  3  0  0  0  0  0  0  0  0  0  0
  150.8272  142.4641  157.2773 C   0  0  0  0  0  0  0  0  0  0  0  0
  150.9061  143.5448  158.1477 C   0  0  0  0  0  0  0  0  0  0  0  0
  151.7243  143.3948  159.2900 C   0  0  0  0  0  0  0  0  0  0  0  0
  151.8349  144.5582  160.2609 C   0  0  0  0  0  0  0  0  0  0  0  0
  152.4307  142.1875  159.5282 C   0  0  0  0  0  0  0  0  0  0  0  0
  153.3122  142.0387  160.7566 C   0  0  0  0  0  0  0  0  0  0  0  0
  152.3353  141.0991  158.6317 C   0  0  0  0  0  0  0  0  0  0  0  0
  151.5246  141.2627  157.5106 C   0  0  0  0  0  0  0  0  0  0  0  0
  147.2523  135.0729  159.9771 C   0  0  0  0  0  0  0  0  0  0  0  0
  148.4006  131.3714  161.2801 H   0  0  0  0  0  0  0  0  0  0  0  0
  148.4274  132.4720  159.9153 H   0  0  0  0  0  0  0  0  0  0  0  0
  146.9111  131.7159  160.4099 H   0  0  0  0  0  0  0  0  0  0  0  0
  147.0674  132.9034  162.6218 H   0  0  0  0  0  0  0  0  0  0  0  0
  148.4936  133.7547  162.0913 H   0  0  0  0  0  0  0  0  0  0  0  0
  145.2891  135.8331  161.6974 H   0  0  0  0  0  0  0  0  0  0  0  0
  145.7822  134.8119  163.0236 H   0  0  0  0  0  0  0  0  0  0  0  0
  146.7902  137.1168  163.1818 H   0  0  0  0  0  0  0  0  0  0  0  0
  148.0551  135.9149  163.0362 H   0  0  0  0  0  0  0  0  0  0  0  0
  149.1422  135.6618  160.9062 H   0  0  0  0  0  0  0  0  0  0  0  0
  148.5225  136.5024  158.2888 H   0  0  0  0  0  0  0  0  0  0  0  0
  148.3319  137.9480  159.2519 H   0  0  0  0  0  0  0  0  0  0  0  0
  150.7212  136.3097  158.9433 H   0  0  0  0  0  0  0  0  0  0  0  0
  150.0149  139.1215  158.6919 H   0  0  0  0  0  0  0  0  0  0  0  0
  151.6779  138.6745  158.9845 H   0  0  0  0  0  0  0  0  0  0  0  0
  149.9151  137.9866  156.5864 H   0  0  0  0  0  0  0  0  0  0  0  0
  152.4351  136.8569  156.8948 H   0  0  0  0  0  0  0  0  0  0  0  0
  152.7512  139.1076  156.8349 H   0  0  0  0  0  0  0  0  0  0  0  0
  151.9444  138.8065  155.3187 H   0  0  0  0  0  0  0  0  0  0  0  0
  149.9485  140.6508  154.6677 H   0  0  0  0  0  0  0  0  0  0  0  0
  150.3668  144.4615  157.9586 H   0  0  0  0  0  0  0  0  0  0  0  0
  152.8681  144.8984  160.3337 H   0  0  0  0  0  0  0  0  0  0  0  0
  151.4960  144.2627  161.2541 H   0  0  0  0  0  0  0  0  0  0  0  0
  151.2269  145.4050  159.9405 H   0  0  0  0  0  0  0  0  0  0  0  0
  153.7841  141.0562  160.7926 H   0  0  0  0  0  0  0  0  0  0  0  0
  152.7248  142.1594  161.6671 H   0  0  0  0  0  0  0  0  0  0  0  0
  154.1040  142.7881  160.7525 H   0  0  0  0  0  0  0  0  0  0  0  0
  152.8790  140.1831  158.8102 H   0  0  0  0  0  0  0  0  0  0  0  0
  147.6860  134.3714  159.2658 H   0  0  0  0  0  0  0  0  0  0  0  0
  146.4348  135.5662  159.4496 H   0  0  0  0  0  0  0  0  0  0  0  0
  145.8705  133.8505  160.8026 H   0  0  0  0  0  0  0  0  0  0  0  0
  149.5222  142.9873  155.6415 H   0  0  0  0  0  0  0  0  0  0  0  0
  1  2  1  0  0  0  0
  1 26  1  0  0  0  0
  1 27  1  0  0  0  0
  1 28  1  0  0  0  0
  2  3  1  0  0  0  0
  2 29  1  0  0  0  0
  2 30  1  0  0  0  0
  3 25  1  0  0  0  0
  3  4  1  0  0  0  0
  3 56  1  0  0  0  0
  4  5  1  0  0  0  0
  4 31  1  0  0  0  0
  4 32  1  0  0  0  0
  5  6  1  0  0  0  0
  5 33  1  0  0  0  0
  5 34  1  0  0  0  0
  6  7  1  0  0  0  0
  7  8  1  0  0  0  0
  7 25  1  0  0  0  0
  7 35  1  0  0  0  0
  8  9  1  0  0  0  0
  8 36  1  0  0  0  0
  8 37  1  0  0  0  0
  9 10  1  0  0  0  0
  9 38  1  0  0  0  0
 10 11  1  0  0  0  0
 10 39  1  0  0  0  0
 10 40  1  0  0  0  0
 11 12  1  0  0  0  0
 11 13  1  0  0  0  0
 11 41  1  0  0  0  0
 12 42  1  0  0  0  0
 13 14  1  0  0  0  0
 13 43  1  0  0  0  0
 13 44  1  0  0  0  0
 14 24  1  0  0  0  0
 14 15  1  0  0  0  0
 15 16  2  0  0  0  0
 15 45  1  0  0  0  0
 16 17  1  0  0  0  0
 16 57  1  0  0  0  0
 17 24  2  0  0  0  0
 17 18  1  0  0  0  0
 18 19  2  0  0  0  0
 18 46  1  0  0  0  0
 19 20  1  0  0  0  0
 19 21  1  0  0  0  0
 20 47  1  0  0  0  0
 20 48  1  0  0  0  0
 20 49  1  0  0  0  0
 21 22  1  0  0  0  0
 21 23  2  0  0  0  0
 22 50  1  0  0  0  0
 22 51  1  0  0  0  0
 22 52  1  0  0  0  0
 23 24  1  0  0  0  0
 23 53  1  0  0  0  0
 25 54  1  0  0  0  0
 25 55  1  0  0  0  0
M  CHG  1   3   1
M  CHG  1  16   1
M  END
> <s_m_source_file>
AV-unprocessed.smi

> <i_m_source_file_index>
1047

> <i_lp_mmshare_version>
43012

> <i_f3d_flags>
0

> <s_epik_input>
W0NIM11bQ0gyXU4xW0NIMl1bQ0gyXU9bQ0BIXShbQ0gyXTEpW0NIMl1bTkhdW0NIMl1bQ0BIXShbT0hdKVtDSDJdbihbY0hdbjIpYyhjMjMpW2NIXWMoW0NIM10pYyhbY0hdMylbQ0gzXQ==

> <s_epik_cmdline>
J2VwaWtfcHl0aG9uJywgJy1waCcsICc3LjAnLCAnLXRuJywgJzgnLCAnLW1hJywgJzIwMCcsICctbWV0YWxfYmluZGluZycsICctaW1hZScsICc8aW5maWxlLm1hZT4nLCAnLW9tYWUnLCAnPG91dGZpbGUubWFlPic=

> <r_epik_Ionization_Penalty>
2.03028

> <r_epik_Ionization_Penalty_Charging>
1.21256

> <r_epik_Ionization_Penalty_Neutral>
0.817715

> <r_epik_State_Penalty>
2.54959

> <r_epik_Charging_Adjusted_Penalty>
3.76215

> <i_epik_Tot_Q>
2

> <i_epik_Tot_abs_Q>
2

> <r_epik_Metal_State_Penalty>
6.52811

> <b_epik_Metal_Only>
0

> <s_lp_Force_Field>
OPLS_2005

> <r_lp_Energy>
38.5552

> <b_lp_Chiralities_Consistent>
1

> <s_lp_Variant>
AV-unprocessed.smi:1047-39

> <Gold.Version>
5.8.1

> <Gold.Id.Protein>
6NUR|6NUR_protein|mol2

> <Gold.PLP.Fitness>
62.9919

> <Gold.PLP.PLP>
-54.7707

> <Gold.PLP.part.hbond>
-3.0778

> <Gold.PLP.part.metal>
0.0000

> <Gold.PLP.part.buried>
-6.3312

> <Gold.PLP.part.nonpolar>
-44.0934

> <Gold.PLP.part.repulsive>
0.1331

> <Gold.PLP.ligand.clash>
0.0000

> <Gold.PLP.ligand.torsion>
1.4238

> <Gold.PLP.Chemscore.Hbond>
3.6661

> <Gold.PLP.Chemscore.CHOScore>
0.0000

> <Gold.PLP.Chemscore.Metal>
0.0000

> <Gold.Chemscore.Hbonds>
donor molecule, donor type, donor heavy atom, donor atom, acceptor molecule, acceptor atom, score
      L1  H    16    57       P1  8028  1.89
      P1  H  6931  6943       L1     6  1.00
      P1  H  6934  6947       L1     6  0.74

> <Gold.PLP.Chemscore.Internal.Correction>
0.0704

> <Gold.Rescore>
     Score         DG    S(hbond)    S(metal)    S(lipo)     H(rot)  DE(clash)    DE(int)     intcor
     20.22     -21.89       2.24        0.00     135.56       2.71       0.06       1.61       ----

> <Gold.Chemscore.Fitness>
20.2155

> <Gold.Chemscore.DG>
-21.8858

> <Gold.Chemscore.ZeroCoef>
-5.4800

> <Gold.Chemscore.Hbond>
2.2396

> <Gold.Chemscore.Metal>
0.0000

> <Gold.Chemscore.Lipo>
135.5564

> <Gold.Chemscore.Internal_Hbond>
0.0000

> <Gold.Chemscore.DEClash>
0.0580

> <Gold.Chemscore.DEInternal>
1.6123

> <Gold.Chemscore.Rot>
2.7088

> <Gold.Chemscore.Internal.Correction>
   9.000000E+99

> <Gold.Chemscore.Hbonds>
donor molecule, donor type, donor heavy atom, donor atom, acceptor molecule, acceptor atom, score
      L1  H    16    57       P1  8028  0.91
      P1  H  6931  6943       L1     6  0.32
      P1  H  6934  6947       L1     6  0.70

> <Gold.Chemscore.Hbond.Weighted>
-7.4803

> <Gold.Chemscore.Metal.Weighted>
-0.0000

> <Gold.Chemscore.Lipo.Weighted>
-15.8601

> <Gold.Chemscore.Internal_Hbond.Weighted>
0.0000

> <Gold.Chemscore.DEClash.Weighted>
0.0580

> <Gold.Chemscore.DEInternal.Weighted>
1.6123

> <Gold.Chemscore.Rot.Weighted>
6.9346

> <Gold.Chemscore.Internal.Correction.Weighted>
   9.000000E+99

> <Gold.Protein.RotatedTorsions>
[ 6907 6896 6895 6894 ] final -142.53 input  -60.11 | X-H torsion
[ 7974 7965 7964 7962 ] final -102.58 input  175.53 | X-H torsion
[ 8008 7997 7996 7995 ] final  -71.29 input   59.86 | X-H torsion
[ 10167 10162 10161 10158 ] final  -36.09 input  -65.29 | X-H torsion
[ 10718 10713 10712 10709 ] final   62.74 input   66.30 | X-H torsion
[ 10763 10752 10751 10750 ] final   68.32 input  -60.55 | X-H torsion
[ 11005 11000 10999 10996 ] final  179.08 input  -57.11 | X-H torsion

> <Gold.Protein.ActiveResidues>
 VAL166  LYS551  ARG553  GLY616  TRP617  ASP618  TYR619  PRO620  LYS621  CYS622 
 ASP623  PHE694  ASN695  SER759  ASP760  ASP761  ALA762  ILE779  LEU786  VAL792 
 PHE793  MET794  SER795  GLU796  ALA797  LYS798  CYS799  TRP800  GLU811  SER814 

> <Gold.Protein.RotatedAtoms>
  151.0883  133.5335  159.2616 H   0  0  0  0  0  0  0  0  0  0  0  0  # atno 6907 bound_to 6896
  151.2212  135.0519  159.8960 H   0  0  0  0  0  0  0  0  0  0  0  0  # atno 6908 bound_to 6896
  152.5431  134.0685  159.8237 H   0  0  0  0  0  0  0  0  0  0  0  0  # atno 6909 bound_to 6896
  145.2669  140.9287  143.3008 H   0  0  0  0  0  0  0  0  0  0  0  0  # atno 7974 bound_to 7965
  154.5076  140.0818  156.7926 H   0  0  0  0  0  0  0  0  0  0  0  0  # atno 8008 bound_to 7997
  155.3857  140.3430  155.4230 H   0  0  0  0  0  0  0  0  0  0  0  0  # atno 8009 bound_to 7997
  156.1535  140.1566  156.8719 H   0  0  0  0  0  0  0  0  0  0  0  0  # atno 8010 bound_to 7997
  140.7150  143.3432  151.2312 H   0  0  0  0  0  0  0  0  0  0  0  0  # atno 10167 bound_to 10162
  157.5922  130.9067  149.9626 H   0  0  0  0  0  0  0  0  0  0  0  0  # atno 10718 bound_to 10713
  153.0230  135.5251  154.7117 H   0  0  0  0  0  0  0  0  0  0  0  0  # atno 10763 bound_to 10752
  154.6197  135.2887  155.0342 H   0  0  0  0  0  0  0  0  0  0  0  0  # atno 10764 bound_to 10752
  154.1333  135.6589  153.4979 H   0  0  0  0  0  0  0  0  0  0  0  0  # atno 10765 bound_to 10752
  140.4022  134.6767  157.4568 H   0  0  0  0  0  0  0  0  0  0  0  0  # atno 11005 bound_to 11000
  144.9369  139.4234  143.6468 LP  0  0  0  0  0  0  0  0  0  0  0  0  # atno 17320 bound_to 7965
  146.3258  139.8309  142.8908 LP  0  0  0  0  0  0  0  0  0  0  0  0  # atno 17321 bound_to 7965
  139.6945  143.9636  152.2876 LP  0  0  0  0  0  0  0  0  0  0  0  0  # atno 17342 bound_to 10162
  139.9308  144.6742  150.8364 LP  0  0  0  0  0  0  0  0  0  0  0  0  # atno 17343 bound_to 10162
  156.0979  130.3658  150.0273 LP  0  0  0  0  0  0  0  0  0  0  0  0  # atno 17370 bound_to 10713
  156.8393  130.9420  151.3633 LP  0  0  0  0  0  0  0  0  0  0  0  0  # atno 17371 bound_to 10713
  140.0328  134.6381  155.9083 LP  0  0  0  0  0  0  0  0  0  0  0  0  # atno 17394 bound_to 11000
  141.1852  133.6554  156.5190 LP  0  0  0  0  0  0  0  0  0  0  0  0  # atno 17395 bound_to 11000

$$$$
