AV-unprocessed.smi:3263|AV-procd|sdf|12488|dock1
  -GOLD-   2272018383D 1   1.00000     0.00000
 Structure written by MMmdl.
 41 43  0  0  0  0  0  0  0  0  1 V2000
  150.4322  141.4495  158.4249 O   0  0  0  0  0  0  0  0  0  0  0  0
  150.7288  142.0294  157.3802 C   0  0  0  0  0  0  0  0  0  0  0  0
  150.8551  141.2474  156.0684 C   0  0  0  0  0  0  0  0  0  0  0  0
  150.5575  139.7387  156.2222 C   0  0  2  0  0  0  0  0  0  0  0  0
  151.4995  139.0021  157.2058 C   0  0  0  0  0  0  0  0  0  0  0  0
  152.0669  137.8534  156.3528 C   0  0  1  0  0  0  0  0  0  0  0  0
  150.9541  136.8306  156.0578 C   0  0  0  0  0  0  0  0  0  0  0  0
  150.0720  137.5748  155.0377 C   0  0  0  0  0  0  0  0  0  0  0  0
  150.7740  138.9411  154.9152 C   0  0  2  0  0  0  0  0  0  0  0  0
  152.2419  138.5327  155.0011 C   0  0  0  0  0  0  0  0  0  0  0  0
  150.9537  143.3503  157.3097 N   0  0  0  0  0  0  0  0  0  0  0  0
  150.8909  144.2720  158.4377 C   0  0  0  0  0  0  0  0  0  0  0  0
  152.2917  144.5946  158.9835 C   0  0  0  0  0  0  0  0  0  0  0  0
  152.7257  143.6173  160.0593 C   0  0  0  0  0  0  0  0  0  0  0  0
  152.3274  143.7984  161.4011 C   0  0  0  0  0  0  0  0  0  0  0  0
  152.7512  142.8573  162.3593 C   0  0  0  0  0  0  0  0  0  0  0  0
  153.5510  141.7763  161.9412 C   0  0  0  0  0  0  0  0  0  0  0  0
  153.8939  141.6848  160.5775 C   0  0  0  0  0  0  0  0  0  0  0  0
  153.4937  142.5818  159.6507 N   0  0  0  0  0  0  0  0  0  0  0  0
  150.1573  141.6845  155.3536 H   0  0  0  0  0  0  0  0  0  0  0  0
  151.8519  141.3937  155.6503 H   0  0  0  0  0  0  0  0  0  0  0  0
  149.5209  139.6236  156.5440 H   0  0  0  0  0  0  0  0  0  0  0  0
  152.3094  139.6499  157.5441 H   0  0  0  0  0  0  0  0  0  0  0  0
  150.9739  138.6423  158.0910 H   0  0  0  0  0  0  0  0  0  0  0  0
  152.9726  137.4086  156.7661 H   0  0  0  0  0  0  0  0  0  0  0  0
  151.3658  135.9216  155.6174 H   0  0  0  0  0  0  0  0  0  0  0  0
  150.4039  136.5491  156.9565 H   0  0  0  0  0  0  0  0  0  0  0  0
  150.0731  137.0531  154.0798 H   0  0  0  0  0  0  0  0  0  0  0  0
  149.0357  137.6627  155.3663 H   0  0  0  0  0  0  0  0  0  0  0  0
  150.4995  139.4862  154.0116 H   0  0  0  0  0  0  0  0  0  0  0  0
  152.9324  139.3769  155.0267 H   0  0  0  0  0  0  0  0  0  0  0  0
  152.5479  137.8471  154.2089 H   0  0  0  0  0  0  0  0  0  0  0  0
  151.1895  143.7452  156.4109 H   0  0  0  0  0  0  0  0  0  0  0  0
  150.3736  145.1878  158.1460 H   0  0  0  0  0  0  0  0  0  0  0  0
  150.2850  143.8084  159.2166 H   0  0  0  0  0  0  0  0  0  0  0  0
  153.0226  144.5759  158.1737 H   0  0  0  0  0  0  0  0  0  0  0  0
  152.3139  145.6059  159.3922 H   0  0  0  0  0  0  0  0  0  0  0  0
  151.7105  144.6365  161.6907 H   0  0  0  0  0  0  0  0  0  0  0  0
  152.4670  142.9626  163.3961 H   0  0  0  0  0  0  0  0  0  0  0  0
  153.8931  141.0352  162.6483 H   0  0  0  0  0  0  0  0  0  0  0  0
  154.5055  140.8689  160.2214 H   0  0  0  0  0  0  0  0  0  0  0  0
  1  2  2  0  0  0  0
  2  3  1  0  0  0  0
  2 11  1  0  0  0  0
  3  4  1  0  0  0  0
  3 20  1  0  0  0  0
  3 21  1  0  0  0  0
  4  9  1  0  0  0  0
  4  5  1  0  0  0  0
  4 22  1  0  0  0  0
  5  6  1  0  0  0  0
  5 23  1  0  0  0  0
  5 24  1  0  0  0  0
  6 10  1  0  0  0  0
  6  7  1  0  0  0  0
  6 25  1  0  0  0  0
  7  8  1  0  0  0  0
  7 26  1  0  0  0  0
  7 27  1  0  0  0  0
  8  9  1  0  0  0  0
  8 28  1  0  0  0  0
  8 29  1  0  0  0  0
  9 10  1  0  0  0  0
  9 30  1  0  0  0  0
 10 31  1  0  0  0  0
 10 32  1  0  0  0  0
 11 12  1  0  0  0  0
 11 33  1  0  0  0  0
 12 13  1  0  0  0  0
 12 34  1  0  0  0  0
 12 35  1  0  0  0  0
 13 14  1  0  0  0  0
 13 36  1  0  0  0  0
 13 37  1  0  0  0  0
 14 19  1  0  0  0  0
 14 15  2  0  0  0  0
 15 16  1  0  0  0  0
 15 38  1  0  0  0  0
 16 17  2  0  0  0  0
 16 39  1  0  0  0  0
 17 18  1  0  0  0  0
 17 40  1  0  0  0  0
 18 19  2  0  0  0  0
 18 41  1  0  0  0  0
M  END
> <s_m_source_file>
AV-unprocessed.smi

> <i_m_source_file_index>
3263

> <i_lp_mmshare_version>
43012

> <i_f3d_flags>
0

> <s_epik_input>
W0NIMl0xW0NIMl1bQ0BASF0oW0NIMl0yKVtDQEBIXShbQ0gyXVtDQEhdMTIpW0NIMl1DKD1PKVtOSF1bQ0gyXVtDSDJdYzNbY0hdW2NIXVtjSF1bY0hdbjM=

> <s_epik_cmdline>
J2VwaWtfcHl0aG9uJywgJy1waCcsICc3LjAnLCAnLXRuJywgJzgnLCAnLW1hJywgJzIwMCcsICctbWV0YWxfYmluZGluZycsICctaW1hZScsICc8aW5maWxlLm1hZT4nLCAnLW9tYWUnLCAnPG91dGZpbGUubWFlPic=

> <r_epik_Ionization_Penalty>
0.0273541

> <r_epik_Ionization_Penalty_Charging>
0

> <r_epik_Ionization_Penalty_Neutral>
0.0273541

> <r_epik_State_Penalty>
0.0223838

> <r_epik_Charging_Adjusted_Penalty>
0.0223838

> <i_epik_Tot_Q>
0

> <i_epik_Tot_abs_Q>
0

> <r_epik_Metal_State_Penalty>
0.0213927

> <b_epik_Metal_Only>
0

> <s_lp_Force_Field>
OPLS_2005

> <r_lp_Energy>
45.3245

> <b_lp_Chiralities_Consistent>
1

> <s_lp_Variant>
AV-unprocessed.smi:3263-3

> <Gold.Version>
5.8.1

> <Gold.Id.Protein>
6NUR|6NUR_protein|mol2

> <Gold.PLP.Fitness>
48.5778

> <Gold.PLP.PLP>
-49.8129

> <Gold.PLP.part.hbond>
-1.0000

> <Gold.PLP.part.metal>
0.0000

> <Gold.PLP.part.buried>
-6.1233

> <Gold.PLP.part.nonpolar>
-42.6621

> <Gold.PLP.part.repulsive>
0.0276

> <Gold.PLP.ligand.clash>
0.0000

> <Gold.PLP.ligand.torsion>
0.6681

> <Gold.PLP.Chemscore.Hbond>
0.0000

> <Gold.PLP.Chemscore.CHOScore>
0.0000

> <Gold.PLP.Chemscore.Metal>
0.0000

> <Gold.PLP.Chemscore.Internal.Correction>
0.1012

> <Gold.Rescore>
     Score         DG    S(hbond)    S(metal)    S(lipo)     H(rot)  DE(clash)    DE(int)     intcor
     17.17     -17.85       0.00        0.00     137.57       1.46       0.01       0.67       ----

> <Gold.Chemscore.Fitness>
17.1666

> <Gold.Chemscore.DG>
-17.8492

> <Gold.Chemscore.ZeroCoef>
-5.4800

> <Gold.Chemscore.Hbond>
0.0000

> <Gold.Chemscore.Metal>
0.0000

> <Gold.Chemscore.Lipo>
137.5657

> <Gold.Chemscore.Internal_Hbond>
0.0000

> <Gold.Chemscore.DEClash>
0.0102

> <Gold.Chemscore.DEInternal>
0.6723

> <Gold.Chemscore.Rot>
1.4555

> <Gold.Chemscore.Internal.Correction>
   9.000000E+99

> <Gold.Chemscore.Hbond.Weighted>
-0.0000

> <Gold.Chemscore.Metal.Weighted>
-0.0000

> <Gold.Chemscore.Lipo.Weighted>
-16.0952

> <Gold.Chemscore.Internal_Hbond.Weighted>
0.0000

> <Gold.Chemscore.DEClash.Weighted>
0.0102

> <Gold.Chemscore.DEInternal.Weighted>
0.6723

> <Gold.Chemscore.Rot.Weighted>
3.7260

> <Gold.Chemscore.Internal.Correction.Weighted>
   9.000000E+99

> <Gold.Protein.RotatedTorsions>
[ 6907 6896 6895 6894 ] final  -56.10 input  -60.11 | X-H torsion
[ 7974 7965 7964 7962 ] final   -4.92 input  175.53 | X-H torsion
[ 8008 7997 7996 7995 ] final   46.39 input   59.86 | X-H torsion
[ 10167 10162 10161 10158 ] final -105.52 input  -65.29 | X-H torsion
[ 10718 10713 10712 10709 ] final  176.03 input   66.30 | X-H torsion
[ 10763 10752 10751 10750 ] final   -5.57 input  -60.55 | X-H torsion
[ 11005 11000 10999 10996 ] final   -8.97 input  -57.11 | X-H torsion

> <Gold.Protein.ActiveResidues>
 VAL166  LYS551  ARG553  GLY616  TRP617  ASP618  TYR619  PRO620  LYS621  CYS622 
 ASP623  PHE694  ASN695  SER759  ASP760  ASP761  ALA762  ILE779  LEU786  VAL792 
 PHE793  MET794  SER795  GLU796  ALA797  LYS798  CYS799  TRP800  GLU811  SER814 

> <Gold.Protein.RotatedAtoms>
  150.8196  134.7396  159.6760 H   0  0  0  0  0  0  0  0  0  0  0  0  # atno 6907 bound_to 6896
  152.4312  134.5770  159.9947 H   0  0  0  0  0  0  0  0  0  0  0  0  # atno 6908 bound_to 6896
  151.5957  133.3324  159.3073 H   0  0  0  0  0  0  0  0  0  0  0  0  # atno 6909 bound_to 6896
  146.2363  140.1943  142.8333 H   0  0  0  0  0  0  0  0  0  0  0  0  # atno 7974 bound_to 7965
  155.3516  140.3414  155.4239 H   0  0  0  0  0  0  0  0  0  0  0  0  # atno 8008 bound_to 7997
  156.1761  140.1648  156.8396 H   0  0  0  0  0  0  0  0  0  0  0  0  # atno 8009 bound_to 7997
  154.5283  140.0751  156.8282 H   0  0  0  0  0  0  0  0  0  0  0  0  # atno 8010 bound_to 7997
  140.1976  143.3843  152.1156 H   0  0  0  0  0  0  0  0  0  0  0  0  # atno 10167 bound_to 10162
  156.9262  130.9956  151.2995 H   0  0  0  0  0  0  0  0  0  0  0  0  # atno 10718 bound_to 10713
  153.4003  135.7004  153.6431 H   0  0  0  0  0  0  0  0  0  0  0  0  # atno 10763 bound_to 10752
  153.4967  135.3661  155.2520 H   0  0  0  0  0  0  0  0  0  0  0  0  # atno 10764 bound_to 10752
  154.8710  135.4102  154.3336 H   0  0  0  0  0  0  0  0  0  0  0  0  # atno 10765 bound_to 10752
  140.7292  133.8763  155.8880 H   0  0  0  0  0  0  0  0  0  0  0  0  # atno 11005 bound_to 11000
  144.9833  140.8479  143.5384 LP  0  0  0  0  0  0  0  0  0  0  0  0  # atno 17320 bound_to 7965
  145.1939  139.2286  143.5228 LP  0  0  0  0  0  0  0  0  0  0  0  0  # atno 17321 bound_to 7965
  139.5230  144.7066  151.5335 LP  0  0  0  0  0  0  0  0  0  0  0  0  # atno 17342 bound_to 10162
  140.6413  143.8884  150.6694 LP  0  0  0  0  0  0  0  0  0  0  0  0  # atno 17343 bound_to 10162
  157.5876  130.8421  149.8612 LP  0  0  0  0  0  0  0  0  0  0  0  0  # atno 17370 bound_to 10713
  156.0468  130.3726  150.1298 LP  0  0  0  0  0  0  0  0  0  0  0  0  # atno 17371 bound_to 10713
  140.9936  134.1245  157.4385 LP  0  0  0  0  0  0  0  0  0  0  0  0  # atno 17394 bound_to 11000
  139.8830  135.0048  156.6270 LP  0  0  0  0  0  0  0  0  0  0  0  0  # atno 17395 bound_to 11000

$$$$
