AV-unprocessed.smi:209|AV-procd|sdf|1607|dock5
  -GOLD-   2262019523D 1   1.00000     0.00000
 Structure written by MMmdl.
 48 52  0  0  0  0  0  0  0  0  1 V2000
  143.7238  131.9126  150.3741 O   0  0  0  0  0  0  0  0  0  0  0  0
  144.2713  133.0038  150.5168 C   0  0  0  0  0  0  0  0  0  0  0  0
  143.6792  134.1937  150.4303 N   0  0  0  0  0  0  0  0  0  0  0  0
  144.5718  135.2985  150.7370 C   0  0  0  0  0  0  0  0  0  0  0  0
  145.8229  134.6291  151.3585 C   0  0  2  0  0  0  0  0  0  0  0  0
  145.7574  133.1905  150.7890 C   0  0  1  0  0  0  0  0  0  0  0  0
  146.4403  132.1023  151.6443 C   0  0  0  0  0  0  0  0  0  0  0  0
  146.1669  132.2841  153.1397 C   0  0  0  0  0  0  0  0  0  0  0  0
  146.5514  133.7035  153.5669 C   0  0  0  0  0  0  0  0  0  0  0  0
  145.7588  134.6846  152.8311 N   0  0  0  0  0  0  0  0  0  0  0  0
  145.7833  135.9070  153.4220 C   0  0  0  0  0  0  0  0  0  0  0  0
  144.7096  136.7358  153.3223 N   0  0  0  0  0  0  0  0  0  0  0  0
  144.7338  137.9421  153.8967 C   0  0  0  0  0  0  0  0  0  0  0  0
  145.7120  138.5097  154.6050 N   0  0  0  0  0  0  0  0  0  0  0  0
  146.7910  137.6823  154.7095 C   0  0  0  0  0  0  0  0  0  0  0  0
  146.9092  136.3777  154.1535 C   0  0  0  0  0  0  0  0  0  0  0  0
  148.1474  135.8360  154.4760 N   0  0  0  0  0  0  0  0  0  0  0  0
  148.7304  136.7697  155.1774 C   0  0  0  0  0  0  0  0  0  0  0  0
  147.9905  137.9166  155.3599 N   0  0  0  0  0  0  0  0  0  0  0  0
  148.3884  139.1052  156.0991 C   0  0  0  0  0  0  0  0  0  0  0  0
  149.3144  140.0505  155.3110 C   0  0  0  0  0  0  0  0  0  0  0  0
  148.4850  140.7557  154.2188 C   0  0  0  0  0  0  0  0  0  0  0  0
  149.2802  141.1970  153.1359 O   0  0  0  0  0  0  0  0  0  0  0  0
  150.2032  140.9532  156.1786 C   0  0  0  0  0  0  0  0  0  0  0  0
  151.4062  140.5153  155.5093 O   0  0  0  0  0  0  0  0  0  0  0  0
  150.6593  139.4622  154.8607 C   0  0  0  0  0  0  0  0  0  0  0  0
  146.7358  135.1193  151.0180 H   0  0  0  0  0  0  0  0  0  0  0  0
  146.2276  133.1857  149.8044 H   0  0  0  0  0  0  0  0  0  0  0  0
  142.6946  134.3236  150.2472 H   0  0  0  0  0  0  0  0  0  0  0  0
  144.8310  135.8008  149.8044 H   0  0  0  0  0  0  0  0  0  0  0  0
  144.0824  136.0289  151.3820 H   0  0  0  0  0  0  0  0  0  0  0  0
  146.1298  131.1065  151.3251 H   0  0  0  0  0  0  0  0  0  0  0  0
  147.5167  132.1476  151.4746 H   0  0  0  0  0  0  0  0  0  0  0  0
  145.1140  132.1000  153.3568 H   0  0  0  0  0  0  0  0  0  0  0  0
  146.7374  131.5534  153.7134 H   0  0  0  0  0  0  0  0  0  0  0  0
  146.4047  133.8041  154.6426 H   0  0  0  0  0  0  0  0  0  0  0  0
  147.6106  133.8820  153.3758 H   0  0  0  0  0  0  0  0  0  0  0  0
  143.8424  138.5382  153.7691 H   0  0  0  0  0  0  0  0  0  0  0  0
  149.7228  136.6432  155.5849 H   0  0  0  0  0  0  0  0  0  0  0  0
  147.4880  139.6319  156.4179 H   0  0  0  0  0  0  0  0  0  0  0  0
  148.8731  138.7726  157.0179 H   0  0  0  0  0  0  0  0  0  0  0  0
  147.7267  140.0892  153.8081 H   0  0  0  0  0  0  0  0  0  0  0  0
  147.9603  141.6198  154.6275 H   0  0  0  0  0  0  0  0  0  0  0  0
  149.3245  140.5054  152.4934 H   0  0  0  0  0  0  0  0  0  0  0  0
  150.0183  142.0209  156.0564 H   0  0  0  0  0  0  0  0  0  0  0  0
  150.2104  140.6840  157.2360 H   0  0  0  0  0  0  0  0  0  0  0  0
  150.8875  138.4874  155.2927 H   0  0  0  0  0  0  0  0  0  0  0  0
  150.8032  139.4503  153.7797 H   0  0  0  0  0  0  0  0  0  0  0  0
  1  2  2  0  0  0  0
  2  6  1  0  0  0  0
  2  3  1  0  0  0  0
  3  4  1  0  0  0  0
  3 29  1  0  0  0  0
  4  5  1  0  0  0  0
  4 30  1  0  0  0  0
  4 31  1  0  0  0  0
  5 27  1  0  0  0  0
  5 10  1  0  0  0  0
  5  6  1  0  0  0  0
  6 28  1  0  0  0  0
  6  7  1  0  0  0  0
  7  8  1  0  0  0  0
  7 32  1  0  0  0  0
  7 33  1  0  0  0  0
  8  9  1  0  0  0  0
  8 34  1  0  0  0  0
  8 35  1  0  0  0  0
  9 10  1  0  0  0  0
  9 36  1  0  0  0  0
  9 37  1  0  0  0  0
 10 11  1  0  0  0  0
 11 16  1  0  0  0  0
 11 12  2  0  0  0  0
 12 13  1  0  0  0  0
 13 14  2  0  0  0  0
 13 38  1  0  0  0  0
 14 15  1  0  0  0  0
 15 19  1  0  0  0  0
 15 16  2  0  0  0  0
 16 17  1  0  0  0  0
 17 18  2  0  0  0  0
 18 19  1  0  0  0  0
 18 39  1  0  0  0  0
 19 20  1  0  0  0  0
 20 21  1  0  0  0  0
 20 40  1  0  0  0  0
 20 41  1  0  0  0  0
 21 26  1  0  0  0  0
 21 22  1  0  0  0  0
 21 24  1  0  0  0  0
 22 23  1  0  0  0  0
 22 42  1  0  0  0  0
 22 43  1  0  0  0  0
 23 44  1  0  0  0  0
 24 25  1  0  0  0  0
 24 45  1  0  0  0  0
 24 46  1  0  0  0  0
 25 26  1  0  0  0  0
 26 47  1  0  0  0  0
 26 48  1  0  0  0  0
M  END
> <s_m_source_file>
AV-unprocessed.smi

> <i_m_source_file_index>
209

> <i_lp_mmshare_version>
43012

> <i_f3d_flags>
0

> <s_epik_input>
W0NIMl0xW05IXUMoPU8pW0NAQEhdKFtDQEBIXTEyKVtDSDJdW0NIMl1bQ0gyXU4yYyhuW2NIXW4zKWMoYzM0KW5bY0hdbjRbQ0gyXUM1KFtDSDJdW09IXSlbQ0gyXU9bQ0gyXTU=

> <s_epik_cmdline>
J2VwaWtfcHl0aG9uJywgJy1waCcsICc3LjAnLCAnLXRuJywgJzgnLCAnLW1hJywgJzIwMCcsICctbWV0YWxfYmluZGluZycsICctaW1hZScsICc8aW5maWxlLm1hZT4nLCAnLW9tYWUnLCAnPG91dGZpbGUubWFlPic=

> <r_lp_tautomer_probability>
1

> <r_epik_Ionization_Penalty>
0.00113306

> <r_epik_Ionization_Penalty_Charging>
0

> <r_epik_Ionization_Penalty_Neutral>
0.00113306

> <r_epik_State_Penalty>
0.000624042

> <r_epik_Charging_Adjusted_Penalty>
0.000624042

> <i_epik_Tot_Q>
0

> <i_epik_Tot_abs_Q>
0

> <r_epik_Metal_State_Penalty>
-0

> <b_epik_Metal_Only>
0

> <s_lp_Force_Field>
OPLS_2005

> <r_lp_Energy>
50.3938

> <b_lp_Chiralities_Consistent>
1

> <s_lp_Variant>
AV-unprocessed.smi:209-1

> <Gold.Version>
5.8.1

> <Gold.Id.Protein>
6NUR|6NUR_protein|mol2

> <Gold.PLP.Fitness>
38.5149

> <Gold.PLP.PLP>
-28.6539

> <Gold.PLP.part.hbond>
-4.1711

> <Gold.PLP.part.metal>
0.0000

> <Gold.PLP.part.buried>
-4.4278

> <Gold.PLP.part.nonpolar>
-22.0867

> <Gold.PLP.part.repulsive>
2.3441

> <Gold.PLP.ligand.clash>
0.0000

> <Gold.PLP.ligand.torsion>
1.3576

> <Gold.PLP.Chemscore.Hbond>
2.9575

> <Gold.PLP.Chemscore.CHOScore>
0.9992

> <Gold.PLP.Chemscore.Metal>
0.0000

> <Gold.Chemscore.Hbonds>
donor molecule, donor type, donor heavy atom, donor atom, acceptor molecule, acceptor atom, score
      L1  H     3    29       P1 10186  1.00
      L1  H    23    44       P1  7957  0.76
      P1  H  7989  7998       L1    23  0.01
      P1  H  8011  8017       L1    23  1.00
      L1  C    13    38       P1 10175  0.93

> <Gold.PLP.Chemscore.Internal.Correction>
0.7061

> <Gold.Rescore>
     Score         DG    S(hbond)    S(metal)    S(lipo)     H(rot)  DE(clash)    DE(int)     intcor
     10.89     -15.13       2.90        0.00      58.02       2.66       0.37       3.87       ----

> <Gold.Chemscore.Fitness>
10.8919

> <Gold.Chemscore.DG>
-15.1284

> <Gold.Chemscore.ZeroCoef>
-5.4800

> <Gold.Chemscore.Hbond>
2.8968

> <Gold.Chemscore.Metal>
0.0000

> <Gold.Chemscore.Lipo>
58.0157

> <Gold.Chemscore.Internal_Hbond>
0.0000

> <Gold.Chemscore.DEClash>
0.3683

> <Gold.Chemscore.DEInternal>
3.8682

> <Gold.Chemscore.Rot>
2.6620

> <Gold.Chemscore.Internal.Correction>
   9.000000E+99

> <Gold.Chemscore.Hbonds>
donor molecule, donor type, donor heavy atom, donor atom, acceptor molecule, acceptor atom, score
      L1  H     3    29       P1 10186  0.82
      L1  H    23    44       P1  7957  0.72
      P1  H  8011  8017       L1    23  0.28
      P1  H 10785 10796       L1     1  0.03

> <Gold.Chemscore.Hbond.Weighted>
-9.6754

> <Gold.Chemscore.Metal.Weighted>
-0.0000

> <Gold.Chemscore.Lipo.Weighted>
-6.7878

> <Gold.Chemscore.Internal_Hbond.Weighted>
0.0000

> <Gold.Chemscore.DEClash.Weighted>
0.3683

> <Gold.Chemscore.DEInternal.Weighted>
3.8682

> <Gold.Chemscore.Rot.Weighted>
6.8148

> <Gold.Chemscore.Internal.Correction.Weighted>
   9.000000E+99

> <Gold.Protein.RotatedTorsions>
[ 6907 6896 6895 6894 ] final -143.65 input  -60.11 | X-H torsion
[ 7974 7965 7964 7962 ] final  140.89 input  175.53 | X-H torsion
[ 8008 7997 7996 7995 ] final  -54.18 input   59.86 | X-H torsion
[ 10167 10162 10161 10158 ] final   12.55 input  -65.29 | X-H torsion
[ 10718 10713 10712 10709 ] final  -45.76 input   66.30 | X-H torsion
[ 10763 10752 10751 10750 ] final  -55.36 input  -60.55 | X-H torsion
[ 11005 11000 10999 10996 ] final   94.84 input  -57.11 | X-H torsion

> <Gold.Protein.ActiveResidues>
 VAL166  LYS551  ARG553  GLY616  TRP617  ASP618  TYR619  PRO620  LYS621  CYS622 
 ASP623  PHE694  ASN695  SER759  ASP760  ASP761  ALA762  ILE779  LEU786  VAL792 
 PHE793  MET794  SER795  GLU796  ALA797  LYS798  CYS799  TRP800  GLU811  SER814 

> <Gold.Protein.RotatedAtoms>
  151.1033  133.5227  159.2608 H   0  0  0  0  0  0  0  0  0  0  0  0  # atno 6907 bound_to 6896
  151.2050  135.0457  159.8897 H   0  0  0  0  0  0  0  0  0  0  0  0  # atno 6908 bound_to 6896
  152.5444  134.0856  159.8308 H   0  0  0  0  0  0  0  0  0  0  0  0  # atno 6909 bound_to 6896
  144.9145  139.5249  143.5693 H   0  0  0  0  0  0  0  0  0  0  0  0  # atno 7974 bound_to 7965
  154.4155  140.1182  156.5274 H   0  0  0  0  0  0  0  0  0  0  0  0  # atno 8008 bound_to 7997
  155.6641  140.3496  155.4774 H   0  0  0  0  0  0  0  0  0  0  0  0  # atno 8009 bound_to 7997
  155.9689  140.1137  157.0820 H   0  0  0  0  0  0  0  0  0  0  0  0  # atno 8010 bound_to 7997
  140.6060  143.8506  150.7015 H   0  0  0  0  0  0  0  0  0  0  0  0  # atno 10167 bound_to 10162
  156.2251  130.4168  149.8944 H   0  0  0  0  0  0  0  0  0  0  0  0  # atno 10718 bound_to 10713
  154.1895  135.6430  153.5056 H   0  0  0  0  0  0  0  0  0  0  0  0  # atno 10763 bound_to 10752
  153.0039  135.5425  154.6430 H   0  0  0  0  0  0  0  0  0  0  0  0  # atno 10764 bound_to 10752
  154.5815  135.2925  155.0700 H   0  0  0  0  0  0  0  0  0  0  0  0  # atno 10765 bound_to 10752
  139.8794  134.8867  156.3923 H   0  0  0  0  0  0  0  0  0  0  0  0  # atno 11005 bound_to 11000
  146.3175  139.7977  142.8972 LP  0  0  0  0  0  0  0  0  0  0  0  0  # atno 17320 bound_to 7965
  145.3398  141.0285  143.3399 LP  0  0  0  0  0  0  0  0  0  0  0  0  # atno 17321 bound_to 7965
  140.2063  143.3919  152.1753 LP  0  0  0  0  0  0  0  0  0  0  0  0  # atno 17342 bound_to 10162
  139.5326  144.7175  151.5004 LP  0  0  0  0  0  0  0  0  0  0  0  0  # atno 17343 bound_to 10162
  156.6578  130.8769  151.3542 LP  0  0  0  0  0  0  0  0  0  0  0  0  # atno 17370 bound_to 10713
  157.7106  130.9436  150.1077 LP  0  0  0  0  0  0  0  0  0  0  0  0  # atno 17371 bound_to 10713
  140.9324  133.7570  156.0042 LP  0  0  0  0  0  0  0  0  0  0  0  0  # atno 17394 bound_to 11000
  140.8315  134.3173  157.5347 LP  0  0  0  0  0  0  0  0  0  0  0  0  # atno 17395 bound_to 11000

$$$$
