AV-unprocessed.smi:240|AV-procd|sdf|1826|dock6
  -GOLD-   2262020423D 1   1.00000     0.00000
 Structure written by MMmdl.
 55 59  0  0  0  0  0  0  0  0  1 V2000
  148.3801  141.1086  152.9730 O   0  0  0  0  0  0  0  0  0  0  0  0
  147.2721  140.9745  153.8389 C   0  0  2  0  0  0  0  0  0  0  0  0
  146.5618  142.3344  153.9775 C   0  0  0  0  0  0  0  0  0  0  0  0
  146.2591  142.4988  155.4679 C   0  0  0  0  0  0  0  0  0  0  0  0
  147.4086  141.7678  156.1568 C   0  0  0  0  0  0  0  0  0  0  0  0
  147.6214  140.5250  155.2822 C   0  0  2  0  0  0  0  0  0  0  0  0
  148.9335  139.7162  155.5399 C   0  0  2  0  0  0  0  0  0  0  0  0
  150.2383  140.5049  155.2509 C   0  0  0  0  0  0  0  0  0  0  0  0
  151.3773  139.7002  155.5334 O   0  0  0  0  0  0  0  0  0  0  0  0
  151.4186  138.5340  154.7231 C   0  0  0  0  0  0  0  0  0  0  0  0
  150.1930  137.6689  155.0408 C   0  0  0  0  0  0  0  0  0  0  0  0
  148.9676  138.4298  154.8289 N   0  0  0  0  0  0  0  0  0  0  0  0
  147.8841  137.6282  154.9366 C   0  0  0  0  0  0  0  0  0  0  0  0
  147.7587  136.9201  156.0856 N   0  0  0  0  0  0  0  0  0  0  0  0
  146.7103  136.1102  156.2595 C   0  0  0  0  0  0  0  0  0  0  0  0
  145.6924  135.8720  155.4298 N   0  0  0  0  0  0  0  0  0  0  0  0
  145.8127  136.5893  154.2757 C   0  0  0  0  0  0  0  0  0  0  0  0
  146.8659  137.4898  153.9507 C   0  0  0  0  0  0  0  0  0  0  0  0
  146.6413  138.0478  152.6981 N   0  0  0  0  0  0  0  0  0  0  0  0
  145.5235  137.5032  152.3025 C   0  0  0  0  0  0  0  0  0  0  0  0
  144.9617  136.6074  153.1841 N   0  0  0  0  0  0  0  0  0  0  0  0
  143.7262  135.8604  153.0023 C   0  0  0  0  0  0  0  0  0  0  0  0
  143.9318  134.4643  152.3685 C   0  0  1  0  0  0  0  0  0  0  0  0
  142.7576  133.6925  152.5528 O   0  0  0  0  0  0  0  0  0  0  0  0
  144.2320  134.5308  150.8766 C   0  0  0  0  0  0  0  0  0  0  0  0
  145.0627  133.2760  150.6455 C   0  0  0  0  0  0  0  0  0  0  0  0
  145.8812  133.2187  151.8015 O   0  0  0  0  0  0  0  0  0  0  0  0
  145.1306  133.6694  152.9259 C   0  0  0  0  0  0  0  0  0  0  0  0
  148.3581  140.3991  152.3485 H   0  0  0  0  0  0  0  0  0  0  0  0
  146.5945  140.2458  153.3921 H   0  0  0  0  0  0  0  0  0  0  0  0
  147.2227  143.1446  153.6646 H   0  0  0  0  0  0  0  0  0  0  0  0
  145.6625  142.3970  153.3641 H   0  0  0  0  0  0  0  0  0  0  0  0
  146.1861  143.5444  155.7682 H   0  0  0  0  0  0  0  0  0  0  0  0
  145.3126  142.0136  155.7102 H   0  0  0  0  0  0  0  0  0  0  0  0
  148.2842  142.4154  156.1503 H   0  0  0  0  0  0  0  0  0  0  0  0
  147.1829  141.5169  157.1936 H   0  0  0  0  0  0  0  0  0  0  0  0
  146.8010  139.8670  155.5727 H   0  0  0  0  0  0  0  0  0  0  0  0
  148.9594  139.4914  156.6062 H   0  0  0  0  0  0  0  0  0  0  0  0
  150.2943  140.8557  154.2213 H   0  0  0  0  0  0  0  0  0  0  0  0
  150.3065  141.3853  155.8876 H   0  0  0  0  0  0  0  0  0  0  0  0
  151.4462  138.8048  153.6663 H   0  0  0  0  0  0  0  0  0  0  0  0
  152.3339  137.9827  154.9379 H   0  0  0  0  0  0  0  0  0  0  0  0
  150.1969  136.7795  154.4089 H   0  0  0  0  0  0  0  0  0  0  0  0
  150.2376  137.3286  156.0766 H   0  0  0  0  0  0  0  0  0  0  0  0
  146.6828  135.5763  157.1979 H   0  0  0  0  0  0  0  0  0  0  0  0
  145.0762  137.7433  151.3490 H   0  0  0  0  0  0  0  0  0  0  0  0
  143.2371  135.7648  153.9726 H   0  0  0  0  0  0  0  0  0  0  0  0
  143.0580  136.4590  152.3818 H   0  0  0  0  0  0  0  0  0  0  0  0
  142.9080  133.0803  153.2566 H   0  0  0  0  0  0  0  0  0  0  0  0
  143.3401  134.5777  150.2499 H   0  0  0  0  0  0  0  0  0  0  0  0
  144.8417  135.4071  150.6513 H   0  0  0  0  0  0  0  0  0  0  0  0
  144.4289  132.3890  150.6000 H   0  0  0  0  0  0  0  0  0  0  0  0
  145.6571  133.3237  149.7330 H   0  0  0  0  0  0  0  0  0  0  0  0
  145.7874  134.2882  153.5365 H   0  0  0  0  0  0  0  0  0  0  0  0
  144.8183  132.8222  153.5382 H   0  0  0  0  0  0  0  0  0  0  0  0
  1  2  1  0  0  0  0
  1 29  1  0  0  0  0
  2  6  1  0  0  0  0
  2  3  1  0  0  0  0
  2 30  1  0  0  0  0
  3  4  1  0  0  0  0
  3 31  1  0  0  0  0
  3 32  1  0  0  0  0
  4  5  1  0  0  0  0
  4 33  1  0  0  0  0
  4 34  1  0  0  0  0
  5  6  1  0  0  0  0
  5 35  1  0  0  0  0
  5 36  1  0  0  0  0
  6  7  1  0  0  0  0
  6 37  1  0  0  0  0
  7 12  1  0  0  0  0
  7  8  1  0  0  0  0
  7 38  1  0  0  0  0
  8  9  1  0  0  0  0
  8 39  1  0  0  0  0
  8 40  1  0  0  0  0
  9 10  1  0  0  0  0
 10 11  1  0  0  0  0
 10 41  1  0  0  0  0
 10 42  1  0  0  0  0
 11 12  1  0  0  0  0
 11 43  1  0  0  0  0
 11 44  1  0  0  0  0
 12 13  1  0  0  0  0
 13 18  1  0  0  0  0
 13 14  2  0  0  0  0
 14 15  1  0  0  0  0
 15 16  2  0  0  0  0
 15 45  1  0  0  0  0
 16 17  1  0  0  0  0
 17 21  1  0  0  0  0
 17 18  2  0  0  0  0
 18 19  1  0  0  0  0
 19 20  2  0  0  0  0
 20 21  1  0  0  0  0
 20 46  1  0  0  0  0
 21 22  1  0  0  0  0
 22 23  1  0  0  0  0
 22 47  1  0  0  0  0
 22 48  1  0  0  0  0
 23 28  1  0  0  0  0
 23 24  1  0  0  0  0
 23 25  1  0  0  0  0
 24 49  1  0  0  0  0
 25 26  1  0  0  0  0
 25 50  1  0  0  0  0
 25 51  1  0  0  0  0
 26 27  1  0  0  0  0
 26 52  1  0  0  0  0
 26 53  1  0  0  0  0
 27 28  1  0  0  0  0
 28 54  1  0  0  0  0
 28 55  1  0  0  0  0
M  END
> <s_m_source_file>
AV-unprocessed.smi

> <i_m_source_file_index>
240

> <i_lp_mmshare_version>
43012

> <i_f3d_flags>
0

> <s_epik_input>
W09IXVtDQEBIXTFbQ0gyXVtDSDJdW0NIMl1bQ0BIXTFbQ0BASF0yW0NIMl1PW0NIMl1bQ0gyXU4yYyhuW2NIXW4zKWMoYzM0KW5bY0hdbjRbQ0gyXVtDQEBdNShbT0hdKVtDSDJdW0NIMl1PW0NIMl01

> <s_epik_cmdline>
J2VwaWtfcHl0aG9uJywgJy1waCcsICc3LjAnLCAnLXRuJywgJzgnLCAnLW1hJywgJzIwMCcsICctbWV0YWxfYmluZGluZycsICctaW1hZScsICc8aW5maWxlLm1hZT4nLCAnLW9tYWUnLCAnPG91dGZpbGUubWFlPic=

> <r_lp_tautomer_probability>
1

> <r_epik_Ionization_Penalty>
0.000130618

> <r_epik_Ionization_Penalty_Charging>
0

> <r_epik_Ionization_Penalty_Neutral>
0.000130618

> <r_epik_State_Penalty>
-0

> <r_epik_Charging_Adjusted_Penalty>
0

> <i_epik_Tot_Q>
0

> <i_epik_Tot_abs_Q>
0

> <r_epik_Metal_State_Penalty>
-0

> <b_epik_Metal_Only>
0

> <s_lp_Force_Field>
OPLS_2005

> <r_lp_Energy>
64.3211

> <b_lp_Chiralities_Consistent>
1

> <s_lp_Variant>
AV-unprocessed.smi:240-3

> <Gold.Version>
5.8.1

> <Gold.Id.Protein>
6NUR|6NUR_protein|mol2

> <Gold.PLP.Fitness>
39.8774

> <Gold.PLP.PLP>
-30.9538

> <Gold.PLP.part.hbond>
-2.7455

> <Gold.PLP.part.metal>
0.0000

> <Gold.PLP.part.buried>
-5.5054

> <Gold.PLP.part.nonpolar>
-24.8406

> <Gold.PLP.part.repulsive>
1.0675

> <Gold.PLP.ligand.clash>
0.0000

> <Gold.PLP.ligand.torsion>
0.8665

> <Gold.PLP.Chemscore.Hbond>
2.4720

> <Gold.PLP.Chemscore.CHOScore>
1.0000

> <Gold.PLP.Chemscore.Metal>
0.0000

> <Gold.Chemscore.Hbonds>
donor molecule, donor type, donor heavy atom, donor atom, acceptor molecule, acceptor atom, score
      L1  H     1    29       P1  7957  0.53
      L1  H    24    49       P1 10957  1.00
      P1  H  8011  8017       L1     1  0.94
      L1  C    20    46       P1 10171  1.00

> <Gold.PLP.Chemscore.Internal.Correction>
0.2406

> <Gold.Rescore>
     Score         DG    S(hbond)    S(metal)    S(lipo)     H(rot)  DE(clash)    DE(int)     intcor
     10.51     -13.36       2.04        0.00      74.87       3.00       1.03       1.83       ----

> <Gold.Chemscore.Fitness>
10.5051

> <Gold.Chemscore.DG>
-13.3575

> <Gold.Chemscore.ZeroCoef>
-5.4800

> <Gold.Chemscore.Hbond>
2.0383

> <Gold.Chemscore.Metal>
0.0000

> <Gold.Chemscore.Lipo>
74.8672

> <Gold.Chemscore.Internal_Hbond>
0.0000

> <Gold.Chemscore.DEClash>
1.0252

> <Gold.Chemscore.DEInternal>
1.8272

> <Gold.Chemscore.Rot>
3.0039

> <Gold.Chemscore.Internal.Correction>
   9.000000E+99

> <Gold.Chemscore.Hbonds>
donor molecule, donor type, donor heavy atom, donor atom, acceptor molecule, acceptor atom, score
      L1  H     1    29       P1  7957  0.52
      L1  H    24    49       P1 10957  0.74
      P1  H  8011  8017       L1     1  0.47

> <Gold.Chemscore.Hbond.Weighted>
-6.8080

> <Gold.Chemscore.Metal.Weighted>
-0.0000

> <Gold.Chemscore.Lipo.Weighted>
-8.7595

> <Gold.Chemscore.Internal_Hbond.Weighted>
0.0000

> <Gold.Chemscore.DEClash.Weighted>
1.0252

> <Gold.Chemscore.DEInternal.Weighted>
1.8272

> <Gold.Chemscore.Rot.Weighted>
7.6899

> <Gold.Chemscore.Internal.Correction.Weighted>
   9.000000E+99

> <Gold.Protein.RotatedTorsions>
[ 6907 6896 6895 6894 ] final  -48.48 input  -60.11 | X-H torsion
[ 7974 7965 7964 7962 ] final -175.75 input  175.53 | X-H torsion
[ 8008 7997 7996 7995 ] final  169.64 input   59.86 | X-H torsion
[ 10167 10162 10161 10158 ] final    7.37 input  -65.29 | X-H torsion
[ 10718 10713 10712 10709 ] final -113.99 input   66.30 | X-H torsion
[ 10763 10752 10751 10750 ] final   48.45 input  -60.55 | X-H torsion
[ 11005 11000 10999 10996 ] final  109.12 input  -57.11 | X-H torsion

> <Gold.Protein.ActiveResidues>
 VAL166  LYS551  ARG553  GLY616  TRP617  ASP618  TYR619  PRO620  LYS621  CYS622 
 ASP623  PHE694  ASN695  SER759  ASP760  ASP761  ALA762  ILE779  LEU786  VAL792 
 PHE793  MET794  SER795  GLU796  ALA797  LYS798  CYS799  TRP800  GLU811  SER814 

> <Gold.Protein.RotatedAtoms>
  150.8901  134.8304  159.7286 H   0  0  0  0  0  0  0  0  0  0  0  0  # atno 6907 bound_to 6896
  152.4832  134.4661  159.9630 H   0  0  0  0  0  0  0  0  0  0  0  0  # atno 6908 bound_to 6896
  151.4725  133.3527  159.2861 H   0  0  0  0  0  0  0  0  0  0  0  0  # atno 6909 bound_to 6896
  144.7127  140.1274  143.6401 H   0  0  0  0  0  0  0  0  0  0  0  0  # atno 7974 bound_to 7965
  156.1439  140.1559  156.8877 H   0  0  0  0  0  0  0  0  0  0  0  0  # atno 8008 bound_to 7997
  154.5011  140.0825  156.7837 H   0  0  0  0  0  0  0  0  0  0  0  0  # atno 8009 bound_to 7997
  155.4026  140.3415  155.4260 H   0  0  0  0  0  0  0  0  0  0  0  0  # atno 8010 bound_to 7997
  140.6375  143.7851  150.7381 H   0  0  0  0  0  0  0  0  0  0  0  0  # atno 10167 bound_to 10162
  156.0801  130.6002  150.8715 H   0  0  0  0  0  0  0  0  0  0  0  0  # atno 10718 bound_to 10713
  152.9792  135.5943  154.3928 H   0  0  0  0  0  0  0  0  0  0  0  0  # atno 10763 bound_to 10752
  154.3582  135.2767  155.2336 H   0  0  0  0  0  0  0  0  0  0  0  0  # atno 10764 bound_to 10752
  154.4345  135.6028  153.6145 H   0  0  0  0  0  0  0  0  0  0  0  0  # atno 10765 bound_to 10752
  139.8856  134.9449  156.6078 H   0  0  0  0  0  0  0  0  0  0  0  0  # atno 11005 bound_to 11000
  145.9317  139.2611  143.1321 LP  0  0  0  0  0  0  0  0  0  0  0  0  # atno 17320 bound_to 7965
  145.9516  140.8904  143.0256 LP  0  0  0  0  0  0  0  0  0  0  0  0  # atno 17321 bound_to 7965
  140.1476  143.4386  152.2153 LP  0  0  0  0  0  0  0  0  0  0  0  0  # atno 17342 bound_to 10162
  139.5585  144.7390  151.4223 LP  0  0  0  0  0  0  0  0  0  0  0  0  # atno 17343 bound_to 10162
  157.5914  131.0944  150.9112 LP  0  0  0  0  0  0  0  0  0  0  0  0  # atno 17370 bound_to 10713
  156.9287  130.5342  149.5279 LP  0  0  0  0  0  0  0  0  0  0  0  0  # atno 17371 bound_to 10713
  140.7835  133.8640  155.8587 LP  0  0  0  0  0  0  0  0  0  0  0  0  # atno 17394 bound_to 11000
  140.9740  134.1494  157.4552 LP  0  0  0  0  0  0  0  0  0  0  0  0  # atno 17395 bound_to 11000

$$$$
