AV-unprocessed.smi:3076|AV-procd|sdf|11726|dock2
  -GOLD-   2272017123D 1   1.00000     0.00000
 Structure written by MMmdl.
 21 21  0  0  0  0  0  0  0  0  2 V2000
  146.1691  136.9577  151.2632 N   0  3  0  0  0  0  0  0  0  0  0  0
  145.1194  136.0333  151.7265 C   0  0  0  0  0  0  0  0  0  0  0  0
  144.4079  135.3430  150.5490 C   0  0  1  0  0  0  0  0  0  0  0  0
  144.8650  135.9190  149.3407 O   0  0  0  0  0  0  0  0  0  0  0  0
  144.6307  133.8393  150.5781 C   0  0  0  0  0  0  0  0  0  0  0  0
  145.4613  133.2356  151.5478 C   0  0  0  0  0  0  0  0  0  0  0  0
  145.6210  131.8367  151.5325 C   0  0  0  0  0  0  0  0  0  0  0  0
  144.9409  131.0945  150.5467 C   0  0  0  0  0  0  0  0  0  0  0  0
  144.1420  131.6585  149.6156 N   0  0  0  0  0  0  0  0  0  0  0  0
  143.9946  133.0003  149.6368 C   0  0  0  0  0  0  0  0  0  0  0  0
  147.0782  136.5751  151.4803 H   0  0  0  0  0  0  0  0  0  0  0  0
  146.0593  137.8509  151.7214 H   0  0  0  0  0  0  0  0  0  0  0  0
  145.5641  135.2970  152.3975 H   0  0  0  0  0  0  0  0  0  0  0  0
  144.4018  136.6075  152.3135 H   0  0  0  0  0  0  0  0  0  0  0  0
  143.3355  135.5332  150.6145 H   0  0  0  0  0  0  0  0  0  0  0  0
  144.8055  136.8600  149.4138 H   0  0  0  0  0  0  0  0  0  0  0  0
  145.9671  133.8314  152.2937 H   0  0  0  0  0  0  0  0  0  0  0  0
  146.2493  131.3432  152.2593 H   0  0  0  0  0  0  0  0  0  0  0  0
  145.0397  130.0199  150.5066 H   0  0  0  0  0  0  0  0  0  0  0  0
  143.3457  133.4156  148.8794 H   0  0  0  0  0  0  0  0  0  0  0  0
  146.0838  137.0804  150.2639 H   0  0  0  0  0  0  0  0  0  0  0  0
  1  2  1  0  0  0  0
  1 11  1  0  0  0  0
  1 12  1  0  0  0  0
  1 21  1  0  0  0  0
  2  3  1  0  0  0  0
  2 13  1  0  0  0  0
  2 14  1  0  0  0  0
  3  4  1  0  0  0  0
  3  5  1  0  0  0  0
  3 15  1  0  0  0  0
  4 16  1  0  0  0  0
  5 10  1  0  0  0  0
  5  6  2  0  0  0  0
  6  7  1  0  0  0  0
  6 17  1  0  0  0  0
  7  8  2  0  0  0  0
  7 18  1  0  0  0  0
  8  9  1  0  0  0  0
  8 19  1  0  0  0  0
  9 10  2  0  0  0  0
 10 20  1  0  0  0  0
M  CHG  1   1   1
M  END
> <s_m_source_file>
AV-unprocessed.smi

> <i_m_source_file_index>
3076

> <i_lp_mmshare_version>
43012

> <i_f3d_flags>
0

> <s_epik_input>
W05IMl1bQ0gyXVtDQEhdKFtPSF0pYzFbY0hdW2NIXVtjSF1uW2NIXTE=

> <s_epik_cmdline>
J2VwaWtfcHl0aG9uJywgJy1waCcsICc3LjAnLCAnLXRuJywgJzgnLCAnLW1hJywgJzIwMCcsICctbWV0YWxfYmluZGluZycsICctaW1hZScsICc8aW5maWxlLm1hZT4nLCAnLW9tYWUnLCAnPG91dGZpbGUubWFlPic=

> <r_epik_Ionization_Penalty>
0.0145342

> <r_epik_Ionization_Penalty_Charging>
0.0140431

> <r_epik_Ionization_Penalty_Neutral>
0.000491123

> <r_epik_State_Penalty>
0.0109628

> <r_epik_Charging_Adjusted_Penalty>
0.0250059

> <i_epik_Tot_Q>
1

> <i_epik_Tot_abs_Q>
1

> <r_epik_Metal_State_Penalty>
0.0109916

> <b_epik_Metal_Only>
0

> <s_lp_Force_Field>
OPLS_2005

> <r_lp_Energy>
5.00299

> <b_lp_Chiralities_Consistent>
1

> <s_lp_Variant>
AV-unprocessed.smi:3076-2

> <Gold.Version>
5.8.1

> <Gold.Id.Protein>
6NUR|6NUR_protein|mol2

> <Gold.PLP.Fitness>
35.6507

> <Gold.PLP.PLP>
-24.1484

> <Gold.PLP.part.hbond>
-4.8740

> <Gold.PLP.part.metal>
0.0000

> <Gold.PLP.part.buried>
-5.4051

> <Gold.PLP.part.nonpolar>
-15.1859

> <Gold.PLP.part.repulsive>
0.2626

> <Gold.PLP.ligand.clash>
0.0000

> <Gold.PLP.ligand.torsion>
0.7543

> <Gold.PLP.Chemscore.Hbond>
3.3346

> <Gold.PLP.Chemscore.CHOScore>
1.0000

> <Gold.PLP.Chemscore.Metal>
0.0000

> <Gold.Chemscore.Hbonds>
donor molecule, donor type, donor heavy atom, donor atom, acceptor molecule, acceptor atom, score
      L1  H     1    11       P1  7948  2.00
      L1  H     4    16       P1 10171  1.00
      P1  H 10785 10796       L1     9  0.64
      L1  C    10    20       P1 10186  0.62

> <Gold.PLP.Chemscore.Internal.Correction>
0.0070

> <Gold.Rescore>
     Score         DG    S(hbond)    S(metal)    S(lipo)     H(rot)  DE(clash)    DE(int)     intcor
     14.66     -15.16       2.50        0.00      52.91       1.90       0.06       0.44       ----

> <Gold.Chemscore.Fitness>
14.6602

> <Gold.Chemscore.DG>
-15.1583

> <Gold.Chemscore.ZeroCoef>
-5.4800

> <Gold.Chemscore.Hbond>
2.4992

> <Gold.Chemscore.Metal>
0.0000

> <Gold.Chemscore.Lipo>
52.9070

> <Gold.Chemscore.Internal_Hbond>
0.0000

> <Gold.Chemscore.DEClash>
0.0624

> <Gold.Chemscore.DEInternal>
0.4357

> <Gold.Chemscore.Rot>
1.8981

> <Gold.Chemscore.Internal.Correction>
   9.000000E+99

> <Gold.Chemscore.Hbonds>
donor molecule, donor type, donor heavy atom, donor atom, acceptor molecule, acceptor atom, score
      L1  H     1    11       P1  7948  1.00
      L1  H     4    16       P1 10171  0.96
      P1  H 10785 10796       L1     9  0.31

> <Gold.Chemscore.Hbond.Weighted>
-8.3474

> <Gold.Chemscore.Metal.Weighted>
-0.0000

> <Gold.Chemscore.Lipo.Weighted>
-6.1901

> <Gold.Chemscore.Internal_Hbond.Weighted>
0.0000

> <Gold.Chemscore.DEClash.Weighted>
0.0624

> <Gold.Chemscore.DEInternal.Weighted>
0.4357

> <Gold.Chemscore.Rot.Weighted>
4.8592

> <Gold.Chemscore.Internal.Correction.Weighted>
   9.000000E+99

> <Gold.Protein.RotatedTorsions>
[ 6907 6896 6895 6894 ] final -174.62 input  -60.11 | X-H torsion
[ 7974 7965 7964 7962 ] final  -27.53 input  175.53 | X-H torsion
[ 8008 7997 7996 7995 ] final -177.73 input   59.86 | X-H torsion
[ 10167 10162 10161 10158 ] final -101.09 input  -65.29 | X-H torsion
[ 10718 10713 10712 10709 ] final  169.70 input   66.30 | X-H torsion
[ 10763 10752 10751 10750 ] final  154.60 input  -60.55 | X-H torsion
[ 11005 11000 10999 10996 ] final  149.15 input  -57.11 | X-H torsion

> <Gold.Protein.ActiveResidues>
 VAL166  LYS551  ARG553  GLY616  TRP617  ASP618  TYR619  PRO620  LYS621  CYS622 
 ASP623  PHE694  ASN695  SER759  ASP760  ASP761  ALA762  ILE779  LEU786  VAL792 
 PHE793  MET794  SER795  GLU796  ALA797  LYS798  CYS799  TRP800  GLU811  SER814 

> <Gold.Protein.RotatedAtoms>
  151.5753  133.3384  159.2997 H   0  0  0  0  0  0  0  0  0  0  0  0  # atno 6907 bound_to 6896
  150.8344  134.7614  159.6892 H   0  0  0  0  0  0  0  0  0  0  0  0  # atno 6908 bound_to 6896
  152.4423  134.5573  159.9935 H   0  0  0  0  0  0  0  0  0  0  0  0  # atno 6909 bound_to 6896
  146.1351  140.5163  142.8676 H   0  0  0  0  0  0  0  0  0  0  0  0  # atno 7974 bound_to 7965
  156.0104  140.1239  157.0459 H   0  0  0  0  0  0  0  0  0  0  0  0  # atno 8008 bound_to 7997
  154.4274  140.1089  156.5891 H   0  0  0  0  0  0  0  0  0  0  0  0  # atno 8009 bound_to 7997
  155.6088  140.3471  155.4618 H   0  0  0  0  0  0  0  0  0  0  0  0  # atno 8010 bound_to 7997
  140.2450  143.3512  152.0767 H   0  0  0  0  0  0  0  0  0  0  0  0  # atno 10167 bound_to 10162
  157.0188  131.0226  151.2781 H   0  0  0  0  0  0  0  0  0  0  0  0  # atno 10718 bound_to 10713
  154.1550  135.2813  155.3125 H   0  0  0  0  0  0  0  0  0  0  0  0  # atno 10763 bound_to 10752
  154.6189  135.5474  153.7557 H   0  0  0  0  0  0  0  0  0  0  0  0  # atno 10764 bound_to 10752
  153.0209  135.6434  154.1693 H   0  0  0  0  0  0  0  0  0  0  0  0  # atno 10765 bound_to 10752
  140.1020  134.8977  157.1810 H   0  0  0  0  0  0  0  0  0  0  0  0  # atno 11005 bound_to 11000
  144.7732  140.5682  143.6656 LP  0  0  0  0  0  0  0  0  0  0  0  0  # atno 17320 bound_to 7965
  145.5173  139.1477  143.3572 LP  0  0  0  0  0  0  0  0  0  0  0  0  # atno 17321 bound_to 7965
  139.5065  144.6814  151.5998 LP  0  0  0  0  0  0  0  0  0  0  0  0  # atno 17342 bound_to 10162
  140.6084  143.9481  150.6435 LP  0  0  0  0  0  0  0  0  0  0  0  0  # atno 17343 bound_to 10162
  157.5265  130.8031  149.7868 LP  0  0  0  0  0  0  0  0  0  0  0  0  # atno 17370 bound_to 10713
  156.0109  130.3833  150.2267 LP  0  0  0  0  0  0  0  0  0  0  0  0  # atno 17371 bound_to 10713
  140.3207  134.2919  155.7247 LP  0  0  0  0  0  0  0  0  0  0  0  0  # atno 17394 bound_to 11000
  141.2108  133.7708  156.9907 LP  0  0  0  0  0  0  0  0  0  0  0  0  # atno 17395 bound_to 11000

$$$$
