AV-unprocessed.smi:3262|AV-procd|sdf|12484|dock5
  -GOLD-   2272018383D 1   1.00000     0.00000
 Structure written by MMmdl.
 39 40  0  0  0  0  0  0  0  0  1 V2000
  150.7706  143.0023  157.5553 O   0  0  0  0  0  0  0  0  0  0  0  0
  151.4998  142.1845  158.1196 C   0  0  0  0  0  0  0  0  0  0  0  0
  151.3999  140.8660  157.8814 N   0  0  0  0  0  0  0  0  0  0  0  0
  150.4362  140.2572  156.9747 C   0  0  0  0  0  0  0  0  0  0  0  0
  150.5039  140.9184  155.5912 C   0  0  0  0  0  0  0  0  0  0  0  0
  149.2743  140.6253  154.7523 C   0  0  0  0  0  0  0  0  0  0  0  0
  148.3843  141.6597  154.3924 C   0  0  0  0  0  0  0  0  0  0  0  0
  147.2614  141.3354  153.6067 C   0  0  0  0  0  0  0  0  0  0  0  0
  147.0732  139.9967  153.2124 C   0  0  0  0  0  0  0  0  0  0  0  0
  148.0210  139.0378  153.6222 C   0  0  0  0  0  0  0  0  0  0  0  0
  149.1010  139.3381  154.3755 N   0  0  0  0  0  0  0  0  0  0  0  0
  152.4925  142.5401  158.9789 N   0  0  0  0  0  0  0  0  0  0  0  0
  153.3574  141.5807  159.6998 C   0  0  0  0  0  0  0  0  0  0  0  0
  153.7029  141.9794  161.1508 C   0  0  0  0  0  0  0  0  0  0  0  0
  152.5232  142.5424  161.9652 C   0  0  0  0  0  0  0  0  0  0  0  0
  152.3363  144.0589  161.7851 C   0  0  0  0  0  0  0  0  0  0  0  0
  151.8643  144.4896  160.3869 C   0  0  0  0  0  0  0  0  0  0  0  0
  152.7514  143.9636  159.2438 C   0  0  0  0  0  0  0  0  0  0  0  0
  152.0391  140.2468  158.3580 H   0  0  0  0  0  0  0  0  0  0  0  0
  150.6408  139.1888  156.8867 H   0  0  0  0  0  0  0  0  0  0  0  0
  149.4345  140.3615  157.3947 H   0  0  0  0  0  0  0  0  0  0  0  0
  150.6091  141.9991  155.6979 H   0  0  0  0  0  0  0  0  0  0  0  0
  151.3913  140.5756  155.0571 H   0  0  0  0  0  0  0  0  0  0  0  0
  148.5577  142.6781  154.7078 H   0  0  0  0  0  0  0  0  0  0  0  0
  146.5577  142.0995  153.3114 H   0  0  0  0  0  0  0  0  0  0  0  0
  146.2236  139.7115  152.6098 H   0  0  0  0  0  0  0  0  0  0  0  0
  147.9089  138.0022  153.3372 H   0  0  0  0  0  0  0  0  0  0  0  0
  152.8857  140.5999  159.7691 H   0  0  0  0  0  0  0  0  0  0  0  0
  154.2743  141.4341  159.1279 H   0  0  0  0  0  0  0  0  0  0  0  0
  154.0858  141.0922  161.6563 H   0  0  0  0  0  0  0  0  0  0  0  0
  154.5309  142.6889  161.1621 H   0  0  0  0  0  0  0  0  0  0  0  0
  151.6019  142.0064  161.7337 H   0  0  0  0  0  0  0  0  0  0  0  0
  152.7199  142.3563  163.0214 H   0  0  0  0  0  0  0  0  0  0  0  0
  151.6128  144.4150  162.5191 H   0  0  0  0  0  0  0  0  0  0  0  0
  153.2718  144.5669  162.0224 H   0  0  0  0  0  0  0  0  0  0  0  0
  150.8297  144.1799  160.2335 H   0  0  0  0  0  0  0  0  0  0  0  0
  151.8542  145.5792  160.3512 H   0  0  0  0  0  0  0  0  0  0  0  0
  153.8057  144.1322  159.4650 H   0  0  0  0  0  0  0  0  0  0  0  0
  152.5653  144.5518  158.3434 H   0  0  0  0  0  0  0  0  0  0  0  0
  1  2  2  0  0  0  0
  2  3  1  0  0  0  0
  2 12  1  0  0  0  0
  3  4  1  0  0  0  0
  3 19  1  0  0  0  0
  4  5  1  0  0  0  0
  4 20  1  0  0  0  0
  4 21  1  0  0  0  0
  5  6  1  0  0  0  0
  5 22  1  0  0  0  0
  5 23  1  0  0  0  0
  6 11  1  0  0  0  0
  6  7  2  0  0  0  0
  7  8  1  0  0  0  0
  7 24  1  0  0  0  0
  8  9  2  0  0  0  0
  8 25  1  0  0  0  0
  9 10  1  0  0  0  0
  9 26  1  0  0  0  0
 10 11  2  0  0  0  0
 10 27  1  0  0  0  0
 12 18  1  0  0  0  0
 12 13  1  0  0  0  0
 13 14  1  0  0  0  0
 13 28  1  0  0  0  0
 13 29  1  0  0  0  0
 14 15  1  0  0  0  0
 14 30  1  0  0  0  0
 14 31  1  0  0  0  0
 15 16  1  0  0  0  0
 15 32  1  0  0  0  0
 15 33  1  0  0  0  0
 16 17  1  0  0  0  0
 16 34  1  0  0  0  0
 16 35  1  0  0  0  0
 17 18  1  0  0  0  0
 17 36  1  0  0  0  0
 17 37  1  0  0  0  0
 18 38  1  0  0  0  0
 18 39  1  0  0  0  0
M  END
> <s_m_source_file>
AV-unprocessed.smi

> <i_m_source_file_index>
3262

> <i_lp_mmshare_version>
43012

> <i_f3d_flags>
0

> <s_epik_input>
W0NIMl0xW0NIMl1bQ0gyXVtDSDJdW0NIMl1bQ0gyXU4xQyg9TylbTkhdW0NIMl1bQ0gyXWMyW2NIXVtjSF1bY0hdW2NIXW4y

> <s_epik_cmdline>
J2VwaWtfcHl0aG9uJywgJy1waCcsICc3LjAnLCAnLXRuJywgJzgnLCAnLW1hJywgJzIwMCcsICctbWV0YWxfYmluZGluZycsICctaW1hZScsICc8aW5maWxlLm1hZT4nLCAnLW9tYWUnLCAnPG91dGZpbGUubWFlPic=

> <r_epik_Ionization_Penalty>
0.0449498

> <r_epik_Ionization_Penalty_Charging>
0

> <r_epik_Ionization_Penalty_Neutral>
0.0449498

> <r_epik_State_Penalty>
0.0380669

> <r_epik_Charging_Adjusted_Penalty>
0.0380669

> <i_epik_Tot_Q>
0

> <i_epik_Tot_abs_Q>
0

> <r_epik_Metal_State_Penalty>
0.0353734

> <b_epik_Metal_Only>
0

> <s_lp_Force_Field>
OPLS_2005

> <r_lp_Energy>
31.2799

> <b_lp_Chiralities_Consistent>
1

> <s_lp_Variant>
AV-unprocessed.smi:3262-1

> <Gold.Version>
5.8.1

> <Gold.Id.Protein>
6NUR|6NUR_protein|mol2

> <Gold.PLP.Fitness>
48.1391

> <Gold.PLP.PLP>
-45.4064

> <Gold.PLP.part.hbond>
0.0000

> <Gold.PLP.part.metal>
0.0000

> <Gold.PLP.part.buried>
-4.0397

> <Gold.PLP.part.nonpolar>
-41.2020

> <Gold.PLP.part.repulsive>
0.3641

> <Gold.PLP.ligand.clash>
0.0000

> <Gold.PLP.ligand.torsion>
0.1398

> <Gold.PLP.Chemscore.Hbond>
0.0000

> <Gold.PLP.Chemscore.CHOScore>
1.0000

> <Gold.PLP.Chemscore.Metal>
0.0000

> <Gold.Chemscore.Hbonds>
donor molecule, donor type, donor heavy atom, donor atom, acceptor molecule, acceptor atom, score
      L1  C    10    27       P1  7948  1.00

> <Gold.PLP.Chemscore.Internal.Correction>
0.0122

> <Gold.Rescore>
     Score         DG    S(hbond)    S(metal)    S(lipo)     H(rot)  DE(clash)    DE(int)     intcor
     14.67     -16.03       0.00        0.00     118.07       1.27       0.03       1.33       ----

> <Gold.Chemscore.Fitness>
14.6679

> <Gold.Chemscore.DG>
-16.0330

> <Gold.Chemscore.ZeroCoef>
-5.4800

> <Gold.Chemscore.Hbond>
0.0000

> <Gold.Chemscore.Metal>
0.0000

> <Gold.Chemscore.Lipo>
118.0687

> <Gold.Chemscore.Internal_Hbond>
0.0000

> <Gold.Chemscore.DEClash>
0.0342

> <Gold.Chemscore.DEInternal>
1.3309

> <Gold.Chemscore.Rot>
1.2738

> <Gold.Chemscore.Internal.Correction>
   9.000000E+99

> <Gold.Chemscore.Hbond.Weighted>
-0.0000

> <Gold.Chemscore.Metal.Weighted>
-0.0000

> <Gold.Chemscore.Lipo.Weighted>
-13.8140

> <Gold.Chemscore.Internal_Hbond.Weighted>
0.0000

> <Gold.Chemscore.DEClash.Weighted>
0.0342

> <Gold.Chemscore.DEInternal.Weighted>
1.3309

> <Gold.Chemscore.Rot.Weighted>
3.2610

> <Gold.Chemscore.Internal.Correction.Weighted>
   9.000000E+99

> <Gold.Protein.RotatedTorsions>
[ 6907 6896 6895 6894 ] final  137.08 input  -60.11 | X-H torsion
[ 7974 7965 7964 7962 ] final  -29.76 input  175.53 | X-H torsion
[ 8008 7997 7996 7995 ] final  105.44 input   59.86 | X-H torsion
[ 10167 10162 10161 10158 ] final  102.86 input  -65.29 | X-H torsion
[ 10718 10713 10712 10709 ] final -175.26 input   66.30 | X-H torsion
[ 10763 10752 10751 10750 ] final -115.89 input  -60.55 | X-H torsion
[ 11005 11000 10999 10996 ] final  128.12 input  -57.11 | X-H torsion

> <Gold.Protein.ActiveResidues>
 VAL166  LYS551  ARG553  GLY616  TRP617  ASP618  TYR619  PRO620  LYS621  CYS622 
 ASP623  PHE694  ASN695  SER759  ASP760  ASP761  ALA762  ILE779  LEU786  VAL792 
 PHE793  MET794  SER795  GLU796  ALA797  LYS798  CYS799  TRP800  GLU811  SER814 

> <Gold.Protein.RotatedAtoms>
  152.2821  133.5480  159.5504 H   0  0  0  0  0  0  0  0  0  0  0  0  # atno 6907 bound_to 6896
  150.7200  134.0549  159.3820 H   0  0  0  0  0  0  0  0  0  0  0  0  # atno 6908 bound_to 6896
  151.8459  135.0574  160.0504 H   0  0  0  0  0  0  0  0  0  0  0  0  # atno 6909 bound_to 6896
  146.1193  140.5454  142.8743 H   0  0  0  0  0  0  0  0  0  0  0  0  # atno 7974 bound_to 7965
  156.1659  140.3130  155.8888 H   0  0  0  0  0  0  0  0  0  0  0  0  # atno 8008 bound_to 7997
  155.3687  140.0480  157.3063 H   0  0  0  0  0  0  0  0  0  0  0  0  # atno 8009 bound_to 7997
  154.5192  140.2192  155.9018 H   0  0  0  0  0  0  0  0  0  0  0  0  # atno 8010 bound_to 7997
  139.7313  144.7035  151.0718 H   0  0  0  0  0  0  0  0  0  0  0  0  # atno 10167 bound_to 10162
  156.7972  130.9539  151.3119 H   0  0  0  0  0  0  0  0  0  0  0  0  # atno 10718 bound_to 10713
  154.8498  135.4365  154.1734 H   0  0  0  0  0  0  0  0  0  0  0  0  # atno 10763 bound_to 10752
  153.2842  135.6956  153.7362 H   0  0  0  0  0  0  0  0  0  0  0  0  # atno 10764 bound_to 10752
  153.6554  135.3444  155.3087 H   0  0  0  0  0  0  0  0  0  0  0  0  # atno 10765 bound_to 10752
  139.9544  134.9616  156.8956 H   0  0  0  0  0  0  0  0  0  0  0  0  # atno 11005 bound_to 11000
  144.7582  140.5358  143.6754 LP  0  0  0  0  0  0  0  0  0  0  0  0  # atno 17320 bound_to 7965
  145.5501  139.1476  143.3399 LP  0  0  0  0  0  0  0  0  0  0  0  0  # atno 17321 bound_to 7965
  140.7771  143.5040  150.9735 LP  0  0  0  0  0  0  0  0  0  0  0  0  # atno 17342 bound_to 10162
  139.8728  143.7170  152.3165 LP  0  0  0  0  0  0  0  0  0  0  0  0  # atno 17343 bound_to 10162
  157.6571  130.8934  149.9752 LP  0  0  0  0  0  0  0  0  0  0  0  0  # atno 17370 bound_to 10713
  156.1123  130.3649  150.0028 LP  0  0  0  0  0  0  0  0  0  0  0  0  # atno 17371 bound_to 10713
  140.5644  134.0504  155.7409 LP  0  0  0  0  0  0  0  0  0  0  0  0  # atno 17394 bound_to 11000
  141.1213  133.9457  157.2724 LP  0  0  0  0  0  0  0  0  0  0  0  0  # atno 17395 bound_to 11000

$$$$
