AV-unprocessed.smi:500|AV-procd|sdf|2737|dock7
  -GOLD-   2262023193D 1   1.00000     0.00000
 Structure written by MMmdl.
 46 48  0  0  0  0  0  0  0  0  2 V2000
  153.0533  136.6725  157.4269 C   0  0  0  0  0  0  0  0  0  0  0  0
  153.5263  138.1081  157.6669 C   0  0  0  0  0  0  0  0  0  0  0  0
  152.9846  138.9473  156.6608 O   0  0  0  0  0  0  0  0  0  0  0  0
  151.5685  138.9104  156.6215 C   0  0  0  0  0  0  0  0  0  0  0  0
  151.0229  139.6854  157.8267 C   0  0  0  0  0  0  0  0  0  0  0  0
  150.7974  141.1020  157.5108 N   0  0  0  0  0  0  0  0  0  0  0  0
  149.9595  141.6843  156.6042 C   0  0  0  0  0  0  0  0  0  0  0  0
  149.0445  140.9700  155.6485 C   0  0  1  0  0  0  0  0  0  0  0  0
  149.7774  140.4487  154.3974 C   0  0  0  0  0  0  0  0  0  0  0  0
  148.2683  139.9121  156.2962 N   0  0  0  0  0  0  0  0  0  0  0  0
  147.5086  140.0270  157.3994 C   0  0  0  0  0  0  0  0  0  0  0  0
  147.3816  141.0742  158.0338 O   0  0  0  0  0  0  0  0  0  0  0  0
  146.8041  138.8017  157.8211 C   0  0  0  0  0  0  0  0  0  0  0  0
  146.6730  137.5781  157.2181 C   0  0  0  0  0  0  0  0  0  0  0  0
  145.8813  136.7783  158.0877 C   0  0  0  0  0  0  0  0  0  0  0  0
  145.5850  137.5694  159.1601 C   0  0  0  0  0  0  0  0  0  0  0  0
  146.1399  138.8032  159.0136 O   0  0  0  0  0  0  0  0  0  0  0  0
  150.1487  143.0329  156.6964 N   0  3  0  0  0  0  0  0  0  0  0  0
  151.0975  143.3142  157.6795 C   0  0  0  0  0  0  0  0  0  0  0  0
  151.6094  144.5257  158.1334 C   0  0  0  0  0  0  0  0  0  0  0  0
  152.5751  144.4599  159.1595 C   0  0  0  0  0  0  0  0  0  0  0  0
  152.9966  143.2244  159.6929 C   0  0  0  0  0  0  0  0  0  0  0  0
  152.4710  142.0026  159.2232 C   0  0  0  0  0  0  0  0  0  0  0  0
  151.5172  142.0773  158.2086 C   0  0  0  0  0  0  0  0  0  0  0  0
  153.4543  135.9993  158.1848 H   0  0  0  0  0  0  0  0  0  0  0  0
  153.3800  136.3104  156.4517 H   0  0  0  0  0  0  0  0  0  0  0  0
  151.9656  136.6062  157.4623 H   0  0  0  0  0  0  0  0  0  0  0  0
  153.2033  138.4461  158.6526 H   0  0  0  0  0  0  0  0  0  0  0  0
  154.6162  138.1478  157.6443 H   0  0  0  0  0  0  0  0  0  0  0  0
  151.2074  139.3581  155.6941 H   0  0  0  0  0  0  0  0  0  0  0  0
  151.2217  137.8762  156.6467 H   0  0  0  0  0  0  0  0  0  0  0  0
  150.0900  139.2504  158.1870 H   0  0  0  0  0  0  0  0  0  0  0  0
  151.7275  139.6332  158.6567 H   0  0  0  0  0  0  0  0  0  0  0  0
  148.3138  141.7030  155.3055 H   0  0  0  0  0  0  0  0  0  0  0  0
  150.2677  141.2634  153.8637 H   0  0  0  0  0  0  0  0  0  0  0  0
  149.0790  139.9790  153.7040 H   0  0  0  0  0  0  0  0  0  0  0  0
  150.5400  139.7102  154.6462 H   0  0  0  0  0  0  0  0  0  0  0  0
  148.3002  139.0046  155.8546 H   0  0  0  0  0  0  0  0  0  0  0  0
  147.0941  137.2904  156.2659 H   0  0  0  0  0  0  0  0  0  0  0  0
  145.5676  135.7546  157.9466 H   0  0  0  0  0  0  0  0  0  0  0  0
  145.0203  137.4216  160.0689 H   0  0  0  0  0  0  0  0  0  0  0  0
  151.2886  145.4733  157.7258 H   0  0  0  0  0  0  0  0  0  0  0  0
  153.0012  145.3748  159.5449 H   0  0  0  0  0  0  0  0  0  0  0  0
  153.7388  143.2130  160.4779 H   0  0  0  0  0  0  0  0  0  0  0  0
  152.7996  141.0613  159.6385 H   0  0  0  0  0  0  0  0  0  0  0  0
  149.6653  143.7087  156.1188 H   0  0  0  0  0  0  0  0  0  0  0  0
  1  2  1  0  0  0  0
  1 25  1  0  0  0  0
  1 26  1  0  0  0  0
  1 27  1  0  0  0  0
  2  3  1  0  0  0  0
  2 28  1  0  0  0  0
  2 29  1  0  0  0  0
  3  4  1  0  0  0  0
  4  5  1  0  0  0  0
  4 30  1  0  0  0  0
  4 31  1  0  0  0  0
  5  6  1  0  0  0  0
  5 32  1  0  0  0  0
  5 33  1  0  0  0  0
  6 24  1  0  0  0  0
  6  7  1  0  0  0  0
  7  8  1  0  0  0  0
  7 18  2  0  0  0  0
  8  9  1  0  0  0  0
  8 10  1  0  0  0  0
  8 34  1  0  0  0  0
  9 35  1  0  0  0  0
  9 36  1  0  0  0  0
  9 37  1  0  0  0  0
 10 11  1  0  0  0  0
 10 38  1  0  0  0  0
 11 12  2  0  0  0  0
 11 13  1  0  0  0  0
 13 17  1  0  0  0  0
 13 14  2  0  0  0  0
 14 15  1  0  0  0  0
 14 39  1  0  0  0  0
 15 16  2  0  0  0  0
 15 40  1  0  0  0  0
 16 17  1  0  0  0  0
 16 41  1  0  0  0  0
 18 19  1  0  0  0  0
 18 46  1  0  0  0  0
 19 24  2  0  0  0  0
 19 20  1  0  0  0  0
 20 21  2  0  0  0  0
 20 42  1  0  0  0  0
 21 22  1  0  0  0  0
 21 43  1  0  0  0  0
 22 23  2  0  0  0  0
 22 44  1  0  0  0  0
 23 24  1  0  0  0  0
 23 45  1  0  0  0  0
M  CHG  1  18   1
M  END
> <s_m_source_file>
AV-unprocessed.smi

> <i_m_source_file_index>
500

> <i_lp_mmshare_version>
43012

> <i_f3d_flags>
0

> <s_epik_input>
W0NIM11bQ0gyXU9bQ0gyXVtDSDJdbihjKGMxMilbY0hdW2NIXVtjSF1bY0hdMiljKG4xKVtDQEhdKFtDSDNdKVtOSF1DKD1PKWMzW2NIXVtjSF1bY0hdbzM=

> <s_epik_cmdline>
J2VwaWtfcHl0aG9uJywgJy1waCcsICc3LjAnLCAnLXRuJywgJzgnLCAnLW1hJywgJzIwMCcsICctbWV0YWxfYmluZGluZycsICctaW1hZScsICc8aW5maWxlLm1hZT4nLCAnLW9tYWUnLCAnPG91dGZpbGUubWFlPic=

> <r_epik_Ionization_Penalty>
1.05286

> <r_epik_Ionization_Penalty_Charging>
1.05283

> <r_epik_Ionization_Penalty_Neutral>
2.09263e-05

> <r_epik_State_Penalty>
1.10586

> <r_epik_Charging_Adjusted_Penalty>
2.15869

> <i_epik_Tot_Q>
1

> <i_epik_Tot_abs_Q>
1

> <r_epik_Metal_State_Penalty>
1.22833

> <b_epik_Metal_Only>
0

> <s_lp_Force_Field>
OPLS_2005

> <r_lp_Energy>
11.8725

> <b_lp_Chiralities_Consistent>
1

> <s_lp_Variant>
AV-unprocessed.smi:500-4

> <Gold.Version>
5.8.1

> <Gold.Id.Protein>
6NUR|6NUR_protein|mol2

> <Gold.PLP.Fitness>
46.6983

> <Gold.PLP.PLP>
-37.7401

> <Gold.PLP.part.hbond>
-3.9708

> <Gold.PLP.part.metal>
0.0000

> <Gold.PLP.part.buried>
-3.9102

> <Gold.PLP.part.nonpolar>
-30.8025

> <Gold.PLP.part.repulsive>
0.0684

> <Gold.PLP.ligand.clash>
0.0000

> <Gold.PLP.ligand.torsion>
0.7799

> <Gold.PLP.Chemscore.Hbond>
3.4480

> <Gold.PLP.Chemscore.CHOScore>
0.0000

> <Gold.PLP.Chemscore.Metal>
0.0000

> <Gold.Chemscore.Hbonds>
donor molecule, donor type, donor heavy atom, donor atom, acceptor molecule, acceptor atom, score
      L1  H    18    46       P1  8028  1.11
      P1  H  6934  6947       L1    17  0.19
      P1  H  7997  8010       L1     3  0.55

> <Gold.PLP.Chemscore.Internal.Correction>
0.1741

> <Gold.Rescore>
     Score         DG    S(hbond)    S(metal)    S(lipo)     H(rot)  DE(clash)    DE(int)     intcor
     19.11     -21.16       2.72        0.00      99.60       1.97       0.14       1.91       ----

> <Gold.Chemscore.Fitness>
19.1078

> <Gold.Chemscore.DG>
-21.1624

> <Gold.Chemscore.ZeroCoef>
-5.4800

> <Gold.Chemscore.Hbond>
2.7197

> <Gold.Chemscore.Metal>
0.0000

> <Gold.Chemscore.Lipo>
99.6026

> <Gold.Chemscore.Internal_Hbond>
0.0000

> <Gold.Chemscore.DEClash>
0.1400

> <Gold.Chemscore.DEInternal>
1.9146

> <Gold.Chemscore.Rot>
1.9746

> <Gold.Chemscore.Internal.Correction>
   9.000000E+99

> <Gold.Chemscore.Hbonds>
donor molecule, donor type, donor heavy atom, donor atom, acceptor molecule, acceptor atom, score
      L1  H    18    46       P1  8028  0.56
      P1  H  6934  6947       L1    17  0.08
      P1  H  7997  8010       L1     3  0.03

> <Gold.Chemscore.Hbond.Weighted>
-9.0839

> <Gold.Chemscore.Metal.Weighted>
-0.0000

> <Gold.Chemscore.Lipo.Weighted>
-11.6535

> <Gold.Chemscore.Internal_Hbond.Weighted>
0.0000

> <Gold.Chemscore.DEClash.Weighted>
0.1400

> <Gold.Chemscore.DEInternal.Weighted>
1.9146

> <Gold.Chemscore.Rot.Weighted>
5.0550

> <Gold.Chemscore.Internal.Correction.Weighted>
   9.000000E+99

> <Gold.Protein.RotatedTorsions>
[ 6907 6896 6895 6894 ] final  155.08 input  -60.11 | X-H torsion
[ 7974 7965 7964 7962 ] final  155.58 input  175.53 | X-H torsion
[ 8008 7997 7996 7995 ] final   51.85 input   59.86 | X-H torsion
[ 10167 10162 10161 10158 ] final  -81.48 input  -65.29 | X-H torsion
[ 10718 10713 10712 10709 ] final  -50.29 input   66.30 | X-H torsion
[ 10763 10752 10751 10750 ] final    1.77 input  -60.55 | X-H torsion
[ 11005 11000 10999 10996 ] final   40.93 input  -57.11 | X-H torsion

> <Gold.Protein.ActiveResidues>
 VAL166  LYS551  ARG553  GLY616  TRP617  ASP618  TYR619  PRO620  LYS621  CYS622 
 ASP623  PHE694  ASN695  SER759  ASP760  ASP761  ALA762  ILE779  LEU786  VAL792 
 PHE793  MET794  SER795  GLU796  ALA797  LYS798  CYS799  TRP800  GLU811  SER814 

> <Gold.Protein.RotatedAtoms>
  152.0493  133.4012  159.4369 H   0  0  0  0  0  0  0  0  0  0  0  0  # atno 6907 bound_to 6896
  150.6871  134.3326  159.4843 H   0  0  0  0  0  0  0  0  0  0  0  0  # atno 6908 bound_to 6896
  152.1134  134.9257  160.0616 H   0  0  0  0  0  0  0  0  0  0  0  0  # atno 6909 bound_to 6896
  144.8016  139.7087  143.6179 H   0  0  0  0  0  0  0  0  0  0  0  0  # atno 7974 bound_to 7965
  155.4421  140.3455  155.4291 H   0  0  0  0  0  0  0  0  0  0  0  0  # atno 8008 bound_to 7997
  156.1272  140.1504  156.9148 H   0  0  0  0  0  0  0  0  0  0  0  0  # atno 8009 bound_to 7997
  154.4867  140.0853  156.7483 H   0  0  0  0  0  0  0  0  0  0  0  0  # atno 8010 bound_to 7997
  140.4408  143.2515  151.8628 H   0  0  0  0  0  0  0  0  0  0  0  0  # atno 10167 bound_to 10162
  156.1814  130.4150  149.9501 H   0  0  0  0  0  0  0  0  0  0  0  0  # atno 10718 bound_to 10713
  153.3038  135.6958  153.7178 H   0  0  0  0  0  0  0  0  0  0  0  0  # atno 10763 bound_to 10752
  153.6082  135.3449  155.2970 H   0  0  0  0  0  0  0  0  0  0  0  0  # atno 10764 bound_to 10752
  154.8557  135.4357  154.2157 H   0  0  0  0  0  0  0  0  0  0  0  0  # atno 10765 bound_to 10752
  140.1883  134.4018  155.8160 H   0  0  0  0  0  0  0  0  0  0  0  0  # atno 11005 bound_to 11000
  146.2299  139.5793  142.9562 LP  0  0  0  0  0  0  0  0  0  0  0  0  # atno 17320 bound_to 7965
  145.5539  141.0411  143.2263 LP  0  0  0  0  0  0  0  0  0  0  0  0  # atno 17321 bound_to 7965
  139.4789  144.5231  151.8773 LP  0  0  0  0  0  0  0  0  0  0  0  0  # atno 17342 bound_to 10162
  140.4320  144.2102  150.5888 LP  0  0  0  0  0  0  0  0  0  0  0  0  # atno 17343 bound_to 10162
  156.7270  130.9029  151.3623 LP  0  0  0  0  0  0  0  0  0  0  0  0  # atno 17370 bound_to 10713
  157.6871  130.9196  150.0414 LP  0  0  0  0  0  0  0  0  0  0  0  0  # atno 17371 bound_to 10713
  141.2225  133.7034  156.8051 LP  0  0  0  0  0  0  0  0  0  0  0  0  # atno 17394 bound_to 11000
  140.2188  134.8772  157.3355 LP  0  0  0  0  0  0  0  0  0  0  0  0  # atno 17395 bound_to 11000

$$$$
