AV-unprocessed.smi:298|AV-procd|sdf|2261|dock3
  -GOLD-   2262022143D 1   1.00000     0.00000
 Structure written by MMmdl.
 38 40  0  0  0  0  0  0  0  0  1 V2000
  153.0807  142.8202  161.5118 C   0  0  0  0  0  0  0  0  0  0  0  0
  152.5134  142.4888  160.1427 C   0  0  0  0  0  0  0  0  0  0  0  0
  152.8603  141.2615  159.5340 C   0  0  0  0  0  0  0  0  0  0  0  0
  152.3540  140.9152  158.2622 C   0  0  0  0  0  0  0  0  0  0  0  0
  152.5589  139.7840  157.4909 N   0  0  0  0  0  0  0  0  0  0  0  0
  151.8220  140.0549  156.4175 C   0  0  0  0  0  0  0  0  0  0  0  0
  151.1630  141.2296  156.4020 N   0  0  0  0  0  0  0  0  0  0  0  0
  150.3106  141.7439  155.3448 C   0  0  0  0  0  0  0  0  0  0  0  0
  149.3429  140.6806  154.7921 C   0  0  2  0  0  0  0  0  0  0  0  0
  149.9956  139.9052  153.8031 O   0  0  0  0  0  0  0  0  0  0  0  0
  148.0713  141.3172  154.1996 C   0  0  0  0  0  0  0  0  0  0  0  0
  147.0513  141.5625  155.2023 N   0  0  0  0  0  0  0  0  0  0  0  0
  145.7281  141.7100  155.0804 C   0  0  0  0  0  0  0  0  0  0  0  0
  145.1012  141.9257  156.2304 N   0  0  0  0  0  0  0  0  0  0  0  0
  146.1786  141.8938  157.0676 C   0  0  0  0  0  0  0  0  0  0  0  0
  146.0328  142.0865  158.5003 C   0  0  0  0  0  0  0  0  0  0  0  0
  145.9169  142.2396  159.6415 N   0  0  0  0  0  0  0  0  0  0  0  0
  147.3705  141.6822  156.5136 N   0  0  0  0  0  0  0  0  0  0  0  0
  151.4857  141.8385  157.6098 C   0  0  0  0  0  0  0  0  0  0  0  0
  151.1328  143.0626  158.2049 C   0  0  0  0  0  0  0  0  0  0  0  0
  151.6457  143.3919  159.4771 C   0  0  0  0  0  0  0  0  0  0  0  0
  151.2551  144.7139  160.1138 C   0  0  0  0  0  0  0  0  0  0  0  0
  153.7461  142.0334  161.8681 H   0  0  0  0  0  0  0  0  0  0  0  0
  152.2776  142.9349  162.2400 H   0  0  0  0  0  0  0  0  0  0  0  0
  153.6516  143.7481  161.4755 H   0  0  0  0  0  0  0  0  0  0  0  0
  153.5208  140.5729  160.0404 H   0  0  0  0  0  0  0  0  0  0  0  0
  151.7569  139.3587  155.5941 H   0  0  0  0  0  0  0  0  0  0  0  0
  149.7503  142.5900  155.7446 H   0  0  0  0  0  0  0  0  0  0  0  0
  150.9417  142.1375  154.5465 H   0  0  0  0  0  0  0  0  0  0  0  0
  149.0569  140.0082  155.6021 H   0  0  0  0  0  0  0  0  0  0  0  0
  149.5551  140.0364  152.9775 H   0  0  0  0  0  0  0  0  0  0  0  0
  148.3140  142.2671  153.7210 H   0  0  0  0  0  0  0  0  0  0  0  0
  147.6483  140.6769  153.4241 H   0  0  0  0  0  0  0  0  0  0  0  0
  145.2139  141.6571  154.1321 H   0  0  0  0  0  0  0  0  0  0  0  0
  150.4717  143.7411  157.6864 H   0  0  0  0  0  0  0  0  0  0  0  0
  150.5981  145.2909  159.4623 H   0  0  0  0  0  0  0  0  0  0  0  0
  152.1398  145.3182  160.3152 H   0  0  0  0  0  0  0  0  0  0  0  0
  150.7295  144.5440  161.0536 H   0  0  0  0  0  0  0  0  0  0  0  0
  1  2  1  0  0  0  0
  1 23  1  0  0  0  0
  1 24  1  0  0  0  0
  1 25  1  0  0  0  0
  2 21  1  0  0  0  0
  2  3  2  0  0  0  0
  3  4  1  0  0  0  0
  3 26  1  0  0  0  0
  4 19  2  0  0  0  0
  4  5  1  0  0  0  0
  5  6  2  0  0  0  0
  6  7  1  0  0  0  0
  6 27  1  0  0  0  0
  7  8  1  0  0  0  0
  7 19  1  0  0  0  0
  8  9  1  0  0  0  0
  8 28  1  0  0  0  0
  8 29  1  0  0  0  0
  9 10  1  0  0  0  0
  9 11  1  0  0  0  0
  9 30  1  0  0  0  0
 10 31  1  0  0  0  0
 11 12  1  0  0  0  0
 11 32  1  0  0  0  0
 11 33  1  0  0  0  0
 12 18  1  0  0  0  0
 12 13  1  0  0  0  0
 13 14  2  0  0  0  0
 13 34  1  0  0  0  0
 14 15  1  0  0  0  0
 15 16  1  0  0  0  0
 15 18  2  0  0  0  0
 16 17  3  0  0  0  0
 19 20  1  0  0  0  0
 20 21  2  0  0  0  0
 20 35  1  0  0  0  0
 21 22  1  0  0  0  0
 22 36  1  0  0  0  0
 22 37  1  0  0  0  0
 22 38  1  0  0  0  0
M  END
> <s_m_source_file>
AV-unprocessed.smi

> <i_m_source_file_index>
298

> <i_lp_mmshare_version>
43012

> <i_f3d_flags>
0

> <s_epik_input>
W0NIM11jKFtjSF0xKWMoW0NIM10pW2NIXWMoYzEyKW4oW2NIXW4yKVtDSDJdW0NASF0oW09IXSlbQ0gyXW4zW2NIXW5jKG4zKUMjTg==

> <s_epik_cmdline>
J2VwaWtfcHl0aG9uJywgJy1waCcsICc3LjAnLCAnLXRuJywgJzgnLCAnLW1hJywgJzIwMCcsICctbWV0YWxfYmluZGluZycsICctaW1hZScsICc8aW5maWxlLm1hZT4nLCAnLW9tYWUnLCAnPG91dGZpbGUubWFlPic=

> <r_epik_Ionization_Penalty>
0.0968684

> <r_epik_Ionization_Penalty_Charging>
0

> <r_epik_Ionization_Penalty_Neutral>
0.0968684

> <r_epik_State_Penalty>
0.0870047

> <r_epik_Charging_Adjusted_Penalty>
0.0870047

> <i_epik_Tot_Q>
0

> <i_epik_Tot_abs_Q>
0

> <r_epik_Metal_State_Penalty>
0.0746849

> <b_epik_Metal_Only>
0

> <s_lp_Force_Field>
OPLS_2005

> <r_lp_Energy>
11.7232

> <b_lp_Chiralities_Consistent>
1

> <s_lp_Variant>
AV-unprocessed.smi:298-1

> <Gold.Version>
5.8.1

> <Gold.Id.Protein>
6NUR|6NUR_protein|mol2

> <Gold.PLP.Fitness>
55.1203

> <Gold.PLP.PLP>
-42.8718

> <Gold.PLP.part.hbond>
-4.0000

> <Gold.PLP.part.metal>
0.0000

> <Gold.PLP.part.buried>
-5.8261

> <Gold.PLP.part.nonpolar>
-33.4663

> <Gold.PLP.part.repulsive>
0.1858

> <Gold.PLP.ligand.clash>
0.0000

> <Gold.PLP.ligand.torsion>
1.1148

> <Gold.PLP.Chemscore.Hbond>
3.8240

> <Gold.PLP.Chemscore.CHOScore>
0.9930

> <Gold.PLP.Chemscore.Metal>
0.0000

> <Gold.Chemscore.Hbonds>
donor molecule, donor type, donor heavy atom, donor atom, acceptor molecule, acceptor atom, score
      L1  H    10    31       P1  7957  0.98
      P1  H  6934  6946       L1    17  1.00
      P1  H  7989  7998       L1    10  0.85
      P1  H  7997  8010       L1     5  1.00
      L1  C    13    34       P1 10175  1.00

> <Gold.PLP.Chemscore.Internal.Correction>
0.0271

> <Gold.Rescore>
     Score         DG    S(hbond)    S(metal)    S(lipo)     H(rot)  DE(clash)    DE(int)     intcor
     16.80     -18.54       2.71        0.00     100.51       3.03       0.55       1.19       ----

> <Gold.Chemscore.Fitness>
16.7990

> <Gold.Chemscore.DG>
-18.5403

> <Gold.Chemscore.ZeroCoef>
-5.4800

> <Gold.Chemscore.Hbond>
2.7128

> <Gold.Chemscore.Metal>
0.0000

> <Gold.Chemscore.Lipo>
100.5149

> <Gold.Chemscore.Internal_Hbond>
0.0000

> <Gold.Chemscore.DEClash>
0.5503

> <Gold.Chemscore.DEInternal>
1.1910

> <Gold.Chemscore.Rot>
3.0316

> <Gold.Chemscore.Internal.Correction>
   9.000000E+99

> <Gold.Chemscore.Hbonds>
donor molecule, donor type, donor heavy atom, donor atom, acceptor molecule, acceptor atom, score
      L1  H    10    31       P1  7957  0.93
      P1  H  6934  6946       L1    17  0.78
      P1  H  7989  7998       L1    10  0.10
      P1  H  7997  8010       L1     5  0.11

> <Gold.Chemscore.Hbond.Weighted>
-9.0609

> <Gold.Chemscore.Metal.Weighted>
-0.0000

> <Gold.Chemscore.Lipo.Weighted>
-11.7602

> <Gold.Chemscore.Internal_Hbond.Weighted>
0.0000

> <Gold.Chemscore.DEClash.Weighted>
0.5503

> <Gold.Chemscore.DEInternal.Weighted>
1.1910

> <Gold.Chemscore.Rot.Weighted>
7.7609

> <Gold.Chemscore.Internal.Correction.Weighted>
   9.000000E+99

> <Gold.Protein.RotatedTorsions>
[ 6907 6896 6895 6894 ] final  -46.08 input  -60.11 | X-H torsion
[ 7974 7965 7964 7962 ] final -145.52 input  175.53 | X-H torsion
[ 8008 7997 7996 7995 ] final   49.74 input   59.86 | X-H torsion
[ 10167 10162 10161 10158 ] final   65.98 input  -65.29 | X-H torsion
[ 10718 10713 10712 10709 ] final   71.36 input   66.30 | X-H torsion
[ 10763 10752 10751 10750 ] final  149.02 input  -60.55 | X-H torsion
[ 11005 11000 10999 10996 ] final -173.09 input  -57.11 | X-H torsion

> <Gold.Protein.ActiveResidues>
 VAL166  LYS551  ARG553  GLY616  TRP617  ASP618  TYR619  PRO620  LYS621  CYS622 
 ASP623  PHE694  ASN695  SER759  ASP760  ASP761  ALA762  ILE779  LEU786  VAL792 
 PHE793  MET794  SER795  GLU796  ALA797  LYS798  CYS799  TRP800  GLU811  SER814 

> <Gold.Protein.RotatedAtoms>
  150.9151  134.8568  159.7451 H   0  0  0  0  0  0  0  0  0  0  0  0  # atno 6907 bound_to 6896
  152.4964  134.4301  159.9519 H   0  0  0  0  0  0  0  0  0  0  0  0  # atno 6908 bound_to 6896
  151.4340  133.3622  159.2808 H   0  0  0  0  0  0  0  0  0  0  0  0  # atno 6909 bound_to 6896
  144.8222  140.5573  143.5571 H   0  0  0  0  0  0  0  0  0  0  0  0  # atno 7974 bound_to 7965
  155.4072  140.3440  155.4261 H   0  0  0  0  0  0  0  0  0  0  0  0  # atno 8008 bound_to 7997
  156.1470  140.1559  156.8863 H   0  0  0  0  0  0  0  0  0  0  0  0  # atno 8009 bound_to 7997
  154.5019  140.0812  156.7796 H   0  0  0  0  0  0  0  0  0  0  0  0  # atno 8010 bound_to 7997
  140.1054  144.4866  150.7011 H   0  0  0  0  0  0  0  0  0  0  0  0  # atno 10167 bound_to 10162
  157.6448  130.9524  150.0779 H   0  0  0  0  0  0  0  0  0  0  0  0  # atno 10718 bound_to 10713
  154.0643  135.2871  155.3319 H   0  0  0  0  0  0  0  0  0  0  0  0  # atno 10763 bound_to 10752
  154.6788  135.5271  153.8238 H   0  0  0  0  0  0  0  0  0  0  0  0  # atno 10764 bound_to 10752
  153.0510  135.6576  154.0829 H   0  0  0  0  0  0  0  0  0  0  0  0  # atno 10765 bound_to 10752
  140.4897  134.5996  157.4950 H   0  0  0  0  0  0  0  0  0  0  0  0  # atno 11005 bound_to 11000
  145.5080  139.1480  143.3620 LP  0  0  0  0  0  0  0  0  0  0  0  0  # atno 17320 bound_to 7965
  146.2527  140.5221  142.8886 LP  0  0  0  0  0  0  0  0  0  0  0  0  # atno 17321 bound_to 7965
  140.6955  143.2401  151.5013 LP  0  0  0  0  0  0  0  0  0  0  0  0  # atno 17342 bound_to 10162
  139.5648  144.2068  152.1748 LP  0  0  0  0  0  0  0  0  0  0  0  0  # atno 17343 bound_to 10162
  156.1764  130.3648  149.9095 LP  0  0  0  0  0  0  0  0  0  0  0  0  # atno 17370 bound_to 10713
  156.7058  130.8951  151.3604 LP  0  0  0  0  0  0  0  0  0  0  0  0  # atno 17371 bound_to 10713
  139.9777  134.7189  155.9919 LP  0  0  0  0  0  0  0  0  0  0  0  0  # atno 17394 bound_to 11000
  141.1490  133.6551  156.3955 LP  0  0  0  0  0  0  0  0  0  0  0  0  # atno 17395 bound_to 11000

$$$$
