AV-unprocessed.smi:1701|AV-procd|sdf|6838|dock6
  -GOLD-   22720 8 13D 1   1.00000     0.00000
 Structure written by MMmdl.
 54 56  0  0  0  0  0  0  0  0  4 V2000
  150.5326  142.1525  156.8411 C   0  0  0  0  0  0  0  0  0  0  0  0
  150.6051  142.9849  158.1309 C   0  0  0  0  0  0  0  0  0  0  0  0
  151.9640  143.1258  158.6541 N   0  0  0  0  0  0  0  0  0  0  0  0
  152.5845  144.4523  158.6914 C   0  0  0  0  0  0  0  0  0  0  0  0
  151.8604  145.4326  159.6256 C   0  0  0  0  0  0  0  0  0  0  0  0
  152.5981  142.0311  159.2916 C   0  0  0  0  0  0  0  0  0  0  0  0
  153.6805  142.1718  160.1967 C   0  0  0  0  0  0  0  0  0  0  0  0
  154.2567  141.0302  160.7902 C   0  0  0  0  0  0  0  0  0  0  0  0
  153.7455  139.7512  160.4924 C   0  0  0  0  0  0  0  0  0  0  0  0
  154.3691  138.6269  161.0974 N   0  0  0  0  0  0  0  0  0  0  0  0
  153.8915  137.3686  161.2618 C   0  0  0  0  0  0  0  0  0  0  0  0
  152.7437  137.1138  160.9027 O   0  0  0  0  0  0  0  0  0  0  0  0
  154.6763  136.4147  161.8472 N   0  5  0  0  0  0  0  0  0  0  0  0
  154.2989  135.3378  162.7788 C   0  0  1  0  0  0  0  0  0  0  0  0
  155.1465  134.0893  162.5045 C   0  0  0  0  0  0  0  0  0  0  0  0
  156.4478  134.2852  163.3066 C   0  0  0  0  0  0  0  0  0  0  0  0
  156.1878  135.3403  164.3201 N   0  3  1  0  0  0  0  0  0  0  0  0
  157.1302  136.4910  164.2044 C   0  0  0  0  0  0  0  0  0  0  0  0
  156.7160  137.6758  165.0847 C   0  0  0  0  0  0  0  0  0  0  0  0
  155.3188  138.1564  164.6876 C   0  0  0  0  0  0  0  0  0  0  0  0
  154.3105  137.0150  164.8743 C   0  0  0  0  0  0  0  0  0  0  0  0
  154.7382  135.6710  164.2202 C   0  0  1  0  0  0  0  0  0  0  0  0
  152.6755  139.6568  159.5732 C   0  0  0  0  0  0  0  0  0  0  0  0
  152.1553  140.7768  159.0270 N   0  3  0  0  0  0  0  0  0  0  0  0
  149.5047  142.0918  156.4834 H   0  0  0  0  0  0  0  0  0  0  0  0
  150.8809  141.1331  156.9994 H   0  0  0  0  0  0  0  0  0  0  0  0
  151.1318  142.5892  156.0424 H   0  0  0  0  0  0  0  0  0  0  0  0
  150.1592  143.9674  157.9779 H   0  0  0  0  0  0  0  0  0  0  0  0
  149.9859  142.5074  158.8907 H   0  0  0  0  0  0  0  0  0  0  0  0
  153.6341  144.3698  158.9749 H   0  0  0  0  0  0  0  0  0  0  0  0
  152.5935  144.8650  157.6822 H   0  0  0  0  0  0  0  0  0  0  0  0
  152.3867  146.3867  159.6598 H   0  0  0  0  0  0  0  0  0  0  0  0
  151.8057  145.0500  160.6450 H   0  0  0  0  0  0  0  0  0  0  0  0
  150.8455  145.6352  159.2869 H   0  0  0  0  0  0  0  0  0  0  0  0
  154.0881  143.1382  160.4495 H   0  0  0  0  0  0  0  0  0  0  0  0
  155.0838  141.1405  161.4762 H   0  0  0  0  0  0  0  0  0  0  0  0
  155.2752  138.8014  161.5063 H   0  0  0  0  0  0  0  0  0  0  0  0
  153.2336  135.1055  162.7437 H   0  0  0  0  0  0  0  0  0  0  0  0
  154.6209  133.2127  162.8857 H   0  0  0  0  0  0  0  0  0  0  0  0
  155.3292  133.9133  161.4432 H   0  0  0  0  0  0  0  0  0  0  0  0
  156.7454  133.3591  163.7996 H   0  0  0  0  0  0  0  0  0  0  0  0
  157.2658  134.5660  162.6401 H   0  0  0  0  0  0  0  0  0  0  0  0
  158.1308  136.1550  164.4778 H   0  0  0  0  0  0  0  0  0  0  0  0
  157.1879  136.8256  163.1672 H   0  0  0  0  0  0  0  0  0  0  0  0
  156.7326  137.3884  166.1367 H   0  0  0  0  0  0  0  0  0  0  0  0
  157.4329  138.4895  164.9710 H   0  0  0  0  0  0  0  0  0  0  0  0
  155.0286  139.0131  165.2962 H   0  0  0  0  0  0  0  0  0  0  0  0
  155.3202  138.4990  163.6523 H   0  0  0  0  0  0  0  0  0  0  0  0
  154.2108  136.8460  165.9474 H   0  0  0  0  0  0  0  0  0  0  0  0
  153.3186  137.3275  164.5424 H   0  0  0  0  0  0  0  0  0  0  0  0
  154.2518  134.9055  164.8281 H   0  0  0  0  0  0  0  0  0  0  0  0
  152.2223  138.7343  159.2419 H   0  0  0  0  0  0  0  0  0  0  0  0
  156.3319  134.9436  165.2371 H   0  0  0  0  0  0  0  0  0  0  0  0
  151.3825  140.6695  158.3701 H   0  0  0  0  0  0  0  0  0  0  0  0
  1  2  1  0  0  0  0
  1 25  1  0  0  0  0
  1 26  1  0  0  0  0
  1 27  1  0  0  0  0
  2  3  1  0  0  0  0
  2 28  1  0  0  0  0
  2 29  1  0  0  0  0
  3  4  1  0  0  0  0
  3  6  1  0  0  0  0
  4  5  1  0  0  0  0
  4 30  1  0  0  0  0
  4 31  1  0  0  0  0
  5 32  1  0  0  0  0
  5 33  1  0  0  0  0
  5 34  1  0  0  0  0
  6 24  1  0  0  0  0
  6  7  2  0  0  0  0
  7  8  1  0  0  0  0
  7 35  1  0  0  0  0
  8  9  2  0  0  0  0
  8 36  1  0  0  0  0
  9 10  1  0  0  0  0
  9 23  1  0  0  0  0
 10 11  1  0  0  0  0
 10 37  1  0  0  0  0
 11 12  2  0  0  0  0
 11 13  1  0  0  0  0
 13 14  1  0  0  0  0
 14 22  1  0  0  0  0
 14 15  1  0  0  0  0
 14 38  1  0  0  0  0
 15 16  1  0  0  0  0
 15 39  1  0  0  0  0
 15 40  1  0  0  0  0
 16 17  1  0  0  0  0
 16 41  1  0  0  0  0
 16 42  1  0  0  0  0
 17 22  1  0  0  0  0
 17 18  1  0  0  0  0
 17 53  1  0  0  0  0
 18 19  1  0  0  0  0
 18 43  1  0  0  0  0
 18 44  1  0  0  0  0
 19 20  1  0  0  0  0
 19 45  1  0  0  0  0
 19 46  1  0  0  0  0
 20 21  1  0  0  0  0
 20 47  1  0  0  0  0
 20 48  1  0  0  0  0
 21 22  1  0  0  0  0
 21 49  1  0  0  0  0
 21 50  1  0  0  0  0
 22 51  1  0  0  0  0
 23 24  2  0  0  0  0
 23 52  1  0  0  0  0
 24 54  1  0  0  0  0
M  CHG  1  13  -1
M  CHG  1  17   1
M  CHG  1  24   1
M  END
> <s_m_source_file>
AV-unprocessed.smi

> <i_m_source_file_index>
1701

> <i_lp_mmshare_version>
43012

> <i_f3d_flags>
0

> <s_epik_input>
W0NIM11bQ0gyXU4oW0NIMl1bQ0gzXSljMVtjSF1bY0hdYyhbY0hdbjEpW05IXUMoPU8pW05IXVtDQEhdKFtDSDJdW0NIMl0yKVtDQEBIXShOMjMpW0NIMl1bQ0gyXVtDSDJdW0NIMl0z

> <s_epik_cmdline>
J2VwaWtfcHl0aG9uJywgJy1waCcsICc3LjAnLCAnLXRuJywgJzgnLCAnLW1hJywgJzIwMCcsICctbWV0YWxfYmluZGluZycsICctaW1hZScsICc8aW5maWxlLm1hZT4nLCAnLW9tYWUnLCAnPG91dGZpbGUubWFlPic=

> <r_lp_tautomer_probability>
0.999994

> <r_epik_Ionization_Penalty>
7.37095

> <r_epik_Ionization_Penalty_Charging>
7.37095

> <r_epik_Ionization_Penalty_Neutral>
3.78969e-06

> <r_epik_State_Penalty>
6.83842

> <r_epik_Charging_Adjusted_Penalty>
14.2094

> <i_epik_Tot_Q>
1

> <i_epik_Tot_abs_Q>
3

> <r_epik_Metal_State_Penalty>
2.78552

> <b_epik_Metal_Only>
1

> <s_lp_Force_Field>
OPLS_2005

> <r_lp_Energy>
56.1591

> <b_lp_Chiralities_Consistent>
1

> <s_lp_Variant>
AV-unprocessed.smi:1701-18

> <Gold.Version>
5.8.1

> <Gold.Id.Protein>
6NUR|6NUR_protein|mol2

> <Gold.PLP.Fitness>
47.2390

> <Gold.PLP.PLP>
-47.5323

> <Gold.PLP.part.hbond>
-0.2536

> <Gold.PLP.part.metal>
0.0000

> <Gold.PLP.part.buried>
-6.3675

> <Gold.PLP.part.nonpolar>
-41.5399

> <Gold.PLP.part.repulsive>
0.1148

> <Gold.PLP.ligand.clash>
0.0000

> <Gold.PLP.ligand.torsion>
0.9454

> <Gold.PLP.Chemscore.Hbond>
0.4713

> <Gold.PLP.Chemscore.CHOScore>
0.0000

> <Gold.PLP.Chemscore.Metal>
0.0000

> <Gold.Chemscore.Hbonds>
donor molecule, donor type, donor heavy atom, donor atom, acceptor molecule, acceptor atom, score
      P1  H  6896  6908       L1    12  0.24

> <Gold.PLP.Chemscore.Internal.Correction>
0.1837

> <Gold.Rescore>
     Score         DG    S(hbond)    S(metal)    S(lipo)     H(rot)  DE(clash)    DE(int)     intcor
     17.42     -20.08       0.99        0.00     124.69       1.28       0.27       2.39       ----

> <Gold.Chemscore.Fitness>
17.4177

> <Gold.Chemscore.DG>
-20.0815

> <Gold.Chemscore.ZeroCoef>
-5.4800

> <Gold.Chemscore.Hbond>
0.9878

> <Gold.Chemscore.Metal>
0.0000

> <Gold.Chemscore.Lipo>
124.6908

> <Gold.Chemscore.Internal_Hbond>
0.0000

> <Gold.Chemscore.DEClash>
0.2709

> <Gold.Chemscore.DEInternal>
2.3929

> <Gold.Chemscore.Rot>
1.2838

> <Gold.Chemscore.Internal.Correction>
   9.000000E+99

> <Gold.Chemscore.Hbonds>
donor molecule, donor type, donor heavy atom, donor atom, acceptor molecule, acceptor atom, score
      P1  H  6896  6908       L1    12  0.25

> <Gold.Chemscore.Hbond.Weighted>
-3.2993

> <Gold.Chemscore.Metal.Weighted>
-0.0000

> <Gold.Chemscore.Lipo.Weighted>
-14.5888

> <Gold.Chemscore.Internal_Hbond.Weighted>
0.0000

> <Gold.Chemscore.DEClash.Weighted>
0.2709

> <Gold.Chemscore.DEInternal.Weighted>
2.3929

> <Gold.Chemscore.Rot.Weighted>
3.2865

> <Gold.Chemscore.Internal.Correction.Weighted>
   9.000000E+99

> <Gold.Protein.RotatedTorsions>
[ 6907 6896 6895 6894 ] final  -92.87 input  -60.11 | X-H torsion
[ 7974 7965 7964 7962 ] final  132.01 input  175.53 | X-H torsion
[ 8008 7997 7996 7995 ] final -139.67 input   59.86 | X-H torsion
[ 10167 10162 10161 10158 ] final   87.92 input  -65.29 | X-H torsion
[ 10718 10713 10712 10709 ] final  -64.36 input   66.30 | X-H torsion
[ 10763 10752 10751 10750 ] final  119.48 input  -60.55 | X-H torsion
[ 11005 11000 10999 10996 ] final  -39.57 input  -57.11 | X-H torsion

> <Gold.Protein.ActiveResidues>
 VAL166  LYS551  ARG553  GLY616  TRP617  ASP618  TYR619  PRO620  LYS621  CYS622 
 ASP623  PHE694  ASN695  SER759  ASP760  ASP761  ALA762  ILE779  LEU786  VAL792 
 PHE793  MET794  SER795  GLU796  ALA797  LYS798  CYS799  TRP800  GLU811  SER814 

> <Gold.Protein.RotatedAtoms>
  150.6913  134.2055  159.4338 H   0  0  0  0  0  0  0  0  0  0  0  0  # atno 6907 bound_to 6896
  152.0020  134.9921  160.0574 H   0  0  0  0  0  0  0  0  0  0  0  0  # atno 6908 bound_to 6896
  152.1570  133.4522  159.4878 H   0  0  0  0  0  0  0  0  0  0  0  0  # atno 6909 bound_to 6896
  145.0013  139.4309  143.5291 H   0  0  0  0  0  0  0  0  0  0  0  0  # atno 7974 bound_to 7965
  155.4488  140.0537  157.3003 H   0  0  0  0  0  0  0  0  0  0  0  0  # atno 8008 bound_to 7997
  154.4786  140.2072  155.9773 H   0  0  0  0  0  0  0  0  0  0  0  0  # atno 8009 bound_to 7997
  156.1171  140.3194  155.8159 H   0  0  0  0  0  0  0  0  0  0  0  0  # atno 8010 bound_to 7997
  139.8725  144.6485  150.8933 H   0  0  0  0  0  0  0  0  0  0  0  0  # atno 10167 bound_to 10162
  156.0734  130.4232  150.1409 H   0  0  0  0  0  0  0  0  0  0  0  0  # atno 10718 bound_to 10713
  153.5837  135.3479  155.2885 H   0  0  0  0  0  0  0  0  0  0  0  0  # atno 10763 bound_to 10752
  154.8664  135.4188  154.2592 H   0  0  0  0  0  0  0  0  0  0  0  0  # atno 10764 bound_to 10752
  153.3384  135.7048  153.6958 H   0  0  0  0  0  0  0  0  0  0  0  0  # atno 10765 bound_to 10752
  141.0111  133.6907  156.2204 H   0  0  0  0  0  0  0  0  0  0  0  0  # atno 11005 bound_to 11000
  146.3452  139.9403  142.8742 LP  0  0  0  0  0  0  0  0  0  0  0  0  # atno 17320 bound_to 7965
  145.2149  140.9911  143.4079 LP  0  0  0  0  0  0  0  0  0  0  0  0  # atno 17321 bound_to 7965
  140.7758  143.3652  151.1752 LP  0  0  0  0  0  0  0  0  0  0  0  0  # atno 17342 bound_to 10162
  139.7271  143.9132  152.3006 LP  0  0  0  0  0  0  0  0  0  0  0  0  # atno 17343 bound_to 10162
  156.9455  130.9758  151.3508 LP  0  0  0  0  0  0  0  0  0  0  0  0  # atno 17370 bound_to 10713
  157.5817  130.8381  149.8531 LP  0  0  0  0  0  0  0  0  0  0  0  0  # atno 17371 bound_to 10713
  140.6731  134.4846  157.5587 LP  0  0  0  0  0  0  0  0  0  0  0  0  # atno 17394 bound_to 11000
  139.9090  134.8385  156.1596 LP  0  0  0  0  0  0  0  0  0  0  0  0  # atno 17395 bound_to 11000

$$$$
