AV-unprocessed.smi:2834|AV-procd|sdf|10917|dock10
  -GOLD-   2272015363D 1   1.00000     0.00000
 Structure written by MMmdl.
 35 36  0  0  0  0  0  0  0  0  1 V2000
  146.1210  134.6876  151.2020 C   0  0  0  0  0  0  0  0  0  0  0  0
  145.9775  133.1560  151.3382 C   0  0  2  0  0  0  0  0  0  0  0  0
  147.2770  132.5453  151.6415 N   0  0  0  0  0  0  0  0  0  0  0  0
  148.0539  132.7765  152.7125 C   0  0  0  0  0  0  0  0  0  0  0  0
  147.7557  133.5497  153.6229 O   0  0  0  0  0  0  0  0  0  0  0  0
  149.1859  132.0562  152.6547 N   0  0  0  0  0  0  0  0  0  0  0  0
  150.2553  132.0583  153.5856 C   0  0  0  0  0  0  0  0  0  0  0  0
  150.4083  132.9945  154.6409 C   0  0  0  0  0  0  0  0  0  0  0  0
  151.4983  132.7432  155.3500 N   0  0  0  0  0  0  0  0  0  0  0  0
  152.0546  131.6529  154.7659 N   0  0  0  0  0  0  0  0  0  0  0  0
  153.2813  131.0952  155.3057 C   0  0  0  0  0  0  0  0  0  0  0  0
  154.5235  131.5379  154.5152 C   0  0  0  0  0  0  0  0  0  0  0  0
  154.4713  131.0160  153.2902 F   0  0  0  0  0  0  0  0  0  0  0  0
  154.5659  132.8662  154.4110 F   0  0  0  0  0  0  0  0  0  0  0  0
  155.6345  131.1083  155.1141 F   0  0  0  0  0  0  0  0  0  0  0  0
  151.3210  131.2091  153.6837 C   0  0  0  0  0  0  0  0  0  0  0  0
  145.4214  132.5484  150.0418 C   0  0  0  0  0  0  0  0  0  0  0  0
  144.1843  131.7687  150.4779 C   0  0  0  0  0  0  0  0  0  0  0  0
  143.7438  132.4800  151.6189 O   0  0  0  0  0  0  0  0  0  0  0  0
  144.9046  132.7688  152.3794 C   0  0  0  0  0  0  0  0  0  0  0  0
  145.1697  135.1501  150.9366 H   0  0  0  0  0  0  0  0  0  0  0  0
  146.8430  134.9488  150.4278 H   0  0  0  0  0  0  0  0  0  0  0  0
  146.4523  135.1504  152.1316 H   0  0  0  0  0  0  0  0  0  0  0  0
  147.6210  131.8862  150.9588 H   0  0  0  0  0  0  0  0  0  0  0  0
  149.3017  131.4532  151.8535 H   0  0  0  0  0  0  0  0  0  0  0  0
  149.7782  133.8288  154.9122 H   0  0  0  0  0  0  0  0  0  0  0  0
  153.3686  131.4056  156.3476 H   0  0  0  0  0  0  0  0  0  0  0  0
  153.2028  130.0068  155.3096 H   0  0  0  0  0  0  0  0  0  0  0  0
  151.6198  130.3487  153.1033 H   0  0  0  0  0  0  0  0  0  0  0  0
  145.1214  133.3319  149.3445 H   0  0  0  0  0  0  0  0  0  0  0  0
  146.1318  131.9098  149.5145 H   0  0  0  0  0  0  0  0  0  0  0  0
  143.4165  131.7285  149.7048 H   0  0  0  0  0  0  0  0  0  0  0  0
  144.4453  130.7471  150.7599 H   0  0  0  0  0  0  0  0  0  0  0  0
  145.1817  131.8678  152.9300 H   0  0  0  0  0  0  0  0  0  0  0  0
  144.7122  133.5559  153.1094 H   0  0  0  0  0  0  0  0  0  0  0  0
  1  2  1  0  0  0  0
  1 21  1  0  0  0  0
  1 22  1  0  0  0  0
  1 23  1  0  0  0  0
  2 20  1  0  0  0  0
  2  3  1  0  0  0  0
  2 17  1  0  0  0  0
  3  4  1  0  0  0  0
  3 24  1  0  0  0  0
  4  5  2  0  0  0  0
  4  6  1  0  0  0  0
  6  7  1  0  0  0  0
  6 25  1  0  0  0  0
  7 16  2  0  0  0  0
  7  8  1  0  0  0  0
  8  9  2  0  0  0  0
  8 26  1  0  0  0  0
  9 10  1  0  0  0  0
 10 11  1  0  0  0  0
 10 16  1  0  0  0  0
 11 12  1  0  0  0  0
 11 27  1  0  0  0  0
 11 28  1  0  0  0  0
 12 13  1  0  0  0  0
 12 14  1  0  0  0  0
 12 15  1  0  0  0  0
 16 29  1  0  0  0  0
 17 18  1  0  0  0  0
 17 30  1  0  0  0  0
 17 31  1  0  0  0  0
 18 19  1  0  0  0  0
 18 32  1  0  0  0  0
 18 33  1  0  0  0  0
 19 20  1  0  0  0  0
 20 34  1  0  0  0  0
 20 35  1  0  0  0  0
M  END
> <s_m_source_file>
AV-unprocessed.smi

> <i_m_source_file_index>
2834

> <i_lp_mmshare_version>
43012

> <i_f3d_flags>
0

> <s_epik_input>
W0NIMl0xT1tDSDJdW0NIMl1bQ0BAXTEoW0NIM10pW05IXUMoPU8pW05IXWMyW2NIXW5uKFtjSF0yKVtDSDJdQyhGKShGKUY=

> <s_epik_cmdline>
J2VwaWtfcHl0aG9uJywgJy1waCcsICc3LjAnLCAnLXRuJywgJzgnLCAnLW1hJywgJzIwMCcsICctbWV0YWxfYmluZGluZycsICctaW1hZScsICc8aW5maWxlLm1hZT4nLCAnLW9tYWUnLCAnPG91dGZpbGUubWFlPic=

> <r_lp_tautomer_probability>
1

> <r_epik_Ionization_Penalty>
3.3002e-05

> <r_epik_Ionization_Penalty_Charging>
0

> <r_epik_Ionization_Penalty_Neutral>
3.3002e-05

> <r_epik_State_Penalty>
-0

> <r_epik_Charging_Adjusted_Penalty>
0

> <i_epik_Tot_Q>
0

> <i_epik_Tot_abs_Q>
0

> <r_epik_Metal_State_Penalty>
-0

> <b_epik_Metal_Only>
0

> <s_lp_Force_Field>
OPLS_2005

> <r_lp_Energy>
22.3443

> <b_lp_Chiralities_Consistent>
1

> <s_lp_Variant>
AV-unprocessed.smi:2834-2

> <Gold.Version>
5.8.1

> <Gold.Id.Protein>
6NUR|6NUR_protein|mol2

> <Gold.PLP.Fitness>
38.3958

> <Gold.PLP.PLP>
-30.1268

> <Gold.PLP.part.hbond>
-2.0000

> <Gold.PLP.part.metal>
0.0000

> <Gold.PLP.part.buried>
-1.5508

> <Gold.PLP.part.nonpolar>
-25.5892

> <Gold.PLP.part.repulsive>
0.3215

> <Gold.PLP.ligand.clash>
0.0000

> <Gold.PLP.ligand.torsion>
0.3648

> <Gold.PLP.Chemscore.Hbond>
2.0000

> <Gold.PLP.Chemscore.CHOScore>
0.9890

> <Gold.PLP.Chemscore.Metal>
0.0000

> <Gold.Chemscore.Hbonds>
donor molecule, donor type, donor heavy atom, donor atom, acceptor molecule, acceptor atom, score
      L1  H     3    24       P1 10747  1.00
      L1  H     6    25       P1 10747  1.00

> <Gold.PLP.Chemscore.Internal.Correction>
0.0317

> <Gold.Rescore>
     Score         DG    S(hbond)    S(metal)    S(lipo)     H(rot)  DE(clash)    DE(int)     intcor
     13.36     -14.95       1.69        0.00      61.97       1.34       0.04       1.55       ----

> <Gold.Chemscore.Fitness>
13.3580

> <Gold.Chemscore.DG>
-14.9453

> <Gold.Chemscore.ZeroCoef>
-5.4800

> <Gold.Chemscore.Hbond>
1.6914

> <Gold.Chemscore.Metal>
0.0000

> <Gold.Chemscore.Lipo>
61.9707

> <Gold.Chemscore.Internal_Hbond>
0.0000

> <Gold.Chemscore.DEClash>
0.0360

> <Gold.Chemscore.DEInternal>
1.5513

> <Gold.Chemscore.Rot>
1.3417

> <Gold.Chemscore.Internal.Correction>
   9.000000E+99

> <Gold.Chemscore.Hbonds>
donor molecule, donor type, donor heavy atom, donor atom, acceptor molecule, acceptor atom, score
      L1  H     3    24       P1 10747  0.94
      L1  H     6    25       P1 10747  0.25

> <Gold.Chemscore.Hbond.Weighted>
-5.6494

> <Gold.Chemscore.Metal.Weighted>
-0.0000

> <Gold.Chemscore.Lipo.Weighted>
-7.2506

> <Gold.Chemscore.Internal_Hbond.Weighted>
0.0000

> <Gold.Chemscore.DEClash.Weighted>
0.0360

> <Gold.Chemscore.DEInternal.Weighted>
1.5513

> <Gold.Chemscore.Rot.Weighted>
3.4347

> <Gold.Chemscore.Internal.Correction.Weighted>
   9.000000E+99

> <Gold.Protein.RotatedTorsions>
[ 6907 6896 6895 6894 ] final -144.87 input  -60.11 | X-H torsion
[ 7974 7965 7964 7962 ] final -159.77 input  175.53 | X-H torsion
[ 8008 7997 7996 7995 ] final  115.86 input   59.86 | X-H torsion
[ 10167 10162 10161 10158 ] final  100.46 input  -65.29 | X-H torsion
[ 10718 10713 10712 10709 ] final   -2.80 input   66.30 | X-H torsion
[ 10763 10752 10751 10750 ] final  -55.21 input  -60.55 | X-H torsion
[ 11005 11000 10999 10996 ] final   47.16 input  -57.11 | X-H torsion

> <Gold.Protein.ActiveResidues>
 VAL166  LYS551  ARG553  GLY616  TRP617  ASP618  TYR619  PRO620  LYS621  CYS622 
 ASP623  PHE694  ASN695  SER759  ASP760  ASP761  ALA762  ILE779  LEU786  VAL792 
 PHE793  MET794  SER795  GLU796  ALA797  LYS798  CYS799  TRP800  GLU811  SER814 

> <Gold.Protein.RotatedAtoms>
  151.1199  133.5111  159.2602 H   0  0  0  0  0  0  0  0  0  0  0  0  # atno 6907 bound_to 6896
  151.1873  135.0386  159.8827 H   0  0  0  0  0  0  0  0  0  0  0  0  # atno 6908 bound_to 6896
  152.5455  134.1044  159.8385 H   0  0  0  0  0  0  0  0  0  0  0  0  # atno 6909 bound_to 6896
  144.7452  140.3637  143.6091 H   0  0  0  0  0  0  0  0  0  0  0  0  # atno 7974 bound_to 7965
  156.2406  140.2930  156.0433 H   0  0  0  0  0  0  0  0  0  0  0  0  # atno 8008 bound_to 7997
  155.1963  140.0408  157.2926 H   0  0  0  0  0  0  0  0  0  0  0  0  # atno 8009 bound_to 7997
  154.6161  140.2464  155.7615 H   0  0  0  0  0  0  0  0  0  0  0  0  # atno 8010 bound_to 7997
  139.7525  144.6980  151.0412 H   0  0  0  0  0  0  0  0  0  0  0  0  # atno 10167 bound_to 10162
  156.7854  130.5344  149.5744 H   0  0  0  0  0  0  0  0  0  0  0  0  # atno 10718 bound_to 10713
  154.1872  135.6433  153.5050 H   0  0  0  0  0  0  0  0  0  0  0  0  # atno 10763 bound_to 10752
  153.0044  135.5420  154.6453 H   0  0  0  0  0  0  0  0  0  0  0  0  # atno 10764 bound_to 10752
  154.5832  135.2927  155.0684 H   0  0  0  0  0  0  0  0  0  0  0  0  # atno 10765 bound_to 10752
  140.1304  134.4713  155.8526 H   0  0  0  0  0  0  0  0  0  0  0  0  # atno 11005 bound_to 11000
  145.7150  139.1695  143.2517 LP  0  0  0  0  0  0  0  0  0  0  0  0  # atno 17320 bound_to 7965
  146.1319  140.7174  142.9408 LP  0  0  0  0  0  0  0  0  0  0  0  0  # atno 17321 bound_to 7965
  140.7799  143.4792  151.0040 LP  0  0  0  0  0  0  0  0  0  0  0  0  # atno 17342 bound_to 10162
  139.8480  143.7476  152.3179 LP  0  0  0  0  0  0  0  0  0  0  0  0  # atno 17343 bound_to 10162
  156.1192  130.6097  151.0167 LP  0  0  0  0  0  0  0  0  0  0  0  0  # atno 17370 bound_to 10713
  157.6626  131.0878  150.7803 LP  0  0  0  0  0  0  0  0  0  0  0  0  # atno 17371 bound_to 10713
  141.2169  133.6794  156.7058 LP  0  0  0  0  0  0  0  0  0  0  0  0  # atno 17394 bound_to 11000
  140.2849  134.8287  157.3966 LP  0  0  0  0  0  0  0  0  0  0  0  0  # atno 17395 bound_to 11000

$$$$
