AV-unprocessed.smi:2526|AV-procd|sdf|9936|dock8
  -GOLD-   2272013583D 1   1.00000     0.00000
 Structure written by MMmdl.
 29 30  0  0  0  0  0  0  0  0  2 V2000
  140.9611  138.6601  152.5182 C   0  0  0  0  0  0  0  0  0  0  0  0
  141.6693  137.4314  152.2297 N   0  0  0  0  0  0  0  0  0  0  0  0
  142.9219  137.2687  151.6801 C   0  0  0  0  0  0  0  0  0  0  0  0
  143.1649  135.9244  151.5905 C   0  0  0  0  0  0  0  0  0  0  0  0
  144.3801  135.1945  151.0536 C   0  0  2  0  0  0  0  0  0  0  0  0
  143.9792  134.0313  150.2577 N   0  0  0  0  0  0  0  0  0  0  0  0
  143.9280  132.7523  150.6751 C   0  0  0  0  0  0  0  0  0  0  0  0
  143.4648  131.8654  149.9630 O   0  0  0  0  0  0  0  0  0  0  0  0
  144.5091  132.3864  152.0516 C   0  0  0  0  0  0  0  0  0  0  0  0
  144.7857  133.5929  152.9672 C   0  0  0  0  0  0  0  0  0  0  0  0
  145.3637  134.7709  152.1716 C   0  0  2  0  0  0  0  0  0  0  0  0
  145.7403  135.8935  153.0510 N   0  3  0  0  0  0  0  0  0  0  0  0
  141.9813  135.3471  152.1360 C   0  0  0  0  0  0  0  0  0  0  0  0
  141.0883  136.2477  152.5089 N   0  0  0  0  0  0  0  0  0  0  0  0
  141.5596  139.5181  152.2110 H   0  0  0  0  0  0  0  0  0  0  0  0
  140.7646  138.7305  153.5885 H   0  0  0  0  0  0  0  0  0  0  0  0
  140.0143  138.6772  151.9774 H   0  0  0  0  0  0  0  0  0  0  0  0
  143.5296  138.1152  151.3946 H   0  0  0  0  0  0  0  0  0  0  0  0
  144.9182  135.8539  150.3714 H   0  0  0  0  0  0  0  0  0  0  0  0
  143.6310  134.2243  149.3292 H   0  0  0  0  0  0  0  0  0  0  0  0
  143.8449  131.6817  152.5528 H   0  0  0  0  0  0  0  0  0  0  0  0
  145.4433  131.8537  151.8714 H   0  0  0  0  0  0  0  0  0  0  0  0
  143.8655  133.8908  153.4720 H   0  0  0  0  0  0  0  0  0  0  0  0
  145.4801  133.2955  153.7536 H   0  0  0  0  0  0  0  0  0  0  0  0
  146.2884  134.4321  151.7017 H   0  0  0  0  0  0  0  0  0  0  0  0
  146.7467  135.9369  153.1261 H   0  0  0  0  0  0  0  0  0  0  0  0
  145.3404  135.7541  153.9680 H   0  0  0  0  0  0  0  0  0  0  0  0
  141.7438  134.3013  152.2645 H   0  0  0  0  0  0  0  0  0  0  0  0
  145.3944  136.7587  152.6612 H   0  0  0  0  0  0  0  0  0  0  0  0
  1  2  1  0  0  0  0
  1 15  1  0  0  0  0
  1 16  1  0  0  0  0
  1 17  1  0  0  0  0
  2 14  1  0  0  0  0
  2  3  1  0  0  0  0
  3  4  2  0  0  0  0
  3 18  1  0  0  0  0
  4  5  1  0  0  0  0
  4 13  1  0  0  0  0
  5 11  1  0  0  0  0
  5  6  1  0  0  0  0
  5 19  1  0  0  0  0
  6  7  1  0  0  0  0
  6 20  1  0  0  0  0
  7  8  2  0  0  0  0
  7  9  1  0  0  0  0
  9 10  1  0  0  0  0
  9 21  1  0  0  0  0
  9 22  1  0  0  0  0
 10 11  1  0  0  0  0
 10 23  1  0  0  0  0
 10 24  1  0  0  0  0
 11 12  1  0  0  0  0
 11 25  1  0  0  0  0
 12 26  1  0  0  0  0
 12 27  1  0  0  0  0
 12 29  1  0  0  0  0
 13 14  2  0  0  0  0
 13 28  1  0  0  0  0
M  CHG  1  12   1
M  END
> <s_m_source_file>
AV-unprocessed.smi

> <i_m_source_file_index>
2526

> <i_lp_mmshare_version>
43012

> <i_f3d_flags>
0

> <s_epik_input>
W0NIM11uMVtjSF1jKFtjSF1uMSlbQ0BASF0yW05IXUMoPU8pW0NIMl1bQ0gyXVtDQEhdMltOSDJd

> <s_epik_cmdline>
J2VwaWtfcHl0aG9uJywgJy1waCcsICc3LjAnLCAnLXRuJywgJzgnLCAnLW1hJywgJzIwMCcsICctbWV0YWxfYmluZGluZycsICctaW1hZScsICc8aW5maWxlLm1hZT4nLCAnLW9tYWUnLCAnPG91dGZpbGUubWFlPic=

> <r_lp_tautomer_probability>
1

> <r_epik_Ionization_Penalty>
0.00878543

> <r_epik_Ionization_Penalty_Charging>
0.00874185

> <r_epik_Ionization_Penalty_Neutral>
4.35793e-05

> <r_epik_State_Penalty>
0.00660351

> <r_epik_Charging_Adjusted_Penalty>
0.0153454

> <i_epik_Tot_Q>
1

> <i_epik_Tot_abs_Q>
1

> <r_epik_Metal_State_Penalty>
0.00660727

> <b_epik_Metal_Only>
0

> <s_lp_Force_Field>
OPLS_2005

> <r_lp_Energy>
11.1602

> <b_lp_Chiralities_Consistent>
1

> <s_lp_Variant>
AV-unprocessed.smi:2526-3

> <Gold.Version>
5.8.1

> <Gold.Id.Protein>
6NUR|6NUR_protein|mol2

> <Gold.PLP.Fitness>
43.0072

> <Gold.PLP.PLP>
-24.5453

> <Gold.PLP.part.hbond>
-2.9358

> <Gold.PLP.part.metal>
0.0000

> <Gold.PLP.part.buried>
-7.0260

> <Gold.PLP.part.nonpolar>
-16.6819

> <Gold.PLP.part.repulsive>
0.4982

> <Gold.PLP.ligand.clash>
0.0000

> <Gold.PLP.ligand.torsion>
0.5773

> <Gold.PLP.Chemscore.Hbond>
3.6918

> <Gold.PLP.Chemscore.CHOScore>
2.8408

> <Gold.PLP.Chemscore.Metal>
0.0000

> <Gold.Chemscore.Hbonds>
donor molecule, donor type, donor heavy atom, donor atom, acceptor molecule, acceptor atom, score
      P1  H 10785 10796       L1     8  0.76
      L1  C     3    18       P1 10171  0.09
      L1  C     3    18       P1 10175  0.96

> <Gold.PLP.Chemscore.Internal.Correction>
0.0187

> <Gold.Rescore>
     Score         DG    S(hbond)    S(metal)    S(lipo)     H(rot)  DE(clash)    DE(int)     intcor
     16.23     -16.79       2.81        0.00      38.42       1.00       0.05       0.51       ----

> <Gold.Chemscore.Fitness>
16.2340

> <Gold.Chemscore.DG>
-16.7944

> <Gold.Chemscore.ZeroCoef>
-5.4800

> <Gold.Chemscore.Hbond>
2.8083

> <Gold.Chemscore.Metal>
0.0000

> <Gold.Chemscore.Lipo>
38.4156

> <Gold.Chemscore.Internal_Hbond>
0.0000

> <Gold.Chemscore.DEClash>
0.0544

> <Gold.Chemscore.DEInternal>
0.5060

> <Gold.Chemscore.Rot>
1.0000

> <Gold.Chemscore.Internal.Correction>
   9.000000E+99

> <Gold.Chemscore.Hbonds>
donor molecule, donor type, donor heavy atom, donor atom, acceptor molecule, acceptor atom, score
      P1  H 10785 10796       L1     8  0.72

> <Gold.Chemscore.Hbond.Weighted>
-9.3798

> <Gold.Chemscore.Metal.Weighted>
-0.0000

> <Gold.Chemscore.Lipo.Weighted>
-4.4946

> <Gold.Chemscore.Internal_Hbond.Weighted>
0.0000

> <Gold.Chemscore.DEClash.Weighted>
0.0544

> <Gold.Chemscore.DEInternal.Weighted>
0.5060

> <Gold.Chemscore.Rot.Weighted>
2.5600

> <Gold.Chemscore.Internal.Correction.Weighted>
   9.000000E+99

> <Gold.Protein.RotatedTorsions>
[ 6907 6896 6895 6894 ] final  -97.48 input  -60.11 | X-H torsion
[ 7974 7965 7964 7962 ] final   11.76 input  175.53 | X-H torsion
[ 8008 7997 7996 7995 ] final   37.28 input   59.86 | X-H torsion
[ 10167 10162 10161 10158 ] final  -11.80 input  -65.29 | X-H torsion
[ 10718 10713 10712 10709 ] final -101.90 input   66.30 | X-H torsion
[ 10763 10752 10751 10750 ] final -171.05 input  -60.55 | X-H torsion
[ 11005 11000 10999 10996 ] final  161.98 input  -57.11 | X-H torsion

> <Gold.Protein.ActiveResidues>
 VAL166  LYS551  ARG553  GLY616  TRP617  ASP618  TYR619  PRO620  LYS621  CYS622 
 ASP623  PHE694  ASN695  SER759  ASP760  ASP761  ALA762  ILE779  LEU786  VAL792 
 PHE793  MET794  SER795  GLU796  ALA797  LYS798  CYS799  TRP800  GLU811  SER814 

> <Gold.Protein.RotatedAtoms>
  150.7018  134.1342  159.4080 H   0  0  0  0  0  0  0  0  0  0  0  0  # atno 6907 bound_to 6896
  151.9327  135.0247  160.0539 H   0  0  0  0  0  0  0  0  0  0  0  0  # atno 6908 bound_to 6896
  152.2161  133.4913  159.5174 H   0  0  0  0  0  0  0  0  0  0  0  0  # atno 6909 bound_to 6896
  146.2365  139.9436  142.8480 H   0  0  0  0  0  0  0  0  0  0  0  0  # atno 7974 bound_to 7965
  155.2011  140.3316  155.4343 H   0  0  0  0  0  0  0  0  0  0  0  0  # atno 8008 bound_to 7997
  156.2406  140.1893  156.7048 H   0  0  0  0  0  0  0  0  0  0  0  0  # atno 8009 bound_to 7997
  154.6141  140.0605  156.9517 H   0  0  0  0  0  0  0  0  0  0  0  0  # atno 8010 bound_to 7997
  140.7147  143.5601  150.9205 H   0  0  0  0  0  0  0  0  0  0  0  0  # atno 10167 bound_to 10162
  156.0210  130.5395  150.7031 H   0  0  0  0  0  0  0  0  0  0  0  0  # atno 10718 bound_to 10713
  154.6348  135.2891  155.0174 H   0  0  0  0  0  0  0  0  0  0  0  0  # atno 10763 bound_to 10752
  154.1322  135.6532  153.4928 H   0  0  0  0  0  0  0  0  0  0  0  0  # atno 10764 bound_to 10752
  153.0297  135.5313  154.7190 H   0  0  0  0  0  0  0  0  0  0  0  0  # atno 10765 bound_to 10752
  140.2211  134.8195  157.3222 H   0  0  0  0  0  0  0  0  0  0  0  0  # atno 11005 bound_to 11000
  145.1928  140.9819  143.4201 LP  0  0  0  0  0  0  0  0  0  0  0  0  # atno 17320 bound_to 7965
  144.9842  139.3753  143.6247 LP  0  0  0  0  0  0  0  0  0  0  0  0  # atno 17321 bound_to 7965
  139.9326  143.6475  152.3073 LP  0  0  0  0  0  0  0  0  0  0  0  0  # atno 17342 bound_to 10162
  139.6932  144.7644  151.1403 LP  0  0  0  0  0  0  0  0  0  0  0  0  # atno 17343 bound_to 10162
  157.4686  131.0891  151.0667 LP  0  0  0  0  0  0  0  0  0  0  0  0  # atno 17370 bound_to 10713
  157.1134  130.6031  149.5487 LP  0  0  0  0  0  0  0  0  0  0  0  0  # atno 17371 bound_to 10713
  140.1848  134.4444  155.7750 LP  0  0  0  0  0  0  0  0  0  0  0  0  # atno 17394 bound_to 11000
  141.2223  133.7000  156.7929 LP  0  0  0  0  0  0  0  0  0  0  0  0  # atno 17395 bound_to 11000

$$$$
