#       Name:                AV-unprocessed.smi:2541
#       Creating user name   scv26
#       Creation time:       Fri Mar 27 14:04:08 2020


#       File generated by GOLD software.
#

@<TRIPOS>MOLECULE
AV-unprocessed.smi:2541
    45    46     1
SMALL
NO_CHARGES


@<TRIPOS>ATOM
      1 ****        -1.7656   1.3495  -2.3279 O.2            1 S1                 0.0000
      2 ****        -2.3994   0.3860  -1.8972 C.2            1 S1                 0.0000
      3 ****        -3.9288   0.4124  -1.8999 C.3            1 S1                 0.0000
      4 ****        -4.4520   0.4726  -0.4889 C.2            1 S1                 0.0000
      5 ****        -4.4826   1.5863   0.3963 C.2            1 S1                 0.0000
      6 ****        -5.0467   1.0774   1.5304 C.2            1 S1                 0.0000
      7 ****        -5.3450  -0.2357   1.3648 O.3            1 S1                 0.0000
      8 ****        -4.9643  -0.6126   0.0720 N.2            1 S1                 0.0000
      9 ****        -1.8188  -0.7197  -1.4046 N.am           1 S1                 0.0000
     10 ****        -0.3822  -0.9241  -1.2557 C.3            1 S1                 0.0000
     11 ****         0.1690  -0.2111  -0.0020 C.3            1 S1                 0.0000
     12 ****        -0.2196  -0.9455   1.1439 O.3            1 S1                 0.0000
     13 ****         1.7098  -0.0512  -0.0203 C.3            1 S1                 0.0000
     14 ****         2.4787  -1.3941  -0.0378 C.3            1 S1                 0.0000
     15 ****         4.0000  -1.1777  -0.0877 C.3            1 S1                 0.0000
     16 ****         4.4769  -0.2909   1.0722 C.3            1 S1                 0.0000
     17 ****         3.7304   1.0513   1.0815 C.3            1 S1                 0.0000
     18 ****         2.2086   0.8413   1.1379 C.3            1 S1                 0.0000
     19 ****        -4.2761   1.2768  -2.4668 H              1 S1                 0.0000
     20 ****        -4.3019  -0.4702  -2.4218 H              1 S1                 0.0000
     21 ****        -4.1400   2.5961   0.2266 H              1 S1                 0.0000
     22 ****        -5.2908   1.5018   2.4930 H              1 S1                 0.0000
     23 ****        -2.4186  -1.4598  -1.0692 H              1 S1                 0.0000
     24 ****        -0.1832  -1.9954  -1.2144 H              1 S1                 0.0000
     25 ****         0.1197  -0.5549  -2.1517 H              1 S1                 0.0000
     26 ****        -0.2726   0.7839   0.0693 H              1 S1                 0.0000
     27 ****         0.0812  -0.4837   1.9115 H              1 S1                 0.0000
     28 ****         1.9582   0.4726  -0.9447 H              1 S1                 0.0000
     29 ****         2.2309  -1.9803   0.8479 H              1 S1                 0.0000
     30 ****         2.1790  -1.9931  -0.8975 H              1 S1                 0.0000
     31 ****         4.5126  -2.1394  -0.0548 H              1 S1                 0.0000
     32 ****         4.2724  -0.7155  -1.0372 H              1 S1                 0.0000
     33 ****         4.3145  -0.8075   2.0191 H              1 S1                 0.0000
     34 ****         5.5507  -0.1195   0.9926 H              1 S1                 0.0000
     35 ****         4.0544   1.6505   1.9328 H              1 S1                 0.0000
     36 ****         3.9888   1.6200   0.1873 H              1 S1                 0.0000
     37 ****         1.7085   1.8098   1.1048 H              1 S1                 0.0000
     38 ****         1.9456   0.3922   2.0963 H              1 S1                 0.0000
     39 ****        -2.2506   2.1501  -2.6798 LP             1 S1                 0.0000
     40 ****        -0.7658   1.3316  -2.3258 LP             1 S1                 0.0000
     41 ****        -6.3280  -0.3767   1.4826 LP             1 S1                 0.0000
     42 ****        -4.8469  -0.7831   2.0372 LP             1 S1                 0.0000
     43 ****        -5.0596  -1.5170  -0.3438 LP             1 S1                 0.0000
     44 ****         0.1909  -1.8569   1.1159 LP             1 S1                 0.0000
     45 ****        -1.2158  -1.0293   1.1692 LP             1 S1                 0.0000
@<TRIPOS>BOND
    1    1    2 2     
    2    2    3 1     
    3    2    9 am    
    4    3    4 1     
    5    3   19 1     
    6    3   20 1     
    7    4    8 2     
    8    4    5 1     
    9    5    6 2     
   10    5   21 1     
   11    6    7 1     
   12    6   22 1     
   13    7    8 1     
   14    9   10 1     
   15    9   23 1     
   16   10   11 1     
   17   10   24 1     
   18   10   25 1     
   19   11   12 1     
   20   11   13 1     
   21   11   26 1     
   22   12   27 1     
   23   13   18 1     
   24   13   14 1     
   25   13   28 1     
   26   14   15 1     
   27   14   29 1     
   28   14   30 1     
   29   15   16 1     
   30   15   31 1     
   31   15   32 1     
   32   16   17 1     
   33   16   33 1     
   34   16   34 1     
   35   17   18 1     
   36   17   35 1     
   37   17   36 1     
   38   18   37 1     
   39   18   38 1     
   40    1   39 1     
   41    1   40 1     
   42    7   41 1     
   43    7   42 1     
   44    8   43 1     
   45   12   44 1     
   46   12   45 1     
@<TRIPOS>SUBSTRUCTURE
      1 S1             1
@<TRIPOS>SET
LONE_PAIRS      STATIC     ATOMS    <user>   **** ""
7 39 40 41 42 43 44 45
DONOR_HYDROGENS      STATIC     ATOMS    <user>   **** ""
2 23 27
ATOM$BLUE        STATIC     ATOMS    COLORGROUP SYSTEM
7 39 40 41 42 43 44 45
ATOM$RED        STATIC     ATOMS    COLORGROUP SYSTEM
2 23 27
