AV-unprocessed.smi:291|AV-procd|sdf|2248|dock3
  -GOLD-   2262022133D 1   1.00000     0.00000
 Structure written by MMmdl.
 35 36  0  0  0  0  0  0  0  0  1 V2000
  151.4726  145.5793  159.2591 C   0  0  0  0  0  0  0  0  0  0  0  0
  152.3712  144.5418  159.9469 C   0  0  2  0  0  0  0  0  0  0  0  0
  153.1035  143.6611  158.9165 C   0  0  0  0  0  0  0  0  0  0  0  0
  154.0012  142.6142  159.6004 C   0  0  0  0  0  0  0  0  0  0  0  0
  153.2221  141.7436  160.6041 C   0  0  2  0  0  0  0  0  0  0  0  0
  152.3061  140.8566  159.8912 N   0  0  0  0  0  0  0  0  0  0  0  0
  152.6471  139.9688  158.9437 C   0  0  0  0  0  0  0  0  0  0  0  0
  153.8038  139.7922  158.5625 O   0  0  0  0  0  0  0  0  0  0  0  0
  151.5091  139.1419  158.3406 C   0  0  0  0  0  0  0  0  0  0  0  0
  151.1760  139.5889  156.9991 N   0  0  0  0  0  0  0  0  0  0  0  0
  151.7629  139.3287  155.8259 C   0  0  0  0  0  0  0  0  0  0  0  0
  151.1869  139.9269  154.7902 N   0  0  0  0  0  0  0  0  0  0  0  0
  150.1867  140.5787  155.4516 C   0  0  0  0  0  0  0  0  0  0  0  0
  149.2312  141.4168  154.7474 C   0  0  0  0  0  0  0  0  0  0  0  0
  148.4704  142.0842  154.1863 N   0  0  0  0  0  0  0  0  0  0  0  0
  150.1265  140.4166  156.7716 N   0  0  0  0  0  0  0  0  0  0  0  0
  152.4649  142.6220  161.6208 C   0  0  0  0  0  0  0  0  0  0  0  0
  151.5705  143.6682  160.9319 C   0  0  0  0  0  0  0  0  0  0  0  0
  150.6886  145.0990  158.6731 H   0  0  0  0  0  0  0  0  0  0  0  0
  152.0497  146.2143  158.5863 H   0  0  0  0  0  0  0  0  0  0  0  0
  150.9911  146.2281  159.9914 H   0  0  0  0  0  0  0  0  0  0  0  0
  153.1247  145.0870  160.5174 H   0  0  0  0  0  0  0  0  0  0  0  0
  152.3769  143.1603  158.2749 H   0  0  0  0  0  0  0  0  0  0  0  0
  153.7108  144.2847  158.2597 H   0  0  0  0  0  0  0  0  0  0  0  0
  154.4811  141.9857  158.8489 H   0  0  0  0  0  0  0  0  0  0  0  0
  154.8082  143.1272  160.1252 H   0  0  0  0  0  0  0  0  0  0  0  0
  153.9462  141.1314  161.1447 H   0  0  0  0  0  0  0  0  0  0  0  0
  151.3293  140.9253  160.1386 H   0  0  0  0  0  0  0  0  0  0  0  0
  151.7930  138.0896  158.2960 H   0  0  0  0  0  0  0  0  0  0  0  0
  150.6266  139.2114  158.9785 H   0  0  0  0  0  0  0  0  0  0  0  0
  152.6311  138.6934  155.7295 H   0  0  0  0  0  0  0  0  0  0  0  0
  151.8668  142.0009  162.2888 H   0  0  0  0  0  0  0  0  0  0  0  0
  153.1880  143.1359  162.2554 H   0  0  0  0  0  0  0  0  0  0  0  0
  151.0988  144.2967  161.6880 H   0  0  0  0  0  0  0  0  0  0  0  0
  150.7592  143.1654  160.4037 H   0  0  0  0  0  0  0  0  0  0  0  0
  1  2  1  0  0  0  0
  1 19  1  0  0  0  0
  1 20  1  0  0  0  0
  1 21  1  0  0  0  0
  2 18  1  0  0  0  0
  2  3  1  0  0  0  0
  2 22  1  0  0  0  0
  3  4  1  0  0  0  0
  3 23  1  0  0  0  0
  3 24  1  0  0  0  0
  4  5  1  0  0  0  0
  4 25  1  0  0  0  0
  4 26  1  0  0  0  0
  5  6  1  0  0  0  0
  5 17  1  0  0  0  0
  5 27  1  0  0  0  0
  6  7  1  0  0  0  0
  6 28  1  0  0  0  0
  7  8  2  0  0  0  0
  7  9  1  0  0  0  0
  9 10  1  0  0  0  0
  9 29  1  0  0  0  0
  9 30  1  0  0  0  0
 10 16  1  0  0  0  0
 10 11  1  0  0  0  0
 11 12  2  0  0  0  0
 11 31  1  0  0  0  0
 12 13  1  0  0  0  0
 13 14  1  0  0  0  0
 13 16  2  0  0  0  0
 14 15  3  0  0  0  0
 17 18  1  0  0  0  0
 17 32  1  0  0  0  0
 17 33  1  0  0  0  0
 18 34  1  0  0  0  0
 18 35  1  0  0  0  0
M  END
> <s_m_source_file>
AV-unprocessed.smi

> <i_m_source_file_index>
291

> <i_lp_mmshare_version>
43012

> <i_f3d_flags>
0

> <s_epik_input>
W0NIM11bQ0BASF0xW0NIMl1bQ0gyXVtDQEhdKFtDSDJdW0NIMl0xKVtOSF1DKD1PKVtDSDJdbjJbY0hdbmMobjIpQyNO

> <s_epik_cmdline>
J2VwaWtfcHl0aG9uJywgJy1waCcsICc3LjAnLCAnLXRuJywgJzgnLCAnLW1hJywgJzIwMCcsICctbWV0YWxfYmluZGluZycsICctaW1hZScsICc8aW5maWxlLm1hZT4nLCAnLW9tYWUnLCAnPG91dGZpbGUubWFlPic=

> <r_lp_tautomer_probability>
1

> <r_epik_Ionization_Penalty>
5.31112e-08

> <r_epik_Ionization_Penalty_Charging>
0

> <r_epik_Ionization_Penalty_Neutral>
5.31112e-08

> <r_epik_State_Penalty>
-0

> <r_epik_Charging_Adjusted_Penalty>
0

> <i_epik_Tot_Q>
0

> <i_epik_Tot_abs_Q>
0

> <r_epik_Metal_State_Penalty>
-0

> <b_epik_Metal_Only>
0

> <s_lp_Force_Field>
OPLS_2005

> <r_lp_Energy>
11.449

> <b_lp_Chiralities_Consistent>
1

> <s_lp_Variant>
AV-unprocessed.smi:291-2

> <Gold.Version>
5.8.1

> <Gold.Id.Protein>
6NUR|6NUR_protein|mol2

> <Gold.PLP.Fitness>
44.5230

> <Gold.PLP.PLP>
-38.4272

> <Gold.PLP.part.hbond>
-3.0000

> <Gold.PLP.part.metal>
0.0000

> <Gold.PLP.part.buried>
-2.4779

> <Gold.PLP.part.nonpolar>
-32.0710

> <Gold.PLP.part.repulsive>
0.4244

> <Gold.PLP.ligand.clash>
0.0000

> <Gold.PLP.ligand.torsion>
0.4825

> <Gold.PLP.Chemscore.Hbond>
2.3515

> <Gold.PLP.Chemscore.CHOScore>
0.0000

> <Gold.PLP.Chemscore.Metal>
0.0000

> <Gold.Chemscore.Hbonds>
donor molecule, donor type, donor heavy atom, donor atom, acceptor molecule, acceptor atom, score
      P1  H  7989  7998       L1    12  1.00
      P1  H  7997  8008       L1     8  1.00
      P1  H  8011  8017       L1    15  0.10

> <Gold.PLP.Chemscore.Internal.Correction>
0.0062

> <Gold.Rescore>
     Score         DG    S(hbond)    S(metal)    S(lipo)     H(rot)  DE(clash)    DE(int)     intcor
     16.29     -17.15       1.97        0.00      86.09       1.95       0.16       0.69       ----

> <Gold.Chemscore.Fitness>
16.2946

> <Gold.Chemscore.DG>
-17.1524

> <Gold.Chemscore.ZeroCoef>
-5.4800

> <Gold.Chemscore.Hbond>
1.9715

> <Gold.Chemscore.Metal>
0.0000

> <Gold.Chemscore.Lipo>
86.0930

> <Gold.Chemscore.Internal_Hbond>
0.0000

> <Gold.Chemscore.DEClash>
0.1640

> <Gold.Chemscore.DEInternal>
0.6937

> <Gold.Chemscore.Rot>
1.9474

> <Gold.Chemscore.Internal.Correction>
   9.000000E+99

> <Gold.Chemscore.Hbonds>
donor molecule, donor type, donor heavy atom, donor atom, acceptor molecule, acceptor atom, score
      P1  H  7989  7998       L1    12  0.65
      P1  H  7997  8008       L1     8  0.97
      P1  H  8011  8017       L1    15  0.01

> <Gold.Chemscore.Hbond.Weighted>
-6.5847

> <Gold.Chemscore.Metal.Weighted>
-0.0000

> <Gold.Chemscore.Lipo.Weighted>
-10.0729

> <Gold.Chemscore.Internal_Hbond.Weighted>
0.0000

> <Gold.Chemscore.DEClash.Weighted>
0.1640

> <Gold.Chemscore.DEInternal.Weighted>
0.6937

> <Gold.Chemscore.Rot.Weighted>
4.9852

> <Gold.Chemscore.Internal.Correction.Weighted>
   9.000000E+99

> <Gold.Protein.RotatedTorsions>
[ 6907 6896 6895 6894 ] final -145.12 input  -60.11 | X-H torsion
[ 7974 7965 7964 7962 ] final -114.77 input  175.53 | X-H torsion
[ 8008 7997 7996 7995 ] final -111.20 input   59.86 | X-H torsion
[ 10167 10162 10161 10158 ] final  179.65 input  -65.29 | X-H torsion
[ 10718 10713 10712 10709 ] final  -93.83 input   66.30 | X-H torsion
[ 10763 10752 10751 10750 ] final -119.31 input  -60.55 | X-H torsion
[ 11005 11000 10999 10996 ] final  110.70 input  -57.11 | X-H torsion

> <Gold.Protein.ActiveResidues>
 VAL166  LYS551  ARG553  GLY616  TRP617  ASP618  TYR619  PRO620  LYS621  CYS622 
 ASP623  PHE694  ASN695  SER759  ASP760  ASP761  ALA762  ILE779  LEU786  VAL792 
 PHE793  MET794  SER795  GLU796  ALA797  LYS798  CYS799  TRP800  GLU811  SER814 

> <Gold.Protein.RotatedAtoms>
  151.1234  133.5088  159.2601 H   0  0  0  0  0  0  0  0  0  0  0  0  # atno 6907 bound_to 6896
  151.1837  135.0371  159.8813 H   0  0  0  0  0  0  0  0  0  0  0  0  # atno 6908 bound_to 6896
  152.5457  134.1083  159.8401 H   0  0  0  0  0  0  0  0  0  0  0  0  # atno 6909 bound_to 6896
  145.1163  140.8642  143.3840 H   0  0  0  0  0  0  0  0  0  0  0  0  # atno 7974 bound_to 7965
  154.9861  140.0395  157.2299 H   0  0  0  0  0  0  0  0  0  0  0  0  # atno 8008 bound_to 7997
  154.7670  140.2795  155.6145 H   0  0  0  0  0  0  0  0  0  0  0  0  # atno 8009 bound_to 7997
  156.2914  140.2617  156.2463 H   0  0  0  0  0  0  0  0  0  0  0  0  # atno 8010 bound_to 7997
  139.5346  144.2536  152.0765 H   0  0  0  0  0  0  0  0  0  0  0  0  # atno 10167 bound_to 10162
  156.0018  130.5043  150.5836 H   0  0  0  0  0  0  0  0  0  0  0  0  # atno 10718 bound_to 10713
  154.8613  135.4243  154.2279 H   0  0  0  0  0  0  0  0  0  0  0  0  # atno 10763 bound_to 10752
  153.3270  135.6986  153.6986 H   0  0  0  0  0  0  0  0  0  0  0  0  # atno 10764 bound_to 10752
  153.6018  135.3535  155.2921 H   0  0  0  0  0  0  0  0  0  0  0  0  # atno 10765 bound_to 10752
  139.8887  134.9490  156.6320 H   0  0  0  0  0  0  0  0  0  0  0  0  # atno 11005 bound_to 11000
  145.0790  139.2974  143.5793 LP  0  0  0  0  0  0  0  0  0  0  0  0  # atno 17320 bound_to 7965
  146.3523  140.0290  142.8652 LP  0  0  0  0  0  0  0  0  0  0  0  0  # atno 17321 bound_to 7965
  140.2004  144.4663  150.6434 LP  0  0  0  0  0  0  0  0  0  0  0  0  # atno 17342 bound_to 10162
  140.6544  143.2233  151.6002 LP  0  0  0  0  0  0  0  0  0  0  0  0  # atno 17343 bound_to 10162
  157.3712  131.0766  151.1556 LP  0  0  0  0  0  0  0  0  0  0  0  0  # atno 17370 bound_to 10713
  157.2309  130.6525  149.5849 LP  0  0  0  0  0  0  0  0  0  0  0  0  # atno 17371 bound_to 10713
  140.7659  133.8778  155.8454 LP  0  0  0  0  0  0  0  0  0  0  0  0  # atno 17394 bound_to 11000
  140.9883  134.1313  157.4432 LP  0  0  0  0  0  0  0  0  0  0  0  0  # atno 17395 bound_to 11000

$$$$
