AV-unprocessed.smi:1313|AV-procd|sdf|5452|dock1
  -GOLD-   22720 5 23D 1   1.00000     0.00000
 Structure written by MMmdl.
 36 37  0  0  0  0  0  0  0  0  2 V2000
  150.4849  135.3063  154.9183 C   0  0  0  0  0  0  0  0  0  0  0  0
  150.5269  136.6996  155.5085 C   0  0  0  0  0  0  0  0  0  0  0  0
  150.5654  136.8408  156.7784 N   0  0  0  0  0  0  0  0  0  0  0  0
  150.6050  138.1327  157.3301 C   0  0  0  0  0  0  0  0  0  0  0  0
  150.6505  138.2022  158.8469 C   0  0  0  0  0  0  0  0  0  0  0  0
  150.6051  139.2408  156.5342 C   0  0  0  0  0  0  0  0  0  0  0  0
  150.6460  140.6661  157.0841 C   0  0  0  0  0  0  0  0  0  0  0  0
  151.8583  140.9930  157.9574 C   0  0  0  0  0  0  0  0  0  0  0  0
  152.7989  140.2023  158.0277 O   0  0  0  0  0  0  0  0  0  0  0  0
  151.8225  142.1580  158.6224 N   0  0  0  0  0  0  0  0  0  0  0  0
  152.8585  142.6386  159.5320 C   0  0  0  0  0  0  0  0  0  0  0  0
  152.9937  141.7049  160.7498 C   0  0  0  0  0  0  0  0  0  0  0  0
  153.0411  142.6173  161.9762 C   0  0  0  0  0  0  0  0  0  0  0  0
  152.1972  143.8235  161.5773 C   0  0  0  0  0  0  0  0  0  0  0  0
  152.5198  144.0332  160.0968 C   0  0  0  0  0  0  0  0  0  0  0  0
  150.5637  139.0340  155.0750 C   0  0  0  0  0  0  0  0  0  0  0  0
  150.5723  139.9973  154.3096 O   0  0  0  0  0  0  0  0  0  0  0  0
  150.5195  137.7498  154.6186 N   0  5  0  0  0  0  0  0  0  0  0  0
  150.5847  134.5464  155.6945 H   0  0  0  0  0  0  0  0  0  0  0  0
  151.2980  135.1725  154.2039 H   0  0  0  0  0  0  0  0  0  0  0  0
  149.5391  135.1452  154.4003 H   0  0  0  0  0  0  0  0  0  0  0  0
  149.8168  138.7885  159.2334 H   0  0  0  0  0  0  0  0  0  0  0  0
  151.5830  138.6579  159.1802 H   0  0  0  0  0  0  0  0  0  0  0  0
  150.5894  137.2068  159.2884 H   0  0  0  0  0  0  0  0  0  0  0  0
  150.6049  141.3956  156.2749 H   0  0  0  0  0  0  0  0  0  0  0  0
  149.7330  140.8436  157.6532 H   0  0  0  0  0  0  0  0  0  0  0  0
  151.0096  142.7451  158.5044 H   0  0  0  0  0  0  0  0  0  0  0  0
  153.8135  142.6834  159.0047 H   0  0  0  0  0  0  0  0  0  0  0  0
  152.1238  141.0508  160.8311 H   0  0  0  0  0  0  0  0  0  0  0  0
  153.8729  141.0633  160.6830 H   0  0  0  0  0  0  0  0  0  0  0  0
  152.6762  142.1275  162.8794 H   0  0  0  0  0  0  0  0  0  0  0  0
  154.0688  142.9338  162.1600 H   0  0  0  0  0  0  0  0  0  0  0  0
  151.1390  143.5850  161.6938 H   0  0  0  0  0  0  0  0  0  0  0  0
  152.4099  144.7051  162.1829 H   0  0  0  0  0  0  0  0  0  0  0  0
  153.3958  144.6769  160.0072 H   0  0  0  0  0  0  0  0  0  0  0  0
  151.7045  144.5308  159.5695 H   0  0  0  0  0  0  0  0  0  0  0  0
  1  2  1  0  0  0  0
  1 19  1  0  0  0  0
  1 20  1  0  0  0  0
  1 21  1  0  0  0  0
  2 18  1  0  0  0  0
  2  3  2  0  0  0  0
  3  4  1  0  0  0  0
  4  5  1  0  0  0  0
  4  6  2  0  0  0  0
  5 22  1  0  0  0  0
  5 23  1  0  0  0  0
  5 24  1  0  0  0  0
  6  7  1  0  0  0  0
  6 16  1  0  0  0  0
  7  8  1  0  0  0  0
  7 25  1  0  0  0  0
  7 26  1  0  0  0  0
  8  9  2  0  0  0  0
  8 10  1  0  0  0  0
 10 11  1  0  0  0  0
 10 27  1  0  0  0  0
 11 15  1  0  0  0  0
 11 12  1  0  0  0  0
 11 28  1  0  0  0  0
 12 13  1  0  0  0  0
 12 29  1  0  0  0  0
 12 30  1  0  0  0  0
 13 14  1  0  0  0  0
 13 31  1  0  0  0  0
 13 32  1  0  0  0  0
 14 15  1  0  0  0  0
 14 33  1  0  0  0  0
 14 34  1  0  0  0  0
 15 35  1  0  0  0  0
 15 36  1  0  0  0  0
 16 17  2  0  0  0  0
 16 18  1  0  0  0  0
M  CHG  1  18  -1
M  END
> <s_m_source_file>
AV-unprocessed.smi

> <i_m_source_file_index>
1313

> <i_lp_mmshare_version>
43012

> <i_f3d_flags>
0

> <s_epik_input>
W0NIM11jMW5jKFtDSDNdKWMoYyg9TylbbkhdMSlbQ0gyXUMoPU8pW05IXVtDSF0yW0NIMl1bQ0gyXVtDSDJdW0NIMl0y

> <s_epik_cmdline>
J2VwaWtfcHl0aG9uJywgJy1waCcsICc3LjAnLCAnLXRuJywgJzgnLCAnLW1hJywgJzIwMCcsICctbWV0YWxfYmluZGluZycsICctaW1hZScsICc8aW5maWxlLm1hZT4nLCAnLW9tYWUnLCAnPG91dGZpbGUubWFlPic=

> <r_lp_tautomer_probability>
0.839158

> <r_epik_Ionization_Penalty>
6.62586

> <r_epik_Ionization_Penalty_Charging>
7.38068e-08

> <r_epik_Ionization_Penalty_Neutral>
6.62586

> <r_epik_State_Penalty>
4.443

> <r_epik_Charging_Adjusted_Penalty>
4.443

> <i_epik_Tot_Q>
-1

> <i_epik_Tot_abs_Q>
1

> <r_epik_Metal_State_Penalty>
0.804085

> <b_epik_Metal_Only>
1

> <s_lp_Force_Field>
OPLS_2005

> <r_lp_Energy>
23.3314

> <b_lp_Chiralities_Consistent>
1

> <s_lp_Variant>
AV-unprocessed.smi:1313-3

> <Gold.Version>
5.8.1

> <Gold.Id.Protein>
6NUR|6NUR_protein|mol2

> <Gold.PLP.Fitness>
40.6488

> <Gold.PLP.PLP>
-34.8618

> <Gold.PLP.part.hbond>
-2.0000

> <Gold.PLP.part.metal>
0.0000

> <Gold.PLP.part.buried>
-5.7063

> <Gold.PLP.part.nonpolar>
-27.7909

> <Gold.PLP.part.repulsive>
0.3872

> <Gold.PLP.ligand.clash>
0.0000

> <Gold.PLP.ligand.torsion>
0.1001

> <Gold.PLP.Chemscore.Hbond>
1.9920

> <Gold.PLP.Chemscore.CHOScore>
0.0000

> <Gold.PLP.Chemscore.Metal>
0.0000

> <Gold.Chemscore.Hbonds>
donor molecule, donor type, donor heavy atom, donor atom, acceptor molecule, acceptor atom, score
      P1  H  7989  7998       L1    17  1.00
      P1  H  7997  8008       L1     9  0.98

> <Gold.PLP.Chemscore.Internal.Correction>
0.0112

> <Gold.Rescore>
     Score         DG    S(hbond)    S(metal)    S(lipo)     H(rot)  DE(clash)    DE(int)     intcor
     17.67     -17.79       1.98        0.00      81.11       1.48       0.01       0.11       ----

> <Gold.Chemscore.Fitness>
17.6718

> <Gold.Chemscore.DG>
-17.7915

> <Gold.Chemscore.ZeroCoef>
-5.4800

> <Gold.Chemscore.Hbond>
1.9775

> <Gold.Chemscore.Metal>
0.0000

> <Gold.Chemscore.Lipo>
81.1064

> <Gold.Chemscore.Internal_Hbond>
0.0000

> <Gold.Chemscore.DEClash>
0.0130

> <Gold.Chemscore.DEInternal>
0.1067

> <Gold.Chemscore.Rot>
1.4776

> <Gold.Chemscore.Internal.Correction>
   9.000000E+99

> <Gold.Chemscore.Hbonds>
donor molecule, donor type, donor heavy atom, donor atom, acceptor molecule, acceptor atom, score
      P1  H  7989  7998       L1    17  0.98
      P1  H  7997  8008       L1     9  0.87

> <Gold.Chemscore.Hbond.Weighted>
-6.6048

> <Gold.Chemscore.Metal.Weighted>
-0.0000

> <Gold.Chemscore.Lipo.Weighted>
-9.4894

> <Gold.Chemscore.Internal_Hbond.Weighted>
0.0000

> <Gold.Chemscore.DEClash.Weighted>
0.0130

> <Gold.Chemscore.DEInternal.Weighted>
0.1067

> <Gold.Chemscore.Rot.Weighted>
3.7827

> <Gold.Chemscore.Internal.Correction.Weighted>
   9.000000E+99

> <Gold.Protein.RotatedTorsions>
[ 6907 6896 6895 6894 ] final   13.84 input  -60.11 | X-H torsion
[ 7974 7965 7964 7962 ] final   -7.04 input  175.53 | X-H torsion
[ 8008 7997 7996 7995 ] final  -75.68 input   59.86 | X-H torsion
[ 10167 10162 10161 10158 ] final  -84.61 input  -65.29 | X-H torsion
[ 10718 10713 10712 10709 ] final -151.70 input   66.30 | X-H torsion
[ 10763 10752 10751 10750 ] final  112.06 input  -60.55 | X-H torsion
[ 11005 11000 10999 10996 ] final -117.67 input  -57.11 | X-H torsion

> <Gold.Protein.ActiveResidues>
 VAL166  LYS551  ARG553  GLY616  TRP617  ASP618  TYR619  PRO620  LYS621  CYS622 
 ASP623  PHE694  ASN695  SER759  ASP760  ASP761  ALA762  ILE779  LEU786  VAL792 
 PHE793  MET794  SER795  GLU796  ALA797  LYS798  CYS799  TRP800  GLU811  SER814 

> <Gold.Protein.RotatedAtoms>
  151.7927  135.0731  160.0389 H   0  0  0  0  0  0  0  0  0  0  0  0  # atno 6907 bound_to 6896
  152.3145  133.5783  159.5711 H   0  0  0  0  0  0  0  0  0  0  0  0  # atno 6908 bound_to 6896
  150.7337  134.0019  159.3683 H   0  0  0  0  0  0  0  0  0  0  0  0  # atno 6909 bound_to 6896
  146.2316  140.2260  142.8339 H   0  0  0  0  0  0  0  0  0  0  0  0  # atno 7974 bound_to 7965
  154.5438  140.0740  156.8554 H   0  0  0  0  0  0  0  0  0  0  0  0  # atno 8008 bound_to 7997
  155.3128  140.3391  155.4225 H   0  0  0  0  0  0  0  0  0  0  0  0  # atno 8009 bound_to 7997
  156.1899  140.1682  156.8098 H   0  0  0  0  0  0  0  0  0  0  0  0  # atno 8010 bound_to 7997
  140.4116  143.2620  151.9010 H   0  0  0  0  0  0  0  0  0  0  0  0  # atno 10167 bound_to 10162
  156.4627  130.8221  151.2451 H   0  0  0  0  0  0  0  0  0  0  0  0  # atno 10718 bound_to 10713
  153.4724  135.3697  155.2398 H   0  0  0  0  0  0  0  0  0  0  0  0  # atno 10763 bound_to 10752
  154.8757  135.3934  154.3796 H   0  0  0  0  0  0  0  0  0  0  0  0  # atno 10764 bound_to 10752
  153.4386  135.7083  153.6248 H   0  0  0  0  0  0  0  0  0  0  0  0  # atno 10765 bound_to 10752
  141.0338  133.9940  157.3102 H   0  0  0  0  0  0  0  0  0  0  0  0  # atno 11005 bound_to 11000
  144.9595  140.8260  143.5522 LP  0  0  0  0  0  0  0  0  0  0  0  0  # atno 17320 bound_to 7965
  145.2229  139.2150  143.5083 LP  0  0  0  0  0  0  0  0  0  0  0  0  # atno 17321 bound_to 7965
  139.4782  144.5531  151.8355 LP  0  0  0  0  0  0  0  0  0  0  0  0  # atno 17342 bound_to 10162
  140.4631  144.1693  150.5908 LP  0  0  0  0  0  0  0  0  0  0  0  0  # atno 17343 bound_to 10162
  157.7497  131.0102  150.3296 LP  0  0  0  0  0  0  0  0  0  0  0  0  # atno 17370 bound_to 10713
  156.3700  130.3862  149.7183 LP  0  0  0  0  0  0  0  0  0  0  0  0  # atno 17371 bound_to 10713
  139.9226  135.0201  156.8121 LP  0  0  0  0  0  0  0  0  0  0  0  0  # atno 17394 bound_to 11000
  140.6358  133.9863  155.7684 LP  0  0  0  0  0  0  0  0  0  0  0  0  # atno 17395 bound_to 11000

$$$$
