AV-unprocessed.smi:2926|AV-procd|sdf|11226|dock4
  -GOLD-   2272016113D 1   1.00000     0.00000
 Structure written by MMmdl.
 32 32  0  0  0  0  0  0  0  0  1 V2000
  152.0680  144.2849  159.2649 C   0  0  0  0  0  0  0  0  0  0  0  0
  152.1042  142.8690  159.8745 C   0  0  0  0  0  0  0  0  0  0  0  0
  152.7124  142.9568  161.2873 C   0  0  0  0  0  0  0  0  0  0  0  0
  152.8508  141.8615  158.9559 C   0  0  1  0  0  0  0  0  0  0  0  0
  153.0964  140.4806  159.6022 C   0  0  0  0  0  0  0  0  0  0  0  0
  153.8262  139.6510  158.7229 O   0  0  0  0  0  0  0  0  0  0  0  0
  152.0571  141.6500  157.7382 N   0  0  0  0  0  0  0  0  0  0  0  0
  150.4227  141.1160  157.8903 S   0  0  0  0  0  0  0  0  0  0  0  0
  150.4424  139.7590  158.4584 O   0  0  0  0  0  0  0  0  0  0  0  0
  149.6666  142.1833  158.5629 O   0  0  0  0  0  0  0  0  0  0  0  0
  149.8780  141.0048  156.1339 C   0  0  0  0  0  0  0  0  0  0  0  0
  150.6783  139.9516  155.4210 C   0  0  0  0  0  0  0  0  0  0  0  0
  150.2083  138.8171  154.7027 C   0  0  0  0  0  0  0  0  0  0  0  0
  151.3549  138.2174  154.2679 C   0  0  0  0  0  0  0  0  0  0  0  0
  152.4423  138.9197  154.6750 O   0  0  0  0  0  0  0  0  0  0  0  0
  152.0000  140.0262  155.4089 N   0  0  0  0  0  0  0  0  0  0  0  0
  153.8140  142.3005  158.6901 H   0  0  0  0  0  0  0  0  0  0  0  0
  153.0750  144.6680  159.0960 H   0  0  0  0  0  0  0  0  0  0  0  0
  151.5542  144.9850  159.9243 H   0  0  0  0  0  0  0  0  0  0  0  0
  151.5404  144.3060  158.3112 H   0  0  0  0  0  0  0  0  0  0  0  0
  151.0719  142.5332  159.9834 H   0  0  0  0  0  0  0  0  0  0  0  0
  153.7784  143.1824  161.2459 H   0  0  0  0  0  0  0  0  0  0  0  0
  152.5832  142.0335  161.8502 H   0  0  0  0  0  0  0  0  0  0  0  0
  152.2325  143.7420  161.8722 H   0  0  0  0  0  0  0  0  0  0  0  0
  153.6972  140.5605  160.5059 H   0  0  0  0  0  0  0  0  0  0  0  0
  152.1598  139.9977  159.8837 H   0  0  0  0  0  0  0  0  0  0  0  0
  153.2458  138.9873  158.3830 H   0  0  0  0  0  0  0  0  0  0  0  0
  152.1209  142.4581  157.1195 H   0  0  0  0  0  0  0  0  0  0  0  0
  148.8146  140.7682  156.1155 H   0  0  0  0  0  0  0  0  0  0  0  0
  150.0100  141.9851  155.6746 H   0  0  0  0  0  0  0  0  0  0  0  0
  149.1914  138.4926  154.5379 H   0  0  0  0  0  0  0  0  0  0  0  0
  151.5535  137.3294  153.6864 H   0  0  0  0  0  0  0  0  0  0  0  0
  1  2  1  0  0  0  0
  1 18  1  0  0  0  0
  1 19  1  0  0  0  0
  1 20  1  0  0  0  0
  2  3  1  0  0  0  0
  2  4  1  0  0  0  0
  2 21  1  0  0  0  0
  3 22  1  0  0  0  0
  3 23  1  0  0  0  0
  3 24  1  0  0  0  0
  4 17  1  0  0  0  0
  4  5  1  0  0  0  0
  4  7  1  0  0  0  0
  5  6  1  0  0  0  0
  5 25  1  0  0  0  0
  5 26  1  0  0  0  0
  6 27  1  0  0  0  0
  7  8  1  0  0  0  0
  7 28  1  0  0  0  0
  8  9  2  0  0  0  0
  8 10  2  0  0  0  0
  8 11  1  0  0  0  0
 11 12  1  0  0  0  0
 11 29  1  0  0  0  0
 11 30  1  0  0  0  0
 12 16  2  0  0  0  0
 12 13  1  0  0  0  0
 13 14  2  0  0  0  0
 13 31  1  0  0  0  0
 14 15  1  0  0  0  0
 14 32  1  0  0  0  0
 15 16  1  0  0  0  0
M  END
> <s_m_source_file>
AV-unprocessed.smi

> <i_m_source_file_index>
2926

> <i_lp_mmshare_version>
43012

> <i_f3d_flags>
0

> <s_epik_input>
W0NIM11bQ0hdKFtDSDNdKVtDQEBIXShbQ0gyXVtPSF0pW05IXVMoPU8pKD1PKVtDSDJdYzFbY0hdW2NIXW9uMQ==

> <s_epik_cmdline>
J2VwaWtfcHl0aG9uJywgJy1waCcsICc3LjAnLCAnLXRuJywgJzgnLCAnLW1hJywgJzIwMCcsICctbWV0YWxfYmluZGluZycsICctaW1hZScsICc8aW5maWxlLm1hZT4nLCAnLW9tYWUnLCAnPG91dGZpbGUubWFlPic=

> <r_lp_tautomer_probability>
1

> <r_epik_Ionization_Penalty>
0.000193122

> <r_epik_Ionization_Penalty_Charging>
0

> <r_epik_Ionization_Penalty_Neutral>
0.000193122

> <r_epik_State_Penalty>
-0

> <r_epik_Charging_Adjusted_Penalty>
0

> <i_epik_Tot_Q>
0

> <i_epik_Tot_abs_Q>
0

> <r_epik_Metal_State_Penalty>
0.130256

> <b_epik_Metal_Only>
0

> <s_lp_Force_Field>
OPLS_2005

> <r_lp_Energy>
6.6882

> <b_lp_Chiralities_Consistent>
1

> <s_lp_Variant>
AV-unprocessed.smi:2926-1

> <Gold.Version>
5.8.1

> <Gold.Id.Protein>
6NUR|6NUR_protein|mol2

> <Gold.PLP.Fitness>
36.7075

> <Gold.PLP.PLP>
-30.8369

> <Gold.PLP.part.hbond>
-2.8955

> <Gold.PLP.part.metal>
0.0000

> <Gold.PLP.part.buried>
-3.3282

> <Gold.PLP.part.nonpolar>
-24.1751

> <Gold.PLP.part.repulsive>
0.1638

> <Gold.PLP.ligand.clash>
0.0000

> <Gold.PLP.ligand.torsion>
0.2234

> <Gold.PLP.Chemscore.Hbond>
1.0389

> <Gold.PLP.Chemscore.CHOScore>
1.0000

> <Gold.PLP.Chemscore.Metal>
0.0000

> <Gold.Chemscore.Hbonds>
donor molecule, donor type, donor heavy atom, donor atom, acceptor molecule, acceptor atom, score
      P1  H  7989  7998       L1    16  0.02
      P1  H  7997  8010       L1     6  0.80
      L1  C    14    32       P1  7949  0.83

> <Gold.PLP.Chemscore.Internal.Correction>
0.2007

> <Gold.Rescore>
     Score         DG    S(hbond)    S(metal)    S(lipo)     H(rot)  DE(clash)    DE(int)     intcor
      6.24     -10.27       0.95        0.00      78.42       2.96       0.01       4.02       ----

> <Gold.Chemscore.Fitness>
6.2432

> <Gold.Chemscore.DG>
-10.2712

> <Gold.Chemscore.ZeroCoef>
-5.4800

> <Gold.Chemscore.Hbond>
0.9536

> <Gold.Chemscore.Metal>
0.0000

> <Gold.Chemscore.Lipo>
78.4159

> <Gold.Chemscore.Internal_Hbond>
0.0000

> <Gold.Chemscore.DEClash>
0.0117

> <Gold.Chemscore.DEInternal>
4.0163

> <Gold.Chemscore.Rot>
2.9564

> <Gold.Chemscore.Internal.Correction>
   9.000000E+99

> <Gold.Chemscore.Hbonds>
donor molecule, donor type, donor heavy atom, donor atom, acceptor molecule, acceptor atom, score
      P1  H  7997  8010       L1     6  0.12

> <Gold.Chemscore.Hbond.Weighted>
-3.1851

> <Gold.Chemscore.Metal.Weighted>
-0.0000

> <Gold.Chemscore.Lipo.Weighted>
-9.1747

> <Gold.Chemscore.Internal_Hbond.Weighted>
0.0000

> <Gold.Chemscore.DEClash.Weighted>
0.0117

> <Gold.Chemscore.DEInternal.Weighted>
4.0163

> <Gold.Chemscore.Rot.Weighted>
7.5685

> <Gold.Chemscore.Internal.Correction.Weighted>
   9.000000E+99

> <Gold.Protein.RotatedTorsions>
[ 6907 6896 6895 6894 ] final  -94.93 input  -60.11 | X-H torsion
[ 7974 7965 7964 7962 ] final   11.61 input  175.53 | X-H torsion
[ 8008 7997 7996 7995 ] final   30.09 input   59.86 | X-H torsion
[ 10167 10162 10161 10158 ] final  145.48 input  -65.29 | X-H torsion
[ 10718 10713 10712 10709 ] final   98.76 input   66.30 | X-H torsion
[ 10763 10752 10751 10750 ] final  -27.59 input  -60.55 | X-H torsion
[ 11005 11000 10999 10996 ] final   49.42 input  -57.11 | X-H torsion

> <Gold.Protein.ActiveResidues>
 VAL166  LYS551  ARG553  GLY616  TRP617  ASP618  TYR619  PRO620  LYS621  CYS622 
 ASP623  PHE694  ASN695  SER759  ASP760  ASP761  ALA762  ILE779  LEU786  VAL792 
 PHE793  MET794  SER795  GLU796  ALA797  LYS798  CYS799  TRP800  GLU811  SER814 

> <Gold.Protein.RotatedAtoms>
  150.6952  134.1736  159.4221 H   0  0  0  0  0  0  0  0  0  0  0  0  # atno 6907 bound_to 6896
  151.9713  135.0073  160.0562 H   0  0  0  0  0  0  0  0  0  0  0  0  # atno 6908 bound_to 6896
  152.1839  133.4691  159.5009 H   0  0  0  0  0  0  0  0  0  0  0  0  # atno 6909 bound_to 6896
  146.2368  139.9460  142.8477 H   0  0  0  0  0  0  0  0  0  0  0  0  # atno 7974 bound_to 7965
  155.0848  140.3214  155.4591 H   0  0  0  0  0  0  0  0  0  0  0  0  # atno 8008 bound_to 7997
  156.2758  140.2088  156.5922 H   0  0  0  0  0  0  0  0  0  0  0  0  # atno 8009 bound_to 7997
  154.6950  140.0512  157.0388 H   0  0  0  0  0  0  0  0  0  0  0  0  # atno 8010 bound_to 7997
  139.4925  144.5898  151.6703 H   0  0  0  0  0  0  0  0  0  0  0  0  # atno 10167 bound_to 10162
  157.6889  131.0650  150.4846 H   0  0  0  0  0  0  0  0  0  0  0  0  # atno 10718 bound_to 10713
  153.7346  135.6936  153.4981 H   0  0  0  0  0  0  0  0  0  0  0  0  # atno 10763 bound_to 10752
  153.2112  135.4402  155.0380 H   0  0  0  0  0  0  0  0  0  0  0  0  # atno 10764 bound_to 10752
  154.8241  135.3437  154.6874 H   0  0  0  0  0  0  0  0  0  0  0  0  # atno 10765 bound_to 10752
  140.1105  134.4961  155.8682 H   0  0  0  0  0  0  0  0  0  0  0  0  # atno 11005 bound_to 11000
  145.1907  140.9810  143.4212 LP  0  0  0  0  0  0  0  0  0  0  0  0  # atno 17320 bound_to 7965
  144.9860  139.3736  143.6238 LP  0  0  0  0  0  0  0  0  0  0  0  0  # atno 17321 bound_to 7965
  140.5523  144.0405  150.6132 LP  0  0  0  0  0  0  0  0  0  0  0  0  # atno 17342 bound_to 10162
  140.3464  143.2989  152.0534 LP  0  0  0  0  0  0  0  0  0  0  0  0  # atno 17343 bound_to 10162
  156.5175  130.4154  149.6268 LP  0  0  0  0  0  0  0  0  0  0  0  0  # atno 17370 bound_to 10713
  156.3184  130.7267  151.2174 LP  0  0  0  0  0  0  0  0  0  0  0  0  # atno 17371 bound_to 10713
  141.2129  133.6726  156.6696 LP  0  0  0  0  0  0  0  0  0  0  0  0  # atno 17394 bound_to 11000
  140.3097  134.8096  157.4166 LP  0  0  0  0  0  0  0  0  0  0  0  0  # atno 17395 bound_to 11000

$$$$
