#       Name:                AV-unprocessed.smi:249
#       Creating user name   scv26
#       Creation time:       Thu Mar 26 21:03:41 2020


#       File generated by GOLD software.
#

@<TRIPOS>MOLECULE
AV-unprocessed.smi:249
    71    74     1
SMALL
NO_CHARGES


@<TRIPOS>ATOM
      1 ****        -5.7823  -4.7797  -1.4117 C.3            1 S1                 0.0000
      2 ****        -4.4019  -4.6072  -2.0713 C.3            1 S1                 0.0000
      3 ****        -3.5784  -3.5071  -1.4944 N.4            1 S1                 1.0000
      4 ****        -4.1155  -2.1623  -1.8372 C.3            1 S1                 0.0000
      5 ****        -3.1205  -1.0518  -1.4739 C.3            1 S1                 0.0000
      6 ****        -2.7585  -1.1277   0.0214 C.3            1 S1                 0.0000
      7 ****        -1.8894  -0.0342   0.4801 N.pl3          1 S1                 0.0000
      8 ****        -2.4737   1.2991   0.5793 C.3            1 S1                 0.0000
      9 ****        -0.5475  -0.0256   0.2595 C.ar           1 S1                 0.0000
     10 ****        -0.0302  -0.6092  -0.8533 N.ar           1 S1                 0.0000
     11 ****         1.2854  -0.5830  -1.0845 C.ar           1 S1                 0.0000
     12 ****         2.2501  -0.0300  -0.3483 N.ar           1 S1                 0.0000
     13 ****         1.7400   0.5641   0.7677 C.ar           1 S1                 0.0000
     14 ****         0.3682   0.6099   1.1461 C.ar           1 S1                 0.0000
     15 ****         0.2350   1.2850   2.3538 N.2            1 S1                 0.0000
     16 ****         1.4552   1.6247   2.6674 C.2            1 S1                 0.0000
     17 ****         2.4195   1.2508   1.7587 N.pl3          1 S1                 0.0000
     18 ****         3.8481   1.4921   1.8604 C.3            1 S1                 0.0000
     19 ****         4.4444   2.3860   0.7368 C.3            1 S1                 0.0000
     20 ****         5.9854   2.4179   0.8806 C.3            1 S1                 0.0000
     21 ****         6.5463   1.1333   0.7021 O.3            1 S1                 0.0000
     22 ****         3.8443   3.8242   0.7144 C.3            1 S1                 0.0000
     23 ****         4.5186   4.7909  -0.2487 C.3            1 S1                 0.0000
     24 ****         3.4758   5.8891  -0.3923 C.3            1 S1                 0.0000
     25 ****         2.2373   5.1980  -0.4052 O.3            1 S1                 0.0000
     26 ****         2.3859   3.9337   0.2348 C.3            1 S1                 0.0000
     27 ****        -2.2376  -2.5370   0.3699 C.3            1 S1                 0.0000
     28 ****        -3.2436  -3.6332  -0.0407 C.3            1 S1                 0.0000
     29 ****        -2.6683  -5.0163   0.3235 C.3            1 S1                 0.0000
     30 ****        -6.3324  -5.5887  -1.8925 H              1 S1                 0.0000
     31 ****        -6.3912  -3.8805  -1.5004 H              1 S1                 0.0000
     32 ****        -5.7021  -5.0309  -0.3544 H              1 S1                 0.0000
     33 ****        -3.8492  -5.5448  -2.0210 H              1 S1                 0.0000
     34 ****        -4.5371  -4.4192  -3.1371 H              1 S1                 0.0000
     35 ****        -4.3311  -2.1109  -2.9050 H              1 S1                 0.0000
     36 ****        -5.0581  -1.9936  -1.3156 H              1 S1                 0.0000
     37 ****        -2.2353  -1.1510  -2.1008 H              1 S1                 0.0000
     38 ****        -3.5582  -0.0815  -1.7098 H              1 S1                 0.0000
     39 ****        -3.6881  -1.0024   0.5788 H              1 S1                 0.0000
     40 ****        -2.3264   1.7095   1.5784 H              1 S1                 0.0000
     41 ****        -3.5474   1.2757   0.3899 H              1 S1                 0.0000
     42 ****        -2.0235   1.9807  -0.1440 H              1 S1                 0.0000
     43 ****         1.6117  -1.0714  -1.9907 H              1 S1                 0.0000
     44 ****         1.6845   2.1711   3.5708 H              1 S1                 0.0000
     45 ****         4.0558   1.9360   2.8349 H              1 S1                 0.0000
     46 ****         4.3287   0.5135   1.8666 H              1 S1                 0.0000
     47 ****         4.2270   1.9245  -0.2272 H              1 S1                 0.0000
     48 ****         6.4448   3.0586   0.1294 H              1 S1                 0.0000
     49 ****         6.2764   2.8081   1.8563 H              1 S1                 0.0000
     50 ****         7.4857   1.2017   0.7797 H              1 S1                 0.0000
     51 ****         3.9129   4.2535   1.7153 H              1 S1                 0.0000
     52 ****         5.4688   5.1773   0.1208 H              1 S1                 0.0000
     53 ****         4.6920   4.3124  -1.2139 H              1 S1                 0.0000
     54 ****         3.5011   6.5560   0.4707 H              1 S1                 0.0000
     55 ****         3.6128   6.4881  -1.2929 H              1 S1                 0.0000
     56 ****         2.1490   3.1600  -0.4963 H              1 S1                 0.0000
     57 ****         1.6759   3.8517   1.0567 H              1 S1                 0.0000
     58 ****        -1.2861  -2.7377  -0.1213 H              1 S1                 0.0000
     59 ****        -2.0465  -2.5958   1.4424 H              1 S1                 0.0000
     60 ****        -4.1578  -3.4831   0.5357 H              1 S1                 0.0000
     61 ****        -2.3539  -5.0426   1.3672 H              1 S1                 0.0000
     62 ****        -1.7981  -5.2591  -0.2874 H              1 S1                 0.0000
     63 ****        -3.4012  -5.8133   0.2011 H              1 S1                 0.0000
     64 ****        -2.6931  -3.5682  -1.9770 H              1 S1                 0.0000
     65 ****        -0.6393  -1.0620  -1.5045 LP             1 S1                 0.0000
     66 ****         3.2216  -0.0487  -0.5843 LP             1 S1                 0.0000
     67 ****        -0.6044   1.4685   2.8655 LP             1 S1                 0.0000
     68 ****         6.3074   0.7842  -0.2041 LP             1 S1                 0.0000
     69 ****         6.1946   0.5118   1.4021 LP             1 S1                 0.0000
     70 ****         1.9439   5.0593  -1.3511 LP             1 S1                 0.0000
     71 ****         1.5503   5.7380   0.0810 LP             1 S1                 0.0000
@<TRIPOS>BOND
    1    1    2 1     
    2    1   30 1     
    3    1   31 1     
    4    1   32 1     
    5    2    3 1     
    6    2   33 1     
    7    2   34 1     
    8    3   28 1     
    9    3    4 1     
   10    3   64 1     
   11    4    5 1     
   12    4   35 1     
   13    4   36 1     
   14    5    6 1     
   15    5   37 1     
   16    5   38 1     
   17    6    7 1     
   18    6   27 1     
   19    6   39 1     
   20    7    8 1     
   21    7    9 1     
   22    8   40 1     
   23    8   41 1     
   24    8   42 1     
   25    9   14 ar    
   26    9   10 ar    
   27   10   11 ar    
   28   11   12 ar    
   29   11   43 1     
   30   12   13 ar    
   31   13   17 1     
   32   13   14 ar    
   33   14   15 1     
   34   15   16 2     
   35   16   17 1     
   36   16   44 1     
   37   17   18 1     
   38   18   19 1     
   39   18   45 1     
   40   18   46 1     
   41   19   20 1     
   42   19   22 1     
   43   19   47 1     
   44   20   21 1     
   45   20   48 1     
   46   20   49 1     
   47   21   50 1     
   48   22   26 1     
   49   22   23 1     
   50   22   51 1     
   51   23   24 1     
   52   23   52 1     
   53   23   53 1     
   54   24   25 1     
   55   24   54 1     
   56   24   55 1     
   57   25   26 1     
   58   26   56 1     
   59   26   57 1     
   60   27   28 1     
   61   27   58 1     
   62   27   59 1     
   63   28   29 1     
   64   28   60 1     
   65   29   61 1     
   66   29   62 1     
   67   29   63 1     
   68   10   65 1     
   69   12   66 1     
   70   15   67 1     
   71   21   68 1     
   72   21   69 1     
   73   25   70 1     
   74   25   71 1     
@<TRIPOS>SUBSTRUCTURE
      1 S1             1
@<TRIPOS>SET
LONE_PAIRS      STATIC     ATOMS    <user>   **** ""
7 65 66 67 68 69 70 71
DONOR_HYDROGENS      STATIC     ATOMS    <user>   **** ""
2 64 50
ATOM$BLUE        STATIC     ATOMS    COLORGROUP SYSTEM
7 65 66 67 68 69 70 71
ATOM$RED        STATIC     ATOMS    COLORGROUP SYSTEM
2 64 50
