AV-unprocessed.smi:2283|AV-procd|sdf|9199|dock4
  -GOLD-   2272012413D 1   1.00000     0.00000
 Structure written by MMmdl.
 37 38  0  0  0  0  0  0  0  0  1 V2000
  150.1925  137.9273  154.6784 C   0  0  0  0  0  0  0  0  0  0  0  0
  149.2997  139.1255  154.4050 C   0  0  0  0  0  0  0  0  0  0  0  0
  148.1056  138.9235  153.6793 C   0  0  0  0  0  0  0  0  0  0  0  0
  147.2531  140.0034  153.3873 C   0  0  0  0  0  0  0  0  0  0  0  0
  147.5916  141.2982  153.8169 C   0  0  0  0  0  0  0  0  0  0  0  0
  148.7787  141.5088  154.5423 C   0  0  0  0  0  0  0  0  0  0  0  0
  149.6404  140.4305  154.8520 C   0  0  0  0  0  0  0  0  0  0  0  0
  150.9219  140.7052  155.6397 C   0  0  2  0  0  0  0  0  0  0  0  0
  152.0693  140.2906  154.9225 O   0  0  0  0  0  0  0  0  0  0  0  0
  150.8997  139.9726  157.0003 C   0  0  0  0  0  0  0  0  0  0  0  0
  151.4779  140.7828  158.0872 N   0  0  0  0  0  0  0  0  0  0  0  0
  150.6843  141.8387  158.5656 C   0  0  0  0  0  0  0  0  0  0  0  0
  151.0868  142.6141  159.5187 N   0  0  0  0  0  0  0  0  0  0  0  0
  152.3400  142.4084  160.1024 C   0  0  0  0  0  0  0  0  0  0  0  0
  152.7118  143.3720  161.2153 C   0  0  0  0  0  0  0  0  0  0  0  0
  153.1568  141.4023  159.6866 C   0  0  0  0  0  0  0  0  0  0  0  0
  154.5303  141.1283  160.2867 C   0  0  0  0  0  0  0  0  0  0  0  0
  152.7131  140.5135  158.6008 C   0  0  0  0  0  0  0  0  0  0  0  0
  153.4017  139.5836  158.1771 O   0  0  0  0  0  0  0  0  0  0  0  0
  149.8139  137.0287  154.1903 H   0  0  0  0  0  0  0  0  0  0  0  0
  150.2482  137.7259  155.7484 H   0  0  0  0  0  0  0  0  0  0  0  0
  151.1986  138.1070  154.3011 H   0  0  0  0  0  0  0  0  0  0  0  0
  147.8374  137.9342  153.3380 H   0  0  0  0  0  0  0  0  0  0  0  0
  146.3425  139.8388  152.8302 H   0  0  0  0  0  0  0  0  0  0  0  0
  146.9419  142.1303  153.5893 H   0  0  0  0  0  0  0  0  0  0  0  0
  149.0261  142.5114  154.8595 H   0  0  0  0  0  0  0  0  0  0  0  0
  151.0353  141.7768  155.7957 H   0  0  0  0  0  0  0  0  0  0  0  0
  152.8356  140.5398  155.4164 H   0  0  0  0  0  0  0  0  0  0  0  0
  149.8660  139.7393  157.2628 H   0  0  0  0  0  0  0  0  0  0  0  0
  151.3819  138.9964  156.9139 H   0  0  0  0  0  0  0  0  0  0  0  0
  149.7124  141.9526  158.0822 H   0  0  0  0  0  0  0  0  0  0  0  0
  153.6146  143.9254  160.9560 H   0  0  0  0  0  0  0  0  0  0  0  0
  152.8887  142.8310  162.1453 H   0  0  0  0  0  0  0  0  0  0  0  0
  151.9167  144.0961  161.3969 H   0  0  0  0  0  0  0  0  0  0  0  0
  154.5636  140.1211  160.7035 H   0  0  0  0  0  0  0  0  0  0  0  0
  154.7977  141.8210  161.0829 H   0  0  0  0  0  0  0  0  0  0  0  0
  155.2989  141.2014  159.5164 H   0  0  0  0  0  0  0  0  0  0  0  0
  1  2  1  0  0  0  0
  1 20  1  0  0  0  0
  1 21  1  0  0  0  0
  1 22  1  0  0  0  0
  2  7  1  0  0  0  0
  2  3  2  0  0  0  0
  3  4  1  0  0  0  0
  3 23  1  0  0  0  0
  4  5  2  0  0  0  0
  4 24  1  0  0  0  0
  5  6  1  0  0  0  0
  5 25  1  0  0  0  0
  6  7  2  0  0  0  0
  6 26  1  0  0  0  0
  7  8  1  0  0  0  0
  8  9  1  0  0  0  0
  8 10  1  0  0  0  0
  8 27  1  0  0  0  0
  9 28  1  0  0  0  0
 10 11  1  0  0  0  0
 10 29  1  0  0  0  0
 10 30  1  0  0  0  0
 11 18  1  0  0  0  0
 11 12  1  0  0  0  0
 12 13  2  0  0  0  0
 12 31  1  0  0  0  0
 13 14  1  0  0  0  0
 14 15  1  0  0  0  0
 14 16  2  0  0  0  0
 15 32  1  0  0  0  0
 15 33  1  0  0  0  0
 15 34  1  0  0  0  0
 16 17  1  0  0  0  0
 16 18  1  0  0  0  0
 17 35  1  0  0  0  0
 17 36  1  0  0  0  0
 17 37  1  0  0  0  0
 18 19  2  0  0  0  0
M  END
> <s_m_source_file>
AV-unprocessed.smi

> <i_m_source_file_index>
2283

> <i_lp_mmshare_version>
43012

> <i_f3d_flags>
0

> <s_epik_input>
W0NIM11jMVtjSF1bY0hdW2NIXVtjSF1jMVtDQEhdKFtPSF0pW0NIMl1uMltjSF1uYyhbQ0gzXSljKFtDSDNdKWMyPU8=

> <s_epik_cmdline>
J2VwaWtfcHl0aG9uJywgJy1waCcsICc3LjAnLCAnLXRuJywgJzgnLCAnLW1hJywgJzIwMCcsICctbWV0YWxfYmluZGluZycsICctaW1hZScsICc8aW5maWxlLm1hZT4nLCAnLW9tYWUnLCAnPG91dGZpbGUubWFlPic=

> <r_lp_tautomer_probability>
1

> <r_epik_Ionization_Penalty>
5.07259e-05

> <r_epik_Ionization_Penalty_Charging>
7.56727e-08

> <r_epik_Ionization_Penalty_Neutral>
5.06502e-05

> <r_epik_State_Penalty>
-0

> <r_epik_Charging_Adjusted_Penalty>
7.56727e-08

> <i_epik_Tot_Q>
0

> <i_epik_Tot_abs_Q>
0

> <r_epik_Metal_State_Penalty>
-0

> <b_epik_Metal_Only>
0

> <s_lp_Force_Field>
OPLS_2005

> <r_lp_Energy>
20.4761

> <b_lp_Chiralities_Consistent>
1

> <s_lp_Variant>
AV-unprocessed.smi:2283-1

> <Gold.Version>
5.8.1

> <Gold.Id.Protein>
6NUR|6NUR_protein|mol2

> <Gold.PLP.Fitness>
45.5973

> <Gold.PLP.PLP>
-41.8323

> <Gold.PLP.part.hbond>
-2.5162

> <Gold.PLP.part.metal>
0.0000

> <Gold.PLP.part.buried>
-3.2981

> <Gold.PLP.part.nonpolar>
-35.7570

> <Gold.PLP.part.repulsive>
0.0010

> <Gold.PLP.ligand.clash>
0.0000

> <Gold.PLP.ligand.torsion>
0.7156

> <Gold.PLP.Chemscore.Hbond>
1.7296

> <Gold.PLP.Chemscore.CHOScore>
0.0000

> <Gold.PLP.Chemscore.Metal>
0.0000

> <Gold.Chemscore.Hbonds>
donor molecule, donor type, donor heavy atom, donor atom, acceptor molecule, acceptor atom, score
      P1  H  7989  7998       L1     9  0.63
      P1  H  7997  8009       L1    19  1.00

> <Gold.PLP.Chemscore.Internal.Correction>
0.0073

> <Gold.Rescore>
     Score         DG    S(hbond)    S(metal)    S(lipo)     H(rot)  DE(clash)    DE(int)     intcor
     15.02     -17.07       1.60        0.00      95.15       1.91       0.49       1.57       ----

> <Gold.Chemscore.Fitness>
15.0154

> <Gold.Chemscore.DG>
-17.0709

> <Gold.Chemscore.ZeroCoef>
-5.4800

> <Gold.Chemscore.Hbond>
1.5982

> <Gold.Chemscore.Metal>
0.0000

> <Gold.Chemscore.Lipo>
95.1500

> <Gold.Chemscore.Internal_Hbond>
0.0000

> <Gold.Chemscore.DEClash>
0.4887

> <Gold.Chemscore.DEInternal>
1.5668

> <Gold.Chemscore.Rot>
1.9061

> <Gold.Chemscore.Internal.Correction>
   9.000000E+99

> <Gold.Chemscore.Hbonds>
donor molecule, donor type, donor heavy atom, donor atom, acceptor molecule, acceptor atom, score
      P1  H  7989  7998       L1     9  0.12
      P1  H  7997  8009       L1    19  0.83

> <Gold.Chemscore.Hbond.Weighted>
-5.3381

> <Gold.Chemscore.Metal.Weighted>
-0.0000

> <Gold.Chemscore.Lipo.Weighted>
-11.1325

> <Gold.Chemscore.Internal_Hbond.Weighted>
0.0000

> <Gold.Chemscore.DEClash.Weighted>
0.4887

> <Gold.Chemscore.DEInternal.Weighted>
1.5668

> <Gold.Chemscore.Rot.Weighted>
4.8797

> <Gold.Chemscore.Internal.Correction.Weighted>
   9.000000E+99

> <Gold.Protein.RotatedTorsions>
[ 6907 6896 6895 6894 ] final -150.89 input  -60.11 | X-H torsion
[ 7974 7965 7964 7962 ] final   78.27 input  175.53 | X-H torsion
[ 8008 7997 7996 7995 ] final  168.42 input   59.86 | X-H torsion
[ 10167 10162 10161 10158 ] final -134.60 input  -65.29 | X-H torsion
[ 10718 10713 10712 10709 ] final -146.59 input   66.30 | X-H torsion
[ 10763 10752 10751 10750 ] final -159.87 input  -60.55 | X-H torsion
[ 11005 11000 10999 10996 ] final  -52.21 input  -57.11 | X-H torsion

> <Gold.Protein.ActiveResidues>
 VAL166  LYS551  ARG553  GLY616  TRP617  ASP618  TYR619  PRO620  LYS621  CYS622 
 ASP623  PHE694  ASN695  SER759  ASP760  ASP761  ALA762  ILE779  LEU786  VAL792 
 PHE793  MET794  SER795  GLU796  ALA797  LYS798  CYS799  TRP800  GLU811  SER814 

> <Gold.Protein.RotatedAtoms>
  151.2052  133.4588  159.2596 H   0  0  0  0  0  0  0  0  0  0  0  0  # atno 6907 bound_to 6896
  151.1030  134.9983  159.8468 H   0  0  0  0  0  0  0  0  0  0  0  0  # atno 6908 bound_to 6896
  152.5445  134.1977  159.8752 H   0  0  0  0  0  0  0  0  0  0  0  0  # atno 6909 bound_to 6896
  145.6794  139.2519  143.1823 H   0  0  0  0  0  0  0  0  0  0  0  0  # atno 7974 bound_to 7965
  156.1548  140.1591  156.8710 H   0  0  0  0  0  0  0  0  0  0  0  0  # atno 8008 bound_to 7997
  154.5105  140.0802  156.8016 H   0  0  0  0  0  0  0  0  0  0  0  0  # atno 8009 bound_to 7997
  155.3824  140.3406  155.4249 H   0  0  0  0  0  0  0  0  0  0  0  0  # atno 8010 bound_to 7997
  139.8863  143.6777  152.2619 H   0  0  0  0  0  0  0  0  0  0  0  0  # atno 10167 bound_to 10162
  156.3969  130.7914  151.2121 H   0  0  0  0  0  0  0  0  0  0  0  0  # atno 10718 bound_to 10713
  154.7438  135.3075  154.8681 H   0  0  0  0  0  0  0  0  0  0  0  0  # atno 10763 bound_to 10752
  153.9488  135.6766  153.4748 H   0  0  0  0  0  0  0  0  0  0  0  0  # atno 10764 bound_to 10752
  153.1035  135.4900  154.8836 H   0  0  0  0  0  0  0  0  0  0  0  0  # atno 10765 bound_to 10752
  141.0912  133.6632  156.3991 H   0  0  0  0  0  0  0  0  0  0  0  0  # atno 11005 bound_to 11000
  146.0977  140.7580  142.9564 LP  0  0  0  0  0  0  0  0  0  0  0  0  # atno 17320 bound_to 7965
  144.7031  140.3738  143.7140 LP  0  0  0  0  0  0  0  0  0  0  0  0  # atno 17321 bound_to 7965
  139.7150  144.7613  151.1050 LP  0  0  0  0  0  0  0  0  0  0  0  0  # atno 17342 bound_to 10162
  140.7735  143.5282  150.9455 LP  0  0  0  0  0  0  0  0  0  0  0  0  # atno 17343 bound_to 10162
  157.7502  131.0299  150.4112 LP  0  0  0  0  0  0  0  0  0  0  0  0  # atno 17370 bound_to 10713
  156.4384  130.3986  149.6714 LP  0  0  0  0  0  0  0  0  0  0  0  0  # atno 17371 bound_to 10713
  140.5246  134.6271  157.5330 LP  0  0  0  0  0  0  0  0  0  0  0  0  # atno 17394 bound_to 11000
  139.9739  134.7247  155.9988 LP  0  0  0  0  0  0  0  0  0  0  0  0  # atno 17395 bound_to 11000

$$$$
