AV-unprocessed.smi:901|AV-procd|sdf|4092|dock7
  -GOLD-   22720 1583D 1   1.00000     0.00000
 Structure written by MMmdl.
 43 44  0  0  0  0  0  0  0  0  1 V2000
  143.1615  136.3750  162.4910 C   0  0  0  0  0  0  0  0  0  0  0  0
  144.2896  135.3639  162.4453 C   0  0  0  0  0  0  0  0  0  0  0  0
  143.8416  133.9129  162.4513 C   0  0  0  0  0  0  0  0  0  0  0  0
  145.5812  135.7442  162.4073 C   0  0  0  0  0  0  0  0  0  0  0  0
  146.7699  134.8439  162.3529 C   0  0  2  0  0  0  0  0  0  0  0  0
  147.9931  135.0695  161.4673 C   0  0  2  0  0  0  0  0  0  0  0  0
  148.0579  136.2206  160.5131 C   0  0  0  0  0  0  0  0  0  0  0  0
  147.5441  137.3127  160.7517 O   0  0  0  0  0  0  0  0  0  0  0  0
  148.7950  135.9510  159.4210 N   0  0  0  0  0  0  0  0  0  0  0  0
  149.0559  136.7854  158.3045 C   0  0  0  0  0  0  0  0  0  0  0  0
  148.6788  138.1556  158.1749 C   0  0  0  0  0  0  0  0  0  0  0  0
  149.1390  138.4897  156.9333 C   0  0  0  0  0  0  0  0  0  0  0  0
  149.7328  137.3661  156.3930 N   0  0  0  0  0  0  0  0  0  0  0  0
  150.3650  137.2174  155.0930 C   0  0  0  0  0  0  0  0  0  0  0  0
  150.3279  138.5218  154.2901 C   0  0  0  0  0  0  0  0  0  0  0  0
  149.6360  138.5110  153.1479 N   0  0  0  0  0  0  0  0  0  0  0  0
  150.9108  139.5275  154.6917 O   0  0  0  0  0  0  0  0  0  0  0  0
  149.6797  136.3136  157.2388 N   0  0  0  0  0  0  0  0  0  0  0  0
  147.0325  133.9226  161.1747 C   0  0  0  0  0  0  0  0  0  0  0  0
  147.5120  132.5063  161.4387 C   0  0  0  0  0  0  0  0  0  0  0  0
  146.1092  133.9256  159.9582 C   0  0  0  0  0  0  0  0  0  0  0  0
  142.5757  136.2450  163.4010 H   0  0  0  0  0  0  0  0  0  0  0  0
  142.4997  136.2413  161.6352 H   0  0  0  0  0  0  0  0  0  0  0  0
  143.5373  137.3985  162.4733 H   0  0  0  0  0  0  0  0  0  0  0  0
  143.2681  133.7044  163.3548 H   0  0  0  0  0  0  0  0  0  0  0  0
  144.6789  133.2164  162.4211 H   0  0  0  0  0  0  0  0  0  0  0  0
  143.2054  133.7118  161.5893 H   0  0  0  0  0  0  0  0  0  0  0  0
  145.7982  136.8021  162.4045 H   0  0  0  0  0  0  0  0  0  0  0  0
  146.9776  134.4331  163.3394 H   0  0  0  0  0  0  0  0  0  0  0  0
  148.9463  134.8210  161.9308 H   0  0  0  0  0  0  0  0  0  0  0  0
  149.2238  135.0376  159.3872 H   0  0  0  0  0  0  0  0  0  0  0  0
  148.1544  138.7989  158.8653 H   0  0  0  0  0  0  0  0  0  0  0  0
  149.0889  139.4226  156.3914 H   0  0  0  0  0  0  0  0  0  0  0  0
  151.3942  136.8902  155.2467 H   0  0  0  0  0  0  0  0  0  0  0  0
  149.8592  136.4322  154.5285 H   0  0  0  0  0  0  0  0  0  0  0  0
  149.5823  139.3445  152.5807 H   0  0  0  0  0  0  0  0  0  0  0  0
  149.1694  137.6649  152.8545 H   0  0  0  0  0  0  0  0  0  0  0  0
  148.0598  132.1236  160.5771 H   0  0  0  0  0  0  0  0  0  0  0  0
  146.6649  131.8484  161.6351 H   0  0  0  0  0  0  0  0  0  0  0  0
  148.1744  132.4763  162.3045 H   0  0  0  0  0  0  0  0  0  0  0  0
  146.6422  133.5623  159.0791 H   0  0  0  0  0  0  0  0  0  0  0  0
  145.7325  134.9234  159.7336 H   0  0  0  0  0  0  0  0  0  0  0  0
  145.2516  133.2757  160.1342 H   0  0  0  0  0  0  0  0  0  0  0  0
  1  2  1  0  0  0  0
  1 22  1  0  0  0  0
  1 23  1  0  0  0  0
  1 24  1  0  0  0  0
  2  3  1  0  0  0  0
  2  4  2  0  0  0  0
  3 25  1  0  0  0  0
  3 26  1  0  0  0  0
  3 27  1  0  0  0  0
  4  5  1  0  0  0  0
  4 28  1  0  0  0  0
  5 19  1  0  0  0  0
  5  6  1  0  0  0  0
  5 29  1  0  0  0  0
  6  7  1  0  0  0  0
  6 19  1  0  0  0  0
  6 30  1  0  0  0  0
  7  8  2  0  0  0  0
  7  9  1  0  0  0  0
  9 10  1  0  0  0  0
  9 31  1  0  0  0  0
 10 18  2  0  0  0  0
 10 11  1  0  0  0  0
 11 12  2  0  0  0  0
 11 32  1  0  0  0  0
 12 13  1  0  0  0  0
 12 33  1  0  0  0  0
 13 14  1  0  0  0  0
 13 18  1  0  0  0  0
 14 15  1  0  0  0  0
 14 34  1  0  0  0  0
 14 35  1  0  0  0  0
 15 16  1  0  0  0  0
 15 17  2  0  0  0  0
 16 36  1  0  0  0  0
 16 37  1  0  0  0  0
 19 20  1  0  0  0  0
 19 21  1  0  0  0  0
 20 38  1  0  0  0  0
 20 39  1  0  0  0  0
 20 40  1  0  0  0  0
 21 41  1  0  0  0  0
 21 42  1  0  0  0  0
 21 43  1  0  0  0  0
M  END
> <s_m_source_file>
AV-unprocessed.smi

> <i_m_source_file_index>
901

> <i_lp_mmshare_version>
43012

> <i_f3d_flags>
0

> <s_epik_input>
W0NIM11DKFtDSDNdKT1bQ0hdW0NAQEhdKEMxKFtDSDNdKVtDSDNdKVtDQEhdMUMoPU8pW05IXWMyW2NIXVtjSF1uKG4yKVtDSDJdQyg9TylbTkgyXQ==

> <s_epik_cmdline>
J2VwaWtfcHl0aG9uJywgJy1waCcsICc3LjAnLCAnLXRuJywgJzgnLCAnLW1hJywgJzIwMCcsICctbWV0YWxfYmluZGluZycsICctaW1hZScsICc8aW5maWxlLm1hZT4nLCAnLW9tYWUnLCAnPG91dGZpbGUubWFlPic=

> <r_lp_tautomer_probability>
1

> <r_epik_Ionization_Penalty>
1.01454e-05

> <r_epik_Ionization_Penalty_Charging>
0

> <r_epik_Ionization_Penalty_Neutral>
1.01454e-05

> <r_epik_State_Penalty>
-0

> <r_epik_Charging_Adjusted_Penalty>
0

> <i_epik_Tot_Q>
0

> <i_epik_Tot_abs_Q>
0

> <r_epik_Metal_State_Penalty>
-0

> <b_epik_Metal_Only>
0

> <s_lp_Force_Field>
OPLS_2005

> <r_lp_Energy>
21.7989

> <b_lp_Chiralities_Consistent>
1

> <s_lp_Variant>
AV-unprocessed.smi:901-3

> <Gold.Version>
5.8.1

> <Gold.Id.Protein>
6NUR|6NUR_protein|mol2

> <Gold.PLP.Fitness>
46.8958

> <Gold.PLP.PLP>
-33.9389

> <Gold.PLP.part.hbond>
-5.0000

> <Gold.PLP.part.metal>
0.0000

> <Gold.PLP.part.buried>
-5.6464

> <Gold.PLP.part.nonpolar>
-23.1828

> <Gold.PLP.part.repulsive>
0.3282

> <Gold.PLP.ligand.clash>
0.0000

> <Gold.PLP.ligand.torsion>
0.7524

> <Gold.PLP.Chemscore.Hbond>
4.7440

> <Gold.PLP.Chemscore.CHOScore>
0.0000

> <Gold.PLP.Chemscore.Metal>
0.0000

> <Gold.Chemscore.Hbonds>
donor molecule, donor type, donor heavy atom, donor atom, acceptor molecule, acceptor atom, score
      L1  H    16    36       P1  7957  0.98
      L1  H    16    37       P1  7948  1.00
      P1  H  6931  6943       L1     8  0.62
      P1  H  6934  6947       L1     8  0.99
      P1  H  7989  7998       L1    17  1.00

> <Gold.PLP.Chemscore.Internal.Correction>
0.2298

> <Gold.Rescore>
     Score         DG    S(hbond)    S(metal)    S(lipo)     H(rot)  DE(clash)    DE(int)     intcor
     20.18     -21.84       4.38        0.00      61.48       2.13       0.10       1.56       ----

> <Gold.Chemscore.Fitness>
20.1779

> <Gold.Chemscore.DG>
-21.8415

> <Gold.Chemscore.ZeroCoef>
-5.4800

> <Gold.Chemscore.Hbond>
4.3783

> <Gold.Chemscore.Metal>
0.0000

> <Gold.Chemscore.Lipo>
61.4788

> <Gold.Chemscore.Internal_Hbond>
0.0000

> <Gold.Chemscore.DEClash>
0.0998

> <Gold.Chemscore.DEInternal>
1.5638

> <Gold.Chemscore.Rot>
2.1309

> <Gold.Chemscore.Internal.Correction>
   9.000000E+99

> <Gold.Chemscore.Hbonds>
donor molecule, donor type, donor heavy atom, donor atom, acceptor molecule, acceptor atom, score
      L1  H    16    36       P1  7957  0.90
      L1  H    16    37       P1  7948  0.95
      P1  H  6931  6943       L1     8  0.21
      P1  H  6934  6947       L1     8  0.94
      P1  H  7989  7998       L1    17  0.99

> <Gold.Chemscore.Hbond.Weighted>
-14.6236

> <Gold.Chemscore.Metal.Weighted>
-0.0000

> <Gold.Chemscore.Lipo.Weighted>
-7.1930

> <Gold.Chemscore.Internal_Hbond.Weighted>
0.0000

> <Gold.Chemscore.DEClash.Weighted>
0.0998

> <Gold.Chemscore.DEInternal.Weighted>
1.5638

> <Gold.Chemscore.Rot.Weighted>
5.4552

> <Gold.Chemscore.Internal.Correction.Weighted>
   9.000000E+99

> <Gold.Protein.RotatedTorsions>
[ 6907 6896 6895 6894 ] final  177.99 input  -60.11 | X-H torsion
[ 7974 7965 7964 7962 ] final  137.64 input  175.53 | X-H torsion
[ 8008 7997 7996 7995 ] final  -73.44 input   59.86 | X-H torsion
[ 10167 10162 10161 10158 ] final -174.33 input  -65.29 | X-H torsion
[ 10718 10713 10712 10709 ] final   72.65 input   66.30 | X-H torsion
[ 10763 10752 10751 10750 ] final  -78.68 input  -60.55 | X-H torsion
[ 11005 11000 10999 10996 ] final  -66.93 input  -57.11 | X-H torsion

> <Gold.Protein.ActiveResidues>
 VAL166  LYS551  ARG553  GLY616  TRP617  ASP618  TYR619  PRO620  LYS621  CYS622 
 ASP623  PHE694  ASN695  SER759  ASP760  ASP761  ALA762  ILE779  LEU786  VAL792 
 PHE793  MET794  SER795  GLU796  ALA797  LYS798  CYS799  TRP800  GLU811  SER814 

> <Gold.Protein.RotatedAtoms>
  151.6951  133.3311  159.3252 H   0  0  0  0  0  0  0  0  0  0  0  0  # atno 6907 bound_to 6896
  150.7761  134.6664  159.6377 H   0  0  0  0  0  0  0  0  0  0  0  0  # atno 6908 bound_to 6896
  152.3803  134.6603  160.0197 H   0  0  0  0  0  0  0  0  0  0  0  0  # atno 6909 bound_to 6896
  144.9448  139.4887  143.5554 H   0  0  0  0  0  0  0  0  0  0  0  0  # atno 7974 bound_to 7965
  154.5247  140.0779  156.8237 H   0  0  0  0  0  0  0  0  0  0  0  0  # atno 8008 bound_to 7997
  155.3500  140.3412  155.4221 H   0  0  0  0  0  0  0  0  0  0  0  0  # atno 8009 bound_to 7997
  156.1719  140.1622  156.8419 H   0  0  0  0  0  0  0  0  0  0  0  0  # atno 8010 bound_to 7997
  139.5639  144.1802  152.1283 H   0  0  0  0  0  0  0  0  0  0  0  0  # atno 10167 bound_to 10162
  157.6511  130.9589  150.0958 H   0  0  0  0  0  0  0  0  0  0  0  0  # atno 10718 bound_to 10713
  154.5290  135.5721  153.6743 H   0  0  0  0  0  0  0  0  0  0  0  0  # atno 10763 bound_to 10752
  152.9935  135.6200  154.2654 H   0  0  0  0  0  0  0  0  0  0  0  0  # atno 10764 bound_to 10752
  154.2579  135.2857  155.2769 H   0  0  0  0  0  0  0  0  0  0  0  0  # atno 10765 bound_to 10752
  141.1495  133.6709  156.6214 H   0  0  0  0  0  0  0  0  0  0  0  0  # atno 11005 bound_to 11000
  146.3299  139.8493  142.8876 LP  0  0  0  0  0  0  0  0  0  0  0  0  # atno 17320 bound_to 7965
  145.2935  141.0174  143.3650 LP  0  0  0  0  0  0  0  0  0  0  0  0  # atno 17321 bound_to 7965
  140.1321  144.5279  150.6796 LP  0  0  0  0  0  0  0  0  0  0  0  0  # atno 17342 bound_to 10162
  140.6922  143.2382  151.5101 LP  0  0  0  0  0  0  0  0  0  0  0  0  # atno 17343 bound_to 10162
  156.1895  130.3654  149.8929 LP  0  0  0  0  0  0  0  0  0  0  0  0  # atno 17370 bound_to 10713
  156.6861  130.8877  151.3582 LP  0  0  0  0  0  0  0  0  0  0  0  0  # atno 17371 bound_to 10713
  140.3537  134.7746  157.4485 LP  0  0  0  0  0  0  0  0  0  0  0  0  # atno 17394 bound_to 11000
  140.0840  134.5692  155.8511 LP  0  0  0  0  0  0  0  0  0  0  0  0  # atno 17395 bound_to 11000

$$$$
