AV-unprocessed.smi:660|AV-procd|sdf|3239|dock3
  -GOLD-   22720 0183D 1   1.00000     0.00000
 Structure written by MMmdl.
 28 29  0  0  0  0  0  0  0  0  1 V2000
  151.9113  137.2243  153.9237 O   0  0  0  0  0  0  0  0  0  0  0  0
  150.9114  138.2196  153.9485 C   0  0  0  0  0  0  0  0  0  0  0  0
  151.1058  139.2117  155.0777 C   0  0  0  0  0  0  0  0  0  0  0  0
  150.1708  140.2398  155.3052 C   0  0  0  0  0  0  0  0  0  0  0  0
  150.3921  141.1408  156.3643 C   0  0  0  0  0  0  0  0  0  0  0  0
  151.5473  140.9913  157.1689 C   0  0  0  0  0  0  0  0  0  0  0  0
  151.7907  141.8841  158.2356 N   0  0  0  0  0  0  0  0  0  0  0  0
  152.8852  141.5737  159.1538 C   0  0  0  0  0  0  0  0  0  0  0  0
  152.8145  142.4765  160.3968 C   0  0  0  0  0  0  0  0  0  0  0  0
  152.8036  143.8427  159.9968 O   0  0  0  0  0  0  0  0  0  0  0  0
  151.6683  144.1497  159.1945 C   0  0  0  0  0  0  0  0  0  0  0  0
  151.6935  143.3047  157.9091 C   0  0  0  0  0  0  0  0  0  0  0  0
  152.4415  139.9951  156.9476 N   0  0  0  0  0  0  0  0  0  0  0  0
  152.2246  139.1343  155.9309 C   0  0  0  0  0  0  0  0  0  0  0  0
  151.6838  136.5861  153.2647 H   0  0  0  0  0  0  0  0  0  0  0  0
  150.9061  138.7379  152.9891 H   0  0  0  0  0  0  0  0  0  0  0  0
  149.9378  137.7409  154.0571 H   0  0  0  0  0  0  0  0  0  0  0  0
  149.2946  140.3355  154.6808 H   0  0  0  0  0  0  0  0  0  0  0  0
  149.6702  141.9207  156.5544 H   0  0  0  0  0  0  0  0  0  0  0  0
  152.8341  140.5291  159.4634 H   0  0  0  0  0  0  0  0  0  0  0  0
  153.8380  141.7168  158.6423 H   0  0  0  0  0  0  0  0  0  0  0  0
  151.9266  142.2526  160.9906 H   0  0  0  0  0  0  0  0  0  0  0  0
  153.6785  142.3007  161.0377 H   0  0  0  0  0  0  0  0  0  0  0  0
  150.7515  143.9710  159.7588 H   0  0  0  0  0  0  0  0  0  0  0  0
  151.6866  145.2110  158.9459 H   0  0  0  0  0  0  0  0  0  0  0  0
  152.5522  143.5836  157.2971 H   0  0  0  0  0  0  0  0  0  0  0  0
  150.8025  143.5263  157.3236 H   0  0  0  0  0  0  0  0  0  0  0  0
  152.9679  138.3621  155.7976 H   0  0  0  0  0  0  0  0  0  0  0  0
  1  2  1  0  0  0  0
  1 15  1  0  0  0  0
  2  3  1  0  0  0  0
  2 16  1  0  0  0  0
  2 17  1  0  0  0  0
  3 14  1  0  0  0  0
  3  4  2  0  0  0  0
  4  5  1  0  0  0  0
  4 18  1  0  0  0  0
  5  6  2  0  0  0  0
  5 19  1  0  0  0  0
  6  7  1  0  0  0  0
  6 13  1  0  0  0  0
  7 12  1  0  0  0  0
  7  8  1  0  0  0  0
  8  9  1  0  0  0  0
  8 20  1  0  0  0  0
  8 21  1  0  0  0  0
  9 10  1  0  0  0  0
  9 22  1  0  0  0  0
  9 23  1  0  0  0  0
 10 11  1  0  0  0  0
 11 12  1  0  0  0  0
 11 24  1  0  0  0  0
 11 25  1  0  0  0  0
 12 26  1  0  0  0  0
 12 27  1  0  0  0  0
 13 14  2  0  0  0  0
 14 28  1  0  0  0  0
M  END
> <s_m_source_file>
AV-unprocessed.smi

> <i_m_source_file_index>
660

> <i_lp_mmshare_version>
43012

> <i_f3d_flags>
0

> <s_epik_input>
W09IXVtDSDJdYzFbY0hdW2NIXWMobltjSF0xKU4yW0NIMl1bQ0gyXU9bQ0gyXVtDSDJdMg==

> <s_epik_cmdline>
J2VwaWtfcHl0aG9uJywgJy1waCcsICc3LjAnLCAnLXRuJywgJzgnLCAnLW1hJywgJzIwMCcsICctbWV0YWxfYmluZGluZycsICctaW1hZScsICc8aW5maWxlLm1hZT4nLCAnLW9tYWUnLCAnPG91dGZpbGUubWFlPic=

> <r_lp_tautomer_probability>
1

> <r_epik_Ionization_Penalty>
0.0032706

> <r_epik_Ionization_Penalty_Charging>
0

> <r_epik_Ionization_Penalty_Neutral>
0.0032706

> <r_epik_State_Penalty>
0.00230904

> <r_epik_Charging_Adjusted_Penalty>
0.00230904

> <i_epik_Tot_Q>
0

> <i_epik_Tot_abs_Q>
0

> <r_epik_Metal_State_Penalty>
-0

> <b_epik_Metal_Only>
0

> <s_lp_Force_Field>
OPLS_2005

> <r_lp_Energy>
16.6209

> <b_lp_Chiralities_Consistent>
1

> <s_lp_Variant>
AV-unprocessed.smi:660-1

> <Gold.Version>
5.8.1

> <Gold.Id.Protein>
6NUR|6NUR_protein|mol2

> <Gold.PLP.Fitness>
37.6065

> <Gold.PLP.PLP>
-31.9292

> <Gold.PLP.part.hbond>
-3.0000

> <Gold.PLP.part.metal>
0.0000

> <Gold.PLP.part.buried>
-5.1453

> <Gold.PLP.part.nonpolar>
-25.3187

> <Gold.PLP.part.repulsive>
0.0154

> <Gold.PLP.ligand.clash>
0.0000

> <Gold.PLP.ligand.torsion>
0.1826

> <Gold.PLP.Chemscore.Hbond>
1.9000

> <Gold.PLP.Chemscore.CHOScore>
0.0000

> <Gold.PLP.Chemscore.Metal>
0.0000

> <Gold.Chemscore.Hbonds>
donor molecule, donor type, donor heavy atom, donor atom, acceptor molecule, acceptor atom, score
      L1  H     1    15       P1  7949  1.00
      P1  H  7997  8009       L1    13  0.84

> <Gold.PLP.Chemscore.Internal.Correction>
0.3425

> <Gold.Rescore>
     Score         DG    S(hbond)    S(metal)    S(lipo)     H(rot)  DE(clash)    DE(int)     intcor
     15.41     -16.01       1.59        0.00      82.13       1.72       0.41       0.19       ----

> <Gold.Chemscore.Fitness>
15.4064

> <Gold.Chemscore.DG>
-16.0058

> <Gold.Chemscore.ZeroCoef>
-5.4800

> <Gold.Chemscore.Hbond>
1.5916

> <Gold.Chemscore.Metal>
0.0000

> <Gold.Chemscore.Lipo>
82.1348

> <Gold.Chemscore.Internal_Hbond>
0.0000

> <Gold.Chemscore.DEClash>
0.4113

> <Gold.Chemscore.DEInternal>
0.1881

> <Gold.Chemscore.Rot>
1.7188

> <Gold.Chemscore.Internal.Correction>
   9.000000E+99

> <Gold.Chemscore.Hbonds>
donor molecule, donor type, donor heavy atom, donor atom, acceptor molecule, acceptor atom, score
      L1  H     1    15       P1  7949  0.95
      P1  H  7997  8009       L1    13  0.13

> <Gold.Chemscore.Hbond.Weighted>
-5.3161

> <Gold.Chemscore.Metal.Weighted>
-0.0000

> <Gold.Chemscore.Lipo.Weighted>
-9.6098

> <Gold.Chemscore.Internal_Hbond.Weighted>
0.0000

> <Gold.Chemscore.DEClash.Weighted>
0.4113

> <Gold.Chemscore.DEInternal.Weighted>
0.1881

> <Gold.Chemscore.Rot.Weighted>
4.4001

> <Gold.Chemscore.Internal.Correction.Weighted>
   9.000000E+99

> <Gold.Protein.RotatedTorsions>
[ 6907 6896 6895 6894 ] final  -14.36 input  -60.11 | X-H torsion
[ 7974 7965 7964 7962 ] final  -95.52 input  175.53 | X-H torsion
[ 8008 7997 7996 7995 ] final  169.14 input   59.86 | X-H torsion
[ 10167 10162 10161 10158 ] final -169.39 input  -65.29 | X-H torsion
[ 10718 10713 10712 10709 ] final  134.81 input   66.30 | X-H torsion
[ 10763 10752 10751 10750 ] final  132.73 input  -60.55 | X-H torsion
[ 11005 11000 10999 10996 ] final   -1.92 input  -57.11 | X-H torsion

> <Gold.Protein.ActiveResidues>
 VAL166  LYS551  ARG553  GLY616  TRP617  ASP618  TYR619  PRO620  LYS621  CYS622 
 ASP623  PHE694  ASN695  SER759  ASP760  ASP761  ALA762  ILE779  LEU786  VAL792 
 PHE793  MET794  SER795  GLU796  ALA797  LYS798  CYS799  TRP800  GLU811  SER814 

> <Gold.Protein.RotatedAtoms>
  151.3406  135.0862  159.9369 H   0  0  0  0  0  0  0  0  0  0  0  0  # atno 6907 bound_to 6896
  152.5212  133.9451  159.7655 H   0  0  0  0  0  0  0  0  0  0  0  0  # atno 6908 bound_to 6896
  150.9807  133.6195  159.2753 H   0  0  0  0  0  0  0  0  0  0  0  0  # atno 6909 bound_to 6896
  145.3589  140.9488  143.2512 H   0  0  0  0  0  0  0  0  0  0  0  0  # atno 7974 bound_to 7965
  156.1484  140.1572  156.8810 H   0  0  0  0  0  0  0  0  0  0  0  0  # atno 8008 bound_to 7997
  154.5049  140.0816  156.7910 H   0  0  0  0  0  0  0  0  0  0  0  0  # atno 8009 bound_to 7997
  155.3944  140.3411  155.4255 H   0  0  0  0  0  0  0  0  0  0  0  0  # atno 8010 bound_to 7997
  139.5925  144.1181  152.1651 H   0  0  0  0  0  0  0  0  0  0  0  0  # atno 10167 bound_to 10162
  157.4634  131.1075  150.9892 H   0  0  0  0  0  0  0  0  0  0  0  0  # atno 10718 bound_to 10713
  153.7956  135.3149  155.3384 H   0  0  0  0  0  0  0  0  0  0  0  0  # atno 10763 bound_to 10752
  154.8109  135.4668  154.0516 H   0  0  0  0  0  0  0  0  0  0  0  0  # atno 10764 bound_to 10752
  153.1848  135.6899  153.8517 H   0  0  0  0  0  0  0  0  0  0  0  0  # atno 10765 bound_to 10752
  140.6526  133.9391  155.8389 H   0  0  0  0  0  0  0  0  0  0  0  0  # atno 11005 bound_to 11000
  144.8661  139.5106  143.6789 LP  0  0  0  0  0  0  0  0  0  0  0  0  # atno 17320 bound_to 7965
  146.2936  139.7211  142.9143 LP  0  0  0  0  0  0  0  0  0  0  0  0  # atno 17321 bound_to 7965
  140.0759  144.5741  150.7157 LP  0  0  0  0  0  0  0  0  0  0  0  0  # atno 17342 bound_to 10162
  140.7185  143.2567  151.4355 LP  0  0  0  0  0  0  0  0  0  0  0  0  # atno 17343 bound_to 10162
  157.0681  130.5853  149.5397 LP  0  0  0  0  0  0  0  0  0  0  0  0  # atno 17370 bound_to 10713
  156.0039  130.5123  150.7762 LP  0  0  0  0  0  0  0  0  0  0  0  0  # atno 17371 bound_to 10713
  141.0525  134.0464  157.3765 LP  0  0  0  0  0  0  0  0  0  0  0  0  # atno 17394 bound_to 11000
  139.9040  135.0174  156.7403 LP  0  0  0  0  0  0  0  0  0  0  0  0  # atno 17395 bound_to 11000

$$$$
