AV-unprocessed.smi:112|AV-procd|sdf|1090|dock8
  -GOLD-   2262018193D 1   1.00000     0.00000
 Structure written by MMmdl.
 54 57  0  0  0  0  0  0  0  0  3 V2000
  146.8917  137.8250  155.2854 C   0  0  0  0  0  0  0  0  0  0  0  0
  148.3867  137.5829  155.4201 C   0  0  0  0  0  0  0  0  0  0  0  0
  148.9081  136.3392  155.5266 C   0  0  0  0  0  0  0  0  0  0  0  0
  150.2603  136.0810  155.6476 N   0  0  0  0  0  0  0  0  0  0  0  0
  150.7289  134.6499  155.8151 C   0  0  1  0  0  0  0  0  0  0  0  0
  150.4691  134.0730  157.2145 C   0  0  0  0  0  0  0  0  0  0  0  0
  150.1697  132.6209  156.8980 C   0  0  2  0  0  0  0  0  0  0  0  0
  151.3699  131.8710  156.8467 O   0  0  0  0  0  0  0  0  0  0  0  0
  149.4799  132.7179  155.5276 C   0  0  2  0  0  0  0  0  0  0  0  0
  149.5360  131.4732  154.6245 C   0  0  0  0  0  0  0  0  0  0  0  0
  148.8112  131.6952  153.4332 O   0  0  0  0  0  0  0  0  0  0  0  0
  150.0726  133.8430  154.8816 O   0  0  0  0  0  0  0  0  0  0  0  0
  151.1699  137.1604  155.7077 C   0  0  0  0  0  0  0  0  0  0  0  0
  152.3756  136.9702  155.8756 O   0  0  0  0  0  0  0  0  0  0  0  0
  150.6592  138.4723  155.5820 N   0  0  0  0  0  0  0  0  0  0  0  0
  151.6044  139.6109  155.6426 C   0  0  0  0  0  0  0  0  0  0  0  0
  152.2822  139.7845  157.0201 C   0  0  0  0  0  0  0  0  0  0  0  0
  153.0701  138.9214  157.4084 O   0  0  0  0  0  0  0  0  0  0  0  0
  151.9745  140.8899  157.7435 N   0  0  0  0  0  0  0  0  0  0  0  0
  151.0235  141.9195  157.2896 C   0  0  0  0  0  0  0  0  0  0  0  0
  150.9614  142.9780  158.4124 C   0  0  0  0  0  0  0  0  0  0  0  0
  151.9282  142.4495  159.4306 C   0  0  0  0  0  0  0  0  0  0  0  0
  152.2626  143.0455  160.6582 C   0  0  0  0  0  0  0  0  0  0  0  0
  153.2036  142.4002  161.4987 C   0  0  0  0  0  0  0  0  0  0  0  0
  153.5788  142.9964  162.7961 N   0  3  0  0  0  0  0  0  0  0  0  0
  154.4600  142.4519  163.4533 O   0  0  0  0  0  0  0  0  0  0  0  0
  152.9923  144.0104  163.1606 O   0  5  0  0  0  0  0  0  0  0  0  0
  153.7797  141.1730  161.0752 C   0  0  0  0  0  0  0  0  0  0  0  0
  153.4317  140.5879  159.8381 C   0  0  0  0  0  0  0  0  0  0  0  0
  152.4917  141.2480  159.0169 C   0  0  0  0  0  0  0  0  0  0  0  0
  149.2766  138.7454  155.4400 C   0  0  0  0  0  0  0  0  0  0  0  0
  148.8712  139.9062  155.3520 O   0  0  0  0  0  0  0  0  0  0  0  0
  146.3273  136.8921  155.2849 H   0  0  0  0  0  0  0  0  0  0  0  0
  146.6727  138.3476  154.3536 H   0  0  0  0  0  0  0  0  0  0  0  0
  146.5282  138.4339  156.1138 H   0  0  0  0  0  0  0  0  0  0  0  0
  148.2243  135.5024  155.5131 H   0  0  0  0  0  0  0  0  0  0  0  0
  151.7913  134.6425  155.5703 H   0  0  0  0  0  0  0  0  0  0  0  0
  151.3293  134.2217  157.8682 H   0  0  0  0  0  0  0  0  0  0  0  0
  149.6031  134.5414  157.6796 H   0  0  0  0  0  0  0  0  0  0  0  0
  149.5170  132.1709  157.6465 H   0  0  0  0  0  0  0  0  0  0  0  0
  152.0636  132.3842  157.2318 H   0  0  0  0  0  0  0  0  0  0  0  0
  148.4334  132.9778  155.6928 H   0  0  0  0  0  0  0  0  0  0  0  0
  150.5708  131.2614  154.3548 H   0  0  0  0  0  0  0  0  0  0  0  0
  149.1557  130.5870  155.1324 H   0  0  0  0  0  0  0  0  0  0  0  0
  149.2228  131.2119  152.7333 H   0  0  0  0  0  0  0  0  0  0  0  0
  152.3777  139.5030  154.8809 H   0  0  0  0  0  0  0  0  0  0  0  0
  151.0967  140.5386  155.3757 H   0  0  0  0  0  0  0  0  0  0  0  0
  151.3656  142.3743  156.3590 H   0  0  0  0  0  0  0  0  0  0  0  0
  150.0352  141.4904  157.1190 H   0  0  0  0  0  0  0  0  0  0  0  0
  151.2728  143.9625  158.0621 H   0  0  0  0  0  0  0  0  0  0  0  0
  149.9624  143.0555  158.8425 H   0  0  0  0  0  0  0  0  0  0  0  0
  151.8022  143.9803  160.9426 H   0  0  0  0  0  0  0  0  0  0  0  0
  154.4995  140.6648  161.6997 H   0  0  0  0  0  0  0  0  0  0  0  0
  153.8937  139.6557  159.5547 H   0  0  0  0  0  0  0  0  0  0  0  0
  1  2  1  0  0  0  0
  1 33  1  0  0  0  0
  1 34  1  0  0  0  0
  1 35  1  0  0  0  0
  2 31  1  0  0  0  0
  2  3  2  0  0  0  0
  3  4  1  0  0  0  0
  3 36  1  0  0  0  0
  4  5  1  0  0  0  0
  4 13  1  0  0  0  0
  5 12  1  0  0  0  0
  5  6  1  0  0  0  0
  5 37  1  0  0  0  0
  6  7  1  0  0  0  0
  6 38  1  0  0  0  0
  6 39  1  0  0  0  0
  7  8  1  0  0  0  0
  7  9  1  0  0  0  0
  7 40  1  0  0  0  0
  8 41  1  0  0  0  0
  9 10  1  0  0  0  0
  9 12  1  0  0  0  0
  9 42  1  0  0  0  0
 10 11  1  0  0  0  0
 10 43  1  0  0  0  0
 10 44  1  0  0  0  0
 11 45  1  0  0  0  0
 13 14  2  0  0  0  0
 13 15  1  0  0  0  0
 15 16  1  0  0  0  0
 15 31  1  0  0  0  0
 16 17  1  0  0  0  0
 16 46  1  0  0  0  0
 16 47  1  0  0  0  0
 17 18  2  0  0  0  0
 17 19  1  0  0  0  0
 19 30  1  0  0  0  0
 19 20  1  0  0  0  0
 20 21  1  0  0  0  0
 20 48  1  0  0  0  0
 20 49  1  0  0  0  0
 21 22  1  0  0  0  0
 21 50  1  0  0  0  0
 21 51  1  0  0  0  0
 22 30  2  0  0  0  0
 22 23  1  0  0  0  0
 23 24  2  0  0  0  0
 23 52  1  0  0  0  0
 24 25  1  0  0  0  0
 24 28  1  0  0  0  0
 25 26  2  0  0  0  0
 25 27  1  0  0  0  0
 28 29  2  0  0  0  0
 28 53  1  0  0  0  0
 29 30  1  0  0  0  0
 29 54  1  0  0  0  0
 31 32  2  0  0  0  0
M  CHG  1  25   1
M  CHG  1  27  -1
M  END
> <s_m_source_file>
AV-unprocessed.smi

> <i_m_source_file_index>
112

> <i_lp_mmshare_version>
43012

> <i_f3d_flags>
0

> <s_epik_input>
W09IXVtDSDJdW0NAQEhdKE8xKVtDQEhdKFtPSF0pW0NIMl1bQ0BIXTFuKFtjSF1jMltDSDNdKWMoPU8pbihjMj1PKVtDSDJdQyg9TylOKFtDSDJdW0NIMl0zKWMoYzM0KVtjSF1bY0hdYyhbY0hdNClbTitdKD1PKVtPLV0=

> <s_epik_cmdline>
J2VwaWtfcHl0aG9uJywgJy1waCcsICc3LjAnLCAnLXRuJywgJzgnLCAnLW1hJywgJzIwMCcsICctbWV0YWxfYmluZGluZycsICctaW1hZScsICc8aW5maWxlLm1hZT4nLCAnLW9tYWUnLCAnPG91dGZpbGUubWFlPic=

> <r_lp_tautomer_probability>
1

> <r_epik_Ionization_Penalty>
2.5696e-07

> <r_epik_Ionization_Penalty_Charging>
1.04886e-08

> <r_epik_Ionization_Penalty_Neutral>
2.46472e-07

> <r_epik_State_Penalty>
-0

> <r_epik_Charging_Adjusted_Penalty>
1.04886e-08

> <i_epik_Tot_Q>
0

> <i_epik_Tot_abs_Q>
2

> <r_epik_Metal_State_Penalty>
-0

> <b_epik_Metal_Only>
0

> <s_epik_Chemistry_Notes>
This compound contains an acetal/aminal-like group ( X-CH(R)-Y where X, Y are N, S, or O) that may be acid/base labile, releasing an aldehyde.

> <s_lp_Force_Field>
OPLS_2005

> <r_lp_Energy>
55.491

> <b_lp_Chiralities_Consistent>
1

> <s_lp_Variant>
AV-unprocessed.smi:112-8

> <Gold.Version>
5.8.1

> <Gold.Id.Protein>
6NUR|6NUR_protein|mol2

> <Gold.PLP.Fitness>
60.4726

> <Gold.PLP.PLP>
-52.9136

> <Gold.PLP.part.hbond>
-4.0000

> <Gold.PLP.part.metal>
0.0000

> <Gold.PLP.part.buried>
-5.7978

> <Gold.PLP.part.nonpolar>
-42.3213

> <Gold.PLP.part.repulsive>
0.7381

> <Gold.PLP.ligand.clash>
0.0000

> <Gold.PLP.ligand.torsion>
0.5378

> <Gold.PLP.Chemscore.Hbond>
2.8640

> <Gold.PLP.Chemscore.CHOScore>
0.0000

> <Gold.PLP.Chemscore.Metal>
0.0000

> <Gold.Chemscore.Hbonds>
donor molecule, donor type, donor heavy atom, donor atom, acceptor molecule, acceptor atom, score
      P1  H  7997  8008       L1    18  0.45
      P1  H 10752 10765       L1    14  0.78

> <Gold.PLP.Chemscore.Internal.Correction>
0.0427

> <Gold.Rescore>
     Score         DG    S(hbond)    S(metal)    S(lipo)     H(rot)  DE(clash)    DE(int)     intcor
     12.12     -17.09       2.35        0.00     104.17       3.29       1.63       3.33       ----

> <Gold.Chemscore.Fitness>
12.1228

> <Gold.Chemscore.DG>
-17.0875

> <Gold.Chemscore.ZeroCoef>
-5.4800

> <Gold.Chemscore.Hbond>
2.3492

> <Gold.Chemscore.Metal>
0.0000

> <Gold.Chemscore.Lipo>
104.1685

> <Gold.Chemscore.Internal_Hbond>
0.0000

> <Gold.Chemscore.DEClash>
1.6299

> <Gold.Chemscore.DEInternal>
3.3349

> <Gold.Chemscore.Rot>
3.2916

> <Gold.Chemscore.Internal.Correction>
   9.000000E+99

> <Gold.Chemscore.Hbonds>
donor molecule, donor type, donor heavy atom, donor atom, acceptor molecule, acceptor atom, score
      L1  H    11    45       P1 10747  0.01
      P1  H  7997  8008       L1    18  0.02
      P1  H 10752 10765       L1    14  0.58

> <Gold.Chemscore.Hbond.Weighted>
-7.8463

> <Gold.Chemscore.Metal.Weighted>
-0.0000

> <Gold.Chemscore.Lipo.Weighted>
-12.1877

> <Gold.Chemscore.Internal_Hbond.Weighted>
0.0000

> <Gold.Chemscore.DEClash.Weighted>
1.6299

> <Gold.Chemscore.DEInternal.Weighted>
3.3349

> <Gold.Chemscore.Rot.Weighted>
8.4265

> <Gold.Chemscore.Internal.Correction.Weighted>
   9.000000E+99

> <Gold.Protein.RotatedTorsions>
[ 6907 6896 6895 6894 ] final   65.97 input  -60.11 | X-H torsion
[ 7974 7965 7964 7962 ] final  -62.31 input  175.53 | X-H torsion
[ 8008 7997 7996 7995 ] final  -77.60 input   59.86 | X-H torsion
[ 10167 10162 10161 10158 ] final  169.33 input  -65.29 | X-H torsion
[ 10718 10713 10712 10709 ] final  -82.25 input   66.30 | X-H torsion
[ 10763 10752 10751 10750 ] final -173.51 input  -60.55 | X-H torsion
[ 11005 11000 10999 10996 ] final  -14.36 input  -57.11 | X-H torsion

> <Gold.Protein.ActiveResidues>
 VAL166  LYS551  ARG553  GLY616  TRP617  ASP618  TYR619  PRO620  LYS621  CYS622 
 ASP623  PHE694  ASN695  SER759  ASP760  ASP761  ALA762  ILE779  LEU786  VAL792 
 PHE793  MET794  SER795  GLU796  ALA797  LYS798  CYS799  TRP800  GLU811  SER814 

> <Gold.Protein.RotatedAtoms>
  152.4446  134.5520  159.9869 H   0  0  0  0  0  0  0  0  0  0  0  0  # atno 6907 bound_to 6896
  151.5608  133.3397  159.2979 H   0  0  0  0  0  0  0  0  0  0  0  0  # atno 6908 bound_to 6896
  150.8360  134.7666  159.6957 H   0  0  0  0  0  0  0  0  0  0  0  0  # atno 6909 bound_to 6896
  145.7928  140.8700  143.0272 H   0  0  0  0  0  0  0  0  0  0  0  0  # atno 7974 bound_to 7965
  154.5611  140.0708  156.8820 H   0  0  0  0  0  0  0  0  0  0  0  0  # atno 8008 bound_to 7997
  155.2809  140.3371  155.4240 H   0  0  0  0  0  0  0  0  0  0  0  0  # atno 8009 bound_to 7997
  156.2043  140.1734  156.7819 H   0  0  0  0  0  0  0  0  0  0  0  0  # atno 8010 bound_to 7997
  139.4990  144.3717  151.9717 H   0  0  0  0  0  0  0  0  0  0  0  0  # atno 10167 bound_to 10162
  156.0036  130.4628  150.4076 H   0  0  0  0  0  0  0  0  0  0  0  0  # atno 10718 bound_to 10713
  154.6071  135.2860  155.0473 H   0  0  0  0  0  0  0  0  0  0  0  0  # atno 10763 bound_to 10752
  154.1717  135.6471  153.5015 H   0  0  0  0  0  0  0  0  0  0  0  0  # atno 10764 bound_to 10752
  153.0180  135.5402  154.6810 H   0  0  0  0  0  0  0  0  0  0  0  0  # atno 10765 bound_to 10752
  140.7856  133.8328  155.9332 H   0  0  0  0  0  0  0  0  0  0  0  0  # atno 11005 bound_to 11000
  144.6779  140.0148  143.7484 LP  0  0  0  0  0  0  0  0  0  0  0  0  # atno 17320 bound_to 7965
  145.9959  139.3052  143.0957 LP  0  0  0  0  0  0  0  0  0  0  0  0  # atno 17321 bound_to 7965
  140.3153  144.3490  150.6023 LP  0  0  0  0  0  0  0  0  0  0  0  0  # atno 17342 bound_to 10162
  140.5766  143.2176  151.7504 LP  0  0  0  0  0  0  0  0  0  0  0  0  # atno 17343 bound_to 10162
  157.2141  131.0467  151.2583 LP  0  0  0  0  0  0  0  0  0  0  0  0  # atno 17370 bound_to 10713
  157.3862  130.7257  149.6665 LP  0  0  0  0  0  0  0  0  0  0  0  0  # atno 17371 bound_to 10713
  140.9440  134.1865  157.4777 LP  0  0  0  0  0  0  0  0  0  0  0  0  # atno 17394 bound_to 11000
  139.8737  134.9883  156.5406 LP  0  0  0  0  0  0  0  0  0  0  0  0  # atno 17395 bound_to 11000

$$$$
