AV-unprocessed.smi:1032|AV-procd|sdf|4487|dock3
  -GOLD-   22720 2463D 1   1.00000     0.00000
 Structure written by MMmdl.
 47 48  0  0  0  0  0  0  0  0  3 V2000
  152.4331  141.5340  158.4114 C   0  0  0  0  0  0  0  0  0  0  0  0
  151.0409  141.1667  157.8796 C   0  0  2  0  0  0  0  0  0  0  0  0
  150.9960  141.1816  156.3427 C   0  0  0  0  0  0  0  0  0  0  0  0
  149.5896  140.8413  155.8211 C   0  0  0  0  0  0  0  0  0  0  0  0
  148.5717  141.7697  156.3768 N   0  3  1  0  0  0  0  0  0  0  0  0
  147.2256  141.5530  155.7859 C   0  0  0  0  0  0  0  0  0  0  0  0
  147.1834  141.8823  154.2796 C   0  0  1  0  0  0  0  0  0  0  0  0
  148.2173  142.8128  154.0225 O   0  0  0  0  0  0  0  0  0  0  0  0
  147.4234  140.6272  153.4167 C   0  0  0  0  0  0  0  0  0  0  0  0
  146.2603  139.7455  153.4107 N   0  0  0  0  0  0  0  0  0  0  0  0
  146.2798  138.4478  153.7464 C   0  0  0  0  0  0  0  0  0  0  0  0
  147.2911  137.8644  154.1354 O   0  0  0  0  0  0  0  0  0  0  0  0
  145.0633  137.8914  153.6136 N   0  0  0  0  0  0  0  0  0  0  0  0
  144.6748  136.5390  153.8200 C   0  0  0  0  0  0  0  0  0  0  0  0
  143.3034  136.2283  153.6842 C   0  0  0  0  0  0  0  0  0  0  0  0
  142.8693  134.8988  153.8614 C   0  0  0  0  0  0  0  0  0  0  0  0
  143.7657  133.9322  154.1523 N   0  3  0  0  0  0  0  0  0  0  0  0
  145.0874  134.1770  154.2797 C   0  0  0  0  0  0  0  0  0  0  0  0
  145.5807  135.4869  154.1118 C   0  0  0  0  0  0  0  0  0  0  0  0
  148.5701  141.7491  157.8639 C   0  0  0  0  0  0  0  0  0  0  0  0
  149.9553  142.1087  158.4260 C   0  0  0  0  0  0  0  0  0  0  0  0
  152.7213  142.5411  158.1086 H   0  0  0  0  0  0  0  0  0  0  0  0
  153.1905  140.8444  158.0378 H   0  0  0  0  0  0  0  0  0  0  0  0
  152.4605  141.4930  159.5007 H   0  0  0  0  0  0  0  0  0  0  0  0
  150.8140  140.1541  158.2170 H   0  0  0  0  0  0  0  0  0  0  0  0
  151.2928  142.1642  155.9728 H   0  0  0  0  0  0  0  0  0  0  0  0
  151.7180  140.4698  155.9408 H   0  0  0  0  0  0  0  0  0  0  0  0
  149.5906  140.9041  154.7322 H   0  0  0  0  0  0  0  0  0  0  0  0
  149.3282  139.8141  156.0805 H   0  0  0  0  0  0  0  0  0  0  0  0
  146.9202  140.5140  155.9222 H   0  0  0  0  0  0  0  0  0  0  0  0
  146.4974  142.1540  156.3330 H   0  0  0  0  0  0  0  0  0  0  0  0
  146.2252  142.3283  154.0135 H   0  0  0  0  0  0  0  0  0  0  0  0
  149.0330  142.3433  153.9312 H   0  0  0  0  0  0  0  0  0  0  0  0
  147.7389  140.8899  152.4051 H   0  0  0  0  0  0  0  0  0  0  0  0
  148.2407  140.0452  153.8435 H   0  0  0  0  0  0  0  0  0  0  0  0
  145.3841  140.1496  153.1135 H   0  0  0  0  0  0  0  0  0  0  0  0
  144.3149  138.5217  153.3653 H   0  0  0  0  0  0  0  0  0  0  0  0
  142.5854  137.0010  153.4500 H   0  0  0  0  0  0  0  0  0  0  0  0
  141.8399  134.5820  153.7776 H   0  0  0  0  0  0  0  0  0  0  0  0
  145.7083  133.3222  154.5045 H   0  0  0  0  0  0  0  0  0  0  0  0
  146.6435  135.6521  154.1985 H   0  0  0  0  0  0  0  0  0  0  0  0
  147.8379  142.4546  158.2542 H   0  0  0  0  0  0  0  0  0  0  0  0
  148.2705  140.7604  158.2150 H   0  0  0  0  0  0  0  0  0  0  0  0
  149.9321  142.0596  159.5151 H   0  0  0  0  0  0  0  0  0  0  0  0
  150.1955  143.1417  158.1690 H   0  0  0  0  0  0  0  0  0  0  0  0
  148.8554  142.6972  156.0933 H   0  0  0  0  0  0  0  0  0  0  0  0
  143.4318  132.9761  154.2767 H   0  0  0  0  0  0  0  0  0  0  0  0
  1  2  1  0  0  0  0
  1 22  1  0  0  0  0
  1 23  1  0  0  0  0
  1 24  1  0  0  0  0
  2 21  1  0  0  0  0
  2  3  1  0  0  0  0
  2 25  1  0  0  0  0
  3  4  1  0  0  0  0
  3 26  1  0  0  0  0
  3 27  1  0  0  0  0
  4  5  1  0  0  0  0
  4 28  1  0  0  0  0
  4 29  1  0  0  0  0
  5  6  1  0  0  0  0
  5 20  1  0  0  0  0
  5 46  1  0  0  0  0
  6  7  1  0  0  0  0
  6 30  1  0  0  0  0
  6 31  1  0  0  0  0
  7  8  1  0  0  0  0
  7  9  1  0  0  0  0
  7 32  1  0  0  0  0
  8 33  1  0  0  0  0
  9 10  1  0  0  0  0
  9 34  1  0  0  0  0
  9 35  1  0  0  0  0
 10 11  1  0  0  0  0
 10 36  1  0  0  0  0
 11 12  2  0  0  0  0
 11 13  1  0  0  0  0
 13 14  1  0  0  0  0
 13 37  1  0  0  0  0
 14 19  1  0  0  0  0
 14 15  2  0  0  0  0
 15 16  1  0  0  0  0
 15 38  1  0  0  0  0
 16 17  2  0  0  0  0
 16 39  1  0  0  0  0
 17 18  1  0  0  0  0
 17 47  1  0  0  0  0
 18 19  2  0  0  0  0
 18 40  1  0  0  0  0
 19 41  1  0  0  0  0
 20 21  1  0  0  0  0
 20 42  1  0  0  0  0
 20 43  1  0  0  0  0
 21 44  1  0  0  0  0
 21 45  1  0  0  0  0
M  CHG  1   5   1
M  CHG  1  17   1
M  END
> <s_m_source_file>
AV-unprocessed.smi

> <i_m_source_file_index>
1032

> <i_lp_mmshare_version>
43012

> <i_f3d_flags>
0

> <s_epik_input>
W0NIM11bQ0hdMVtDSDJdW0NIMl1OKFtDSDJdW0NIMl0xKVtDSDJdW0NASF0oW09IXSlbQ0gyXVtOSF1DKD1PKVtOSF1jMltjSF1bY0hdbltjSF1bY0hdMg==

> <s_epik_cmdline>
J2VwaWtfcHl0aG9uJywgJy1waCcsICc3LjAnLCAnLXRuJywgJzgnLCAnLW1hJywgJzIwMCcsICctbWV0YWxfYmluZGluZycsICctaW1hZScsICc8aW5maWxlLm1hZT4nLCAnLW9tYWUnLCAnPG91dGZpbGUubWFlPic=

> <r_epik_Ionization_Penalty>
1.02509

> <r_epik_Ionization_Penalty_Charging>
1.02507

> <r_epik_Ionization_Penalty_Neutral>
1.85474e-05

> <r_epik_State_Penalty>
1.07411

> <r_epik_Charging_Adjusted_Penalty>
2.09917

> <i_epik_Tot_Q>
2

> <i_epik_Tot_abs_Q>
2

> <r_epik_Metal_State_Penalty>
1.1725

> <b_epik_Metal_Only>
0

> <s_lp_Force_Field>
OPLS_2005

> <r_lp_Energy>
29.9623

> <b_lp_Chiralities_Consistent>
1

> <s_lp_Variant>
AV-unprocessed.smi:1032-6

> <Gold.Version>
5.8.1

> <Gold.Id.Protein>
6NUR|6NUR_protein|mol2

> <Gold.PLP.Fitness>
49.0458

> <Gold.PLP.PLP>
-29.2954

> <Gold.PLP.part.hbond>
-6.7078

> <Gold.PLP.part.metal>
0.0000

> <Gold.PLP.part.buried>
-3.0645

> <Gold.PLP.part.nonpolar>
-20.0988

> <Gold.PLP.part.repulsive>
0.1751

> <Gold.PLP.ligand.clash>
0.0000

> <Gold.PLP.ligand.torsion>
0.6102

> <Gold.PLP.Chemscore.Hbond>
6.9760

> <Gold.PLP.Chemscore.CHOScore>
0.0000

> <Gold.PLP.Chemscore.Metal>
0.0000

> <Gold.Chemscore.Hbonds>
donor molecule, donor type, donor heavy atom, donor atom, acceptor molecule, acceptor atom, score
      L1  H     5    46       P1  8028  1.82
      L1  H    10    36       P1 10175  1.00
      L1  H    13    37       P1 10175  0.52
      L1  H    17    47       P1 10957  1.95
      P1  H  8022  8030       L1     8  0.96

> <Gold.PLP.Chemscore.Internal.Correction>
0.0428

> <Gold.Rescore>
     Score         DG    S(hbond)    S(metal)    S(lipo)     H(rot)  DE(clash)    DE(int)     intcor
     20.55     -22.41       4.76        0.00      59.98       2.34       0.06       1.80       ----

> <Gold.Chemscore.Fitness>
20.5517

> <Gold.Chemscore.DG>
-22.4090

> <Gold.Chemscore.ZeroCoef>
-5.4800

> <Gold.Chemscore.Hbond>
4.7606

> <Gold.Chemscore.Metal>
0.0000

> <Gold.Chemscore.Lipo>
59.9764

> <Gold.Chemscore.Internal_Hbond>
0.0000

> <Gold.Chemscore.DEClash>
0.0605

> <Gold.Chemscore.DEInternal>
1.7968

> <Gold.Chemscore.Rot>
2.3393

> <Gold.Chemscore.Internal.Correction>
   9.000000E+99

> <Gold.Chemscore.Hbonds>
donor molecule, donor type, donor heavy atom, donor atom, acceptor molecule, acceptor atom, score
      L1  H     5    46       P1  8028  0.87
      L1  H    10    36       P1 10175  1.00
      L1  H    13    37       P1 10175  0.49
      L1  H    17    47       P1 10957  0.91
      P1  H  8022  8030       L1     8  0.57

> <Gold.Chemscore.Hbond.Weighted>
-15.9005

> <Gold.Chemscore.Metal.Weighted>
-0.0000

> <Gold.Chemscore.Lipo.Weighted>
-7.0172

> <Gold.Chemscore.Internal_Hbond.Weighted>
0.0000

> <Gold.Chemscore.DEClash.Weighted>
0.0605

> <Gold.Chemscore.DEInternal.Weighted>
1.7968

> <Gold.Chemscore.Rot.Weighted>
5.9886

> <Gold.Chemscore.Internal.Correction.Weighted>
   9.000000E+99

> <Gold.Protein.RotatedTorsions>
[ 6907 6896 6895 6894 ] final   53.08 input  -60.11 | X-H torsion
[ 7974 7965 7964 7962 ] final   29.17 input  175.53 | X-H torsion
[ 8008 7997 7996 7995 ] final -143.01 input   59.86 | X-H torsion
[ 10167 10162 10161 10158 ] final -150.73 input  -65.29 | X-H torsion
[ 10718 10713 10712 10709 ] final  113.35 input   66.30 | X-H torsion
[ 10763 10752 10751 10750 ] final   25.21 input  -60.55 | X-H torsion
[ 11005 11000 10999 10996 ] final  171.72 input  -57.11 | X-H torsion

> <Gold.Protein.ActiveResidues>
 VAL166  LYS551  ARG553  GLY616  TRP617  ASP618  TYR619  PRO620  LYS621  CYS622 
 ASP623  PHE694  ASN695  SER759  ASP760  ASP761  ALA762  ILE779  LEU786  VAL792 
 PHE793  MET794  SER795  GLU796  ALA797  LYS798  CYS799  TRP800  GLU811  SER814 

> <Gold.Protein.RotatedAtoms>
  152.3300  134.7272  160.0291 H   0  0  0  0  0  0  0  0  0  0  0  0  # atno 6907 bound_to 6896
  151.7692  133.3334  159.3447 H   0  0  0  0  0  0  0  0  0  0  0  0  # atno 6908 bound_to 6896
  150.7417  134.5966  159.6059 H   0  0  0  0  0  0  0  0  0  0  0  0  # atno 6909 bound_to 6896
  146.1687  139.6958  142.8983 H   0  0  0  0  0  0  0  0  0  0  0  0  # atno 7974 bound_to 7965
  155.5036  140.0577  157.2935 H   0  0  0  0  0  0  0  0  0  0  0  0  # atno 8008 bound_to 7997
  154.4578  140.1981  156.0280 H   0  0  0  0  0  0  0  0  0  0  0  0  # atno 8009 bound_to 7997
  156.0832  140.3244  155.7724 H   0  0  0  0  0  0  0  0  0  0  0  0  # atno 8010 bound_to 7997
  139.7329  143.8780  152.2540 H   0  0  0  0  0  0  0  0  0  0  0  0  # atno 10167 bound_to 10162
  157.6343  131.0982  150.7028 H   0  0  0  0  0  0  0  0  0  0  0  0  # atno 10718 bound_to 10713
  153.0708  135.6588  154.0252 H   0  0  0  0  0  0  0  0  0  0  0  0  # atno 10763 bound_to 10752
  153.9897  135.2947  155.3414 H   0  0  0  0  0  0  0  0  0  0  0  0  # atno 10764 bound_to 10752
  154.7082  135.5216  153.8696 H   0  0  0  0  0  0  0  0  0  0  0  0  # atno 10765 bound_to 10752
  140.3220  134.7429  157.4071 H   0  0  0  0  0  0  0  0  0  0  0  0  # atno 11005 bound_to 11000
  145.4399  141.0421  143.2863 LP  0  0  0  0  0  0  0  0  0  0  0  0  # atno 17320 bound_to 7965
  144.8130  139.5927  143.7021 LP  0  0  0  0  0  0  0  0  0  0  0  0  # atno 17321 bound_to 7965
  139.8709  144.7069  150.8989 LP  0  0  0  0  0  0  0  0  0  0  0  0  # atno 17342 bound_to 10162
  140.7774  143.3739  151.1598 LP  0  0  0  0  0  0  0  0  0  0  0  0  # atno 17343 bound_to 10162
  156.7362  130.4725  149.5488 LP  0  0  0  0  0  0  0  0  0  0  0  0  # atno 17370 bound_to 10713
  156.1569  130.6348  151.0669 LP  0  0  0  0  0  0  0  0  0  0  0  0  # atno 17371 bound_to 10713
  140.0933  134.5571  155.8422 LP  0  0  0  0  0  0  0  0  0  0  0  0  # atno 17394 bound_to 11000
  141.2084  133.6673  156.6370 LP  0  0  0  0  0  0  0  0  0  0  0  0  # atno 17395 bound_to 11000

$$$$
