#       Name:                AV-unprocessed.smi:2874
#       Creating user name   scv26
#       Creation time:       Fri Mar 27 15:50:25 2020


#       File generated by GOLD software.
#

@<TRIPOS>MOLECULE
AV-unprocessed.smi:2874
    44    46     1
SMALL
NO_CHARGES


@<TRIPOS>ATOM
      1 ****        -4.2590   1.3439   2.5303 C.3            1 S1                 0.0000
      2 ****        -3.4222   0.6777   1.6019 O.3            1 S1                 0.0000
      3 ****        -3.2261  -0.6888   1.9275 C.3            1 S1                 0.0000
      4 ****        -2.3045  -1.3371   0.8848 C.3            1 S1                 0.0000
      5 ****        -1.0249  -0.6259   0.7562 N.pl3          1 S1                 0.0000
      6 ****        -0.6266   0.3262  -0.1336 C.2            1 S1                 0.0000
      7 ****        -1.5975   0.9913  -1.4509 S.3            1 S1                 0.0000
      8 ****        -0.4773   1.9863  -2.4799 C.3            1 S1                 0.0000
      9 ****         0.5969   1.1115  -3.1016 C.ar           1 S1                 0.0000
     10 ****         0.1971   0.2201  -4.0143 N.ar           1 S1                 0.0000
     11 ****         1.1497  -0.5708  -4.5542 C.ar           1 S1                 0.0000
     12 ****         2.5035  -0.4655  -4.1755 C.ar           1 S1                 0.0000
     13 ****         2.8054   0.5129  -3.2074 C.ar           1 S1                 0.0000
     14 ****         4.1116   0.6984  -2.7626 N.pl3          1 S1                 0.0000
     15 ****         1.8493   1.3010  -2.6713 N.ar           1 S1                 0.0000
     16 ****         0.6513   0.6742   0.1835 N.pl3          1 S1                 1.0000
     17 ****         1.0799  -0.0686   1.2837 C.ar           1 S1                 0.0000
     18 ****         2.2943  -0.0732   1.9623 C.ar           1 S1                 0.0000
     19 ****         2.4058  -0.9568   3.0563 C.ar           1 S1                 0.0000
     20 ****         3.8826  -1.0177   3.9457 Cl             1 S1                 0.0000
     21 ****         1.3330  -1.7898   3.4366 C.ar           1 S1                 0.0000
     22 ****         0.1063  -1.7774   2.7406 C.ar           1 S1                 0.0000
     23 ****         0.0068  -0.9030   1.6593 C.ar           1 S1                 0.0000
     24 ****        -4.3786   2.3856   2.2328 H              1 S1                 0.0000
     25 ****        -3.8281   1.3272   3.5322 H              1 S1                 0.0000
     26 ****        -5.2494   0.8882   2.5667 H              1 S1                 0.0000
     27 ****        -2.7849  -0.7738   2.9217 H              1 S1                 0.0000
     28 ****        -4.1837  -1.2108   1.9501 H              1 S1                 0.0000
     29 ****        -2.1076  -2.3814   1.1285 H              1 S1                 0.0000
     30 ****        -2.7875  -1.3348  -0.0928 H              1 S1                 0.0000
     31 ****        -1.0533   2.4701  -3.2692 H              1 S1                 0.0000
     32 ****        -0.0353   2.7776  -1.8729 H              1 S1                 0.0000
     33 ****         0.8299  -1.2929  -5.2910 H              1 S1                 0.0000
     34 ****         3.2628  -1.1003  -4.6084 H              1 S1                 0.0000
     35 ****         4.8727   0.1391  -3.1207 H              1 S1                 0.0000
     36 ****         4.3575   1.4759  -2.1669 H              1 S1                 0.0000
     37 ****         3.1152   0.5657   1.6716 H              1 S1                 0.0000
     38 ****         1.4526  -2.4540   4.2803 H              1 S1                 0.0000
     39 ****        -0.7088  -2.4191   3.0412 H              1 S1                 0.0000
     40 ****         1.1927   1.3609  -0.3266 H              1 S1                 0.0000
     41 ****        -2.5326   1.1344   1.5873 LP             1 S1                 0.0000
     42 ****        -3.8407   0.7342   0.6955 LP             1 S1                 0.0000
     43 ****        -0.7625   0.1425  -4.2846 LP             1 S1                 0.0000
     44 ****         2.0672   1.9943  -1.9843 LP             1 S1                 0.0000
@<TRIPOS>BOND
    1    1    2 1     
    2    1   24 1     
    3    1   25 1     
    4    1   26 1     
    5    2    3 1     
    6    3    4 1     
    7    3   27 1     
    8    3   28 1     
    9    4    5 1     
   10    4   29 1     
   11    4   30 1     
   12    5   23 1     
   13    5    6 1     
   14    6    7 1     
   15    6   16 2     
   16    7    8 1     
   17    8    9 1     
   18    8   31 1     
   19    8   32 1     
   20    9   15 ar    
   21    9   10 ar    
   22   10   11 ar    
   23   11   12 ar    
   24   11   33 1     
   25   12   13 ar    
   26   12   34 1     
   27   13   14 1     
   28   13   15 ar    
   29   14   35 1     
   30   14   36 1     
   31   16   17 1     
   32   16   40 1     
   33   17   23 ar    
   34   17   18 ar    
   35   18   19 ar    
   36   18   37 1     
   37   19   20 1     
   38   19   21 ar    
   39   21   22 ar    
   40   21   38 1     
   41   22   23 ar    
   42   22   39 1     
   43    2   41 1     
   44    2   42 1     
   45   10   43 1     
   46   15   44 1     
@<TRIPOS>SUBSTRUCTURE
      1 S1             1
@<TRIPOS>SET
LONE_PAIRS      STATIC     ATOMS    <user>   **** ""
4 41 42 43 44
DONOR_HYDROGENS      STATIC     ATOMS    <user>   **** ""
3 35 36 40
ATOM$BLUE        STATIC     ATOMS    COLORGROUP SYSTEM
4 41 42 43 44
ATOM$RED        STATIC     ATOMS    COLORGROUP SYSTEM
3 35 36 40
