#       Name:                AV-unprocessed.smi:285
#       Creating user name   scv26
#       Creation time:       Thu Mar 26 21:53:28 2020


#       File generated by GOLD software.
#

@<TRIPOS>MOLECULE
AV-unprocessed.smi:285
    40    42     1
SMALL
NO_CHARGES


@<TRIPOS>ATOM
      1 ****        -5.2365   0.2643   0.5278 N.pl3          1 S1                 0.0000
      2 ****        -3.9456   0.5037   0.2570 C.ar           1 S1                 0.0000
      3 ****        -3.6131   1.6997  -0.2827 N.ar           1 S1                 0.0000
      4 ****        -2.3330   1.9629  -0.5648 C.ar           1 S1                 0.0000
      5 ****        -1.2613   1.1853  -0.3896 N.ar           1 S1                 0.0000
      6 ****        -1.5961  -0.0205   0.1575 C.ar           1 S1                 0.0000
      7 ****        -2.9144  -0.4367   0.5076 C.ar           1 S1                 0.0000
      8 ****        -2.8880  -1.7223   1.0338 N.2            1 S1                 0.0000
      9 ****        -1.6209  -2.0260   0.9863 C.2            1 S1                 0.0000
     10 ****        -1.0172  -3.7303   1.5859 Br             1 S1                 0.0000
     11 ****        -0.7640  -1.0749   0.4793 N.pl3          1 S1                 0.0000
     12 ****         0.7204  -1.1403   0.3064 C.3            1 S1                 0.0000
     13 ****         1.0955  -1.2646  -1.1694 C.3            1 S1                 0.0000
     14 ****         2.4109  -0.5164  -1.2042 C.3            1 S1                 0.0000
     15 ****         3.4795  -1.3642  -0.8214 O.3            1 S1                 0.0000
     16 ****         2.1605   0.6117  -0.1893 C.3            1 S1                 0.0000
     17 ****         3.4209   1.1989   0.4710 C.3            1 S1                 0.0000
     18 ****         3.1535   2.4902   0.9749 O.3            1 S1                 0.0000
     19 ****         1.2856   0.0425   0.7860 O.3            1 S1                 0.0000
     20 ****        -5.5105  -0.6209   0.9296 H              1 S1                 0.0000
     21 ****        -5.9320   0.9691   0.3303 H              1 S1                 0.0000
     22 ****        -2.1389   2.9352  -0.9931 H              1 S1                 0.0000
     23 ****         1.0627  -1.9792   0.9117 H              1 S1                 0.0000
     24 ****         1.1564  -2.3081  -1.4810 H              1 S1                 0.0000
     25 ****         0.3572  -0.7517  -1.7872 H              1 S1                 0.0000
     26 ****         2.6257  -0.1233  -2.1983 H              1 S1                 0.0000
     27 ****         4.2807  -0.8632  -0.8328 H              1 S1                 0.0000
     28 ****         1.6105   1.4008  -0.7053 H              1 S1                 0.0000
     29 ****         3.7915   0.5508   1.2659 H              1 S1                 0.0000
     30 ****         4.2186   1.3000  -0.2655 H              1 S1                 0.0000
     31 ****         3.9416   2.8274   1.3728 H              1 S1                 0.0000
     32 ****        -4.3202   2.3818  -0.4691 LP             1 S1                 0.0000
     33 ****        -0.3282   1.4531  -0.6295 LP             1 S1                 0.0000
     34 ****        -3.6510  -2.2767   1.3663 LP             1 S1                 0.0000
     35 ****         3.5504  -2.1277  -1.4633 LP             1 S1                 0.0000
     36 ****         3.3160  -1.7173   0.0998 LP             1 S1                 0.0000
     37 ****         2.4253   2.4410   1.6585 LP             1 S1                 0.0000
     38 ****         2.8694   3.0913   0.2279 LP             1 S1                 0.0000
     39 ****         1.8042  -0.1546   1.6180 LP             1 S1                 0.0000
     40 ****         0.5566   0.6945   0.9943 LP             1 S1                 0.0000
@<TRIPOS>BOND
    1    1    2 1     
    2    1   20 1     
    3    1   21 1     
    4    2    7 ar    
    5    2    3 ar    
    6    3    4 ar    
    7    4    5 ar    
    8    4   22 1     
    9    5    6 ar    
   10    6   11 1     
   11    6    7 ar    
   12    7    8 1     
   13    8    9 2     
   14    9   10 1     
   15    9   11 1     
   16   11   12 1     
   17   12   19 1     
   18   12   13 1     
   19   12   23 1     
   20   13   14 1     
   21   13   24 1     
   22   13   25 1     
   23   14   15 1     
   24   14   16 1     
   25   14   26 1     
   26   15   27 1     
   27   16   17 1     
   28   16   19 1     
   29   16   28 1     
   30   17   18 1     
   31   17   29 1     
   32   17   30 1     
   33   18   31 1     
   34    3   32 1     
   35    5   33 1     
   36    8   34 1     
   37   15   35 1     
   38   15   36 1     
   39   18   37 1     
   40   18   38 1     
   41   19   39 1     
   42   19   40 1     
@<TRIPOS>SUBSTRUCTURE
      1 S1             1
@<TRIPOS>SET
LONE_PAIRS      STATIC     ATOMS    <user>   **** ""
9 32 33 34 35 36 37 38 39 40
DONOR_HYDROGENS      STATIC     ATOMS    <user>   **** ""
4 20 21 27 31
ATOM$BLUE        STATIC     ATOMS    COLORGROUP SYSTEM
9 32 33 34 35 36 37 38 39 40
ATOM$RED        STATIC     ATOMS    COLORGROUP SYSTEM
4 20 21 27 31
