AV-unprocessed.smi:1239|AV-procd|sdf|5188|dock4
  -GOLD-   22720 4273D 1   1.00000     0.00000
 Structure written by MMmdl.
 47 48  0  0  0  0  0  0  0  0  1 V2000
  156.2156  134.4144  161.1835 C   0  0  0  0  0  0  0  0  0  0  0  0
  155.3627  134.9811  162.3473 C   0  0  1  0  0  0  0  0  0  0  0  0
  154.2074  135.8398  161.7536 C   0  0  0  0  0  0  0  0  0  0  0  0
  154.4207  137.2785  161.8877 N   0  0  0  0  0  0  0  0  0  0  0  0
  153.7452  138.2233  161.2184 C   0  0  0  0  0  0  0  0  0  0  0  0
  152.8686  137.9728  160.3916 O   0  0  0  0  0  0  0  0  0  0  0  0
  154.1644  139.4530  161.5622 N   0  0  0  0  0  0  0  0  0  0  0  0
  153.6945  140.7129  161.1023 C   0  0  0  0  0  0  0  0  0  0  0  0
  153.5597  141.8626  161.9138 C   0  0  0  0  0  0  0  0  0  0  0  0
  153.0988  143.0597  161.3326 C   0  0  0  0  0  0  0  0  0  0  0  0
  152.7875  143.0872  159.9505 C   0  0  0  0  0  0  0  0  0  0  0  0
  152.3195  144.2640  159.3224 N   0  0  0  0  0  0  0  0  0  0  0  0
  151.9668  145.4264  160.1312 C   0  0  0  0  0  0  0  0  0  0  0  0
  152.2844  144.3549  157.8681 C   0  0  0  0  0  0  0  0  0  0  0  0
  152.9324  141.9839  159.1761 N   0  0  0  0  0  0  0  0  0  0  0  0
  153.3747  140.8396  159.7368 C   0  0  0  0  0  0  0  0  0  0  0  0
  154.8924  133.9271  163.2766 N   0  0  0  0  0  0  0  0  0  0  0  0
  154.1525  132.8577  162.5959 C   0  0  0  0  0  0  0  0  0  0  0  0
  153.6329  131.7801  163.5637 C   0  0  0  0  0  0  0  0  0  0  0  0
  152.8174  132.3809  164.5600 O   0  0  0  0  0  0  0  0  0  0  0  0
  153.5204  133.3707  165.2977 C   0  0  0  0  0  0  0  0  0  0  0  0
  154.0351  134.4606  164.3419 C   0  0  0  0  0  0  0  0  0  0  0  0
  156.5209  135.1851  160.4768 H   0  0  0  0  0  0  0  0  0  0  0  0
  155.6653  133.6568  160.6246 H   0  0  0  0  0  0  0  0  0  0  0  0
  157.1458  133.9676  161.5312 H   0  0  0  0  0  0  0  0  0  0  0  0
  156.0070  135.6569  162.9118 H   0  0  0  0  0  0  0  0  0  0  0  0
  154.0837  135.6135  160.6942 H   0  0  0  0  0  0  0  0  0  0  0  0
  153.2515  135.6224  162.2283 H   0  0  0  0  0  0  0  0  0  0  0  0
  155.1292  137.5735  162.5436 H   0  0  0  0  0  0  0  0  0  0  0  0
  154.9479  139.4916  162.1976 H   0  0  0  0  0  0  0  0  0  0  0  0
  153.8119  141.8588  162.9627 H   0  0  0  0  0  0  0  0  0  0  0  0
  152.9986  143.9329  161.9592 H   0  0  0  0  0  0  0  0  0  0  0  0
  152.8324  145.7760  160.6949 H   0  0  0  0  0  0  0  0  0  0  0  0
  151.1713  145.1777  160.8345 H   0  0  0  0  0  0  0  0  0  0  0  0
  151.6163  146.2516  159.5111 H   0  0  0  0  0  0  0  0  0  0  0  0
  151.6085  143.6063  157.4541 H   0  0  0  0  0  0  0  0  0  0  0  0
  153.2791  144.1989  157.4494 H   0  0  0  0  0  0  0  0  0  0  0  0
  151.9362  145.3342  157.5394 H   0  0  0  0  0  0  0  0  0  0  0  0
  153.4722  139.9952  159.0699 H   0  0  0  0  0  0  0  0  0  0  0  0
  153.3139  133.2822  162.0418 H   0  0  0  0  0  0  0  0  0  0  0  0
  154.7866  132.3493  161.8729 H   0  0  0  0  0  0  0  0  0  0  0  0
  153.0445  131.0388  163.0229 H   0  0  0  0  0  0  0  0  0  0  0  0
  154.4629  131.2490  164.0326 H   0  0  0  0  0  0  0  0  0  0  0  0
  152.8490  133.8042  166.0390 H   0  0  0  0  0  0  0  0  0  0  0  0
  154.3471  132.9129  165.8431 H   0  0  0  0  0  0  0  0  0  0  0  0
  154.5780  135.1840  164.9476 H   0  0  0  0  0  0  0  0  0  0  0  0
  153.1856  134.9869  163.9037 H   0  0  0  0  0  0  0  0  0  0  0  0
  1  2  1  0  0  0  0
  1 23  1  0  0  0  0
  1 24  1  0  0  0  0
  1 25  1  0  0  0  0
  2  3  1  0  0  0  0
  2 17  1  0  0  0  0
  2 26  1  0  0  0  0
  3  4  1  0  0  0  0
  3 27  1  0  0  0  0
  3 28  1  0  0  0  0
  4  5  1  0  0  0  0
  4 29  1  0  0  0  0
  5  6  2  0  0  0  0
  5  7  1  0  0  0  0
  7  8  1  0  0  0  0
  7 30  1  0  0  0  0
  8 16  1  0  0  0  0
  8  9  2  0  0  0  0
  9 10  1  0  0  0  0
  9 31  1  0  0  0  0
 10 11  2  0  0  0  0
 10 32  1  0  0  0  0
 11 12  1  0  0  0  0
 11 15  1  0  0  0  0
 12 13  1  0  0  0  0
 12 14  1  0  0  0  0
 13 33  1  0  0  0  0
 13 34  1  0  0  0  0
 13 35  1  0  0  0  0
 14 36  1  0  0  0  0
 14 37  1  0  0  0  0
 14 38  1  0  0  0  0
 15 16  2  0  0  0  0
 16 39  1  0  0  0  0
 17 22  1  0  0  0  0
 17 18  1  0  0  0  0
 18 19  1  0  0  0  0
 18 40  1  0  0  0  0
 18 41  1  0  0  0  0
 19 20  1  0  0  0  0
 19 42  1  0  0  0  0
 19 43  1  0  0  0  0
 20 21  1  0  0  0  0
 21 22  1  0  0  0  0
 21 44  1  0  0  0  0
 21 45  1  0  0  0  0
 22 46  1  0  0  0  0
 22 47  1  0  0  0  0
M  END
> <s_m_source_file>
AV-unprocessed.smi

> <i_m_source_file_index>
1239

> <i_lp_mmshare_version>
43012

> <i_f3d_flags>
0

> <s_epik_input>
W0NIMl0xW0NIMl1PW0NIMl1bQ0gyXU4xW0NASF0oW0NIM10pW0NIMl1bTkhdQyg9TylbTkhdYzJbY0hdW2NIXWMoTihbQ0gzXSlbQ0gzXSluW2NIXTI=

> <s_epik_cmdline>
J2VwaWtfcHl0aG9uJywgJy1waCcsICc3LjAnLCAnLXRuJywgJzgnLCAnLW1hJywgJzIwMCcsICctbWV0YWxfYmluZGluZycsICctaW1hZScsICc8aW5maWxlLm1hZT4nLCAnLW9tYWUnLCAnPG91dGZpbGUubWFlPic=

> <r_lp_tautomer_probability>
1

> <r_epik_Ionization_Penalty>
0.87526

> <r_epik_Ionization_Penalty_Charging>
0

> <r_epik_Ionization_Penalty_Neutral>
0.87526

> <r_epik_State_Penalty>
0.859346

> <r_epik_Charging_Adjusted_Penalty>
0.859346

> <i_epik_Tot_Q>
0

> <i_epik_Tot_abs_Q>
0

> <r_epik_Metal_State_Penalty>
0.538105

> <b_epik_Metal_Only>
0

> <s_lp_Force_Field>
OPLS_2005

> <r_lp_Energy>
32.4423

> <b_lp_Chiralities_Consistent>
1

> <s_lp_Variant>
AV-unprocessed.smi:1239-4

> <Gold.Version>
5.8.1

> <Gold.Id.Protein>
6NUR|6NUR_protein|mol2

> <Gold.PLP.Fitness>
43.0147

> <Gold.PLP.PLP>
-45.2693

> <Gold.PLP.part.hbond>
0.0000

> <Gold.PLP.part.metal>
0.0000

> <Gold.PLP.part.buried>
-6.2536

> <Gold.PLP.part.nonpolar>
-38.9093

> <Gold.PLP.part.repulsive>
0.0546

> <Gold.PLP.ligand.clash>
0.0000

> <Gold.PLP.ligand.torsion>
1.1600

> <Gold.PLP.Chemscore.Hbond>
0.0000

> <Gold.PLP.Chemscore.CHOScore>
0.0000

> <Gold.PLP.Chemscore.Metal>
0.0000

> <Gold.PLP.Chemscore.Internal.Correction>
0.0654

> <Gold.Rescore>
     Score         DG    S(hbond)    S(metal)    S(lipo)     H(rot)  DE(clash)    DE(int)     intcor
     11.47     -13.95       0.00        0.00     103.82       1.44       0.06       2.42       ----

> <Gold.Chemscore.Fitness>
11.4733

> <Gold.Chemscore.DG>
-13.9485

> <Gold.Chemscore.ZeroCoef>
-5.4800

> <Gold.Chemscore.Hbond>
0.0000

> <Gold.Chemscore.Metal>
0.0000

> <Gold.Chemscore.Lipo>
103.8211

> <Gold.Chemscore.Internal_Hbond>
0.0000

> <Gold.Chemscore.DEClash>
0.0580

> <Gold.Chemscore.DEInternal>
2.4172

> <Gold.Chemscore.Rot>
1.4370

> <Gold.Chemscore.Internal.Correction>
   9.000000E+99

> <Gold.Chemscore.Hbond.Weighted>
-0.0000

> <Gold.Chemscore.Metal.Weighted>
-0.0000

> <Gold.Chemscore.Lipo.Weighted>
-12.1471

> <Gold.Chemscore.Internal_Hbond.Weighted>
0.0000

> <Gold.Chemscore.DEClash.Weighted>
0.0580

> <Gold.Chemscore.DEInternal.Weighted>
2.4172

> <Gold.Chemscore.Rot.Weighted>
3.6786

> <Gold.Chemscore.Internal.Correction.Weighted>
   9.000000E+99

> <Gold.Protein.RotatedTorsions>
[ 6907 6896 6895 6894 ] final  125.90 input  -60.11 | X-H torsion
[ 7974 7965 7964 7962 ] final   47.49 input  175.53 | X-H torsion
[ 8008 7997 7996 7995 ] final -163.81 input   59.86 | X-H torsion
[ 10167 10162 10161 10158 ] final  -53.80 input  -65.29 | X-H torsion
[ 10718 10713 10712 10709 ] final  165.57 input   66.30 | X-H torsion
[ 10763 10752 10751 10750 ] final    2.57 input  -60.55 | X-H torsion
[ 11005 11000 10999 10996 ] final  -10.65 input  -57.11 | X-H torsion

> <Gold.Protein.ActiveResidues>
 VAL166  LYS551  ARG553  GLY616  TRP617  ASP618  TYR619  PRO620  LYS621  CYS622 
 ASP623  PHE694  ASN695  SER759  ASP760  ASP761  ALA762  ILE779  LEU786  VAL792 
 PHE793  MET794  SER795  GLU796  ALA797  LYS798  CYS799  TRP800  GLU811  SER814 

> <Gold.Protein.RotatedAtoms>
  152.3951  133.6735  159.6269 H   0  0  0  0  0  0  0  0  0  0  0  0  # atno 6907 bound_to 6896
  150.7851  133.8888  159.3316 H   0  0  0  0  0  0  0  0  0  0  0  0  # atno 6908 bound_to 6896
  151.6666  135.0983  160.0241 H   0  0  0  0  0  0  0  0  0  0  0  0  # atno 6909 bound_to 6896
  146.0292  139.4743  142.9848 H   0  0  0  0  0  0  0  0  0  0  0  0  # atno 7974 bound_to 7965
  155.8266  140.0927  157.1817 H   0  0  0  0  0  0  0  0  0  0  0  0  # atno 8008 bound_to 7997
  154.3979  140.1427  156.3624 H   0  0  0  0  0  0  0  0  0  0  0  0  # atno 8009 bound_to 7997
  155.8210  140.3446  155.5516 H   0  0  0  0  0  0  0  0  0  0  0  0  # atno 8010 bound_to 7997
  140.6465  143.2538  151.4845 H   0  0  0  0  0  0  0  0  0  0  0  0  # atno 10167 bound_to 10162
  157.0783  131.0385  151.2585 H   0  0  0  0  0  0  0  0  0  0  0  0  # atno 10718 bound_to 10713
  153.2940  135.6950  153.7266 H   0  0  0  0  0  0  0  0  0  0  0  0  # atno 10763 bound_to 10752
  153.6206  135.3428  155.3010 H   0  0  0  0  0  0  0  0  0  0  0  0  # atno 10764 bound_to 10752
  154.8532  135.4385  154.2031 H   0  0  0  0  0  0  0  0  0  0  0  0  # atno 10765 bound_to 10752
  140.7470  133.8624  155.9013 H   0  0  0  0  0  0  0  0  0  0  0  0  # atno 11005 bound_to 11000
  145.7068  141.0119  143.1475 LP  0  0  0  0  0  0  0  0  0  0  0  0  # atno 17320 bound_to 7965
  144.7023  139.8709  143.7440 LP  0  0  0  0  0  0  0  0  0  0  0  0  # atno 17321 bound_to 7965
  139.5676  144.2005  152.1788 LP  0  0  0  0  0  0  0  0  0  0  0  0  # atno 17342 bound_to 10162
  140.1291  144.5304  150.6814 LP  0  0  0  0  0  0  0  0  0  0  0  0  # atno 17343 bound_to 10162
  157.4821  130.7771  149.7424 LP  0  0  0  0  0  0  0  0  0  0  0  0  # atno 17370 bound_to 10713
  155.9931  130.3927  150.2916 LP  0  0  0  0  0  0  0  0  0  0  0  0  # atno 17371 bound_to 10713
  140.9786  134.1436  157.4515 LP  0  0  0  0  0  0  0  0  0  0  0  0  # atno 17394 bound_to 11000
  139.8795  135.0003  156.6001 LP  0  0  0  0  0  0  0  0  0  0  0  0  # atno 17395 bound_to 11000

$$$$
