AV-unprocessed.smi:3055|AV-procd|sdf|11641|dock5
  -GOLD-   2272017 33D 1   1.00000     0.00000
 Structure written by MMmdl.
 48 50  0  0  0  0  0  0  0  0  3 V2000
  146.8078  133.6781  158.5892 O   0  0  0  0  0  0  0  0  0  0  0  0
  146.8320  133.3775  159.7825 C   0  0  0  0  0  0  0  0  0  0  0  0
  146.3266  132.2180  160.2326 N   0  0  0  0  0  0  0  0  0  0  0  0
  145.6982  131.2054  159.3932 C   0  0  0  0  0  0  0  0  0  0  0  0
  144.5584  131.8058  158.5553 C   0  0  0  0  0  0  0  0  0  0  0  0
  143.2480  131.2557  158.9168 N   0  0  0  0  0  0  0  0  0  0  0  0
  142.9343  130.5297  160.0373 C   0  0  0  0  0  0  0  0  0  0  0  0
  141.5977  130.2362  159.9515 C   0  0  0  0  0  0  0  0  0  0  0  0
  141.1512  130.7991  158.7859 N   0  3  0  0  0  0  0  0  0  0  0  0
  142.1555  131.4207  158.1592 C   0  0  0  0  0  0  0  0  0  0  0  0
  147.3893  134.1656  160.7369 N   0  0  0  0  0  0  0  0  0  0  0  0
  148.2078  135.3692  160.5078 C   0  0  0  0  0  0  0  0  0  0  0  0
  147.4543  136.5966  161.0468 C   0  0  0  0  0  0  0  0  0  0  0  0
  147.0906  136.4094  162.5322 C   0  0  0  0  0  0  0  0  0  0  0  0
  146.3513  135.0712  162.7968 C   0  0  1  0  0  0  0  0  0  0  0  0
  144.9482  135.0915  162.2863 N   0  3  0  0  0  0  0  0  0  0  0  0
  144.1923  133.8334  162.4667 C   0  0  0  0  0  0  0  0  0  0  0  0
  142.7306  134.2273  162.2950 C   0  0  0  0  0  0  0  0  0  0  0  0
  142.6614  135.6087  162.9372 C   0  0  0  0  0  0  0  0  0  0  0  0
  144.0861  136.1715  162.8287 C   0  0  0  0  0  0  0  0  0  0  0  0
  147.1881  133.9228  162.1746 C   0  0  0  0  0  0  0  0  0  0  0  0
  146.3889  132.0247  161.2214 H   0  0  0  0  0  0  0  0  0  0  0  0
  146.4421  130.7430  158.7421 H   0  0  0  0  0  0  0  0  0  0  0  0
  145.3040  130.4155  160.0342 H   0  0  0  0  0  0  0  0  0  0  0  0
  144.5098  132.8846  158.7073 H   0  0  0  0  0  0  0  0  0  0  0  0
  144.7298  131.6430  157.4899 H   0  0  0  0  0  0  0  0  0  0  0  0
  143.6668  130.2809  160.7918 H   0  0  0  0  0  0  0  0  0  0  0  0
  140.9479  129.6855  160.6162 H   0  0  0  0  0  0  0  0  0  0  0  0
  142.0935  131.9504  157.2252 H   0  0  0  0  0  0  0  0  0  0  0  0
  149.1570  135.2568  161.0342 H   0  0  0  0  0  0  0  0  0  0  0  0
  148.4788  135.5353  159.4653 H   0  0  0  0  0  0  0  0  0  0  0  0
  148.0650  137.4916  160.9252 H   0  0  0  0  0  0  0  0  0  0  0  0
  146.5485  136.7585  160.4611 H   0  0  0  0  0  0  0  0  0  0  0  0
  148.0154  136.4094  163.1108 H   0  0  0  0  0  0  0  0  0  0  0  0
  146.5295  137.2702  162.8943 H   0  0  0  0  0  0  0  0  0  0  0  0
  146.3013  134.9185  163.8761 H   0  0  0  0  0  0  0  0  0  0  0  0
  144.4863  133.0625  161.7565 H   0  0  0  0  0  0  0  0  0  0  0  0
  144.3547  133.4461  163.4739 H   0  0  0  0  0  0  0  0  0  0  0  0
  142.4904  134.3004  161.2334 H   0  0  0  0  0  0  0  0  0  0  0  0
  142.0424  133.5123  162.7472 H   0  0  0  0  0  0  0  0  0  0  0  0
  141.9224  136.2487  162.4537 H   0  0  0  0  0  0  0  0  0  0  0  0
  142.3808  135.5160  163.9874 H   0  0  0  0  0  0  0  0  0  0  0  0
  144.4234  136.4872  163.8171 H   0  0  0  0  0  0  0  0  0  0  0  0
  144.1250  137.0388  162.1687 H   0  0  0  0  0  0  0  0  0  0  0  0
  146.7367  132.9525  162.3830 H   0  0  0  0  0  0  0  0  0  0  0  0
  148.1643  133.8801  162.6601 H   0  0  0  0  0  0  0  0  0  0  0  0
  144.9951  135.2474  161.2897 H   0  0  0  0  0  0  0  0  0  0  0  0
  140.1978  130.7568  158.4475 H   0  0  0  0  0  0  0  0  0  0  0  0
  1  2  2  0  0  0  0
  2  3  1  0  0  0  0
  2 11  1  0  0  0  0
  3  4  1  0  0  0  0
  3 22  1  0  0  0  0
  4  5  1  0  0  0  0
  4 23  1  0  0  0  0
  4 24  1  0  0  0  0
  5  6  1  0  0  0  0
  5 25  1  0  0  0  0
  5 26  1  0  0  0  0
  6 10  1  0  0  0  0
  6  7  1  0  0  0  0
  7  8  2  0  0  0  0
  7 27  1  0  0  0  0
  8  9  1  0  0  0  0
  8 28  1  0  0  0  0
  9 10  2  0  0  0  0
  9 48  1  0  0  0  0
 10 29  1  0  0  0  0
 11 21  1  0  0  0  0
 11 12  1  0  0  0  0
 12 13  1  0  0  0  0
 12 30  1  0  0  0  0
 12 31  1  0  0  0  0
 13 14  1  0  0  0  0
 13 32  1  0  0  0  0
 13 33  1  0  0  0  0
 14 15  1  0  0  0  0
 14 34  1  0  0  0  0
 14 35  1  0  0  0  0
 15 16  1  0  0  0  0
 15 21  1  0  0  0  0
 15 36  1  0  0  0  0
 16 20  1  0  0  0  0
 16 17  1  0  0  0  0
 16 47  1  0  0  0  0
 17 18  1  0  0  0  0
 17 37  1  0  0  0  0
 17 38  1  0  0  0  0
 18 19  1  0  0  0  0
 18 39  1  0  0  0  0
 18 40  1  0  0  0  0
 19 20  1  0  0  0  0
 19 41  1  0  0  0  0
 19 42  1  0  0  0  0
 20 43  1  0  0  0  0
 20 44  1  0  0  0  0
 21 45  1  0  0  0  0
 21 46  1  0  0  0  0
M  CHG  1   9   1
M  CHG  1  16   1
M  END
> <s_m_source_file>
AV-unprocessed.smi

> <i_m_source_file_index>
3055

> <i_lp_mmshare_version>
43012

> <i_f3d_flags>
0

> <s_epik_input>
W2NIXTFuW2NIXVtjSF1uMVtDSDJdW0NIMl1bTkhdQyg9TylOMltDSDJdW0NIMl1bQ0gyXVtDQEhdKFtDSDJdMilOM1tDSDJdW0NIMl1bQ0gyXVtDSDJdMw==

> <s_epik_cmdline>
J2VwaWtfcHl0aG9uJywgJy1waCcsICc3LjAnLCAnLXRuJywgJzgnLCAnLW1hJywgJzIwMCcsICctbWV0YWxfYmluZGluZycsICctaW1hZScsICc8aW5maWxlLm1hZT4nLCAnLW9tYWUnLCAnPG91dGZpbGUubWFlPic=

> <r_lp_tautomer_probability>
1

> <r_epik_Ionization_Penalty>
0.259176

> <r_epik_Ionization_Penalty_Charging>
0.00125522

> <r_epik_Ionization_Penalty_Neutral>
0.257921

> <r_epik_State_Penalty>
0.249312

> <r_epik_Charging_Adjusted_Penalty>
0.250567

> <i_epik_Tot_Q>
2

> <i_epik_Tot_abs_Q>
2

> <r_epik_Metal_State_Penalty>
0.53666

> <b_epik_Metal_Only>
0

> <s_lp_Force_Field>
OPLS_2005

> <r_lp_Energy>
71.9504

> <b_lp_Chiralities_Consistent>
1

> <s_lp_Variant>
AV-unprocessed.smi:3055-1

> <Gold.Version>
5.8.1

> <Gold.Id.Protein>
6NUR|6NUR_protein|mol2

> <Gold.PLP.Fitness>
41.0958

> <Gold.PLP.PLP>
-37.2216

> <Gold.PLP.part.hbond>
-1.0000

> <Gold.PLP.part.metal>
0.0000

> <Gold.PLP.part.buried>
-5.9977

> <Gold.PLP.part.nonpolar>
-30.0472

> <Gold.PLP.part.repulsive>
0.0964

> <Gold.PLP.ligand.clash>
0.9430

> <Gold.PLP.ligand.torsion>
0.6179

> <Gold.PLP.Chemscore.Hbond>
1.0000

> <Gold.PLP.Chemscore.CHOScore>
1.0074

> <Gold.PLP.Chemscore.Metal>
0.0000

> <Gold.Chemscore.Hbonds>
donor molecule, donor type, donor heavy atom, donor atom, acceptor molecule, acceptor atom, score
      L1  H     9    48       P1 10998  1.00
      L1  C    10    29       P1 10957  1.00
      L1  C    10    29       P1 11000  0.05

> <Gold.PLP.Chemscore.Internal.Correction>
0.0308

> <Gold.Rescore>
     Score         DG    S(hbond)    S(metal)    S(lipo)     H(rot)  DE(clash)    DE(int)     intcor
     12.13     -14.22       1.00        0.00      87.23       1.87       0.16       1.92       ----

> <Gold.Chemscore.Fitness>
12.1342

> <Gold.Chemscore.DG>
-14.2195

> <Gold.Chemscore.ZeroCoef>
-5.4800

> <Gold.Chemscore.Hbond>
0.9968

> <Gold.Chemscore.Metal>
0.0000

> <Gold.Chemscore.Lipo>
87.2292

> <Gold.Chemscore.Internal_Hbond>
0.0000

> <Gold.Chemscore.DEClash>
0.1621

> <Gold.Chemscore.DEInternal>
1.9232

> <Gold.Chemscore.Rot>
1.8732

> <Gold.Chemscore.Internal.Correction>
   9.000000E+99

> <Gold.Chemscore.Hbonds>
donor molecule, donor type, donor heavy atom, donor atom, acceptor molecule, acceptor atom, score
      L1  H     9    48       P1 10998  0.96

> <Gold.Chemscore.Hbond.Weighted>
-3.3292

> <Gold.Chemscore.Metal.Weighted>
-0.0000

> <Gold.Chemscore.Lipo.Weighted>
-10.2058

> <Gold.Chemscore.Internal_Hbond.Weighted>
0.0000

> <Gold.Chemscore.DEClash.Weighted>
0.1621

> <Gold.Chemscore.DEInternal.Weighted>
1.9232

> <Gold.Chemscore.Rot.Weighted>
4.7954

> <Gold.Chemscore.Internal.Correction.Weighted>
   9.000000E+99

> <Gold.Protein.RotatedTorsions>
[ 6907 6896 6895 6894 ] final  162.70 input  -60.11 | X-H torsion
[ 7974 7965 7964 7962 ] final   81.48 input  175.53 | X-H torsion
[ 8008 7997 7996 7995 ] final -145.48 input   59.86 | X-H torsion
[ 10167 10162 10161 10158 ] final  -73.25 input  -65.29 | X-H torsion
[ 10718 10713 10712 10709 ] final   44.08 input   66.30 | X-H torsion
[ 10763 10752 10751 10750 ] final  174.10 input  -60.55 | X-H torsion
[ 11005 11000 10999 10996 ] final  103.74 input  -57.11 | X-H torsion

> <Gold.Protein.ActiveResidues>
 VAL166  LYS551  ARG553  GLY616  TRP617  ASP618  TYR619  PRO620  LYS621  CYS622 
 ASP623  PHE694  ASN695  SER759  ASP760  ASP761  ALA762  ILE779  LEU786  VAL792 
 PHE793  MET794  SER795  GLU796  ALA797  LYS798  CYS799  TRP800  GLU811  SER814 

> <Gold.Protein.RotatedAtoms>
  151.9365  133.3626  159.3949 H   0  0  0  0  0  0  0  0  0  0  0  0  # atno 6907 bound_to 6896
  150.7007  134.4483  159.5334 H   0  0  0  0  0  0  0  0  0  0  0  0  # atno 6908 bound_to 6896
  152.2133  134.8481  160.0545 H   0  0  0  0  0  0  0  0  0  0  0  0  # atno 6909 bound_to 6896
  145.6376  139.2418  143.2049 H   0  0  0  0  0  0  0  0  0  0  0  0  # atno 7974 bound_to 7965
  155.5439  140.0610  157.2864 H   0  0  0  0  0  0  0  0  0  0  0  0  # atno 8008 bound_to 7997
  154.4443  140.1914  156.0662 H   0  0  0  0  0  0  0  0  0  0  0  0  # atno 8009 bound_to 7997
  156.0565  140.3278  155.7415 H   0  0  0  0  0  0  0  0  0  0  0  0  # atno 8010 bound_to 7997
  140.5126  143.2343  151.7568 H   0  0  0  0  0  0  0  0  0  0  0  0  # atno 10167 bound_to 10162
  157.4230  130.7980  149.7532 H   0  0  0  0  0  0  0  0  0  0  0  0  # atno 10718 bound_to 10713
  154.4493  135.2764  155.1792 H   0  0  0  0  0  0  0  0  0  0  0  0  # atno 10763 bound_to 10752
  154.3626  135.6126  153.5702 H   0  0  0  0  0  0  0  0  0  0  0  0  # atno 10764 bound_to 10752
  152.9846  135.5838  154.4835 H   0  0  0  0  0  0  0  0  0  0  0  0  # atno 10765 bound_to 10752
  139.8786  134.9274  156.5256 H   0  0  0  0  0  0  0  0  0  0  0  0  # atno 11005 bound_to 11000
  146.1306  140.7190  142.9414 LP  0  0  0  0  0  0  0  0  0  0  0  0  # atno 17320 bound_to 7965
  144.7169  140.4242  143.7037 LP  0  0  0  0  0  0  0  0  0  0  0  0  # atno 17321 bound_to 7965
  139.4900  144.4369  151.9808 LP  0  0  0  0  0  0  0  0  0  0  0  0  # atno 17342 bound_to 10162
  140.3462  144.3144  150.5957 LP  0  0  0  0  0  0  0  0  0  0  0  0  # atno 17343 bound_to 10162
  155.9887  130.3957  150.3107 LP  0  0  0  0  0  0  0  0  0  0  0  0  # atno 17370 bound_to 10713
  157.1257  131.0258  151.2990 LP  0  0  0  0  0  0  0  0  0  0  0  0  # atno 17371 bound_to 10713
  140.8419  133.8199  155.9083 LP  0  0  0  0  0  0  0  0  0  0  0  0  # atno 17394 bound_to 11000
  140.9229  134.2119  157.4914 LP  0  0  0  0  0  0  0  0  0  0  0  0  # atno 17395 bound_to 11000

$$$$
