AV-unprocessed.smi:261|AV-procd|sdf|1995|dock1
  -GOLD-   2262021183D 1   1.00000     0.00000
 Structure written by MMmdl.
 51 54  0  0  0  0  0  0  0  0  1 V2000
  152.2008  145.3063  159.0221 C   0  0  0  0  0  0  0  0  0  0  0  0
  152.8408  144.0629  158.7860 O   0  0  0  0  0  0  0  0  0  0  0  0
  151.9366  142.9725  158.6896 C   0  0  1  0  0  0  0  0  0  0  0  0
  151.1602  143.0256  157.3794 C   0  0  0  0  0  0  0  0  0  0  0  0
  150.6875  141.5767  157.2051 C   0  0  1  0  0  0  0  0  0  0  0  0
  150.3923  141.2376  155.7372 C   0  0  0  0  0  0  0  0  0  0  0  0
  149.5409  142.0406  155.0946 N   0  0  0  0  0  0  0  0  0  0  0  0
  150.9298  140.2789  155.1854 O   0  0  0  0  0  0  0  0  0  0  0  0
  151.7886  140.7766  157.7479 N   0  0  0  0  0  0  0  0  0  0  0  0
  151.4368  139.5786  158.2640 C   0  0  0  0  0  0  0  0  0  0  0  0
  152.4376  138.7460  158.6401 N   0  0  0  0  0  0  0  0  0  0  0  0
  152.1494  137.5431  159.1466 C   0  0  0  0  0  0  0  0  0  0  0  0
  150.9526  136.9884  159.3538 N   0  0  0  0  0  0  0  0  0  0  0  0
  149.9455  137.8269  158.9754 C   0  0  0  0  0  0  0  0  0  0  0  0
  150.0960  139.1312  158.4285 C   0  0  0  0  0  0  0  0  0  0  0  0
  148.8486  139.6842  158.1645 N   0  0  0  0  0  0  0  0  0  0  0  0
  148.0072  138.7549  158.5278 C   0  0  0  0  0  0  0  0  0  0  0  0
  148.5813  137.6036  159.0181 N   0  0  0  0  0  0  0  0  0  0  0  0
  147.8884  136.4132  159.4766 C   0  0  0  0  0  0  0  0  0  0  0  0
  148.0229  136.1932  160.9979 C   0  0  1  0  0  0  0  0  0  0  0  0
  147.4556  137.2961  161.6758 O   0  0  0  0  0  0  0  0  0  0  0  0
  147.4185  134.8661  161.5110 C   0  0  1  0  0  0  0  0  0  0  0  0
  145.8995  134.8496  161.7511 C   0  0  0  0  0  0  0  0  0  0  0  0
  145.4407  133.5539  161.0989 C   0  0  0  0  0  0  0  0  0  0  0  0
  146.7366  132.7769  160.8915 C   0  0  0  0  0  0  0  0  0  0  0  0
  147.6801  133.7966  160.6109 O   0  0  0  0  0  0  0  0  0  0  0  0
  152.6295  141.6086  158.6038 C   0  0  0  0  0  0  0  0  0  0  0  0
  151.2259  142.9821  159.5184 H   0  0  0  0  0  0  0  0  0  0  0  0
  149.7832  141.4261  157.7984 H   0  0  0  0  0  0  0  0  0  0  0  0
  152.9486  146.0981  159.0638 H   0  0  0  0  0  0  0  0  0  0  0  0
  151.6620  145.3069  159.9701 H   0  0  0  0  0  0  0  0  0  0  0  0
  151.5009  145.5476  158.2212 H   0  0  0  0  0  0  0  0  0  0  0  0
  150.3356  143.7384  157.4123 H   0  0  0  0  0  0  0  0  0  0  0  0
  151.8264  143.3190  156.5654 H   0  0  0  0  0  0  0  0  0  0  0  0
  149.3115  141.8633  154.1275 H   0  0  0  0  0  0  0  0  0  0  0  0
  149.1291  142.8241  155.5805 H   0  0  0  0  0  0  0  0  0  0  0  0
  153.0000  136.9375  159.4231 H   0  0  0  0  0  0  0  0  0  0  0  0
  146.9378  138.8805  158.4371 H   0  0  0  0  0  0  0  0  0  0  0  0
  146.8379  136.4956  159.1951 H   0  0  0  0  0  0  0  0  0  0  0  0
  148.2903  135.5552  158.9359 H   0  0  0  0  0  0  0  0  0  0  0  0
  149.0834  136.1918  161.2514 H   0  0  0  0  0  0  0  0  0  0  0  0
  147.0629  136.9836  162.4767 H   0  0  0  0  0  0  0  0  0  0  0  0
  147.9007  134.6011  162.4539 H   0  0  0  0  0  0  0  0  0  0  0  0
  145.6871  134.8496  162.8208 H   0  0  0  0  0  0  0  0  0  0  0  0
  145.3813  135.7046  161.3171 H   0  0  0  0  0  0  0  0  0  0  0  0
  144.7123  133.0081  161.6992 H   0  0  0  0  0  0  0  0  0  0  0  0
  144.9856  133.7716  160.1319 H   0  0  0  0  0  0  0  0  0  0  0  0
  147.0266  132.2496  161.8019 H   0  0  0  0  0  0  0  0  0  0  0  0
  146.6701  132.0531  160.0790 H   0  0  0  0  0  0  0  0  0  0  0  0
  153.5987  141.7056  158.1128 H   0  0  0  0  0  0  0  0  0  0  0  0
  152.8081  141.1852  159.5940 H   0  0  0  0  0  0  0  0  0  0  0  0
  1  2  1  0  0  0  0
  1 30  1  0  0  0  0
  1 31  1  0  0  0  0
  1 32  1  0  0  0  0
  2  3  1  0  0  0  0
  3 28  1  0  0  0  0
  3 27  1  0  0  0  0
  3  4  1  0  0  0  0
  4  5  1  0  0  0  0
  4 33  1  0  0  0  0
  4 34  1  0  0  0  0
  5 29  1  0  0  0  0
  5  6  1  0  0  0  0
  5  9  1  0  0  0  0
  6  7  1  0  0  0  0
  6  8  2  0  0  0  0
  7 35  1  0  0  0  0
  7 36  1  0  0  0  0
  9 10  1  0  0  0  0
  9 27  1  0  0  0  0
 10 15  1  0  0  0  0
 10 11  2  0  0  0  0
 11 12  1  0  0  0  0
 12 13  2  0  0  0  0
 12 37  1  0  0  0  0
 13 14  1  0  0  0  0
 14 18  1  0  0  0  0
 14 15  2  0  0  0  0
 15 16  1  0  0  0  0
 16 17  2  0  0  0  0
 17 18  1  0  0  0  0
 17 38  1  0  0  0  0
 18 19  1  0  0  0  0
 19 20  1  0  0  0  0
 19 39  1  0  0  0  0
 19 40  1  0  0  0  0
 20 21  1  0  0  0  0
 20 22  1  0  0  0  0
 20 41  1  0  0  0  0
 21 42  1  0  0  0  0
 22 26  1  0  0  0  0
 22 23  1  0  0  0  0
 22 43  1  0  0  0  0
 23 24  1  0  0  0  0
 23 44  1  0  0  0  0
 23 45  1  0  0  0  0
 24 25  1  0  0  0  0
 24 46  1  0  0  0  0
 24 47  1  0  0  0  0
 25 26  1  0  0  0  0
 25 48  1  0  0  0  0
 25 49  1  0  0  0  0
 27 50  1  0  0  0  0
 27 51  1  0  0  0  0
M  END
> <s_m_source_file>
AV-unprocessed.smi

> <i_m_source_file_index>
261

> <i_lp_mmshare_version>
43012

> <i_f3d_flags>
0

> <s_epik_input>
W0NIM11PW0NASF0xW0NIMl1bQ0BASF0oQyg9TylbTkgyXSlOKFtDSDJdMSljKG5bY0hdbjIpYyhjMjMpbltjSF1uM1tDSDJdW0NASF0oW09IXSlbQ0BASF00W0NIMl1bQ0gyXVtDSDJdTzQ=

> <s_epik_cmdline>
J2VwaWtfcHl0aG9uJywgJy1waCcsICc3LjAnLCAnLXRuJywgJzgnLCAnLW1hJywgJzIwMCcsICctbWV0YWxfYmluZGluZycsICctaW1hZScsICc8aW5maWxlLm1hZT4nLCAnLW9tYWUnLCAnPG91dGZpbGUubWFlPic=

> <r_lp_tautomer_probability>
1

> <r_epik_Ionization_Penalty>
0.000713824

> <r_epik_Ionization_Penalty_Charging>
0

> <r_epik_Ionization_Penalty_Neutral>
0.000713824

> <r_epik_State_Penalty>
0.000402132

> <r_epik_Charging_Adjusted_Penalty>
0.000402132

> <i_epik_Tot_Q>
0

> <i_epik_Tot_abs_Q>
0

> <r_epik_Metal_State_Penalty>
-0

> <b_epik_Metal_Only>
0

> <s_lp_Force_Field>
OPLS_2005

> <r_lp_Energy>
47.7975

> <b_lp_Chiralities_Consistent>
1

> <s_lp_Variant>
AV-unprocessed.smi:261-13

> <Gold.Version>
5.8.1

> <Gold.Id.Protein>
6NUR|6NUR_protein|mol2

> <Gold.PLP.Fitness>
53.9048

> <Gold.PLP.PLP>
-40.6110

> <Gold.PLP.part.hbond>
-5.2006

> <Gold.PLP.part.metal>
0.0000

> <Gold.PLP.part.buried>
-5.9641

> <Gold.PLP.part.nonpolar>
-28.6957

> <Gold.PLP.part.repulsive>
0.2618

> <Gold.PLP.ligand.clash>
0.0000

> <Gold.PLP.ligand.torsion>
0.6378

> <Gold.PLP.Chemscore.Hbond>
4.7680

> <Gold.PLP.Chemscore.CHOScore>
0.0000

> <Gold.PLP.Chemscore.Metal>
0.0000

> <Gold.Chemscore.Hbonds>
donor molecule, donor type, donor heavy atom, donor atom, acceptor molecule, acceptor atom, score
      L1  H     7    36       P1  8028  0.94
      P1  H  6896  6908       L1    13  1.00
      P1  H  6931  6943       L1    21  0.79
      P1  H  6934  6947       L1    21  0.78
      P1  H  7989  7998       L1     8  1.00

> <Gold.PLP.Chemscore.Internal.Correction>
0.2653

> <Gold.Rescore>
     Score         DG    S(hbond)    S(metal)    S(lipo)     H(rot)  DE(clash)    DE(int)     intcor
     15.66     -18.37       3.71        0.00      82.62       3.57       0.69       2.02       ----

> <Gold.Chemscore.Fitness>
15.6616

> <Gold.Chemscore.DG>
-18.3732

> <Gold.Chemscore.ZeroCoef>
-5.4800

> <Gold.Chemscore.Hbond>
3.7055

> <Gold.Chemscore.Metal>
0.0000

> <Gold.Chemscore.Lipo>
82.6187

> <Gold.Chemscore.Internal_Hbond>
0.0000

> <Gold.Chemscore.DEClash>
0.6896

> <Gold.Chemscore.DEInternal>
2.0219

> <Gold.Chemscore.Rot>
3.5740

> <Gold.Chemscore.Internal.Correction>
   9.000000E+99

> <Gold.Chemscore.Hbonds>
donor molecule, donor type, donor heavy atom, donor atom, acceptor molecule, acceptor atom, score
      L1  H     7    36       P1  8028  0.91
      P1  H  6896  6908       L1    13  0.76
      P1  H  6931  6943       L1    21  0.14
      P1  H  6934  6947       L1    21  0.79
      P1  H  7989  7998       L1     8  0.64

> <Gold.Chemscore.Hbond.Weighted>
-12.3762

> <Gold.Chemscore.Metal.Weighted>
-0.0000

> <Gold.Chemscore.Lipo.Weighted>
-9.6664

> <Gold.Chemscore.Internal_Hbond.Weighted>
0.0000

> <Gold.Chemscore.DEClash.Weighted>
0.6896

> <Gold.Chemscore.DEInternal.Weighted>
2.0219

> <Gold.Chemscore.Rot.Weighted>
9.1495

> <Gold.Chemscore.Internal.Correction.Weighted>
   9.000000E+99

> <Gold.Protein.RotatedTorsions>
[ 6907 6896 6895 6894 ] final -149.54 input  -60.11 | X-H torsion
[ 7974 7965 7964 7962 ] final   71.92 input  175.53 | X-H torsion
[ 8008 7997 7996 7995 ] final  -88.45 input   59.86 | X-H torsion
[ 10167 10162 10161 10158 ] final  -98.29 input  -65.29 | X-H torsion
[ 10718 10713 10712 10709 ] final  154.18 input   66.30 | X-H torsion
[ 10763 10752 10751 10750 ] final  104.98 input  -60.55 | X-H torsion
[ 11005 11000 10999 10996 ] final  155.50 input  -57.11 | X-H torsion

> <Gold.Protein.ActiveResidues>
 VAL166  LYS551  ARG553  GLY616  TRP617  ASP618  TYR619  PRO620  LYS621  CYS622 
 ASP623  PHE694  ASN695  SER759  ASP760  ASP761  ALA762  ILE779  LEU786  VAL792 
 PHE793  MET794  SER795  GLU796  ALA797  LYS798  CYS799  TRP800  GLU811  SER814 

> <Gold.Protein.RotatedAtoms>
  151.1856  133.4698  159.2594 H   0  0  0  0  0  0  0  0  0  0  0  0  # atno 6907 bound_to 6896
  151.1215  135.0082  159.8551 H   0  0  0  0  0  0  0  0  0  0  0  0  # atno 6908 bound_to 6896
  152.5456  134.1766  159.8671 H   0  0  0  0  0  0  0  0  0  0  0  0  # atno 6909 bound_to 6896
  145.7598  139.2795  143.1383 H   0  0  0  0  0  0  0  0  0  0  0  0  # atno 7974 bound_to 7965
  154.6750  140.0553  157.0205 H   0  0  0  0  0  0  0  0  0  0  0  0  # atno 8008 bound_to 7997
  155.1034  140.3231  155.4522 H   0  0  0  0  0  0  0  0  0  0  0  0  # atno 8009 bound_to 7997
  156.2672  140.2027  156.6160 H   0  0  0  0  0  0  0  0  0  0  0  0  # atno 8010 bound_to 7997
  140.2745  143.3322  152.0502 H   0  0  0  0  0  0  0  0  0  0  0  0  # atno 10167 bound_to 10162
  157.2350  131.0747  151.1829 H   0  0  0  0  0  0  0  0  0  0  0  0  # atno 10718 bound_to 10713
  153.3731  135.3925  155.1803 H   0  0  0  0  0  0  0  0  0  0  0  0  # atno 10763 bound_to 10752
  154.8697  135.3707  154.4952 H   0  0  0  0  0  0  0  0  0  0  0  0  # atno 10764 bound_to 10752
  153.5421  135.7084  153.5692 H   0  0  0  0  0  0  0  0  0  0  0  0  # atno 10765 bound_to 10752
  140.1587  134.8624  157.2547 H   0  0  0  0  0  0  0  0  0  0  0  0  # atno 11005 bound_to 11000
  146.0275  140.8289  142.9892 LP  0  0  0  0  0  0  0  0  0  0  0  0  # atno 17320 bound_to 7965
  144.6833  140.2720  143.7304 LP  0  0  0  0  0  0  0  0  0  0  0  0  # atno 17321 bound_to 7965
  139.4979  144.6634  151.6412 LP  0  0  0  0  0  0  0  0  0  0  0  0  # atno 17342 bound_to 10162
  140.5863  143.9859  150.6297 LP  0  0  0  0  0  0  0  0  0  0  0  0  # atno 17343 bound_to 10162
  157.3439  130.7047  149.6398 LP  0  0  0  0  0  0  0  0  0  0  0  0  # atno 17370 bound_to 10713
  155.9673  130.4272  150.4733 LP  0  0  0  0  0  0  0  0  0  0  0  0  # atno 17371 bound_to 10713
  140.2516  134.3677  155.7440 LP  0  0  0  0  0  0  0  0  0  0  0  0  # atno 17394 bound_to 11000
  141.2207  133.7319  156.8943 LP  0  0  0  0  0  0  0  0  0  0  0  0  # atno 17395 bound_to 11000

$$$$
