#       Name:                AV-unprocessed.smi:3092
#       Creating user name   scv26
#       Creation time:       Fri Mar 27 17:16:28 2020


#       File generated by GOLD software.
#

@<TRIPOS>MOLECULE
AV-unprocessed.smi:3092
    26    27     1
SMALL
NO_CHARGES


@<TRIPOS>ATOM
      1 ****        -1.7697   2.0759  -0.6435 C.3            1 S1                 0.0000
      2 ****        -0.3578   2.0422  -0.3126 N.pl3          1 S1                 0.0000
      3 ****         0.4822   3.1462  -0.2438 C.2            1 S1                 0.0000
      4 ****         1.7272   2.6754   0.0947 C.2            1 S1                 0.0000
      5 ****         1.6720   1.2936   0.2385 N.2            1 S1                 0.0000
      6 ****         0.4060   0.9711  -0.0143 C.2            1 S1                 0.0000
      7 ****        -0.1121  -0.4392   0.0211 C.3            1 S1                 0.0000
      8 ****         0.5396  -1.4058  -0.9646 C.3            1 S1                 0.0000
      9 ****         0.2100  -2.7869  -0.3788 C.3            1 S1                 0.0000
     10 ****        -0.1206  -2.5790   1.0485 N.4            1 S1                 1.0000
     11 ****         0.0749  -1.1519   1.3588 C.3            1 S1                 0.0000
     12 ****        -2.0790   3.0964  -0.8717 H              1 S1                 0.0000
     13 ****        -2.3555   1.7109   0.2007 H              1 S1                 0.0000
     14 ****        -1.9607   1.4491  -1.5151 H              1 S1                 0.0000
     15 ****         0.1347   4.1505  -0.4377 H              1 S1                 0.0000
     16 ****         2.6488   3.2187   0.2440 H              1 S1                 0.0000
     17 ****        -1.1811  -0.4308  -0.1926 H              1 S1                 0.0000
     18 ****         0.1855  -1.2753  -1.9877 H              1 S1                 0.0000
     19 ****         1.6220  -1.2679  -0.9663 H              1 S1                 0.0000
     20 ****        -0.6564  -3.2229  -0.8770 H              1 S1                 0.0000
     21 ****         1.0452  -3.4795  -0.4888 H              1 S1                 0.0000
     22 ****        -1.0933  -2.8135   1.1871 H              1 S1                 0.0000
     23 ****         1.0938  -1.0215   1.7268 H              1 S1                 0.0000
     24 ****        -0.6121  -0.8008   2.1292 H              1 S1                 0.0000
     25 ****         0.4568  -3.1553   1.6443 H              1 S1                 0.0000
     26 ****         2.4209   0.6763   0.4795 LP             1 S1                 0.0000
@<TRIPOS>BOND
    1    1    2 1     
    2    1   12 1     
    3    1   13 1     
    4    1   14 1     
    5    2    6 1     
    6    2    3 1     
    7    3    4 2     
    8    3   15 1     
    9    4    5 1     
   10    4   16 1     
   11    5    6 2     
   12    6    7 1     
   13    7   11 1     
   14    7    8 1     
   15    7   17 1     
   16    8    9 1     
   17    8   18 1     
   18    8   19 1     
   19    9   10 1     
   20    9   20 1     
   21    9   21 1     
   22   10   11 1     
   23   10   22 1     
   24   10   25 1     
   25   11   23 1     
   26   11   24 1     
   27    5   26 1     
@<TRIPOS>SUBSTRUCTURE
      1 S1             1
@<TRIPOS>SET
LONE_PAIRS      STATIC     ATOMS    <user>   **** ""
1 26
DONOR_HYDROGENS      STATIC     ATOMS    <user>   **** ""
2 22 25
ATOM$BLUE        STATIC     ATOMS    COLORGROUP SYSTEM
1 26
ATOM$RED        STATIC     ATOMS    COLORGROUP SYSTEM
2 22 25
