#       Name:                AV-unprocessed.smi:2262
#       Creating user name   scv26
#       Creation time:       Fri Mar 27 12:34:26 2020


#       File generated by GOLD software.
#

@<TRIPOS>MOLECULE
AV-unprocessed.smi:2262
    48    49     1
SMALL
NO_CHARGES


@<TRIPOS>ATOM
      1 ****        -5.9983   1.5228   0.9715 C.3            1 S1                 0.0000
      2 ****        -4.7506   0.7305   0.9275 N.4            1 S1                 1.0000
      3 ****        -3.5475   1.5572   1.1948 C.3            1 S1                 0.0000
      4 ****        -2.2822   0.6864   1.2650 C.3            1 S1                 0.0000
      5 ****        -2.1051  -0.1410  -0.0221 C.3            1 S1                 0.0000
      6 ****        -0.9555  -1.0341   0.0865 N.am           1 S1                 0.0000
      7 ****         0.3204  -0.6718  -0.1122 C.2            1 S1                 0.0000
      8 ****         0.6597   0.4749  -0.4068 O.2            1 S1                 0.0000
      9 ****         1.1552  -1.7126   0.0566 N.am           1 S1                 0.0000
     10 ****         2.5688  -1.7307  -0.0787 C.ar           1 S1                 0.0000
     11 ****         3.1810  -2.9801   0.1642 C.ar           1 S1                 0.0000
     12 ****         4.5793  -3.0980   0.0502 C.ar           1 S1                 0.0000
     13 ****         5.3300  -1.9632  -0.3051 C.ar           1 S1                 0.0000
     14 ****         4.6497  -0.7517  -0.5317 C.ar           1 S1                 0.0000
     15 ****         5.3813   0.3641  -0.8832 O.3            1 S1                 0.0000
     16 ****         4.6875   1.5894  -1.1022 C.3            1 S1                 0.0000
     17 ****         5.7005   2.6640  -1.5092 C.3            1 S1                 0.0000
     18 ****         6.1827   2.4114  -2.7257 F              1 S1                 0.0000
     19 ****         5.1205   3.8636  -1.5090 F              1 S1                 0.0000
     20 ****         3.3033  -0.6433  -0.4183 N.ar           1 S1                 0.0000
     21 ****        -3.3800  -0.9579  -0.2888 C.3            1 S1                 0.0000
     22 ****        -4.6212  -0.0504  -0.3280 C.3            1 S1                 0.0000
     23 ****        -6.0098   2.2788   0.1851 H              1 S1                 0.0000
     24 ****        -6.1005   2.0265   1.9330 H              1 S1                 0.0000
     25 ****        -6.8686   0.8787   0.8403 H              1 S1                 0.0000
     26 ****        -3.4402   2.3115   0.4134 H              1 S1                 0.0000
     27 ****        -3.6732   2.0916   2.1373 H              1 S1                 0.0000
     28 ****        -1.4110   1.3218   1.4294 H              1 S1                 0.0000
     29 ****        -2.3467   0.0213   2.1276 H              1 S1                 0.0000
     30 ****        -1.9511   0.5370  -0.8643 H              1 S1                 0.0000
     31 ****        -1.1449  -1.9966   0.3254 H              1 S1                 0.0000
     32 ****         0.7320  -2.5945   0.3045 H              1 S1                 0.0000
     33 ****         2.5895  -3.8428   0.4345 H              1 S1                 0.0000
     34 ****         5.0674  -4.0443   0.2311 H              1 S1                 0.0000
     35 ****         6.4041  -2.0206  -0.4025 H              1 S1                 0.0000
     36 ****         3.9267   1.4815  -1.8774 H              1 S1                 0.0000
     37 ****         4.1879   1.8923  -0.1804 H              1 S1                 0.0000
     38 ****         6.5409   2.7099  -0.8164 H              1 S1                 0.0000
     39 ****        -3.2885  -1.4973  -1.2324 H              1 S1                 0.0000
     40 ****        -3.5085  -1.7128   0.4887 H              1 S1                 0.0000
     41 ****        -5.5133  -0.6610  -0.4729 H              1 S1                 0.0000
     42 ****        -4.5616   0.6312  -1.1783 H              1 S1                 0.0000
     43 ****        -4.8114   0.0590   1.6797 H              1 S1                 0.0000
     44 ****        -0.0316   1.1902  -0.5090 LP             1 S1                 0.0000
     45 ****         1.6265   0.6906  -0.5438 LP             1 S1                 0.0000
     46 ****         5.8671   0.1444  -1.7292 LP             1 S1                 0.0000
     47 ****         6.0431   0.5261  -0.1513 LP             1 S1                 0.0000
     48 ****         2.8542   0.2346  -0.5844 LP             1 S1                 0.0000
@<TRIPOS>BOND
    1    1    2 1     
    2    1   23 1     
    3    1   24 1     
    4    1   25 1     
    5    2   22 1     
    6    2    3 1     
    7    2   43 1     
    8    3    4 1     
    9    3   26 1     
   10    3   27 1     
   11    4    5 1     
   12    4   28 1     
   13    4   29 1     
   14    5    6 1     
   15    5   21 1     
   16    5   30 1     
   17    6    7 am    
   18    6   31 1     
   19    7    8 2     
   20    7    9 am    
   21    9   10 1     
   22    9   32 1     
   23   10   20 ar    
   24   10   11 ar    
   25   11   12 ar    
   26   11   33 1     
   27   12   13 ar    
   28   12   34 1     
   29   13   14 ar    
   30   13   35 1     
   31   14   15 1     
   32   14   20 ar    
   33   15   16 1     
   34   16   17 1     
   35   16   36 1     
   36   16   37 1     
   37   17   18 1     
   38   17   19 1     
   39   17   38 1     
   40   21   22 1     
   41   21   39 1     
   42   21   40 1     
   43   22   41 1     
   44   22   42 1     
   45    8   44 1     
   46    8   45 1     
   47   15   46 1     
   48   15   47 1     
   49   20   48 1     
@<TRIPOS>SUBSTRUCTURE
      1 S1             1
@<TRIPOS>SET
LONE_PAIRS      STATIC     ATOMS    <user>   **** ""
5 44 45 46 47 48
DONOR_HYDROGENS      STATIC     ATOMS    <user>   **** ""
3 43 31 32
ATOM$BLUE        STATIC     ATOMS    COLORGROUP SYSTEM
5 44 45 46 47 48
ATOM$RED        STATIC     ATOMS    COLORGROUP SYSTEM
3 43 31 32
