AV-unprocessed.smi:2653|AV-procd|sdf|10296|dock6
  -GOLD-   2272014313D 1   1.00000     0.00000
 Structure written by MMmdl.
 31 32  0  0  0  0  0  0  0  0  1 V2000
  153.4558  142.0376  161.3972 C   0  0  0  0  0  0  0  0  0  0  0  0
  154.1483  141.6251  160.0934 C   0  0  0  0  0  0  0  0  0  0  0  0
  153.1594  141.3443  158.9954 C   0  0  0  0  0  0  0  0  0  0  0  0
  153.1641  140.1486  158.4120 N   0  0  0  0  0  0  0  0  0  0  0  0
  152.1830  140.2186  157.4942 N   0  0  0  0  0  0  0  0  0  0  0  0
  151.5570  141.4439  157.5184 C   0  0  0  0  0  0  0  0  0  0  0  0
  150.5447  141.8647  156.7104 N   0  0  0  0  0  0  0  0  0  0  0  0
  150.0572  141.3456  155.5634 C   0  0  0  0  0  0  0  0  0  0  0  0
  150.5468  140.3325  155.0670 O   0  0  0  0  0  0  0  0  0  0  0  0
  149.0350  142.0135  155.0026 N   0  0  0  0  0  0  0  0  0  0  0  0
  148.3717  141.6583  153.7906 C   0  0  0  0  0  0  0  0  0  0  0  0
  146.8583  141.6585  153.7958 C   0  0  0  0  0  0  0  0  0  0  0  0
  147.6051  140.3536  153.7663 C   0  0  0  0  0  0  0  0  0  0  0  0
  152.1610  142.2208  158.4654 C   0  0  0  0  0  0  0  0  0  0  0  0
  151.8673  143.6395  158.8722 C   0  0  0  0  0  0  0  0  0  0  0  0
  151.9680  139.4483  156.8775 H   0  0  0  0  0  0  0  0  0  0  0  0
  154.1880  142.2401  162.1789 H   0  0  0  0  0  0  0  0  0  0  0  0
  152.7927  141.2506  161.7579 H   0  0  0  0  0  0  0  0  0  0  0  0
  152.8600  142.9400  161.2564 H   0  0  0  0  0  0  0  0  0  0  0  0
  154.8354  142.4134  159.7847 H   0  0  0  0  0  0  0  0  0  0  0  0
  154.7661  140.7446  160.2748 H   0  0  0  0  0  0  0  0  0  0  0  0
  150.1248  142.7397  156.9891 H   0  0  0  0  0  0  0  0  0  0  0  0
  148.7123  142.8510  155.4641 H   0  0  0  0  0  0  0  0  0  0  0  0
  148.8453  141.9529  152.8551 H   0  0  0  0  0  0  0  0  0  0  0  0
  146.3515  141.9255  154.7214 H   0  0  0  0  0  0  0  0  0  0  0  0
  146.3538  141.9697  152.8833 H   0  0  0  0  0  0  0  0  0  0  0  0
  147.5999  139.7926  152.8339 H   0  0  0  0  0  0  0  0  0  0  0  0
  147.5974  139.7501  154.6722 H   0  0  0  0  0  0  0  0  0  0  0  0
  150.8857  143.9712  158.5334 H   0  0  0  0  0  0  0  0  0  0  0  0
  152.6006  144.3330  158.4611 H   0  0  0  0  0  0  0  0  0  0  0  0
  151.8848  143.7581  159.9557 H   0  0  0  0  0  0  0  0  0  0  0  0
  1  2  1  0  0  0  0
  1 17  1  0  0  0  0
  1 18  1  0  0  0  0
  1 19  1  0  0  0  0
  2 20  1  0  0  0  0
  2 21  1  0  0  0  0
  2  3  1  0  0  0  0
  3  4  2  0  0  0  0
  3 14  1  0  0  0  0
  4  5  1  0  0  0  0
  5 16  1  0  0  0  0
  5  6  1  0  0  0  0
  6  7  1  0  0  0  0
  6 14  2  0  0  0  0
  7  8  1  0  0  0  0
  7 22  1  0  0  0  0
  8  9  2  0  0  0  0
  8 10  1  0  0  0  0
 10 11  1  0  0  0  0
 10 23  1  0  0  0  0
 11 13  1  0  0  0  0
 11 12  1  0  0  0  0
 11 24  1  0  0  0  0
 12 13  1  0  0  0  0
 12 25  1  0  0  0  0
 12 26  1  0  0  0  0
 13 27  1  0  0  0  0
 13 28  1  0  0  0  0
 14 15  1  0  0  0  0
 15 29  1  0  0  0  0
 15 30  1  0  0  0  0
 15 31  1  0  0  0  0
M  END
> <s_m_source_file>
AV-unprocessed.smi

> <i_m_source_file_index>
2653

> <i_lp_mmshare_version>
43012

> <i_f3d_flags>
0

> <s_epik_input>
W0NIM11bQ0gyXWMxW25IXW5jKGMxW0NIM10pW05IXUMoPU8pW05IXVtDSF0yW0NIMl1bQ0gyXTI=

> <s_epik_cmdline>
J2VwaWtfcHl0aG9uJywgJy1waCcsICc3LjAnLCAnLXRuJywgJzgnLCAnLW1hJywgJzIwMCcsICctbWV0YWxfYmluZGluZycsICctaW1hZScsICc8aW5maWxlLm1hZT4nLCAnLW9tYWUnLCAnPG91dGZpbGUubWFlPic=

> <r_lp_tautomer_probability>
0.5

> <r_epik_Ionization_Penalty>
6.45879e-05

> <r_epik_Ionization_Penalty_Charging>
0

> <r_epik_Ionization_Penalty_Neutral>
6.45879e-05

> <r_epik_State_Penalty>
0.41068

> <r_epik_Charging_Adjusted_Penalty>
0.41068

> <i_epik_Tot_Q>
0

> <i_epik_Tot_abs_Q>
0

> <r_epik_Metal_State_Penalty>
0.410665

> <b_epik_Metal_Only>
0

> <s_lp_Force_Field>
OPLS_2005

> <r_lp_Energy>
17.9348

> <b_lp_Chiralities_Consistent>
1

> <s_lp_Variant>
AV-unprocessed.smi:2653-2

> <Gold.Version>
5.8.1

> <Gold.Id.Protein>
6NUR|6NUR_protein|mol2

> <Gold.PLP.Fitness>
39.1990

> <Gold.PLP.PLP>
-30.8788

> <Gold.PLP.part.hbond>
-3.0000

> <Gold.PLP.part.metal>
0.0000

> <Gold.PLP.part.buried>
-3.1747

> <Gold.PLP.part.nonpolar>
-23.8714

> <Gold.PLP.part.repulsive>
0.4090

> <Gold.PLP.ligand.clash>
0.0000

> <Gold.PLP.ligand.torsion>
0.1418

> <Gold.PLP.Chemscore.Hbond>
2.8560

> <Gold.PLP.Chemscore.CHOScore>
0.0000

> <Gold.PLP.Chemscore.Metal>
0.0000

> <Gold.Chemscore.Hbonds>
donor molecule, donor type, donor heavy atom, donor atom, acceptor molecule, acceptor atom, score
      L1  H    10    23       P1  8028  0.94
      P1  H  7989  7998       L1     9  1.00
      P1  H  7997  8008       L1     4  0.87

> <Gold.PLP.Chemscore.Internal.Correction>
0.0359

> <Gold.Rescore>
     Score         DG    S(hbond)    S(metal)    S(lipo)     H(rot)  DE(clash)    DE(int)     intcor
     15.81     -17.35       1.91        0.00      73.37       1.21       0.17       1.36       ----

> <Gold.Chemscore.Fitness>
15.8148

> <Gold.Chemscore.DG>
-17.3476

> <Gold.Chemscore.ZeroCoef>
-5.4800

> <Gold.Chemscore.Hbond>
1.9127

> <Gold.Chemscore.Metal>
0.0000

> <Gold.Chemscore.Lipo>
73.3693

> <Gold.Chemscore.Internal_Hbond>
0.0000

> <Gold.Chemscore.DEClash>
0.1705

> <Gold.Chemscore.DEInternal>
1.3624

> <Gold.Chemscore.Rot>
1.2129

> <Gold.Chemscore.Internal.Correction>
   9.000000E+99

> <Gold.Chemscore.Hbonds>
donor molecule, donor type, donor heavy atom, donor atom, acceptor molecule, acceptor atom, score
      L1  H    10    23       P1  8028  0.91
      P1  H  7989  7998       L1     9  0.63
      P1  H  7997  8008       L1     4  0.12

> <Gold.Chemscore.Hbond.Weighted>
-6.3884

> <Gold.Chemscore.Metal.Weighted>
-0.0000

> <Gold.Chemscore.Lipo.Weighted>
-8.5842

> <Gold.Chemscore.Internal_Hbond.Weighted>
0.0000

> <Gold.Chemscore.DEClash.Weighted>
0.1705

> <Gold.Chemscore.DEInternal.Weighted>
1.3624

> <Gold.Chemscore.Rot.Weighted>
3.1049

> <Gold.Chemscore.Internal.Correction.Weighted>
   9.000000E+99

> <Gold.Protein.RotatedTorsions>
[ 6907 6896 6895 6894 ] final   70.94 input  -60.11 | X-H torsion
[ 7974 7965 7964 7962 ] final  146.59 input  175.53 | X-H torsion
[ 8008 7997 7996 7995 ] final  -98.79 input   59.86 | X-H torsion
[ 10167 10162 10161 10158 ] final -160.16 input  -65.29 | X-H torsion
[ 10718 10713 10712 10709 ] final -113.20 input   66.30 | X-H torsion
[ 10763 10752 10751 10750 ] final -170.16 input  -60.55 | X-H torsion
[ 11005 11000 10999 10996 ] final   33.03 input  -57.11 | X-H torsion

> <Gold.Protein.ActiveResidues>
 VAL166  LYS551  ARG553  GLY616  TRP617  ASP618  TYR619  PRO620  LYS621  CYS622 
 ASP623  PHE694  ASN695  SER759  ASP760  ASP761  ALA762  ILE779  LEU786  VAL792 
 PHE793  MET794  SER795  GLU796  ALA797  LYS798  CYS799  TRP800  GLU811  SER814 

> <Gold.Protein.RotatedAtoms>
  152.4780  134.4793  159.9660 H   0  0  0  0  0  0  0  0  0  0  0  0  # atno 6907 bound_to 6896
  151.4805  133.3541  159.2845 H   0  0  0  0  0  0  0  0  0  0  0  0  # atno 6908 bound_to 6896
  150.8832  134.8253  159.7301 H   0  0  0  0  0  0  0  0  0  0  0  0  # atno 6909 bound_to 6896
  144.8659  139.5924  143.5909 H   0  0  0  0  0  0  0  0  0  0  0  0  # atno 7974 bound_to 7965
  154.8060  140.0452  157.1308 H   0  0  0  0  0  0  0  0  0  0  0  0  # atno 8008 bound_to 7997
  154.9423  140.3054  155.5094 H   0  0  0  0  0  0  0  0  0  0  0  0  # atno 8009 bound_to 7997
  156.2967  140.2303  156.4494 H   0  0  0  0  0  0  0  0  0  0  0  0  # atno 8010 bound_to 7997
  139.6560  143.9998  152.2194 H   0  0  0  0  0  0  0  0  0  0  0  0  # atno 10167 bound_to 10162
  156.0752  130.5960  150.8611 H   0  0  0  0  0  0  0  0  0  0  0  0  # atno 10718 bound_to 10713
  154.6445  135.2903  155.0062 H   0  0  0  0  0  0  0  0  0  0  0  0  # atno 10763 bound_to 10752
  154.1177  135.6553  153.4901 H   0  0  0  0  0  0  0  0  0  0  0  0  # atno 10764 bound_to 10752
  153.0344  135.5280  154.7327 H   0  0  0  0  0  0  0  0  0  0  0  0  # atno 10765 bound_to 10752
  140.2673  134.3123  155.7838 H   0  0  0  0  0  0  0  0  0  0  0  0  # atno 11005 bound_to 11000
  146.2895  139.7099  142.9171 LP  0  0  0  0  0  0  0  0  0  0  0  0  # atno 17320 bound_to 7965
  145.4223  141.0407  143.2957 LP  0  0  0  0  0  0  0  0  0  0  0  0  # atno 17321 bound_to 7965
  139.9724  144.6484  150.7976 LP  0  0  0  0  0  0  0  0  0  0  0  0  # atno 17342 bound_to 10162
  140.7559  143.3056  151.2971 LP  0  0  0  0  0  0  0  0  0  0  0  0  # atno 17343 bound_to 10162
  157.5844  131.0946  150.9220 LP  0  0  0  0  0  0  0  0  0  0  0  0  # atno 17370 bound_to 10713
  156.9409  130.5384  149.5280 LP  0  0  0  0  0  0  0  0  0  0  0  0  # atno 17371 bound_to 10713
  141.2182  133.7445  156.9280 LP  0  0  0  0  0  0  0  0  0  0  0  0  # atno 17394 bound_to 11000
  140.1407  134.9296  157.2462 LP  0  0  0  0  0  0  0  0  0  0  0  0  # atno 17395 bound_to 11000

$$$$
