#       Name:                AV-unprocessed.smi:926
#       Creating user name   scv26
#       Creation time:       Fri Mar 27 02:08:50 2020


#       File generated by GOLD software.
#

@<TRIPOS>MOLECULE
AV-unprocessed.smi:926
    42    44     1
SMALL
NO_CHARGES


@<TRIPOS>ATOM
      1 ****        -2.1303   1.2903  -1.1607 O.2            1 S1                 0.0000
      2 ****        -2.5004   0.1313  -1.3474 C.2            1 S1                 0.0000
      3 ****        -3.9923  -0.1997  -1.3629 C.3            1 S1                 0.0000
      4 ****        -4.3926  -0.8290  -0.1186 N.pl3          1 S1                 0.0000
      5 ****        -4.5966  -0.3180   1.0976 C.2            1 S1                 0.0000
      6 ****        -4.9477  -1.2527   1.9676 N.2            1 S1                 0.0000
      7 ****        -4.9523  -2.4080   1.2038 N.2            1 S1                 0.0000
      8 ****        -4.6239  -2.1628  -0.0350 N.2            1 S1                 0.0000
      9 ****        -1.6561  -0.8957  -1.5328 N.am           1 S1                 0.0000
     10 ****        -0.2026  -0.7942  -1.5026 C.3            1 S1                 0.0000
     11 ****         0.3252  -0.7647  -0.0576 C.3            1 S1                 0.0000
     12 ****         1.8603  -0.6581   0.0305 C.3            1 S1                 0.0000
     13 ****         2.4007  -0.5778   1.4746 C.3            1 S1                 0.0000
     14 ****         3.3340   0.6465   1.4270 C.3            1 S1                 0.0000
     15 ****         2.4836   1.9288   1.3618 C.3            1 S1                 0.0000
     16 ****         1.9375   1.8993  -0.0774 C.3            1 S1                 0.0000
     17 ****         2.5123   0.5802  -0.6336 C.3            1 S1                 0.0000
     18 ****         3.8945   0.5669   0.0117 C.3            1 S1                 0.0000
     19 ****        -4.5769   0.7113  -1.4976 H              1 S1                 0.0000
     20 ****        -4.2238  -0.8605  -2.2000 H              1 S1                 0.0000
     21 ****        -4.4839   0.7276   1.3440 H              1 S1                 0.0000
     22 ****        -2.0481  -1.8146  -1.6808 H              1 S1                 0.0000
     23 ****         0.2124  -1.6511  -2.0338 H              1 S1                 0.0000
     24 ****         0.1138   0.0945  -2.0507 H              1 S1                 0.0000
     25 ****        -0.1403   0.0508   0.4954 H              1 S1                 0.0000
     26 ****         0.0100  -1.6762   0.4516 H              1 S1                 0.0000
     27 ****         2.2809  -1.5487  -0.4395 H              1 S1                 0.0000
     28 ****         1.6126  -0.4580   2.2193 H              1 S1                 0.0000
     29 ****         2.9559  -1.4826   1.7254 H              1 S1                 0.0000
     30 ****         4.0813   0.6577   2.2210 H              1 S1                 0.0000
     31 ****         1.6885   1.9362   2.1081 H              1 S1                 0.0000
     32 ****         3.0996   2.8150   1.5195 H              1 S1                 0.0000
     33 ****         0.8504   1.9536  -0.1210 H              1 S1                 0.0000
     34 ****         2.3232   2.7485  -0.6429 H              1 S1                 0.0000
     35 ****         2.5251   0.5362  -1.7230 H              1 S1                 0.0000
     36 ****         4.5096   1.4268  -0.2597 H              1 S1                 0.0000
     37 ****         4.4563  -0.3489  -0.1809 H              1 S1                 0.0000
     38 ****        -2.8056   2.0142  -1.0194 LP             1 S1                 0.0000
     39 ****        -1.1543   1.5080  -1.1504 LP             1 S1                 0.0000
     40 ****        -5.1583  -1.1494   2.9397 LP             1 S1                 0.0000
     41 ****        -5.1788  -3.3157   1.5571 LP             1 S1                 0.0000
     42 ****        -4.5560  -2.8286  -0.7780 LP             1 S1                 0.0000
@<TRIPOS>BOND
    1    1    2 2     
    2    2    3 1     
    3    2    9 am    
    4    3    4 1     
    5    3   19 1     
    6    3   20 1     
    7    4    8 1     
    8    4    5 1     
    9    5    6 2     
   10    5   21 1     
   11    6    7 1     
   12    7    8 2     
   13    9   10 1     
   14    9   22 1     
   15   10   11 1     
   16   10   23 1     
   17   10   24 1     
   18   11   12 1     
   19   11   25 1     
   20   11   26 1     
   21   12   17 1     
   22   12   13 1     
   23   12   27 1     
   24   13   14 1     
   25   13   28 1     
   26   13   29 1     
   27   14   18 1     
   28   14   15 1     
   29   14   30 1     
   30   15   16 1     
   31   15   31 1     
   32   15   32 1     
   33   16   17 1     
   34   16   33 1     
   35   16   34 1     
   36   17   18 1     
   37   17   35 1     
   38   18   36 1     
   39   18   37 1     
   40    1   38 1     
   41    1   39 1     
   42    6   40 1     
   43    7   41 1     
   44    8   42 1     
@<TRIPOS>SUBSTRUCTURE
      1 S1             1
@<TRIPOS>SET
LONE_PAIRS      STATIC     ATOMS    <user>   **** ""
5 38 39 40 41 42
DONOR_HYDROGENS      STATIC     ATOMS    <user>   **** ""
1 22
ATOM$BLUE        STATIC     ATOMS    COLORGROUP SYSTEM
5 38 39 40 41 42
ATOM$RED        STATIC     ATOMS    COLORGROUP SYSTEM
1 22
