AV-unprocessed.smi:266|AV-procd|sdf|2035|dock5
  -GOLD-   2262021243D 1   1.00000     0.00000
 Structure written by MMmdl.
 52 55  0  0  0  0  0  0  0  0  1 V2000
  152.2383  144.7142  157.6242 C   0  0  0  0  0  0  0  0  0  0  0  0
  152.0862  143.7898  158.8423 C   0  0  2  0  0  0  0  0  0  0  0  0
  153.3679  143.6596  159.4516 O   0  0  0  0  0  0  0  0  0  0  0  0
  153.4509  142.3888  160.0717 C   0  0  0  0  0  0  0  0  0  0  0  0
  152.7689  141.4859  159.0555 C   0  0  0  0  0  0  0  0  0  0  0  0
  151.6005  142.3382  158.5663 C   0  0  1  0  0  0  0  0  0  0  0  0
  150.4946  142.0876  159.4183 O   0  0  0  0  0  0  0  0  0  0  0  0
  151.1658  142.0209  157.1110 C   0  0  0  0  0  0  0  0  0  0  0  0
  150.6773  140.6614  156.9349 N   0  0  0  0  0  0  0  0  0  0  0  0
  149.4627  140.1627  157.3474 C   0  0  0  0  0  0  0  0  0  0  0  0
  149.2563  138.9042  157.0726 N   0  0  0  0  0  0  0  0  0  0  0  0
  150.4107  138.5038  156.4094 C   0  0  0  0  0  0  0  0  0  0  0  0
  150.8605  137.2798  155.8330 C   0  0  0  0  0  0  0  0  0  0  0  0
  150.1613  136.1199  155.8057 N   0  0  0  0  0  0  0  0  0  0  0  0
  151.0204  134.9635  155.5923 C   0  0  0  0  0  0  0  0  0  0  0  0
  149.0374  135.9514  156.7269 C   0  0  0  0  0  0  0  0  0  0  0  0
  149.4581  135.6055  158.1717 C   0  0  1  0  0  0  0  0  0  0  0  0
  150.3976  136.6580  158.7952 C   0  0  0  0  0  0  0  0  0  0  0  0
  150.5110  136.3824  160.2974 C   0  0  0  0  0  0  0  0  0  0  0  0
  148.8741  135.7373  160.8046 S   0  0  0  0  0  0  0  0  0  0  0  0
  149.0582  134.4462  161.4843 O   0  0  0  0  0  0  0  0  0  0  0  0
  148.0921  136.8164  161.4272 O   0  0  0  0  0  0  0  0  0  0  0  0
  148.2480  135.4528  159.1052 C   0  0  0  0  0  0  0  0  0  0  0  0
  152.0964  137.2631  155.2732 N   0  0  0  0  0  0  0  0  0  0  0  0
  152.8408  138.3723  155.2535 C   0  0  0  0  0  0  0  0  0  0  0  0
  152.5490  139.5815  155.7355 N   0  0  0  0  0  0  0  0  0  0  0  0
  151.3151  139.5999  156.3163 C   0  0  0  0  0  0  0  0  0  0  0  0
  151.2865  144.8611  157.1133 H   0  0  0  0  0  0  0  0  0  0  0  0
  152.9554  144.3156  156.9063 H   0  0  0  0  0  0  0  0  0  0  0  0
  152.5972  145.6966  157.9316 H   0  0  0  0  0  0  0  0  0  0  0  0
  151.4289  144.2792  159.5637 H   0  0  0  0  0  0  0  0  0  0  0  0
  154.4843  142.1019  160.2668 H   0  0  0  0  0  0  0  0  0  0  0  0
  152.9071  142.4009  161.0176 H   0  0  0  0  0  0  0  0  0  0  0  0
  153.4654  141.2984  158.2377 H   0  0  0  0  0  0  0  0  0  0  0  0
  152.4717  140.5202  159.4668 H   0  0  0  0  0  0  0  0  0  0  0  0
  149.7763  142.6379  159.1463 H   0  0  0  0  0  0  0  0  0  0  0  0
  150.3800  142.7061  156.7902 H   0  0  0  0  0  0  0  0  0  0  0  0
  151.9994  142.1640  156.4234 H   0  0  0  0  0  0  0  0  0  0  0  0
  148.7320  140.7643  157.8683 H   0  0  0  0  0  0  0  0  0  0  0  0
  151.5333  135.0312  154.6323 H   0  0  0  0  0  0  0  0  0  0  0  0
  150.4372  134.0423  155.5926 H   0  0  0  0  0  0  0  0  0  0  0  0
  151.7711  134.8898  156.3802 H   0  0  0  0  0  0  0  0  0  0  0  0
  148.4638  136.8789  156.7398 H   0  0  0  0  0  0  0  0  0  0  0  0
  148.3595  135.1925  156.3369 H   0  0  0  0  0  0  0  0  0  0  0  0
  149.9830  134.6501  158.1876 H   0  0  0  0  0  0  0  0  0  0  0  0
  151.3788  136.6597  158.3192 H   0  0  0  0  0  0  0  0  0  0  0  0
  149.9716  137.6515  158.6491 H   0  0  0  0  0  0  0  0  0  0  0  0
  151.2544  135.6093  160.4932 H   0  0  0  0  0  0  0  0  0  0  0  0
  150.7663  137.2691  160.8777 H   0  0  0  0  0  0  0  0  0  0  0  0
  147.4925  136.2113  158.8985 H   0  0  0  0  0  0  0  0  0  0  0  0
  147.7807  134.4703  159.0358 H   0  0  0  0  0  0  0  0  0  0  0  0
  153.8088  138.2776  154.7837 H   0  0  0  0  0  0  0  0  0  0  0  0
  1  2  1  0  0  0  0
  1 28  1  0  0  0  0
  1 29  1  0  0  0  0
  1 30  1  0  0  0  0
  2  6  1  0  0  0  0
  2  3  1  0  0  0  0
  2 31  1  0  0  0  0
  3  4  1  0  0  0  0
  4  5  1  0  0  0  0
  4 32  1  0  0  0  0
  4 33  1  0  0  0  0
  5  6  1  0  0  0  0
  5 34  1  0  0  0  0
  5 35  1  0  0  0  0
  6  7  1  0  0  0  0
  6  8  1  0  0  0  0
  7 36  1  0  0  0  0
  8  9  1  0  0  0  0
  8 37  1  0  0  0  0
  8 38  1  0  0  0  0
  9 27  1  0  0  0  0
  9 10  1  0  0  0  0
 10 11  2  0  0  0  0
 10 39  1  0  0  0  0
 11 12  1  0  0  0  0
 12 27  2  0  0  0  0
 12 13  1  0  0  0  0
 13 14  1  0  0  0  0
 13 24  2  0  0  0  0
 14 15  1  0  0  0  0
 14 16  1  0  0  0  0
 15 40  1  0  0  0  0
 15 41  1  0  0  0  0
 15 42  1  0  0  0  0
 16 17  1  0  0  0  0
 16 43  1  0  0  0  0
 16 44  1  0  0  0  0
 17 23  1  0  0  0  0
 17 18  1  0  0  0  0
 17 45  1  0  0  0  0
 18 19  1  0  0  0  0
 18 46  1  0  0  0  0
 18 47  1  0  0  0  0
 19 20  1  0  0  0  0
 19 48  1  0  0  0  0
 19 49  1  0  0  0  0
 20 21  2  0  0  0  0
 20 22  2  0  0  0  0
 20 23  1  0  0  0  0
 23 50  1  0  0  0  0
 23 51  1  0  0  0  0
 24 25  1  0  0  0  0
 25 26  2  0  0  0  0
 25 52  1  0  0  0  0
 26 27  1  0  0  0  0
M  END
> <s_m_source_file>
AV-unprocessed.smi

> <i_m_source_file_index>
266

> <i_lp_mmshare_version>
43012

> <i_f3d_flags>
0

> <s_epik_input>
W0NIMl0xW0NIMl1PW0NAQEhdKFtDSDNdKVtDQEBdMShbT0hdKVtDSDJdbihbY0hdbjIpYyhjMjMpbltjSF1uYzNOKFtDSDNdKVtDSDJdW0NAQEhdKFtDSDJdNClbQ0gyXVtDSDJdUzQoPU8pPU8=

> <s_epik_cmdline>
J2VwaWtfcHl0aG9uJywgJy1waCcsICc3LjAnLCAnLXRuJywgJzgnLCAnLW1hJywgJzIwMCcsICctbWV0YWxfYmluZGluZycsICctaW1hZScsICc8aW5maWxlLm1hZT4nLCAnLW9tYWUnLCAnPG91dGZpbGUubWFlPic=

> <r_lp_tautomer_probability>
1

> <r_epik_Ionization_Penalty>
0.00155497

> <r_epik_Ionization_Penalty_Charging>
0

> <r_epik_Ionization_Penalty_Neutral>
0.00155497

> <r_epik_State_Penalty>
-0

> <r_epik_Charging_Adjusted_Penalty>
0

> <i_epik_Tot_Q>
0

> <i_epik_Tot_abs_Q>
0

> <r_epik_Metal_State_Penalty>
-0

> <b_epik_Metal_Only>
0

> <s_lp_Force_Field>
OPLS_2005

> <r_lp_Energy>
31.7586

> <b_lp_Chiralities_Consistent>
1

> <s_lp_Variant>
AV-unprocessed.smi:266-5

> <Gold.Version>
5.8.1

> <Gold.Id.Protein>
6NUR|6NUR_protein|mol2

> <Gold.PLP.Fitness>
47.6962

> <Gold.PLP.PLP>
-40.3233

> <Gold.PLP.part.hbond>
-4.0000

> <Gold.PLP.part.metal>
0.0000

> <Gold.PLP.part.buried>
-7.6490

> <Gold.PLP.part.nonpolar>
-29.5948

> <Gold.PLP.part.repulsive>
0.2284

> <Gold.PLP.ligand.clash>
0.0000

> <Gold.PLP.ligand.torsion>
0.7903

> <Gold.PLP.Chemscore.Hbond>
2.7855

> <Gold.PLP.Chemscore.CHOScore>
0.0000

> <Gold.PLP.Chemscore.Metal>
0.0000

> <Gold.Chemscore.Hbonds>
donor molecule, donor type, donor heavy atom, donor atom, acceptor molecule, acceptor atom, score
      P1  H  6931  6943       L1    22  1.00
      P1  H  7997  8008       L1    26  0.90
      P1  H 10752 10764       L1    24  0.82

> <Gold.PLP.Chemscore.Internal.Correction>
0.5972

> <Gold.Rescore>
     Score         DG    S(hbond)    S(metal)    S(lipo)     H(rot)  DE(clash)    DE(int)     intcor
     12.34     -14.48       1.85        0.00      84.69       2.76       0.05       2.09       ----

> <Gold.Chemscore.Fitness>
12.3374

> <Gold.Chemscore.DG>
-14.4832

> <Gold.Chemscore.ZeroCoef>
-5.4800

> <Gold.Chemscore.Hbond>
1.8473

> <Gold.Chemscore.Metal>
0.0000

> <Gold.Chemscore.Lipo>
84.6855

> <Gold.Chemscore.Internal_Hbond>
0.0000

> <Gold.Chemscore.DEClash>
0.0539

> <Gold.Chemscore.DEInternal>
2.0919

> <Gold.Chemscore.Rot>
2.7637

> <Gold.Chemscore.Internal.Correction>
   9.000000E+99

> <Gold.Chemscore.Hbonds>
donor molecule, donor type, donor heavy atom, donor atom, acceptor molecule, acceptor atom, score
      P1  H  6931  6943       L1    22  0.91
      P1  H  6934  6947       L1    22  0.05
      P1  H  7997  8008       L1    26  0.18
      P1  H 10752 10764       L1    24  0.73

> <Gold.Chemscore.Hbond.Weighted>
-6.1701

> <Gold.Chemscore.Metal.Weighted>
-0.0000

> <Gold.Chemscore.Lipo.Weighted>
-9.9082

> <Gold.Chemscore.Internal_Hbond.Weighted>
0.0000

> <Gold.Chemscore.DEClash.Weighted>
0.0539

> <Gold.Chemscore.DEInternal.Weighted>
2.0919

> <Gold.Chemscore.Rot.Weighted>
7.0750

> <Gold.Chemscore.Internal.Correction.Weighted>
   9.000000E+99

> <Gold.Protein.RotatedTorsions>
[ 6907 6896 6895 6894 ] final  -58.08 input  -60.11 | X-H torsion
[ 7974 7965 7964 7962 ] final   54.43 input  175.53 | X-H torsion
[ 8008 7997 7996 7995 ] final  -29.89 input   59.86 | X-H torsion
[ 10167 10162 10161 10158 ] final   35.28 input  -65.29 | X-H torsion
[ 10718 10713 10712 10709 ] final   82.01 input   66.30 | X-H torsion
[ 10763 10752 10751 10750 ] final  -65.17 input  -60.55 | X-H torsion
[ 11005 11000 10999 10996 ] final  -85.30 input  -57.11 | X-H torsion

> <Gold.Protein.ActiveResidues>
 VAL166  LYS551  ARG553  GLY616  TRP617  ASP618  TYR619  PRO620  LYS621  CYS622 
 ASP623  PHE694  ASN695  SER759  ASP760  ASP761  ALA762  ILE779  LEU786  VAL792 
 PHE793  MET794  SER795  GLU796  ALA797  LYS798  CYS799  TRP800  GLU811  SER814 

> <Gold.Protein.RotatedAtoms>
  150.8035  134.7144  159.6621 H   0  0  0  0  0  0  0  0  0  0  0  0  # atno 6907 bound_to 6896
  152.4153  134.6049  160.0020 H   0  0  0  0  0  0  0  0  0  0  0  0  # atno 6908 bound_to 6896
  151.6280  133.3297  159.3138 H   0  0  0  0  0  0  0  0  0  0  0  0  # atno 6909 bound_to 6896
  145.9609  139.4058  143.0249 H   0  0  0  0  0  0  0  0  0  0  0  0  # atno 7974 bound_to 7965
  154.4272  140.1806  156.1320 H   0  0  0  0  0  0  0  0  0  0  0  0  # atno 8008 bound_to 7997
  156.0060  140.3355  155.6868 H   0  0  0  0  0  0  0  0  0  0  0  0  # atno 8009 bound_to 7997
  155.6177  140.0656  157.2678 H   0  0  0  0  0  0  0  0  0  0  0  0  # atno 8010 bound_to 7997
  140.4237  144.1423  150.6151 H   0  0  0  0  0  0  0  0  0  0  0  0  # atno 10167 bound_to 10162
  157.6847  131.0029  150.2311 H   0  0  0  0  0  0  0  0  0  0  0  0  # atno 10718 bound_to 10713
  154.3410  135.6156  153.5596 H   0  0  0  0  0  0  0  0  0  0  0  0  # atno 10763 bound_to 10752
  152.9804  135.5769  154.4853 H   0  0  0  0  0  0  0  0  0  0  0  0  # atno 10764 bound_to 10752
  154.4557  135.2854  155.1726 H   0  0  0  0  0  0  0  0  0  0  0  0  # atno 10765 bound_to 10752
  141.1642  133.7392  156.8995 H   0  0  0  0  0  0  0  0  0  0  0  0  # atno 11005 bound_to 11000
  145.8041  140.9757  143.0983 LP  0  0  0  0  0  0  0  0  0  0  0  0  # atno 17320 bound_to 7965
  144.6815  139.9839  143.7483 LP  0  0  0  0  0  0  0  0  0  0  0  0  # atno 17321 bound_to 7965
  140.4505  143.2489  151.9354 LP  0  0  0  0  0  0  0  0  0  0  0  0  # atno 17342 bound_to 10162
  139.4783  144.5567  151.8303 LP  0  0  0  0  0  0  0  0  0  0  0  0  # atno 17343 bound_to 10162
  156.2943  130.3750  149.7811 LP  0  0  0  0  0  0  0  0  0  0  0  0  # atno 17370 bound_to 10713
  156.5461  130.8321  151.3284 LP  0  0  0  0  0  0  0  0  0  0  0  0  # atno 17371 bound_to 10713
  140.1592  134.9177  157.2693 LP  0  0  0  0  0  0  0  0  0  0  0  0  # atno 17394 bound_to 11000
  140.2631  134.3548  155.7399 LP  0  0  0  0  0  0  0  0  0  0  0  0  # atno 17395 bound_to 11000

$$$$
