AV-unprocessed.smi:2930|AV-procd|sdf|11241|dock2
  -GOLD-   2272016133D 1   1.00000     0.00000
 Structure written by MMmdl.
 40 41  0  0  0  0  0  0  0  0  1 V2000
  144.1299  135.4524  152.9689 C   0  0  0  0  0  0  0  0  0  0  0  0
  144.9792  135.9221  151.7797 C   0  0  1  0  0  0  0  0  0  0  0  0
  146.2106  136.5291  152.2794 N   0  0  0  0  0  0  0  0  0  0  0  0
  146.2871  137.5096  153.1910 C   0  0  0  0  0  0  0  0  0  0  0  0
  145.3046  138.0210  153.7270 O   0  0  0  0  0  0  0  0  0  0  0  0
  147.5640  137.8632  153.4147 N   0  0  0  0  0  0  0  0  0  0  0  0
  148.0613  138.8477  154.3098 C   0  0  0  0  0  0  0  0  0  0  0  0
  147.4462  139.2298  155.5259 C   0  0  0  0  0  0  0  0  0  0  0  0
  147.9931  140.1636  156.3335 N   0  0  0  0  0  0  0  0  0  0  0  0
  149.1483  140.7226  155.9496 C   0  0  0  0  0  0  0  0  0  0  0  0
  149.7048  141.6920  156.7891 N   0  0  0  0  0  0  0  0  0  0  0  0
  149.0082  142.1417  157.9910 C   0  0  0  0  0  0  0  0  0  0  0  0
  151.0032  142.2915  156.4947 C   0  0  0  0  0  0  0  0  0  0  0  0
  149.8142  140.4237  154.8261 N   0  0  0  0  0  0  0  0  0  0  0  0
  149.2793  139.4900  154.0115 C   0  0  0  0  0  0  0  0  0  0  0  0
  145.3120  134.7758  150.8225 C   0  0  0  0  0  0  0  0  0  0  0  0
  144.2496  133.7189  150.4801 C   0  0  0  0  0  0  0  0  0  0  0  0
  145.3723  132.6805  150.4088 C   0  0  0  0  0  0  0  0  0  0  0  0
  146.2022  133.6151  151.2932 C   0  0  0  0  0  0  0  0  0  0  0  0
  143.1838  135.0276  152.6327 H   0  0  0  0  0  0  0  0  0  0  0  0
  143.8966  136.2820  153.6370 H   0  0  0  0  0  0  0  0  0  0  0  0
  144.6481  134.6899  153.5516 H   0  0  0  0  0  0  0  0  0  0  0  0
  144.3958  136.6758  151.2477 H   0  0  0  0  0  0  0  0  0  0  0  0
  147.0740  136.1781  151.8918 H   0  0  0  0  0  0  0  0  0  0  0  0
  148.2592  137.4064  152.8426 H   0  0  0  0  0  0  0  0  0  0  0  0
  146.5287  138.7880  155.8817 H   0  0  0  0  0  0  0  0  0  0  0  0
  148.8399  141.3037  158.6684 H   0  0  0  0  0  0  0  0  0  0  0  0
  148.0416  142.5740  157.7312 H   0  0  0  0  0  0  0  0  0  0  0  0
  149.5758  142.8984  158.5326 H   0  0  0  0  0  0  0  0  0  0  0  0
  150.9766  142.8005  155.5306 H   0  0  0  0  0  0  0  0  0  0  0  0
  151.7770  141.5241  156.4576 H   0  0  0  0  0  0  0  0  0  0  0  0
  151.2960  143.0221  157.2486 H   0  0  0  0  0  0  0  0  0  0  0  0
  149.8297  139.2579  153.1116 H   0  0  0  0  0  0  0  0  0  0  0  0
  145.7248  135.1639  149.8885 H   0  0  0  0  0  0  0  0  0  0  0  0
  143.5561  133.5319  151.3017 H   0  0  0  0  0  0  0  0  0  0  0  0
  143.7224  133.8911  149.5414 H   0  0  0  0  0  0  0  0  0  0  0  0
  145.1336  131.7167  150.8595 H   0  0  0  0  0  0  0  0  0  0  0  0
  145.7847  132.5697  149.4047 H   0  0  0  0  0  0  0  0  0  0  0  0
  147.2517  133.7009  151.0101 H   0  0  0  0  0  0  0  0  0  0  0  0
  146.0886  133.3976  152.3566 H   0  0  0  0  0  0  0  0  0  0  0  0
  1  2  1  0  0  0  0
  1 20  1  0  0  0  0
  1 21  1  0  0  0  0
  1 22  1  0  0  0  0
  2  3  1  0  0  0  0
  2 16  1  0  0  0  0
  2 23  1  0  0  0  0
  3  4  1  0  0  0  0
  3 24  1  0  0  0  0
  4  5  2  0  0  0  0
  4  6  1  0  0  0  0
  6  7  1  0  0  0  0
  6 25  1  0  0  0  0
  7 15  1  0  0  0  0
  7  8  2  0  0  0  0
  8  9  1  0  0  0  0
  8 26  1  0  0  0  0
  9 10  2  0  0  0  0
 10 11  1  0  0  0  0
 10 14  1  0  0  0  0
 11 12  1  0  0  0  0
 11 13  1  0  0  0  0
 12 27  1  0  0  0  0
 12 28  1  0  0  0  0
 12 29  1  0  0  0  0
 13 30  1  0  0  0  0
 13 31  1  0  0  0  0
 13 32  1  0  0  0  0
 14 15  2  0  0  0  0
 15 33  1  0  0  0  0
 16 19  1  0  0  0  0
 16 17  1  0  0  0  0
 16 34  1  0  0  0  0
 17 18  1  0  0  0  0
 17 35  1  0  0  0  0
 17 36  1  0  0  0  0
 18 19  1  0  0  0  0
 18 37  1  0  0  0  0
 18 38  1  0  0  0  0
 19 39  1  0  0  0  0
 19 40  1  0  0  0  0
M  END
> <s_m_source_file>
AV-unprocessed.smi

> <i_m_source_file_index>
2930

> <i_lp_mmshare_version>
43012

> <i_f3d_flags>
0

> <s_epik_input>
W0NIMl0xW0NIMl1bQ0gyXVtDSF0xW0NASF0oW0NIM10pW05IXUMoPU8pW05IXWMyW2NIXW5jKE4oW0NIM10pW0NIM10pbltjSF0y

> <s_epik_cmdline>
J2VwaWtfcHl0aG9uJywgJy1waCcsICc3LjAnLCAnLXRuJywgJzgnLCAnLW1hJywgJzIwMCcsICctbWV0YWxfYmluZGluZycsICctaW1hZScsICc8aW5maWxlLm1hZT4nLCAnLW9tYWUnLCAnPG91dGZpbGUubWFlPic=

> <r_lp_tautomer_probability>
1

> <r_epik_Ionization_Penalty>
0.000323856

> <r_epik_Ionization_Penalty_Charging>
0

> <r_epik_Ionization_Penalty_Neutral>
0.000323856

> <r_epik_State_Penalty>
-0

> <r_epik_Charging_Adjusted_Penalty>
0

> <i_epik_Tot_Q>
0

> <i_epik_Tot_abs_Q>
0

> <r_epik_Metal_State_Penalty>
-0

> <b_epik_Metal_Only>
0

> <s_lp_Force_Field>
OPLS_2005

> <r_lp_Energy>
8.86729

> <b_lp_Chiralities_Consistent>
1

> <s_lp_Variant>
AV-unprocessed.smi:2930-2

> <Gold.Version>
5.8.1

> <Gold.Id.Protein>
6NUR|6NUR_protein|mol2

> <Gold.PLP.Fitness>
35.2413

> <Gold.PLP.PLP>
-26.1313

> <Gold.PLP.part.hbond>
-2.5435

> <Gold.PLP.part.metal>
0.0000

> <Gold.PLP.part.buried>
-3.5924

> <Gold.PLP.part.nonpolar>
-20.5065

> <Gold.PLP.part.repulsive>
0.3383

> <Gold.PLP.ligand.clash>
0.0000

> <Gold.PLP.ligand.torsion>
0.3933

> <Gold.PLP.Chemscore.Hbond>
2.2647

> <Gold.PLP.Chemscore.CHOScore>
0.9916

> <Gold.PLP.Chemscore.Metal>
0.0000

> <Gold.Chemscore.Hbonds>
donor molecule, donor type, donor heavy atom, donor atom, acceptor molecule, acceptor atom, score
      L1  H     3    24       P1  7948  0.99
      L1  H     6    25       P1  7948  1.00
      P1  H  7989  7998       L1    14  0.26
      L1  C    15    33       P1  7957  1.00

> <Gold.PLP.Chemscore.Internal.Correction>
0.1279

> <Gold.Rescore>
     Score         DG    S(hbond)    S(metal)    S(lipo)     H(rot)  DE(clash)    DE(int)     intcor
     14.69     -16.02       1.96        0.00      60.35       1.19       0.23       1.10       ----

> <Gold.Chemscore.Fitness>
14.6875

> <Gold.Chemscore.DG>
-16.0171

> <Gold.Chemscore.ZeroCoef>
-5.4800

> <Gold.Chemscore.Hbond>
1.9567

> <Gold.Chemscore.Metal>
0.0000

> <Gold.Chemscore.Lipo>
60.3464

> <Gold.Chemscore.Internal_Hbond>
0.0000

> <Gold.Chemscore.DEClash>
0.2333

> <Gold.Chemscore.DEInternal>
1.0963

> <Gold.Chemscore.Rot>
1.1949

> <Gold.Chemscore.Internal.Correction>
   9.000000E+99

> <Gold.Chemscore.Hbonds>
donor molecule, donor type, donor heavy atom, donor atom, acceptor molecule, acceptor atom, score
      L1  H     3    24       P1  7948  0.94
      L1  H     6    25       P1  7948  0.99
      P1  H  7989  7998       L1    14  0.04

> <Gold.Chemscore.Hbond.Weighted>
-6.5355

> <Gold.Chemscore.Metal.Weighted>
-0.0000

> <Gold.Chemscore.Lipo.Weighted>
-7.0605

> <Gold.Chemscore.Internal_Hbond.Weighted>
0.0000

> <Gold.Chemscore.DEClash.Weighted>
0.2333

> <Gold.Chemscore.DEInternal.Weighted>
1.0963

> <Gold.Chemscore.Rot.Weighted>
3.0590

> <Gold.Chemscore.Internal.Correction.Weighted>
   9.000000E+99

> <Gold.Protein.RotatedTorsions>
[ 6907 6896 6895 6894 ] final   83.16 input  -60.11 | X-H torsion
[ 7974 7965 7964 7962 ] final   71.58 input  175.53 | X-H torsion
[ 8008 7997 7996 7995 ] final  158.44 input   59.86 | X-H torsion
[ 10167 10162 10161 10158 ] final  -27.41 input  -65.29 | X-H torsion
[ 10718 10713 10712 10709 ] final   -3.62 input   66.30 | X-H torsion
[ 10763 10752 10751 10750 ] final  123.03 input  -60.55 | X-H torsion
[ 11005 11000 10999 10996 ] final  169.82 input  -57.11 | X-H torsion

> <Gold.Protein.ActiveResidues>
 VAL166  LYS551  ARG553  GLY616  TRP617  ASP618  TYR619  PRO620  LYS621  CYS622 
 ASP623  PHE694  ASN695  SER759  ASP760  ASP761  ALA762  ILE779  LEU786  VAL792 
 PHE793  MET794  SER795  GLU796  ALA797  LYS798  CYS799  TRP800  GLU811  SER814 

> <Gold.Protein.RotatedAtoms>
  152.5319  134.2939  159.9053 H   0  0  0  0  0  0  0  0  0  0  0  0  # atno 6907 bound_to 6896
  151.2891  133.4167  159.2639 H   0  0  0  0  0  0  0  0  0  0  0  0  # atno 6908 bound_to 6896
  151.0217  134.9489  159.8120 H   0  0  0  0  0  0  0  0  0  0  0  0  # atno 6909 bound_to 6896
  145.7641  139.2813  143.1359 H   0  0  0  0  0  0  0  0  0  0  0  0  # atno 7974 bound_to 7965
  156.2302  140.1858  156.7261 H   0  0  0  0  0  0  0  0  0  0  0  0  # atno 8008 bound_to 7997
  154.6010  140.0636  156.9395 H   0  0  0  0  0  0  0  0  0  0  0  0  # atno 8009 bound_to 7997
  155.2175  140.3305  155.4322 H   0  0  0  0  0  0  0  0  0  0  0  0  # atno 8010 bound_to 7997
  140.7277  143.4095  151.1129 H   0  0  0  0  0  0  0  0  0  0  0  0  # atno 10167 bound_to 10162
  156.7733  130.5307  149.5763 H   0  0  0  0  0  0  0  0  0  0  0  0  # atno 10718 bound_to 10713
  153.6391  135.3382  155.3066 H   0  0  0  0  0  0  0  0  0  0  0  0  # atno 10763 bound_to 10752
  154.8563  135.4314  154.2024 H   0  0  0  0  0  0  0  0  0  0  0  0  # atno 10764 bound_to 10752
  153.2938  135.7019  153.7341 H   0  0  0  0  0  0  0  0  0  0  0  0  # atno 10765 bound_to 10752
  140.3018  134.7589  157.3922 H   0  0  0  0  0  0  0  0  0  0  0  0  # atno 11005 bound_to 11000
  146.0235  140.8325  142.9911 LP  0  0  0  0  0  0  0  0  0  0  0  0  # atno 17320 bound_to 7965
  144.6825  140.2664  143.7312 LP  0  0  0  0  0  0  0  0  0  0  0  0  # atno 17321 bound_to 7965
  139.7727  143.8471  152.3123 LP  0  0  0  0  0  0  0  0  0  0  0  0  # atno 17342 bound_to 10162
  139.8395  144.7217  150.9349 LP  0  0  0  0  0  0  0  0  0  0  0  0  # atno 17343 bound_to 10162
  156.1264  130.6147  151.0269 LP  0  0  0  0  0  0  0  0  0  0  0  0  # atno 17370 bound_to 10713
  157.6681  131.0867  150.7680 LP  0  0  0  0  0  0  0  0  0  0  0  0  # atno 17371 bound_to 10713
  140.1102  134.5355  155.8272 LP  0  0  0  0  0  0  0  0  0  0  0  0  # atno 17394 bound_to 11000
  141.2126  133.6722  156.6675 LP  0  0  0  0  0  0  0  0  0  0  0  0  # atno 17395 bound_to 11000

$$$$
