#       Name:                AV-unprocessed.smi:2769
#       Creating user name   scv26
#       Creation time:       Fri Mar 27 15:10:41 2020


#       File generated by GOLD software.
#

@<TRIPOS>MOLECULE
AV-unprocessed.smi:2769
    24    25     1
SMALL
NO_CHARGES


@<TRIPOS>ATOM
      1 ****        -3.4894   1.3962   0.3999 C.3            1 S1                 0.0000
      2 ****        -2.0136   1.2718   0.5679 C.2            1 S1                 0.0000
      3 ****        -1.3019   2.2324   1.1443 N.2            1 S1                 0.0000
      4 ****         0.0091   1.7378   1.0938 O.3            1 S1                 0.0000
      5 ****        -0.0803   0.5095   0.5297 C.2            1 S1                 0.0000
      6 ****         1.1755  -0.2439   0.2440 C.3            1 S1                 0.0000
      7 ****         1.8473  -0.2329  -1.1232 C.3            1 S1                 0.0000
      8 ****         2.3820  -1.5469  -0.7674 N.4            1 S1                 1.0000
      9 ****         1.2254  -1.7610   0.1015 C.3            1 S1                 0.0000
     10 ****        -1.3117   0.1847   0.1444 N.2            1 S1                 0.0000
     11 ****        -3.7855   2.4444   0.3444 H              1 S1                 0.0000
     12 ****        -4.0030   0.9348   1.2435 H              1 S1                 0.0000
     13 ****        -3.8125   0.9005  -0.5159 H              1 S1                 0.0000
     14 ****         1.9024   0.0620   1.0018 H              1 S1                 0.0000
     15 ****         1.1463  -0.2746  -1.9598 H              1 S1                 0.0000
     16 ****         2.6068   0.5377  -1.2581 H              1 S1                 0.0000
     17 ****         2.4422  -2.1924  -1.5422 H              1 S1                 0.0000
     18 ****         1.4509  -2.3041   1.0197 H              1 S1                 0.0000
     19 ****         0.3728  -2.1863  -0.4324 H              1 S1                 0.0000
     20 ****         3.2374  -1.4693  -0.2358 H              1 S1                 0.0000
     21 ****        -1.6234   3.1001   1.5234 LP             1 S1                 0.0000
     22 ****         0.3915   1.6706   2.0153 LP             1 S1                 0.0000
     23 ****         0.5854   2.3356   0.5366 LP             1 S1                 0.0000
     24 ****        -1.6342  -0.6355  -0.3281 LP             1 S1                 0.0000
@<TRIPOS>BOND
    1    1    2 1     
    2    1   11 1     
    3    1   12 1     
    4    1   13 1     
    5    2   10 1     
    6    2    3 2     
    7    3    4 1     
    8    4    5 1     
    9    5    6 1     
   10    5   10 2     
   11    6    9 1     
   12    6    7 1     
   13    6   14 1     
   14    7    8 1     
   15    7   15 1     
   16    7   16 1     
   17    8    9 1     
   18    8   17 1     
   19    8   20 1     
   20    9   18 1     
   21    9   19 1     
   22    3   21 1     
   23    4   22 1     
   24    4   23 1     
   25   10   24 1     
@<TRIPOS>SUBSTRUCTURE
      1 S1             1
@<TRIPOS>SET
LONE_PAIRS      STATIC     ATOMS    <user>   **** ""
4 21 22 23 24
DONOR_HYDROGENS      STATIC     ATOMS    <user>   **** ""
2 17 20
ATOM$BLUE        STATIC     ATOMS    COLORGROUP SYSTEM
4 21 22 23 24
ATOM$RED        STATIC     ATOMS    COLORGROUP SYSTEM
2 17 20
