AV-unprocessed.smi:225|AV-procd|sdf|1723|dock2
  -GOLD-   2262020203D 1   1.00000     0.00000
 Structure written by MMmdl.
 56 59  0  0  0  0  0  0  0  0  1 V2000
  149.4491  141.1089  153.6919 O   0  0  0  0  0  0  0  0  0  0  0  0
  149.3950  141.2347  155.0959 C   0  0  0  0  0  0  0  0  0  0  0  0
  150.0158  139.9871  155.7471 C   0  0  0  0  0  0  0  0  0  0  0  0
  150.5105  140.2400  157.1035 N   0  0  0  0  0  0  0  0  0  0  0  0
  151.6126  141.1918  157.2518 C   0  0  0  0  0  0  0  0  0  0  0  0
  151.5023  142.0624  158.5216 C   0  0  0  0  0  0  0  0  0  0  0  0
  151.0528  143.4924  158.1612 C   0  0  0  0  0  0  0  0  0  0  0  0
  150.9290  144.3821  159.4094 C   0  0  0  0  0  0  0  0  0  0  0  0
  152.2443  144.4161  160.2022 C   0  0  0  0  0  0  0  0  0  0  0  0
  152.7071  142.9966  160.5648 C   0  0  0  0  0  0  0  0  0  0  0  0
  152.8267  142.1130  159.3127 C   0  0  0  0  0  0  0  0  0  0  0  0
  150.6040  139.1806  157.9486 C   0  0  0  0  0  0  0  0  0  0  0  0
  151.8067  138.8377  158.4833 N   0  0  0  0  0  0  0  0  0  0  0  0
  151.9017  137.8030  159.3236 C   0  0  0  0  0  0  0  0  0  0  0  0
  150.9365  136.9925  159.7613 N   0  0  0  0  0  0  0  0  0  0  0  0
  149.7266  137.3341  159.2327 C   0  0  0  0  0  0  0  0  0  0  0  0
  149.4745  138.4017  158.3256 C   0  0  0  0  0  0  0  0  0  0  0  0
  148.1253  138.4335  157.9962 N   0  0  0  0  0  0  0  0  0  0  0  0
  147.6077  137.4468  158.6751 C   0  0  0  0  0  0  0  0  0  0  0  0
  148.4966  136.7387  159.4519 N   0  0  0  0  0  0  0  0  0  0  0  0
  148.1948  135.6026  160.3087 C   0  0  0  0  0  0  0  0  0  0  0  0
  147.2968  135.9647  161.5146 C   0  0  1  0  0  0  0  0  0  0  0  0
  147.6485  137.2547  161.9838 O   0  0  0  0  0  0  0  0  0  0  0  0
  145.8016  135.9546  161.2041 C   0  0  0  0  0  0  0  0  0  0  0  0
  145.1831  135.4940  162.5163 C   0  0  0  0  0  0  0  0  0  0  0  0
  146.0991  134.5056  162.9541 O   0  0  0  0  0  0  0  0  0  0  0  0
  147.4183  134.9684  162.6854 C   0  0  0  0  0  0  0  0  0  0  0  0
  149.0323  140.2969  153.4471 H   0  0  0  0  0  0  0  0  0  0  0  0
  149.9396  142.1314  155.3928 H   0  0  0  0  0  0  0  0  0  0  0  0
  148.3554  141.3702  155.3937 H   0  0  0  0  0  0  0  0  0  0  0  0
  149.2933  139.1700  155.7641 H   0  0  0  0  0  0  0  0  0  0  0  0
  150.8374  139.6392  155.1222 H   0  0  0  0  0  0  0  0  0  0  0  0
  152.5785  140.6841  157.2477 H   0  0  0  0  0  0  0  0  0  0  0  0
  151.6129  141.8359  156.3716 H   0  0  0  0  0  0  0  0  0  0  0  0
  150.7373  141.6400  159.1728 H   0  0  0  0  0  0  0  0  0  0  0  0
  151.7653  143.9395  157.4665 H   0  0  0  0  0  0  0  0  0  0  0  0
  150.0946  143.4620  157.6415 H   0  0  0  0  0  0  0  0  0  0  0  0
  150.6450  145.3936  159.1181 H   0  0  0  0  0  0  0  0  0  0  0  0
  150.1275  144.0077  160.0471 H   0  0  0  0  0  0  0  0  0  0  0  0
  153.0147  144.9122  159.6105 H   0  0  0  0  0  0  0  0  0  0  0  0
  152.1186  145.0101  161.1078 H   0  0  0  0  0  0  0  0  0  0  0  0
  153.6659  143.0396  161.0819 H   0  0  0  0  0  0  0  0  0  0  0  0
  151.9993  142.5475  161.2626 H   0  0  0  0  0  0  0  0  0  0  0  0
  153.1282  141.1081  159.6097 H   0  0  0  0  0  0  0  0  0  0  0  0
  153.6222  142.4989  158.6741 H   0  0  0  0  0  0  0  0  0  0  0  0
  152.8926  137.5961  159.7001 H   0  0  0  0  0  0  0  0  0  0  0  0
  146.5548  137.2100  158.6294 H   0  0  0  0  0  0  0  0  0  0  0  0
  147.7130  134.8376  159.6985 H   0  0  0  0  0  0  0  0  0  0  0  0
  149.1351  135.1698  160.6535 H   0  0  0  0  0  0  0  0  0  0  0  0
  147.2176  137.4005  162.8120 H   0  0  0  0  0  0  0  0  0  0  0  0
  145.4153  136.9145  160.8581 H   0  0  0  0  0  0  0  0  0  0  0  0
  145.5800  135.2120  160.4367 H   0  0  0  0  0  0  0  0  0  0  0  0
  145.1421  136.3086  163.2410 H   0  0  0  0  0  0  0  0  0  0  0  0
  144.1791  135.0879  162.3923 H   0  0  0  0  0  0  0  0  0  0  0  0
  148.0561  134.1173  162.4452 H   0  0  0  0  0  0  0  0  0  0  0  0
  147.8262  135.4377  163.5823 H   0  0  0  0  0  0  0  0  0  0  0  0
  1  2  1  0  0  0  0
  1 28  1  0  0  0  0
  2  3  1  0  0  0  0
  2 29  1  0  0  0  0
  2 30  1  0  0  0  0
  3  4  1  0  0  0  0
  3 31  1  0  0  0  0
  3 32  1  0  0  0  0
  4  5  1  0  0  0  0
  4 12  1  0  0  0  0
  5  6  1  0  0  0  0
  5 33  1  0  0  0  0
  5 34  1  0  0  0  0
  6 11  1  0  0  0  0
  6  7  1  0  0  0  0
  6 35  1  0  0  0  0
  7  8  1  0  0  0  0
  7 36  1  0  0  0  0
  7 37  1  0  0  0  0
  8  9  1  0  0  0  0
  8 38  1  0  0  0  0
  8 39  1  0  0  0  0
  9 10  1  0  0  0  0
  9 40  1  0  0  0  0
  9 41  1  0  0  0  0
 10 11  1  0  0  0  0
 10 42  1  0  0  0  0
 10 43  1  0  0  0  0
 11 44  1  0  0  0  0
 11 45  1  0  0  0  0
 12 17  1  0  0  0  0
 12 13  2  0  0  0  0
 13 14  1  0  0  0  0
 14 15  2  0  0  0  0
 14 46  1  0  0  0  0
 15 16  1  0  0  0  0
 16 20  1  0  0  0  0
 16 17  2  0  0  0  0
 17 18  1  0  0  0  0
 18 19  2  0  0  0  0
 19 20  1  0  0  0  0
 19 47  1  0  0  0  0
 20 21  1  0  0  0  0
 21 22  1  0  0  0  0
 21 48  1  0  0  0  0
 21 49  1  0  0  0  0
 22 27  1  0  0  0  0
 22 23  1  0  0  0  0
 22 24  1  0  0  0  0
 23 50  1  0  0  0  0
 24 25  1  0  0  0  0
 24 51  1  0  0  0  0
 24 52  1  0  0  0  0
 25 26  1  0  0  0  0
 25 53  1  0  0  0  0
 25 54  1  0  0  0  0
 26 27  1  0  0  0  0
 27 55  1  0  0  0  0
 27 56  1  0  0  0  0
M  END
> <s_m_source_file>
AV-unprocessed.smi

> <i_m_source_file_index>
225

> <i_lp_mmshare_version>
43012

> <i_f3d_flags>
0

> <s_epik_input>
W0NIMl0xW0NIMl1bQ0gyXVtDSDJdW0NIMl1bQ0hdMVtDSDJdTihbQ0gyXVtDSDJdW09IXSljKG5bY0hdbjIpYyhjMjMpbltjSF1uM1tDSDJdW0NAQF00KFtPSF0pW0NIMl1bQ0gyXU9bQ0gyXTQ=

> <s_epik_cmdline>
J2VwaWtfcHl0aG9uJywgJy1waCcsICc3LjAnLCAnLXRuJywgJzgnLCAnLW1hJywgJzIwMCcsICctbWV0YWxfYmluZGluZycsICctaW1hZScsICc8aW5maWxlLm1hZT4nLCAnLW9tYWUnLCAnPG91dGZpbGUubWFlPic=

> <r_lp_tautomer_probability>
1

> <r_epik_Ionization_Penalty>
0.00405109

> <r_epik_Ionization_Penalty_Charging>
0

> <r_epik_Ionization_Penalty_Neutral>
0.00405109

> <r_epik_State_Penalty>
0.00270467

> <r_epik_Charging_Adjusted_Penalty>
0.00270467

> <i_epik_Tot_Q>
0

> <i_epik_Tot_abs_Q>
0

> <r_epik_Metal_State_Penalty>
-0

> <b_epik_Metal_Only>
0

> <s_lp_Force_Field>
OPLS_2005

> <r_lp_Energy>
35.3167

> <b_lp_Chiralities_Consistent>
1

> <s_lp_Variant>
AV-unprocessed.smi:225-1

> <Gold.Version>
5.8.1

> <Gold.Id.Protein>
6NUR|6NUR_protein|mol2

> <Gold.PLP.Fitness>
61.8674

> <Gold.PLP.PLP>
-52.7026

> <Gold.PLP.part.hbond>
-6.3952

> <Gold.PLP.part.metal>
0.0000

> <Gold.PLP.part.buried>
-8.1631

> <Gold.PLP.part.nonpolar>
-37.9775

> <Gold.PLP.part.repulsive>
0.0067

> <Gold.PLP.ligand.clash>
0.0000

> <Gold.PLP.ligand.torsion>
1.9628

> <Gold.PLP.Chemscore.Hbond>
3.8271

> <Gold.PLP.Chemscore.CHOScore>
0.0000

> <Gold.PLP.Chemscore.Metal>
0.0000

> <Gold.Chemscore.Hbonds>
donor molecule, donor type, donor heavy atom, donor atom, acceptor molecule, acceptor atom, score
      L1  H     1    28       P1  7957  0.01
      P1  H  6896  6909       L1    15  1.00
      P1  H  6931  6943       L1    23  0.96
      P1  H  6934  6947       L1    23  0.52
      P1  H  7989  7998       L1     1  0.18
      P1  H  8011  8017       L1     1  0.96

> <Gold.PLP.Chemscore.Internal.Correction>
1.6089

> <Gold.Rescore>
     Score         DG    S(hbond)    S(metal)    S(lipo)     H(rot)  DE(clash)    DE(int)     intcor
     17.32     -18.96       2.73        0.00     119.60       3.76       0.04       1.61       ----

> <Gold.Chemscore.Fitness>
17.3151

> <Gold.Chemscore.DG>
-18.9580

> <Gold.Chemscore.ZeroCoef>
-5.4800

> <Gold.Chemscore.Hbond>
2.7310

> <Gold.Chemscore.Metal>
0.0000

> <Gold.Chemscore.Lipo>
119.6010

> <Gold.Chemscore.Internal_Hbond>
0.0000

> <Gold.Chemscore.DEClash>
0.0361

> <Gold.Chemscore.DEInternal>
1.6068

> <Gold.Chemscore.Rot>
3.7644

> <Gold.Chemscore.Internal.Correction>
   9.000000E+99

> <Gold.Chemscore.Hbonds>
donor molecule, donor type, donor heavy atom, donor atom, acceptor molecule, acceptor atom, score
      L1  H     1    28       P1  7957  0.01
      P1  H  6896  6909       L1    15  0.90
      P1  H  6931  6943       L1    23  0.60
      P1  H  6934  6947       L1    23  0.15
      P1  H  7989  7998       L1     1  0.03
      P1  H  8011  8017       L1     1  0.89

> <Gold.Chemscore.Hbond.Weighted>
-9.1216

> <Gold.Chemscore.Metal.Weighted>
-0.0000

> <Gold.Chemscore.Lipo.Weighted>
-13.9933

> <Gold.Chemscore.Internal_Hbond.Weighted>
0.0000

> <Gold.Chemscore.DEClash.Weighted>
0.0361

> <Gold.Chemscore.DEInternal.Weighted>
1.6068

> <Gold.Chemscore.Rot.Weighted>
9.6369

> <Gold.Chemscore.Internal.Correction.Weighted>
   9.000000E+99

> <Gold.Protein.RotatedTorsions>
[ 6907 6896 6895 6894 ] final  111.54 input  -60.11 | X-H torsion
[ 7974 7965 7964 7962 ] final  110.77 input  175.53 | X-H torsion
[ 8008 7997 7996 7995 ] final   95.82 input   59.86 | X-H torsion
[ 10167 10162 10161 10158 ] final   18.11 input  -65.29 | X-H torsion
[ 10718 10713 10712 10709 ] final  -25.11 input   66.30 | X-H torsion
[ 10763 10752 10751 10750 ] final  -42.52 input  -60.55 | X-H torsion
[ 11005 11000 10999 10996 ] final  -55.18 input  -57.11 | X-H torsion

> <Gold.Protein.ActiveResidues>
 VAL166  LYS551  ARG553  GLY616  TRP617  ASP618  TYR619  PRO620  LYS621  CYS622 
 ASP623  PHE694  ASN695  SER759  ASP760  ASP761  ALA762  ILE779  LEU786  VAL792 
 PHE793  MET794  SER795  GLU796  ALA797  LYS798  CYS799  TRP800  GLU811  SER814 

> <Gold.Protein.RotatedAtoms>
  152.4964  133.8642  159.7265 H   0  0  0  0  0  0  0  0  0  0  0  0  # atno 6907 bound_to 6896
  150.9146  133.6946  159.2853 H   0  0  0  0  0  0  0  0  0  0  0  0  # atno 6908 bound_to 6896
  151.4344  135.1017  159.9704 H   0  0  0  0  0  0  0  0  0  0  0  0  # atno 6909 bound_to 6896
  145.2508  139.2741  143.4068 H   0  0  0  0  0  0  0  0  0  0  0  0  # atno 7974 bound_to 7965
  156.0730  140.3281  155.7599 H   0  0  0  0  0  0  0  0  0  0  0  0  # atno 8008 bound_to 7997
  155.5275  140.0590  157.2912 H   0  0  0  0  0  0  0  0  0  0  0  0  # atno 8009 bound_to 7997
  154.4540  140.1933  156.0451 H   0  0  0  0  0  0  0  0  0  0  0  0  # atno 8010 bound_to 7997
  140.5677  143.9219  150.6689 H   0  0  0  0  0  0  0  0  0  0  0  0  # atno 10167 bound_to 10162
  156.4688  130.4520  149.6882 H   0  0  0  0  0  0  0  0  0  0  0  0  # atno 10718 bound_to 10713
  153.9804  135.6717  153.4750 H   0  0  0  0  0  0  0  0  0  0  0  0  # atno 10763 bound_to 10752
  153.0751  135.4953  154.8384 H   0  0  0  0  0  0  0  0  0  0  0  0  # atno 10764 bound_to 10752
  154.7168  135.3108  154.9073 H   0  0  0  0  0  0  0  0  0  0  0  0  # atno 10765 bound_to 10752
  141.1062  133.6613  156.4431 H   0  0  0  0  0  0  0  0  0  0  0  0  # atno 11005 bound_to 11000
  146.3303  140.2897  142.8614 LP  0  0  0  0  0  0  0  0  0  0  0  0  # atno 17320 bound_to 7965
  144.9505  140.8173  143.5575 LP  0  0  0  0  0  0  0  0  0  0  0  0  # atno 17321 bound_to 7965
  140.2686  143.3472  152.1258 LP  0  0  0  0  0  0  0  0  0  0  0  0  # atno 17342 bound_to 10162
  139.5101  144.6879  151.5838 LP  0  0  0  0  0  0  0  0  0  0  0  0  # atno 17343 bound_to 10162
  156.3640  130.7496  151.2472 LP  0  0  0  0  0  0  0  0  0  0  0  0  # atno 17370 bound_to 10713
  157.7493  131.0342  150.4306 LP  0  0  0  0  0  0  0  0  0  0  0  0  # atno 17371 bound_to 10713
  140.4897  134.6587  157.5205 LP  0  0  0  0  0  0  0  0  0  0  0  0  # atno 17394 bound_to 11000
  139.9933  134.6951  155.9653 LP  0  0  0  0  0  0  0  0  0  0  0  0  # atno 17395 bound_to 11000

$$$$
