#       Name:                AV-unprocessed.smi:1513
#       Creating user name   scv26
#       Creation time:       Fri Mar 27 06:24:31 2020


#       File generated by GOLD software.
#

@<TRIPOS>MOLECULE
AV-unprocessed.smi:1513
    39    40     1
SMALL
NO_CHARGES


@<TRIPOS>ATOM
      1 ****        -3.2521   2.1603  -0.1691 N.pl3          1 S1                -1.0000
      2 ****        -1.8101   2.6968  -0.6509 S.o2           1 S1                 0.0000
      3 ****        -1.8714   3.6580  -1.7627 O.2            1 S1                 0.0000
      4 ****        -0.8891   2.9765   0.4615 O.2            1 S1                 0.0000
      5 ****        -1.2849   1.2120  -1.3428 N.3            1 S1                 0.0000
      6 ****         0.1002   1.0518  -1.7819 C.3            1 S1                 0.0000
      7 ****         0.5773  -0.3908  -1.7067 C.ar           1 S1                 0.0000
      8 ****         0.8660  -1.0967  -2.8933 C.ar           1 S1                 0.0000
      9 ****         1.3161  -2.4270  -2.8069 C.ar           1 S1                 0.0000
     10 ****         1.4607  -3.0012  -1.5303 C.ar           1 S1                 0.0000
     11 ****         1.1878  -2.3399  -0.3863 N.ar           1 S1                 0.0000
     12 ****         0.7526  -1.0589  -0.4673 C.ar           1 S1                 0.0000
     13 ****         0.4610  -0.3984   0.7365 N.3            1 S1                 0.0000
     14 ****        -0.7262  -0.9070   1.4111 C.3            1 S1                 0.0000
     15 ****        -1.0676  -0.0137   2.6163 C.3            1 S1                 0.0000
     16 ****         0.0625   0.0762   3.4808 O.3            1 S1                 0.0000
     17 ****         1.1928   0.6467   2.8264 C.3            1 S1                 0.0000
     18 ****         1.5967  -0.2366   1.6334 C.3            1 S1                 0.0000
     19 ****        -3.9547   2.4771  -0.8479 H              1 S1                 0.0000
     20 ****        -1.7076   0.3862  -0.9204 H              1 S1                 0.0000
     21 ****         0.1925   1.4355  -2.7983 H              1 S1                 0.0000
     22 ****         0.7532   1.6645  -1.1600 H              1 S1                 0.0000
     23 ****         0.7460  -0.6274  -3.8587 H              1 S1                 0.0000
     24 ****         1.5452  -2.9927  -3.6978 H              1 S1                 0.0000
     25 ****         1.8044  -4.0195  -1.4242 H              1 S1                 0.0000
     26 ****        -1.5662  -0.9349   0.7161 H              1 S1                 0.0000
     27 ****        -0.5482  -1.9299   1.7457 H              1 S1                 0.0000
     28 ****        -1.3695   0.9822   2.2896 H              1 S1                 0.0000
     29 ****        -1.9073  -0.4341   3.1695 H              1 S1                 0.0000
     30 ****         0.9624   1.6618   2.4982 H              1 S1                 0.0000
     31 ****         2.0165   0.7196   3.5364 H              1 S1                 0.0000
     32 ****         1.9294  -1.2127   1.9892 H              1 S1                 0.0000
     33 ****         2.4307   0.2158   1.0956 H              1 S1                 0.0000
     34 ****        -3.4313   1.6138   0.6489 LP             1 S1                 0.0000
     35 ****        -1.6862   1.3118  -2.2533 LP             1 S1                 0.0000
     36 ****         1.3041  -2.7850   0.5016 LP             1 S1                 0.0000
     37 ****         0.2342   0.5312   0.4461 LP             1 S1                 0.0000
     38 ****         0.3017  -0.8423   3.7958 LP             1 S1                 0.0000
     39 ****        -0.1770   0.6463   4.2667 LP             1 S1                 0.0000
@<TRIPOS>BOND
    1    1    2 1     
    2    1   19 1     
    3    2    3 2     
    4    2    4 2     
    5    2    5 1     
    6    5    6 1     
    7    5   20 1     
    8    6    7 1     
    9    6   21 1     
   10    6   22 1     
   11    7   12 ar    
   12    7    8 ar    
   13    8    9 ar    
   14    8   23 1     
   15    9   10 ar    
   16    9   24 1     
   17   10   11 ar    
   18   10   25 1     
   19   11   12 ar    
   20   12   13 1     
   21   13   18 1     
   22   13   14 1     
   23   14   15 1     
   24   14   26 1     
   25   14   27 1     
   26   15   16 1     
   27   15   28 1     
   28   15   29 1     
   29   16   17 1     
   30   17   18 1     
   31   17   30 1     
   32   17   31 1     
   33   18   32 1     
   34   18   33 1     
   35    1   34 1     
   36    5   35 1     
   37   11   36 1     
   38   13   37 1     
   39   16   38 1     
   40   16   39 1     
@<TRIPOS>SUBSTRUCTURE
      1 S1             1
@<TRIPOS>SET
LONE_PAIRS      STATIC     ATOMS    <user>   **** ""
8 34 3 4 35 36 37 38 39
DONOR_HYDROGENS      STATIC     ATOMS    <user>   **** ""
2 19 20
ATOM$BLUE        STATIC     ATOMS    COLORGROUP SYSTEM
8 34 3 4 35 36 37 38 39
ATOM$RED        STATIC     ATOMS    COLORGROUP SYSTEM
2 19 20
