#       Name:                AV-unprocessed.smi:2066
#       Creating user name   scv26
#       Creation time:       Fri Mar 27 11:11:05 2020


#       File generated by GOLD software.
#

@<TRIPOS>MOLECULE
AV-unprocessed.smi:2066
    45    46     1
SMALL
NO_CHARGES


@<TRIPOS>ATOM
      1 ****        -1.0365  -1.4605   2.7858 C.3            1 S1                 0.0000
      2 ****        -0.6689  -0.6787   1.5016 C.3            1 S1                 0.0000
      3 ****        -1.3115   0.7263   1.6273 C.3            1 S1                 0.0000
      4 ****         0.8747  -0.4676   1.5195 C.3            1 S1                 0.0000
      5 ****         1.3777   0.1733   0.3042 N.am           1 S1                 0.0000
      6 ****         1.7315   1.4609   0.1860 C.2            1 S1                 0.0000
      7 ****         1.6955   2.2656   1.1175 O.2            1 S1                 0.0000
      8 ****         2.1150   1.7445  -1.0710 N.am           1 S1                 0.0000
      9 ****         2.5335   2.9935  -1.6000 C.2            1 S1                 0.0000
     10 ****         2.6280   4.1218  -0.8868 N.2            1 S1                 0.0000
     11 ****         3.0623   5.1987  -1.6636 C.2            1 S1                 0.0000
     12 ****         3.2952   4.8699  -2.9758 C.2            1 S1                 0.0000
     13 ****         2.9779   3.1843  -3.2897 S.3            1 S1                 0.0000
     14 ****        -1.1158  -1.3616   0.2548 N.3            1 S1                 0.0000
     15 ****        -2.5700  -1.4916   0.1074 C.3            1 S1                 0.0000
     16 ****        -2.9614  -2.0884  -1.2552 C.3            1 S1                 0.0000
     17 ****        -2.3269  -3.3498  -1.4271 O.3            1 S1                 0.0000
     18 ****        -0.9097  -3.2592  -1.3483 C.3            1 S1                 0.0000
     19 ****        -0.5029  -2.6734   0.0144 C.3            1 S1                 0.0000
     20 ****        -0.7060  -0.9244   3.6764 H              1 S1                 0.0000
     21 ****        -0.5661  -2.4429   2.8191 H              1 S1                 0.0000
     22 ****        -2.1119  -1.6037   2.8885 H              1 S1                 0.0000
     23 ****        -0.8495   1.3078   2.4261 H              1 S1                 0.0000
     24 ****        -2.3740   0.6753   1.8650 H              1 S1                 0.0000
     25 ****        -1.2088   1.3009   0.7063 H              1 S1                 0.0000
     26 ****         1.1692   0.1042   2.4014 H              1 S1                 0.0000
     27 ****         1.3956  -1.4182   1.6306 H              1 S1                 0.0000
     28 ****         1.4346  -0.4092  -0.5181 H              1 S1                 0.0000
     29 ****         2.0930   0.9805  -1.7301 H              1 S1                 0.0000
     30 ****         3.1788   6.1672  -1.1997 H              1 S1                 0.0000
     31 ****         3.6327   5.5151  -3.7732 H              1 S1                 0.0000
     32 ****        -2.9741  -2.1244   0.8975 H              1 S1                 0.0000
     33 ****        -3.0586  -0.5230   0.1958 H              1 S1                 0.0000
     34 ****        -4.0416  -2.2224  -1.3136 H              1 S1                 0.0000
     35 ****        -2.6774  -1.4163  -2.0666 H              1 S1                 0.0000
     36 ****        -0.4818  -4.2535  -1.4765 H              1 S1                 0.0000
     37 ****        -0.5308  -2.6400  -2.1631 H              1 S1                 0.0000
     38 ****         0.5833  -2.6071   0.0356 H              1 S1                 0.0000
     39 ****        -0.7928  -3.3741   0.7976 H              1 S1                 0.0000
     40 ****         1.3897   1.9696   2.0224 LP             1 S1                 0.0000
     41 ****         1.9720   3.2151   0.9690 LP             1 S1                 0.0000
     42 ****         2.4130   4.1865   0.0877 LP             1 S1                 0.0000
     43 ****        -0.7835  -0.7247  -0.4409 LP             1 S1                 0.0000
     44 ****        -2.5760  -3.7149  -2.3241 LP             1 S1                 0.0000
     45 ****        -2.6492  -3.9713  -0.7130 LP             1 S1                 0.0000
@<TRIPOS>BOND
    1    1    2 1     
    2    1   20 1     
    3    1   21 1     
    4    1   22 1     
    5    2    3 1     
    6    2    4 1     
    7    2   14 1     
    8    3   23 1     
    9    3   24 1     
   10    3   25 1     
   11    4    5 1     
   12    4   26 1     
   13    4   27 1     
   14    5    6 am    
   15    5   28 1     
   16    6    7 2     
   17    6    8 am    
   18    8    9 1     
   19    8   29 1     
   20    9   13 1     
   21    9   10 2     
   22   10   11 1     
   23   11   12 2     
   24   11   30 1     
   25   12   13 1     
   26   12   31 1     
   27   14   19 1     
   28   14   15 1     
   29   15   16 1     
   30   15   32 1     
   31   15   33 1     
   32   16   17 1     
   33   16   34 1     
   34   16   35 1     
   35   17   18 1     
   36   18   19 1     
   37   18   36 1     
   38   18   37 1     
   39   19   38 1     
   40   19   39 1     
   41    7   40 1     
   42    7   41 1     
   43   10   42 1     
   44   14   43 1     
   45   17   44 1     
   46   17   45 1     
@<TRIPOS>SUBSTRUCTURE
      1 S1             1
@<TRIPOS>SET
LONE_PAIRS      STATIC     ATOMS    <user>   **** ""
6 40 41 42 43 44 45
DONOR_HYDROGENS      STATIC     ATOMS    <user>   **** ""
2 28 29
ATOM$BLUE        STATIC     ATOMS    COLORGROUP SYSTEM
6 40 41 42 43 44 45
ATOM$RED        STATIC     ATOMS    COLORGROUP SYSTEM
2 28 29
