AV-unprocessed.smi:45|AV-procd|sdf|415|dock7
  -GOLD-   2262016283D 1   1.00000     0.00000
 Structure written by MMmdl.
 60 63  0  0  0  0  0  0  0  0  3 V2000
  152.8748  139.7176  158.6565 C   0  0  0  0  0  0  0  0  0  0  0  0
  153.0242  139.2823  157.3131 O   0  0  0  0  0  0  0  0  0  0  0  0
  152.1114  138.3756  156.8151 C   0  0  0  0  0  0  0  0  0  0  0  0
  150.9826  137.9141  157.5392 C   0  0  0  0  0  0  0  0  0  0  0  0
  150.0921  136.9879  156.9628 C   0  0  0  0  0  0  0  0  0  0  0  0
  150.3126  136.5079  155.6567 C   0  0  0  0  0  0  0  0  0  0  0  0
  149.3518  135.5132  155.0371 C   0  0  0  0  0  0  0  0  0  0  0  0
  148.0488  136.0892  154.7387 N   0  0  0  0  0  0  0  0  0  0  0  0
  146.8845  135.3021  154.7156 C   0  0  0  0  0  0  0  0  0  0  0  0
  146.5784  134.6630  153.5636 N   0  0  0  0  0  0  0  0  0  0  0  0
  145.4883  133.8888  153.4837 C   0  0  0  0  0  0  0  0  0  0  0  0
  145.2020  133.2339  152.2866 N   0  0  0  0  0  0  0  0  0  0  0  0
  145.1562  131.7777  152.2104 C   0  0  0  0  0  0  0  0  0  0  0  0
  145.6445  131.4139  150.8092 C   0  0  0  0  0  0  0  0  0  0  0  0
  145.2392  132.6268  149.9820 C   0  0  0  0  0  0  0  0  0  0  0  0
  145.4243  133.8007  150.9548 C   0  0  1  0  0  0  0  0  0  0  0  0
  144.4927  134.9888  150.6336 C   0  0  0  0  0  0  0  0  0  0  0  0
  144.9985  136.1711  151.2168 O   0  0  0  0  0  0  0  0  0  0  0  0
  144.6650  133.7124  154.5288 N   0  3  0  0  0  0  0  0  0  0  0  0
  144.9259  134.3291  155.7069 C   0  0  0  0  0  0  0  0  0  0  0  0
  146.0596  135.1575  155.8587 C   0  0  0  0  0  0  0  0  0  0  0  0
  146.3248  135.8643  157.1640 C   0  0  0  0  0  0  0  0  0  0  0  0
  147.4499  136.3363  157.3607 O   0  0  0  0  0  0  0  0  0  0  0  0
  145.2306  135.8530  157.9752 N   0  5  0  0  0  0  0  0  0  0  0  0
  145.1007  136.6602  159.1897 C   0  0  0  0  0  0  0  0  0  0  0  0
  145.8692  136.0704  160.3670 C   0  0  0  0  0  0  0  0  0  0  0  0
  145.6674  134.7734  160.6321 N   0  0  0  0  0  0  0  0  0  0  0  0
  146.3398  134.2493  161.6798 C   0  0  0  0  0  0  0  0  0  0  0  0
  147.2169  135.0266  162.4627 C   0  0  0  0  0  0  0  0  0  0  0  0
  147.3506  136.3793  162.0903 C   0  0  0  0  0  0  0  0  0  0  0  0
  146.6764  136.8985  161.0413 N   0  0  0  0  0  0  0  0  0  0  0  0
  151.4321  136.9604  154.9318 C   0  0  0  0  0  0  0  0  0  0  0  0
  152.3251  137.8857  155.5071 C   0  0  0  0  0  0  0  0  0  0  0  0
  153.6892  138.4188  154.5910 Cl  0  0  0  0  0  0  0  0  0  0  0  0
  146.4635  134.1316  150.9132 H   0  0  0  0  0  0  0  0  0  0  0  0
  153.6610  140.4351  158.8911 H   0  0  0  0  0  0  0  0  0  0  0  0
  152.9667  138.8872  159.3576 H   0  0  0  0  0  0  0  0  0  0  0  0
  151.9171  140.2172  158.8099 H   0  0  0  0  0  0  0  0  0  0  0  0
  150.7762  138.2551  158.5423 H   0  0  0  0  0  0  0  0  0  0  0  0
  149.2370  136.6458  157.5277 H   0  0  0  0  0  0  0  0  0  0  0  0
  149.7968  135.1315  154.1173 H   0  0  0  0  0  0  0  0  0  0  0  0
  149.2239  134.6628  155.7082 H   0  0  0  0  0  0  0  0  0  0  0  0
  147.9771  137.0857  154.5862 H   0  0  0  0  0  0  0  0  0  0  0  0
  145.7733  131.3015  152.9734 H   0  0  0  0  0  0  0  0  0  0  0  0
  144.1252  131.4537  152.3558 H   0  0  0  0  0  0  0  0  0  0  0  0
  146.7311  131.3154  150.8090 H   0  0  0  0  0  0  0  0  0  0  0  0
  145.2197  130.4804  150.4391 H   0  0  0  0  0  0  0  0  0  0  0  0
  145.8295  132.7356  149.0716 H   0  0  0  0  0  0  0  0  0  0  0  0
  144.1917  132.5306  149.6918 H   0  0  0  0  0  0  0  0  0  0  0  0
  144.3996  135.1298  149.5561 H   0  0  0  0  0  0  0  0  0  0  0  0
  143.4874  134.8307  151.0217 H   0  0  0  0  0  0  0  0  0  0  0  0
  144.8660  136.8867  150.6134 H   0  0  0  0  0  0  0  0  0  0  0  0
  144.2097  134.1417  156.4942 H   0  0  0  0  0  0  0  0  0  0  0  0
  145.4736  137.6715  159.0225 H   0  0  0  0  0  0  0  0  0  0  0  0
  144.0567  136.7970  159.4783 H   0  0  0  0  0  0  0  0  0  0  0  0
  146.1779  133.2033  161.8942 H   0  0  0  0  0  0  0  0  0  0  0  0
  147.7559  134.6094  163.3001 H   0  0  0  0  0  0  0  0  0  0  0  0
  148.0017  137.0467  162.6350 H   0  0  0  0  0  0  0  0  0  0  0  0
  151.6115  136.5973  153.9303 H   0  0  0  0  0  0  0  0  0  0  0  0
  143.8399  133.1184  154.4491 H   0  0  0  0  0  0  0  0  0  0  0  0
  1  2  1  0  0  0  0
  1 36  1  0  0  0  0
  1 37  1  0  0  0  0
  1 38  1  0  0  0  0
  2  3  1  0  0  0  0
  3 33  1  0  0  0  0
  3  4  2  0  0  0  0
  4  5  1  0  0  0  0
  4 39  1  0  0  0  0
  5  6  2  0  0  0  0
  5 40  1  0  0  0  0
  6  7  1  0  0  0  0
  6 32  1  0  0  0  0
  7  8  1  0  0  0  0
  7 41  1  0  0  0  0
  7 42  1  0  0  0  0
  8  9  1  0  0  0  0
  8 43  1  0  0  0  0
  9 21  1  0  0  0  0
  9 10  2  0  0  0  0
 10 11  1  0  0  0  0
 11 12  1  0  0  0  0
 11 19  2  0  0  0  0
 12 16  1  0  0  0  0
 12 13  1  0  0  0  0
 13 14  1  0  0  0  0
 13 44  1  0  0  0  0
 13 45  1  0  0  0  0
 14 15  1  0  0  0  0
 14 46  1  0  0  0  0
 14 47  1  0  0  0  0
 15 16  1  0  0  0  0
 15 48  1  0  0  0  0
 15 49  1  0  0  0  0
 16 35  1  0  0  0  0
 16 17  1  0  0  0  0
 17 18  1  0  0  0  0
 17 50  1  0  0  0  0
 17 51  1  0  0  0  0
 18 52  1  0  0  0  0
 19 20  1  0  0  0  0
 19 60  1  0  0  0  0
 20 21  2  0  0  0  0
 20 53  1  0  0  0  0
 21 22  1  0  0  0  0
 22 23  2  0  0  0  0
 22 24  1  0  0  0  0
 24 25  1  0  0  0  0
 25 26  1  0  0  0  0
 25 54  1  0  0  0  0
 25 55  1  0  0  0  0
 26 31  1  0  0  0  0
 26 27  2  0  0  0  0
 27 28  1  0  0  0  0
 28 29  2  0  0  0  0
 28 56  1  0  0  0  0
 29 30  1  0  0  0  0
 29 57  1  0  0  0  0
 30 31  2  0  0  0  0
 30 58  1  0  0  0  0
 32 33  2  0  0  0  0
 32 59  1  0  0  0  0
 33 34  1  0  0  0  0
M  CHG  1  19   1
M  CHG  1  24  -1
M  END
> <s_m_source_file>
AV-unprocessed.smi

> <i_m_source_file_index>
45

> <i_lp_mmshare_version>
43012

> <i_f3d_flags>
0

> <s_epik_input>
W0NIM11PYzFbY0hdW2NIXWMoW2NIXWMxQ2wpW0NIMl1bTkhdYzJuYyhOM1tDSDJdW0NIMl1bQ0gyXVtDQEhdM1tDSDJdW09IXSluW2NIXWMyQyg9TylbTkhdW0NIMl1jNG5bY0hdW2NIXVtjSF1uNA==

> <s_epik_cmdline>
J2VwaWtfcHl0aG9uJywgJy1waCcsICc3LjAnLCAnLXRuJywgJzgnLCAnLW1hJywgJzIwMCcsICctbWV0YWxfYmluZGluZycsICctaW1hZScsICc8aW5maWxlLm1hZT4nLCAnLW9tYWUnLCAnPG91dGZpbGUubWFlPic=

> <r_lp_tautomer_probability>
0.575011

> <r_epik_Ionization_Penalty>
6.73124

> <r_epik_Ionization_Penalty_Charging>
6.73106

> <r_epik_Ionization_Penalty_Neutral>
0.000179426

> <r_epik_State_Penalty>
8.26145

> <r_epik_Charging_Adjusted_Penalty>
14.9925

> <i_epik_Tot_Q>
0

> <i_epik_Tot_abs_Q>
2

> <r_epik_Metal_State_Penalty>
4.22532

> <b_epik_Metal_Only>
1

> <s_epik_Chemistry_Notes>
This compound contains an electron-poor aromatic ring that is susceptible to covalent hydrolysis at low pH, typically resulting in measured values for nitrogen ring protonation that are around two units higher than predicted values.

> <s_lp_Force_Field>
OPLS_2005

> <r_lp_Energy>
44.6193

> <b_lp_Chiralities_Consistent>
1

> <s_lp_Variant>
AV-unprocessed.smi:45-9

> <Gold.Version>
5.8.1

> <Gold.Id.Protein>
6NUR|6NUR_protein|mol2

> <Gold.PLP.Fitness>
53.0555

> <Gold.PLP.PLP>
-42.0735

> <Gold.PLP.part.hbond>
-5.0000

> <Gold.PLP.part.metal>
0.0000

> <Gold.PLP.part.buried>
-4.1762

> <Gold.PLP.part.nonpolar>
-32.8035

> <Gold.PLP.part.repulsive>
0.0948

> <Gold.PLP.ligand.clash>
0.0129

> <Gold.PLP.ligand.torsion>
2.4490

> <Gold.PLP.Chemscore.Hbond>
5.0000

> <Gold.PLP.Chemscore.CHOScore>
0.0000

> <Gold.PLP.Chemscore.Metal>
0.0000

> <Gold.Chemscore.Hbonds>
donor molecule, donor type, donor heavy atom, donor atom, acceptor molecule, acceptor atom, score
      L1  H    18    52       P1 10171  0.78
      L1  H    19    60       P1 10957  2.00
      P1  H  6934  6947       L1    31  0.62
      P1  H  7997  8008       L1     2  1.00

> <Gold.PLP.Chemscore.Internal.Correction>
0.8929

> <Gold.Rescore>
     Score         DG    S(hbond)    S(metal)    S(lipo)     H(rot)  DE(clash)    DE(int)     intcor
     16.48     -23.22       3.72        0.00     108.87       2.90       1.54       5.20       ----

> <Gold.Chemscore.Fitness>
16.4755

> <Gold.Chemscore.DG>
-23.2189

> <Gold.Chemscore.ZeroCoef>
-5.4800

> <Gold.Chemscore.Hbond>
3.7190

> <Gold.Chemscore.Metal>
0.0000

> <Gold.Chemscore.Lipo>
108.8745

> <Gold.Chemscore.Internal_Hbond>
0.0000

> <Gold.Chemscore.DEClash>
1.5411

> <Gold.Chemscore.DEInternal>
5.2022

> <Gold.Chemscore.Rot>
2.8988

> <Gold.Chemscore.Internal.Correction>
   9.000000E+99

> <Gold.Chemscore.Hbonds>
donor molecule, donor type, donor heavy atom, donor atom, acceptor molecule, acceptor atom, score
      L1  H    18    52       P1 10171  0.76
      L1  H    19    60       P1 10957  0.99
      P1  H  6934  6947       L1    31  0.38
      P1  H  7997  8008       L1     2  0.30

> <Gold.Chemscore.Hbond.Weighted>
-12.4214

> <Gold.Chemscore.Metal.Weighted>
-0.0000

> <Gold.Chemscore.Lipo.Weighted>
-12.7383

> <Gold.Chemscore.Internal_Hbond.Weighted>
0.0000

> <Gold.Chemscore.DEClash.Weighted>
1.5411

> <Gold.Chemscore.DEInternal.Weighted>
5.2022

> <Gold.Chemscore.Rot.Weighted>
7.4209

> <Gold.Chemscore.Internal.Correction.Weighted>
   9.000000E+99

> <Gold.Protein.RotatedTorsions>
[ 6907 6896 6895 6894 ] final  138.21 input  -60.11 | X-H torsion
[ 7974 7965 7964 7962 ] final  164.56 input  175.53 | X-H torsion
[ 8008 7997 7996 7995 ] final  -77.23 input   59.86 | X-H torsion
[ 10167 10162 10161 10158 ] final   48.04 input  -65.29 | X-H torsion
[ 10718 10713 10712 10709 ] final  -48.85 input   66.30 | X-H torsion
[ 10763 10752 10751 10750 ] final  -20.36 input  -60.55 | X-H torsion
[ 11005 11000 10999 10996 ] final   38.11 input  -57.11 | X-H torsion

> <Gold.Protein.ActiveResidues>
 VAL166  LYS551  ARG553  GLY616  TRP617  ASP618  TYR619  PRO620  LYS621  CYS622 
 ASP623  PHE694  ASN695  SER759  ASP760  ASP761  ALA762  ILE779  LEU786  VAL792 
 PHE793  MET794  SER795  GLU796  ALA797  LYS798  CYS799  TRP800  GLU811  SER814 

> <Gold.Protein.RotatedAtoms>
  152.2693  133.5367  159.5428 H   0  0  0  0  0  0  0  0  0  0  0  0  # atno 6907 bound_to 6896
  150.7153  134.0721  159.3877 H   0  0  0  0  0  0  0  0  0  0  0  0  # atno 6908 bound_to 6896
  151.8636  135.0515  160.0522 H   0  0  0  0  0  0  0  0  0  0  0  0  # atno 6909 bound_to 6896
  144.7540  139.8344  143.6356 H   0  0  0  0  0  0  0  0  0  0  0  0  # atno 7974 bound_to 7965
  154.5577  140.0714  156.8770 H   0  0  0  0  0  0  0  0  0  0  0  0  # atno 8008 bound_to 7997
  155.2870  140.3375  155.4236 H   0  0  0  0  0  0  0  0  0  0  0  0  # atno 8009 bound_to 7997
  156.2016  140.1724  156.7873 H   0  0  0  0  0  0  0  0  0  0  0  0  # atno 8010 bound_to 7997
  140.2974  144.2974  150.6226 H   0  0  0  0  0  0  0  0  0  0  0  0  # atno 10167 bound_to 10162
  156.1948  130.4154  149.9321 H   0  0  0  0  0  0  0  0  0  0  0  0  # atno 10718 bound_to 10713
  153.6192  135.6993  153.5317 H   0  0  0  0  0  0  0  0  0  0  0  0  # atno 10763 bound_to 10752
  153.2952  135.4145  155.1202 H   0  0  0  0  0  0  0  0  0  0  0  0  # atno 10764 bound_to 10752
  154.8547  135.3635  154.5732 H   0  0  0  0  0  0  0  0  0  0  0  0  # atno 10765 bound_to 10752
  140.2159  134.3699  155.8027 H   0  0  0  0  0  0  0  0  0  0  0  0  # atno 11005 bound_to 11000
  146.1527  139.4615  143.0039 LP  0  0  0  0  0  0  0  0  0  0  0  0  # atno 17320 bound_to 7965
  145.6844  141.0182  143.1589 LP  0  0  0  0  0  0  0  0  0  0  0  0  # atno 17321 bound_to 7965
  140.5680  143.2184  151.7649 LP  0  0  0  0  0  0  0  0  0  0  0  0  # atno 17342 bound_to 10162
  139.4923  144.4256  151.9929 LP  0  0  0  0  0  0  0  0  0  0  0  0  # atno 17343 bound_to 10162
  156.7049  130.8947  151.3603 LP  0  0  0  0  0  0  0  0  0  0  0  0  # atno 17370 bound_to 10713
  157.6951  130.9273  150.0622 LP  0  0  0  0  0  0  0  0  0  0  0  0  # atno 17371 bound_to 10713
  141.2225  133.7167  156.8495 LP  0  0  0  0  0  0  0  0  0  0  0  0  # atno 17394 bound_to 11000
  140.1901  134.8972  157.3050 LP  0  0  0  0  0  0  0  0  0  0  0  0  # atno 17395 bound_to 11000

$$$$
