AV-unprocessed.smi:2872|AV-procd|sdf|11035|dock7
  -GOLD-   2272015503D 1   1.00000     0.00000
 Structure written by MMmdl.
 40 42  0  0  0  0  0  0  0  0  2 V2000
  150.2260  135.4452  156.0856 O   0  0  0  0  0  0  0  0  0  0  0  0
  150.4397  135.2581  154.8889 C   0  0  0  0  0  0  0  0  0  0  0  0
  150.9269  136.1877  154.0548 N   0  0  0  0  0  0  0  0  0  0  0  0
  151.3254  137.5363  154.4474 C   0  0  0  0  0  0  0  0  0  0  0  0
  150.2501  138.5707  154.2928 C   0  0  0  0  0  0  0  0  0  0  0  0
  149.1759  138.5228  153.4517 N   0  3  0  0  0  0  0  0  0  0  0  0
  148.4064  139.6775  153.5960 C   0  0  0  0  0  0  0  0  0  0  0  0
  147.2353  140.0792  152.9609 C   0  0  0  0  0  0  0  0  0  0  0  0
  146.7062  141.3303  153.3414 C   0  0  0  0  0  0  0  0  0  0  0  0
  147.3385  142.1288  154.3169 C   0  0  0  0  0  0  0  0  0  0  0  0
  148.5243  141.7095  154.9554 C   0  0  0  0  0  0  0  0  0  0  0  0
  149.0389  140.4708  154.5741 C   0  0  0  0  0  0  0  0  0  0  0  0
  150.1649  139.7463  154.9792 N   0  0  0  0  0  0  0  0  0  0  0  0
  151.0449  140.3076  156.0117 C   0  0  0  0  0  0  0  0  0  0  0  0
  150.3214  140.4750  157.3531 C   0  0  0  0  0  0  0  0  0  0  0  0
  151.2815  140.8261  158.3387 O   0  0  0  0  0  0  0  0  0  0  0  0
  151.6574  142.1481  158.4410 C   0  0  0  0  0  0  0  0  0  0  0  0
  152.4272  142.5084  159.5665 C   0  0  0  0  0  0  0  0  0  0  0  0
  152.8559  143.8368  159.7521 C   0  0  0  0  0  0  0  0  0  0  0  0
  152.5165  144.8234  158.8081 C   0  0  0  0  0  0  0  0  0  0  0  0
  151.7482  144.4788  157.6806 C   0  0  0  0  0  0  0  0  0  0  0  0
  151.3198  143.1495  157.4951 C   0  0  0  0  0  0  0  0  0  0  0  0
  150.2550  134.3110  154.3590 H   0  0  0  0  0  0  0  0  0  0  0  0
  151.0625  135.9339  153.0867 H   0  0  0  0  0  0  0  0  0  0  0  0
  151.6776  137.5405  155.4803 H   0  0  0  0  0  0  0  0  0  0  0  0
  152.1764  137.8256  153.8303 H   0  0  0  0  0  0  0  0  0  0  0  0
  146.7500  139.4694  152.2129 H   0  0  0  0  0  0  0  0  0  0  0  0
  145.7983  141.6849  152.8753 H   0  0  0  0  0  0  0  0  0  0  0  0
  146.9055  143.0826  154.5814 H   0  0  0  0  0  0  0  0  0  0  0  0
  149.0019  142.3286  155.7006 H   0  0  0  0  0  0  0  0  0  0  0  0
  151.9226  139.6684  156.1141 H   0  0  0  0  0  0  0  0  0  0  0  0
  151.4054  141.2732  155.6556 H   0  0  0  0  0  0  0  0  0  0  0  0
  149.5640  141.2561  157.2687 H   0  0  0  0  0  0  0  0  0  0  0  0
  149.8237  139.5434  157.6265 H   0  0  0  0  0  0  0  0  0  0  0  0
  152.6918  141.7572  160.2963 H   0  0  0  0  0  0  0  0  0  0  0  0
  153.4451  144.0981  160.6187 H   0  0  0  0  0  0  0  0  0  0  0  0
  152.8444  145.8428  158.9487 H   0  0  0  0  0  0  0  0  0  0  0  0
  151.4868  145.2354  156.9556 H   0  0  0  0  0  0  0  0  0  0  0  0
  150.7325  142.9246  156.6179 H   0  0  0  0  0  0  0  0  0  0  0  0
  148.9852  137.7492  152.8277 H   0  0  0  0  0  0  0  0  0  0  0  0
  1  2  2  0  0  0  0
  2  3  1  0  0  0  0
  2 23  1  0  0  0  0
  3  4  1  0  0  0  0
  3 24  1  0  0  0  0
  4  5  1  0  0  0  0
  4 25  1  0  0  0  0
  4 26  1  0  0  0  0
  5 13  1  0  0  0  0
  5  6  2  0  0  0  0
  6  7  1  0  0  0  0
  6 40  1  0  0  0  0
  7 12  2  0  0  0  0
  7  8  1  0  0  0  0
  8  9  2  0  0  0  0
  8 27  1  0  0  0  0
  9 10  1  0  0  0  0
  9 28  1  0  0  0  0
 10 11  2  0  0  0  0
 10 29  1  0  0  0  0
 11 12  1  0  0  0  0
 11 30  1  0  0  0  0
 12 13  1  0  0  0  0
 13 14  1  0  0  0  0
 14 15  1  0  0  0  0
 14 31  1  0  0  0  0
 14 32  1  0  0  0  0
 15 16  1  0  0  0  0
 15 33  1  0  0  0  0
 15 34  1  0  0  0  0
 16 17  1  0  0  0  0
 17 22  1  0  0  0  0
 17 18  2  0  0  0  0
 18 19  1  0  0  0  0
 18 35  1  0  0  0  0
 19 20  2  0  0  0  0
 19 36  1  0  0  0  0
 20 21  1  0  0  0  0
 20 37  1  0  0  0  0
 21 22  2  0  0  0  0
 21 38  1  0  0  0  0
 22 39  1  0  0  0  0
M  CHG  1   6   1
M  END
> <s_m_source_file>
AV-unprocessed.smi

> <i_m_source_file_index>
2872

> <i_lp_mmshare_version>
43012

> <i_f3d_flags>
0

> <s_epik_input>
Tz1bQ0hdW05IXVtDSDJdYyhuMSluKGMoYzEyKVtjSF1bY0hdW2NIXVtjSF0yKVtDSDJdW0NIMl1PYzNbY0hdW2NIXVtjSF1bY0hdW2NIXTM=

> <s_epik_cmdline>
J2VwaWtfcHl0aG9uJywgJy1waCcsICc3LjAnLCAnLXRuJywgJzgnLCAnLW1hJywgJzIwMCcsICctbWV0YWxfYmluZGluZycsICctaW1hZScsICc8aW5maWxlLm1hZT4nLCAnLW9tYWUnLCAnPG91dGZpbGUubWFlPic=

> <r_lp_tautomer_probability>
1

> <r_epik_Ionization_Penalty>
1.33318

> <r_epik_Ionization_Penalty_Charging>
1.33318

> <r_epik_Ionization_Penalty_Neutral>
7.38905e-08

> <r_epik_State_Penalty>
1.40978

> <r_epik_Charging_Adjusted_Penalty>
2.74296

> <i_epik_Tot_Q>
1

> <i_epik_Tot_abs_Q>
1

> <r_epik_Metal_State_Penalty>
1.46995

> <b_epik_Metal_Only>
0

> <s_lp_Force_Field>
OPLS_2005

> <r_lp_Energy>
15.6009

> <b_lp_Chiralities_Consistent>
1

> <s_lp_Variant>
AV-unprocessed.smi:2872-2

> <Gold.Version>
5.8.1

> <Gold.Id.Protein>
6NUR|6NUR_protein|mol2

> <Gold.PLP.Fitness>
57.5703

> <Gold.PLP.PLP>
-49.9861

> <Gold.PLP.part.hbond>
-4.0000

> <Gold.PLP.part.metal>
0.0000

> <Gold.PLP.part.buried>
0.6369

> <Gold.PLP.part.nonpolar>
-47.8930

> <Gold.PLP.part.repulsive>
0.6878

> <Gold.PLP.ligand.clash>
0.0000

> <Gold.PLP.ligand.torsion>
0.7734

> <Gold.PLP.Chemscore.Hbond>
3.0000

> <Gold.PLP.Chemscore.CHOScore>
0.0000

> <Gold.PLP.Chemscore.Metal>
0.0000

> <Gold.Chemscore.Hbonds>
donor molecule, donor type, donor heavy atom, donor atom, acceptor molecule, acceptor atom, score
      L1  H     3    24       P1  7949  0.95
      L1  H     6    40       P1  7948  2.00

> <Gold.PLP.Chemscore.Internal.Correction>
0.1311

> <Gold.Rescore>
     Score         DG    S(hbond)    S(metal)    S(lipo)     H(rot)  DE(clash)    DE(int)     intcor
     16.92     -19.39       1.44        0.00     132.04       2.49       1.89       0.58       ----

> <Gold.Chemscore.Fitness>
16.9199

> <Gold.Chemscore.DG>
-19.3921

> <Gold.Chemscore.ZeroCoef>
-5.4800

> <Gold.Chemscore.Hbond>
1.4449

> <Gold.Chemscore.Metal>
0.0000

> <Gold.Chemscore.Lipo>
132.0415

> <Gold.Chemscore.Internal_Hbond>
0.0000

> <Gold.Chemscore.DEClash>
1.8912

> <Gold.Chemscore.DEInternal>
0.5810

> <Gold.Chemscore.Rot>
2.4854

> <Gold.Chemscore.Internal.Correction>
   9.000000E+99

> <Gold.Chemscore.Hbonds>
donor molecule, donor type, donor heavy atom, donor atom, acceptor molecule, acceptor atom, score
      L1  H     3    24       P1  7949  0.21
      L1  H     6    40       P1  7948  1.00

> <Gold.Chemscore.Hbond.Weighted>
-4.8259

> <Gold.Chemscore.Metal.Weighted>
-0.0000

> <Gold.Chemscore.Lipo.Weighted>
-15.4489

> <Gold.Chemscore.Internal_Hbond.Weighted>
0.0000

> <Gold.Chemscore.DEClash.Weighted>
1.8912

> <Gold.Chemscore.DEInternal.Weighted>
0.5810

> <Gold.Chemscore.Rot.Weighted>
6.3627

> <Gold.Chemscore.Internal.Correction.Weighted>
   9.000000E+99

> <Gold.Protein.RotatedTorsions>
[ 6907 6896 6895 6894 ] final -162.18 input  -60.11 | X-H torsion
[ 7974 7965 7964 7962 ] final  164.04 input  175.53 | X-H torsion
[ 8008 7997 7996 7995 ] final  149.55 input   59.86 | X-H torsion
[ 10167 10162 10161 10158 ] final  -96.46 input  -65.29 | X-H torsion
[ 10718 10713 10712 10709 ] final -170.26 input   66.30 | X-H torsion
[ 10763 10752 10751 10750 ] final -158.44 input  -60.55 | X-H torsion
[ 11005 11000 10999 10996 ] final -133.10 input  -57.11 | X-H torsion

> <Gold.Protein.ActiveResidues>
 VAL166  LYS551  ARG553  GLY616  TRP617  ASP618  TYR619  PRO620  LYS621  CYS622 
 ASP623  PHE694  ASN695  SER759  ASP760  ASP761  ALA762  ILE779  LEU786  VAL792 
 PHE793  MET794  SER795  GLU796  ALA797  LYS798  CYS799  TRP800  GLU811  SER814 

> <Gold.Protein.RotatedAtoms>
  151.3763  133.3837  159.2704 H   0  0  0  0  0  0  0  0  0  0  0  0  # atno 6907 bound_to 6896
  150.9612  134.9000  159.7742 H   0  0  0  0  0  0  0  0  0  0  0  0  # atno 6908 bound_to 6896
  152.5150  134.3722  159.9374 H   0  0  0  0  0  0  0  0  0  0  0  0  # atno 6909 bound_to 6896
  144.7562  139.8269  143.6349 H   0  0  0  0  0  0  0  0  0  0  0  0  # atno 7974 bound_to 7965
  156.2750  140.2098  156.5876 H   0  0  0  0  0  0  0  0  0  0  0  0  # atno 8008 bound_to 7997
  154.7008  140.0521  157.0479 H   0  0  0  0  0  0  0  0  0  0  0  0  # atno 8009 bound_to 7997
  155.0737  140.3179  155.4625 H   0  0  0  0  0  0  0  0  0  0  0  0  # atno 8010 bound_to 7997
  140.2936  143.3206  152.0321 H   0  0  0  0  0  0  0  0  0  0  0  0  # atno 10167 bound_to 10162
  156.7235  130.9279  151.3099 H   0  0  0  0  0  0  0  0  0  0  0  0  # atno 10718 bound_to 10713
  154.7556  135.3104  154.8476 H   0  0  0  0  0  0  0  0  0  0  0  0  # atno 10763 bound_to 10752
  153.9250  135.6791  153.4751 H   0  0  0  0  0  0  0  0  0  0  0  0  # atno 10764 bound_to 10752
  153.1154  135.4847  154.9035 H   0  0  0  0  0  0  0  0  0  0  0  0  # atno 10765 bound_to 10752
  140.9111  134.1567  157.4389 H   0  0  0  0  0  0  0  0  0  0  0  0  # atno 11005 bound_to 11000
  146.1575  139.4678  143.0009 LP  0  0  0  0  0  0  0  0  0  0  0  0  # atno 17320 bound_to 7965
  145.6770  141.0201  143.1627 LP  0  0  0  0  0  0  0  0  0  0  0  0  # atno 17321 bound_to 7965
  139.4932  144.6507  151.6681 LP  0  0  0  0  0  0  0  0  0  0  0  0  # atno 17342 bound_to 10162
  140.5711  144.0106  150.6217 LP  0  0  0  0  0  0  0  0  0  0  0  0  # atno 17343 bound_to 10162
  157.6888  130.9212  150.0458 LP  0  0  0  0  0  0  0  0  0  0  0  0  # atno 17370 bound_to 10713
  156.1578  130.3643  149.9344 LP  0  0  0  0  0  0  0  0  0  0  0  0  # atno 17371 bound_to 10713
  139.8757  134.9936  156.5651 LP  0  0  0  0  0  0  0  0  0  0  0  0  # atno 17394 bound_to 11000
  140.8109  133.8430  155.8809 LP  0  0  0  0  0  0  0  0  0  0  0  0  # atno 17395 bound_to 11000

$$$$
