AV-unprocessed.smi:763|AV-procd|sdf|3635|dock2
  -GOLD-   22720 1 33D 1   1.00000     0.00000
 Structure written by MMmdl.
 44 45  0  0  0  0  0  0  0  0  1 V2000
  150.1399  141.2431  155.5840 C   0  0  0  0  0  0  0  0  0  0  0  0
  150.7581  140.1363  154.9469 O   0  0  0  0  0  0  0  0  0  0  0  0
  150.3131  138.8741  155.4242 C   0  0  0  0  0  0  0  0  0  0  0  0
  151.0434  137.7102  154.7396 C   0  0  0  0  0  0  0  0  0  0  0  0
  150.0858  136.6954  154.4620 O   0  0  0  0  0  0  0  0  0  0  0  0
  150.1565  135.4955  155.1397 C   0  0  0  0  0  0  0  0  0  0  0  0
  151.1019  135.3697  156.1059 N   0  0  0  0  0  0  0  0  0  0  0  0
  151.2077  134.1956  156.7606 C   0  0  0  0  0  0  0  0  0  0  0  0
  150.3873  133.0864  156.4880 C   0  0  0  0  0  0  0  0  0  0  0  0
  149.4055  133.2143  155.4889 C   0  0  0  0  0  0  0  0  0  0  0  0
  149.2718  134.4381  154.8014 C   0  0  0  0  0  0  0  0  0  0  0  0
  148.2785  134.5364  153.8181 N   0  0  0  0  0  0  0  0  0  0  0  0
  147.1266  133.3492  153.2885 S   0  0  0  0  0  0  0  0  0  0  0  0
  147.8230  132.0552  153.3677 O   0  0  0  0  0  0  0  0  0  0  0  0
  145.9143  133.6032  154.0817 O   0  0  0  0  0  0  0  0  0  0  0  0
  146.8782  133.8256  151.4994 C   0  0  1  0  0  0  0  0  0  0  0  0
  146.4008  132.6154  150.6707 C   0  0  0  0  0  0  0  0  0  0  0  0
  144.9442  132.2374  150.9920 C   0  0  0  0  0  0  0  0  0  0  0  0
  144.0005  133.4278  150.7552 C   0  0  0  0  0  0  0  0  0  0  0  0
  144.4352  134.6627  151.5613 C   0  0  0  0  0  0  0  0  0  0  0  0
  145.9115  135.0172  151.2860 C   0  0  1  0  0  0  0  0  0  0  0  0
  146.3086  136.1380  152.0485 O   0  0  0  0  0  0  0  0  0  0  0  0
  150.4908  142.1674  155.1253 H   0  0  0  0  0  0  0  0  0  0  0  0
  150.3832  141.2885  156.6453 H   0  0  0  0  0  0  0  0  0  0  0  0
  149.0554  141.2070  155.4744 H   0  0  0  0  0  0  0  0  0  0  0  0
  150.4008  138.8100  156.5100 H   0  0  0  0  0  0  0  0  0  0  0  0
  149.2489  138.8025  155.1972 H   0  0  0  0  0  0  0  0  0  0  0  0
  151.5013  138.0585  153.8124 H   0  0  0  0  0  0  0  0  0  0  0  0
  151.8304  137.3185  155.3850 H   0  0  0  0  0  0  0  0  0  0  0  0
  151.9717  134.1378  157.5216 H   0  0  0  0  0  0  0  0  0  0  0  0
  150.5070  132.1617  157.0328 H   0  0  0  0  0  0  0  0  0  0  0  0
  148.7577  132.3811  155.2589 H   0  0  0  0  0  0  0  0  0  0  0  0
  148.3747  135.3346  153.2080 H   0  0  0  0  0  0  0  0  0  0  0  0
  147.8639  134.1044  151.1261 H   0  0  0  0  0  0  0  0  0  0  0  0
  146.4788  132.8552  149.6096 H   0  0  0  0  0  0  0  0  0  0  0  0
  147.0565  131.7591  150.8285 H   0  0  0  0  0  0  0  0  0  0  0  0
  144.6363  131.3946  150.3725 H   0  0  0  0  0  0  0  0  0  0  0  0
  144.8633  131.9029  152.0268 H   0  0  0  0  0  0  0  0  0  0  0  0
  143.9875  133.6743  149.6927 H   0  0  0  0  0  0  0  0  0  0  0  0
  142.9793  133.1521  151.0197 H   0  0  0  0  0  0  0  0  0  0  0  0
  143.7975  135.5079  151.2999 H   0  0  0  0  0  0  0  0  0  0  0  0
  144.2633  134.4786  152.6202 H   0  0  0  0  0  0  0  0  0  0  0  0
  145.9859  135.3204  150.2407 H   0  0  0  0  0  0  0  0  0  0  0  0
  147.2159  136.3235  151.8605 H   0  0  0  0  0  0  0  0  0  0  0  0
  1  2  1  0  0  0  0
  1 23  1  0  0  0  0
  1 24  1  0  0  0  0
  1 25  1  0  0  0  0
  2  3  1  0  0  0  0
  3  4  1  0  0  0  0
  3 26  1  0  0  0  0
  3 27  1  0  0  0  0
  4  5  1  0  0  0  0
  4 28  1  0  0  0  0
  4 29  1  0  0  0  0
  5  6  1  0  0  0  0
  6 11  1  0  0  0  0
  6  7  2  0  0  0  0
  7  8  1  0  0  0  0
  8  9  2  0  0  0  0
  8 30  1  0  0  0  0
  9 10  1  0  0  0  0
  9 31  1  0  0  0  0
 10 11  2  0  0  0  0
 10 32  1  0  0  0  0
 11 12  1  0  0  0  0
 12 13  1  0  0  0  0
 12 33  1  0  0  0  0
 13 14  2  0  0  0  0
 13 15  2  0  0  0  0
 13 16  1  0  0  0  0
 16 21  1  0  0  0  0
 16 17  1  0  0  0  0
 16 34  1  0  0  0  0
 17 18  1  0  0  0  0
 17 35  1  0  0  0  0
 17 36  1  0  0  0  0
 18 19  1  0  0  0  0
 18 37  1  0  0  0  0
 18 38  1  0  0  0  0
 19 20  1  0  0  0  0
 19 39  1  0  0  0  0
 19 40  1  0  0  0  0
 20 21  1  0  0  0  0
 20 41  1  0  0  0  0
 20 42  1  0  0  0  0
 21 22  1  0  0  0  0
 21 43  1  0  0  0  0
 22 44  1  0  0  0  0
M  END
> <s_m_source_file>
AV-unprocessed.smi

> <i_m_source_file_index>
763

> <i_lp_mmshare_version>
43012

> <i_f3d_flags>
0

> <s_epik_input>
W0NIM11PW0NIMl1bQ0gyXU9jMW5bY0hdW2NIXVtjSF1jMVtOSF1TKD1PKSg9TylbQ0BASF0yW0NIMl1bQ0gyXVtDSDJdW0NIMl1bQ0BIXTJbT0hd

> <s_epik_cmdline>
J2VwaWtfcHl0aG9uJywgJy1waCcsICc3LjAnLCAnLXRuJywgJzgnLCAnLW1hJywgJzIwMCcsICctbWV0YWxfYmluZGluZycsICctaW1hZScsICc8aW5maWxlLm1hZT4nLCAnLW9tYWUnLCAnPG91dGZpbGUubWFlPic=

> <r_epik_Ionization_Penalty>
0.124685

> <r_epik_Ionization_Penalty_Charging>
0

> <r_epik_Ionization_Penalty_Neutral>
0.124685

> <r_epik_State_Penalty>
0.114154

> <r_epik_Charging_Adjusted_Penalty>
0.114154

> <i_epik_Tot_Q>
0

> <i_epik_Tot_abs_Q>
0

> <r_epik_Metal_State_Penalty>
0.443785

> <b_epik_Metal_Only>
0

> <s_lp_Force_Field>
OPLS_2005

> <r_lp_Energy>
7.3887

> <b_lp_Chiralities_Consistent>
1

> <s_lp_Variant>
AV-unprocessed.smi:763-2

> <Gold.Version>
5.8.1

> <Gold.Id.Protein>
6NUR|6NUR_protein|mol2

> <Gold.PLP.Fitness>
44.0630

> <Gold.PLP.PLP>
-34.8819

> <Gold.PLP.part.hbond>
-4.0000

> <Gold.PLP.part.metal>
0.0000

> <Gold.PLP.part.buried>
-5.3639

> <Gold.PLP.part.nonpolar>
-27.6099

> <Gold.PLP.part.repulsive>
2.7393

> <Gold.PLP.ligand.clash>
0.0000

> <Gold.PLP.ligand.torsion>
2.1157

> <Gold.PLP.Chemscore.Hbond>
4.0000

> <Gold.PLP.Chemscore.CHOScore>
0.0000

> <Gold.PLP.Chemscore.Metal>
0.0000

> <Gold.Chemscore.Hbonds>
donor molecule, donor type, donor heavy atom, donor atom, acceptor molecule, acceptor atom, score
      L1  H    12    33       P1  7948  1.00
      L1  H    22    44       P1  7948  1.00
      P1  H  7989  7998       L1     2  1.00
      P1  H 10752 10765       L1     7  0.37

> <Gold.PLP.Chemscore.Internal.Correction>
1.4125

> <Gold.Rescore>
     Score         DG    S(hbond)    S(metal)    S(lipo)     H(rot)  DE(clash)    DE(int)     intcor
     12.19     -18.27       2.86        0.00      80.36       2.41       2.92       3.15       ----

> <Gold.Chemscore.Fitness>
12.1929

> <Gold.Chemscore.DG>
-18.2667

> <Gold.Chemscore.ZeroCoef>
-5.4800

> <Gold.Chemscore.Hbond>
2.8567

> <Gold.Chemscore.Metal>
0.0000

> <Gold.Chemscore.Lipo>
80.3644

> <Gold.Chemscore.Internal_Hbond>
0.0000

> <Gold.Chemscore.DEClash>
2.9240

> <Gold.Chemscore.DEInternal>
3.1497

> <Gold.Chemscore.Rot>
2.4052

> <Gold.Chemscore.Internal.Correction>
   9.000000E+99

> <Gold.Chemscore.Hbonds>
donor molecule, donor type, donor heavy atom, donor atom, acceptor molecule, acceptor atom, score
      L1  H    12    33       P1  7948  0.96
      L1  H    22    44       P1  7948  1.00
      P1  H  7989  7998       L1     2  0.45
      P1  H 10752 10765       L1     7  0.05

> <Gold.Chemscore.Hbond.Weighted>
-9.5415

> <Gold.Chemscore.Metal.Weighted>
-0.0000

> <Gold.Chemscore.Lipo.Weighted>
-9.4026

> <Gold.Chemscore.Internal_Hbond.Weighted>
0.0000

> <Gold.Chemscore.DEClash.Weighted>
2.9240

> <Gold.Chemscore.DEInternal.Weighted>
3.1497

> <Gold.Chemscore.Rot.Weighted>
6.1574

> <Gold.Chemscore.Internal.Correction.Weighted>
   9.000000E+99

> <Gold.Protein.RotatedTorsions>
[ 6907 6896 6895 6894 ] final   51.80 input  -60.11 | X-H torsion
[ 7974 7965 7964 7962 ] final  143.20 input  175.53 | X-H torsion
[ 8008 7997 7996 7995 ] final  -80.28 input   59.86 | X-H torsion
[ 10167 10162 10161 10158 ] final -177.77 input  -65.29 | X-H torsion
[ 10718 10713 10712 10709 ] final  -48.66 input   66.30 | X-H torsion
[ 10763 10752 10751 10750 ] final -163.54 input  -60.55 | X-H torsion
[ 11005 11000 10999 10996 ] final  169.63 input  -57.11 | X-H torsion

> <Gold.Protein.ActiveResidues>
 VAL166  LYS551  ARG553  GLY616  TRP617  ASP618  TYR619  PRO620  LYS621  CYS622 
 ASP623  PHE694  ASN695  SER759  ASP760  ASP761  ALA762  ILE779  LEU786  VAL792 
 PHE793  MET794  SER795  GLU796  ALA797  LYS798  CYS799  TRP800  GLU811  SER814 

> <Gold.Protein.RotatedAtoms>
  152.3165  134.7433  160.0323 H   0  0  0  0  0  0  0  0  0  0  0  0  # atno 6907 bound_to 6896
  151.7896  133.3352  159.3503 H   0  0  0  0  0  0  0  0  0  0  0  0  # atno 6908 bound_to 6896
  150.7347  134.5785  159.5971 H   0  0  0  0  0  0  0  0  0  0  0  0  # atno 6909 bound_to 6896
  144.8941  139.5516  143.5784 H   0  0  0  0  0  0  0  0  0  0  0  0  # atno 7974 bound_to 7965
  154.5868  140.0665  156.9182 H   0  0  0  0  0  0  0  0  0  0  0  0  # atno 8008 bound_to 7997
  155.2366  140.3341  155.4279 H   0  0  0  0  0  0  0  0  0  0  0  0  # atno 8009 bound_to 7997
  156.2228  140.1806  156.7420 H   0  0  0  0  0  0  0  0  0  0  0  0  # atno 8010 bound_to 7997
  139.5464  144.2224  152.0996 H   0  0  0  0  0  0  0  0  0  0  0  0  # atno 10167 bound_to 10162
  156.1967  130.4154  149.9297 H   0  0  0  0  0  0  0  0  0  0  0  0  # atno 10718 bound_to 10713
  154.7112  135.3006  154.9193 H   0  0  0  0  0  0  0  0  0  0  0  0  # atno 10763 bound_to 10752
  154.0094  135.6696  153.4768 H   0  0  0  0  0  0  0  0  0  0  0  0  # atno 10764 bound_to 10752
  153.0757  135.5036  154.8312 H   0  0  0  0  0  0  0  0  0  0  0  0  # atno 10765 bound_to 10752
  140.2998  134.7605  157.3907 H   0  0  0  0  0  0  0  0  0  0  0  0  # atno 11005 bound_to 11000
  146.3071  139.7617  142.9048 LP  0  0  0  0  0  0  0  0  0  0  0  0  # atno 17320 bound_to 7965
  145.3731  141.0346  143.3220 LP  0  0  0  0  0  0  0  0  0  0  0  0  # atno 17321 bound_to 7965
  140.1712  144.4934  150.6579 LP  0  0  0  0  0  0  0  0  0  0  0  0  # atno 17342 bound_to 10162
  140.6713  143.2287  151.5617 LP  0  0  0  0  0  0  0  0  0  0  0  0  # atno 17343 bound_to 10162
  156.7020  130.8937  151.3600 LP  0  0  0  0  0  0  0  0  0  0  0  0  # atno 17370 bound_to 10713
  157.6961  130.9284  150.0650 LP  0  0  0  0  0  0  0  0  0  0  0  0  # atno 17371 bound_to 10713
  140.1119  134.5334  155.8258 LP  0  0  0  0  0  0  0  0  0  0  0  0  # atno 17394 bound_to 11000
  141.2130  133.6727  156.6706 LP  0  0  0  0  0  0  0  0  0  0  0  0  # atno 17395 bound_to 11000

$$$$
