#       Name:                AV-unprocessed.smi:68
#       Creating user name   scv26
#       Creation time:       Thu Mar 26 16:53:45 2020


#       File generated by GOLD software.
#

@<TRIPOS>MOLECULE
AV-unprocessed.smi:68
    29    30     1
SMALL
NO_CHARGES


@<TRIPOS>ATOM
      1 ****        -4.7119   0.0044   0.4118 O.2            1 S1                 0.0000
      2 ****        -3.4936   0.1714   0.4429 C.2            1 S1                 0.0000
      3 ****        -2.9177   1.3316   0.8724 N.pl3          1 S1                -1.0000
      4 ****        -1.5650   1.5179   0.9051 C.2            1 S1                 0.0000
      5 ****        -1.0459   2.5703   1.2762 O.2            1 S1                 0.0000
      6 ****        -0.7173   0.4568   0.4809 N.am           1 S1                 0.0000
      7 ****         0.7867   0.6074   0.5133 C.3            1 S1                 0.0000
      8 ****         1.3550   0.7559  -0.9059 C.3            1 S1                 0.0000
      9 ****         2.0921  -0.5544  -1.1066 C.3            1 S1                 0.0000
     10 ****         2.4676  -0.9329   0.3205 C.3            1 S1                 0.0000
     11 ****         1.3316  -0.5474   1.0806 O.3            1 S1                 0.0000
     12 ****        -1.2746  -0.7299   0.0381 C.2            1 S1                 0.0000
     13 ****        -2.6108  -0.9074   0.0038 C.2            1 S1                 0.0000
     14 ****        -3.1208  -2.0720  -0.4321 F              1 S1                 0.0000
     15 ****         1.0304   1.4540   1.1545 H              1 S1                 0.0000
     16 ****         0.5758   0.9349  -1.6480 H              1 S1                 0.0000
     17 ****         2.0494   1.5968  -0.9151 H              1 S1                 0.0000
     18 ****         1.4210  -1.3032  -1.5285 H              1 S1                 0.0000
     19 ****         2.9565  -0.4618  -1.7644 H              1 S1                 0.0000
     20 ****         2.6851  -1.9951   0.4332 H              1 S1                 0.0000
     21 ****         3.3369  -0.3647   0.6550 H              1 S1                 0.0000
     22 ****        -0.6299  -1.5327  -0.2867 H              1 S1                 0.0000
     23 ****        -5.0896  -0.8632   0.0882 LP             1 S1                 0.0000
     24 ****        -5.3247   0.7362   0.7100 LP             1 S1                 0.0000
     25 ****        -3.5112   2.0770   1.1760 LP             1 S1                 0.0000
     26 ****        -1.6200   3.3344   1.5705 LP             1 S1                 0.0000
     27 ****        -0.0501   2.6613   1.2834 LP             1 S1                 0.0000
     28 ****         0.6527  -1.2816   1.0678 LP             1 S1                 0.0000
     29 ****         1.6048  -0.3624   2.0245 LP             1 S1                 0.0000
@<TRIPOS>BOND
    1    1    2 2     
    2    2   13 1     
    3    2    3 1     
    4    3    4 1     
    5    4    5 2     
    6    4    6 am    
    7    6    7 1     
    8    6   12 1     
    9    7   11 1     
   10    7    8 1     
   11    7   15 1     
   12    8    9 1     
   13    8   16 1     
   14    8   17 1     
   15    9   10 1     
   16    9   18 1     
   17    9   19 1     
   18   10   11 1     
   19   10   20 1     
   20   10   21 1     
   21   12   13 2     
   22   12   22 1     
   23   13   14 1     
   24    1   23 1     
   25    1   24 1     
   26    3   25 1     
   27    5   26 1     
   28    5   27 1     
   29   11   28 1     
   30   11   29 1     
@<TRIPOS>SUBSTRUCTURE
      1 S1             1
@<TRIPOS>SET
LONE_PAIRS      STATIC     ATOMS    <user>   **** ""
7 23 24 25 26 27 28 29
ATOM$BLUE        STATIC     ATOMS    COLORGROUP SYSTEM
7 23 24 25 26 27 28 29
