AV-unprocessed.smi:199|AV-procd|sdf|1565|dock7
  -GOLD-   2262019443D 1   1.00000     0.00000
 Structure written by MMmdl.
 51 55  0  0  0  0  0  0  0  0  1 V2000
  147.5216  136.3703  162.6295 C   0  0  0  0  0  0  0  0  0  0  0  0
  147.1447  134.9419  162.2039 C   0  0  1  0  0  0  0  0  0  0  0  0
  146.1977  134.3844  163.1039 O   0  0  0  0  0  0  0  0  0  0  0  0
  145.6152  133.2698  162.4534 C   0  0  0  0  0  0  0  0  0  0  0  0
  145.3533  133.8010  161.0496 C   0  0  0  0  0  0  0  0  0  0  0  0
  146.5151  134.7669  160.7961 C   0  0  1  0  0  0  0  0  0  0  0  0
  145.9759  135.9834  160.3050 O   0  0  0  0  0  0  0  0  0  0  0  0
  147.5117  134.2185  159.7447 C   0  0  0  0  0  0  0  0  0  0  0  0
  148.3518  135.2465  159.1477 N   0  0  0  0  0  0  0  0  0  0  0  0
  148.9110  136.3290  159.7874 C   0  0  0  0  0  0  0  0  0  0  0  0
  149.6358  137.1073  159.0326 N   0  0  0  0  0  0  0  0  0  0  0  0
  149.5603  136.5312  157.7700 C   0  0  0  0  0  0  0  0  0  0  0  0
  150.1040  136.8529  156.4923 C   0  0  0  0  0  0  0  0  0  0  0  0
  150.8945  137.9362  156.2588 N   0  0  0  0  0  0  0  0  0  0  0  0
  151.5936  138.0951  154.9900 C   0  0  2  0  0  0  0  0  0  0  0  0
  152.4949  139.3095  155.2664 C   0  0  0  0  0  0  0  0  0  0  0  0
  151.5918  140.1466  156.1846 C   0  0  0  0  0  0  0  0  0  0  0  0
  150.3220  139.2746  156.2441 C   0  0  1  0  0  0  0  0  0  0  0  0
  149.5383  139.3078  154.9065 C   0  0  1  0  0  0  0  0  0  0  0  0
  149.1227  140.6876  154.3630 C   0  0  0  0  0  0  0  0  0  0  0  0
  148.3560  140.5401  153.1872 O   0  0  0  0  0  0  0  0  0  0  0  0
  150.4914  138.5159  153.9930 C   0  0  0  0  0  0  0  0  0  0  0  0
  149.8259  136.0038  155.4672 N   0  0  0  0  0  0  0  0  0  0  0  0
  149.0495  134.9348  155.6627 C   0  0  0  0  0  0  0  0  0  0  0  0
  148.4636  134.5251  156.7881 N   0  0  0  0  0  0  0  0  0  0  0  0
  148.7556  135.3569  157.8281 C   0  0  0  0  0  0  0  0  0  0  0  0
  148.2370  136.8116  161.9351 H   0  0  0  0  0  0  0  0  0  0  0  0
  147.9792  136.3692  163.6188 H   0  0  0  0  0  0  0  0  0  0  0  0
  146.6471  137.0198  162.6738 H   0  0  0  0  0  0  0  0  0  0  0  0
  148.0326  134.3137  162.2826 H   0  0  0  0  0  0  0  0  0  0  0  0
  146.3239  132.4402  162.4339 H   0  0  0  0  0  0  0  0  0  0  0  0
  144.7065  132.9376  162.9558 H   0  0  0  0  0  0  0  0  0  0  0  0
  145.2823  133.0010  160.3118 H   0  0  0  0  0  0  0  0  0  0  0  0
  144.3977  134.3282  161.0494 H   0  0  0  0  0  0  0  0  0  0  0  0
  145.3967  135.7862  159.5851 H   0  0  0  0  0  0  0  0  0  0  0  0
  148.1604  133.4694  160.2008 H   0  0  0  0  0  0  0  0  0  0  0  0
  146.9771  133.7071  158.9431 H   0  0  0  0  0  0  0  0  0  0  0  0
  148.7715  136.5203  160.8413 H   0  0  0  0  0  0  0  0  0  0  0  0
  152.1619  137.2224  154.6657 H   0  0  0  0  0  0  0  0  0  0  0  0
  153.4034  139.0113  155.7913 H   0  0  0  0  0  0  0  0  0  0  0  0
  152.7850  139.8371  154.3571 H   0  0  0  0  0  0  0  0  0  0  0  0
  152.0397  140.2297  157.1757 H   0  0  0  0  0  0  0  0  0  0  0  0
  151.4211  141.1582  155.8198 H   0  0  0  0  0  0  0  0  0  0  0  0
  149.7022  139.5239  157.1035 H   0  0  0  0  0  0  0  0  0  0  0  0
  148.6272  138.7202  155.0347 H   0  0  0  0  0  0  0  0  0  0  0  0
  148.5629  141.2674  155.0956 H   0  0  0  0  0  0  0  0  0  0  0  0
  150.0114  141.2704  154.1208 H   0  0  0  0  0  0  0  0  0  0  0  0
  148.9449  140.4306  152.4563 H   0  0  0  0  0  0  0  0  0  0  0  0
  150.8865  139.1057  153.1648 H   0  0  0  0  0  0  0  0  0  0  0  0
  149.9836  137.6483  153.5703 H   0  0  0  0  0  0  0  0  0  0  0  0
  148.8728  134.3197  154.7928 H   0  0  0  0  0  0  0  0  0  0  0  0
  1  2  1  0  0  0  0
  1 27  1  0  0  0  0
  1 28  1  0  0  0  0
  1 29  1  0  0  0  0
  2  6  1  0  0  0  0
  2  3  1  0  0  0  0
  2 30  1  0  0  0  0
  3  4  1  0  0  0  0
  4  5  1  0  0  0  0
  4 31  1  0  0  0  0
  4 32  1  0  0  0  0
  5  6  1  0  0  0  0
  5 33  1  0  0  0  0
  5 34  1  0  0  0  0
  6  7  1  0  0  0  0
  6  8  1  0  0  0  0
  7 35  1  0  0  0  0
  8  9  1  0  0  0  0
  8 36  1  0  0  0  0
  8 37  1  0  0  0  0
  9 26  1  0  0  0  0
  9 10  1  0  0  0  0
 10 11  2  0  0  0  0
 10 38  1  0  0  0  0
 11 12  1  0  0  0  0
 12 26  2  0  0  0  0
 12 13  1  0  0  0  0
 13 14  1  0  0  0  0
 13 23  2  0  0  0  0
 14 18  1  0  0  0  0
 14 15  1  0  0  0  0
 15 22  1  0  0  0  0
 15 16  1  0  0  0  0
 15 39  1  0  0  0  0
 16 17  1  0  0  0  0
 16 40  1  0  0  0  0
 16 41  1  0  0  0  0
 17 18  1  0  0  0  0
 17 42  1  0  0  0  0
 17 43  1  0  0  0  0
 18 19  1  0  0  0  0
 18 44  1  0  0  0  0
 19 20  1  0  0  0  0
 19 22  1  0  0  0  0
 19 45  1  0  0  0  0
 20 21  1  0  0  0  0
 20 46  1  0  0  0  0
 20 47  1  0  0  0  0
 21 48  1  0  0  0  0
 22 49  1  0  0  0  0
 22 50  1  0  0  0  0
 23 24  1  0  0  0  0
 24 25  2  0  0  0  0
 24 51  1  0  0  0  0
 25 26  1  0  0  0  0
M  END
> <s_m_source_file>
AV-unprocessed.smi

> <i_m_source_file_index>
199

> <i_lp_mmshare_version>
43012

> <i_f3d_flags>
0

> <s_epik_input>
W0NIMl0xW0NIMl1PW0NAQEhdKFtDSDNdKVtDQEBdMShbT0hdKVtDSDJdbihbY0hdbjIpYyhjMjMpbltjSF1uYzNOKFtDQEBIXTQ1KVtDQEhdKFtDSDJdW0NIMl00KVtDQEhdKFtDSDJdNSlbQ0gyXVtPSF0=

> <s_epik_cmdline>
J2VwaWtfcHl0aG9uJywgJy1waCcsICc3LjAnLCAnLXRuJywgJzgnLCAnLW1hJywgJzIwMCcsICctbWV0YWxfYmluZGluZycsICctaW1hZScsICc8aW5maWxlLm1hZT4nLCAnLW9tYWUnLCAnPG91dGZpbGUubWFlPic=

> <r_lp_tautomer_probability>
1

> <r_epik_Ionization_Penalty>
0.00583903

> <r_epik_Ionization_Penalty_Charging>
0

> <r_epik_Ionization_Penalty_Neutral>
0.00583903

> <r_epik_State_Penalty>
-0

> <r_epik_Charging_Adjusted_Penalty>
0

> <i_epik_Tot_Q>
0

> <i_epik_Tot_abs_Q>
0

> <r_epik_Metal_State_Penalty>
-0

> <b_epik_Metal_Only>
0

> <s_lp_Force_Field>
OPLS_2005

> <r_lp_Energy>
84.4473

> <b_lp_Chiralities_Consistent>
1

> <s_lp_Variant>
AV-unprocessed.smi:199-6

> <Gold.Version>
5.8.1

> <Gold.Id.Protein>
6NUR|6NUR_protein|mol2

> <Gold.PLP.Fitness>
40.7102

> <Gold.PLP.PLP>
-39.2982

> <Gold.PLP.part.hbond>
-1.8047

> <Gold.PLP.part.metal>
0.0000

> <Gold.PLP.part.buried>
-6.6594

> <Gold.PLP.part.nonpolar>
-31.9576

> <Gold.PLP.part.repulsive>
0.1204

> <Gold.PLP.ligand.clash>
0.0000

> <Gold.PLP.ligand.torsion>
0.8182

> <Gold.PLP.Chemscore.Hbond>
1.0000

> <Gold.PLP.Chemscore.CHOScore>
0.0000

> <Gold.PLP.Chemscore.Metal>
0.0000

> <Gold.Chemscore.Hbonds>
donor molecule, donor type, donor heavy atom, donor atom, acceptor molecule, acceptor atom, score
      L1  H    21    48       P1  7957  0.93

> <Gold.PLP.Chemscore.Internal.Correction>
0.0485

> <Gold.Rescore>
     Score         DG    S(hbond)    S(metal)    S(lipo)     H(rot)  DE(clash)    DE(int)     intcor
      8.87     -11.64       1.00        0.00      91.37       3.07       0.23       2.54       ----

> <Gold.Chemscore.Fitness>
8.8712

> <Gold.Chemscore.DG>
-11.6433

> <Gold.Chemscore.ZeroCoef>
-5.4800

> <Gold.Chemscore.Hbond>
1.0000

> <Gold.Chemscore.Metal>
0.0000

> <Gold.Chemscore.Lipo>
91.3677

> <Gold.Chemscore.Internal_Hbond>
0.0000

> <Gold.Chemscore.DEClash>
0.2301

> <Gold.Chemscore.DEInternal>
2.5419

> <Gold.Chemscore.Rot>
3.0729

> <Gold.Chemscore.Internal.Correction>
   9.000000E+99

> <Gold.Chemscore.Hbonds>
donor molecule, donor type, donor heavy atom, donor atom, acceptor molecule, acceptor atom, score
      L1  H    21    48       P1  7957  0.89

> <Gold.Chemscore.Hbond.Weighted>
-3.3399

> <Gold.Chemscore.Metal.Weighted>
-0.0000

> <Gold.Chemscore.Lipo.Weighted>
-10.6900

> <Gold.Chemscore.Internal_Hbond.Weighted>
0.0000

> <Gold.Chemscore.DEClash.Weighted>
0.2301

> <Gold.Chemscore.DEInternal.Weighted>
2.5419

> <Gold.Chemscore.Rot.Weighted>
7.8667

> <Gold.Chemscore.Internal.Correction.Weighted>
   9.000000E+99

> <Gold.Protein.RotatedTorsions>
[ 6907 6896 6895 6894 ] final  130.46 input  -60.11 | X-H torsion
[ 7974 7965 7964 7962 ] final   57.28 input  175.53 | X-H torsion
[ 8008 7997 7996 7995 ] final  -89.11 input   59.86 | X-H torsion
[ 10167 10162 10161 10158 ] final  -20.44 input  -65.29 | X-H torsion
[ 10718 10713 10712 10709 ] final   -5.20 input   66.30 | X-H torsion
[ 10763 10752 10751 10750 ] final  -71.09 input  -60.55 | X-H torsion
[ 11005 11000 10999 10996 ] final   76.56 input  -57.11 | X-H torsion

> <Gold.Protein.ActiveResidues>
 VAL166  LYS551  ARG553  GLY616  TRP617  ASP618  TYR619  PRO620  LYS621  CYS622 
 ASP623  PHE694  ASN695  SER759  ASP760  ASP761  ALA762  ILE779  LEU786  VAL792 
 PHE793  MET794  SER795  GLU796  ALA797  LYS798  CYS799  TRP800  GLU811  SER814 

> <Gold.Protein.RotatedAtoms>
  152.3523  133.6195  159.5953 H   0  0  0  0  0  0  0  0  0  0  0  0  # atno 6907 bound_to 6896
  150.7546  133.9554  159.3507 H   0  0  0  0  0  0  0  0  0  0  0  0  # atno 6908 bound_to 6896
  151.7404  135.0856  160.0366 H   0  0  0  0  0  0  0  0  0  0  0  0  # atno 6909 bound_to 6896
  145.9308  139.3805  143.0422 H   0  0  0  0  0  0  0  0  0  0  0  0  # atno 7974 bound_to 7965
  154.6827  140.0545  157.0283 H   0  0  0  0  0  0  0  0  0  0  0  0  # atno 8008 bound_to 7997
  155.0928  140.3221  155.4550 H   0  0  0  0  0  0  0  0  0  0  0  0  # atno 8009 bound_to 7997
  156.2700  140.2045  156.6055 H   0  0  0  0  0  0  0  0  0  0  0  0  # atno 8010 bound_to 7997
  140.7276  143.4722  151.0231 H   0  0  0  0  0  0  0  0  0  0  0  0  # atno 10167 bound_to 10162
  156.7501  130.5236  149.5806 H   0  0  0  0  0  0  0  0  0  0  0  0  # atno 10718 bound_to 10713
  154.4268  135.5973  153.6044 H   0  0  0  0  0  0  0  0  0  0  0  0  # atno 10763 bound_to 10752
  152.9796  135.5965  154.3887 H   0  0  0  0  0  0  0  0  0  0  0  0  # atno 10764 bound_to 10752
  154.3720  135.2841  155.2239 H   0  0  0  0  0  0  0  0  0  0  0  0  # atno 10765 bound_to 10752
  139.9293  134.7611  156.1411 H   0  0  0  0  0  0  0  0  0  0  0  0  # atno 11005 bound_to 11000
  145.8429  140.9571  143.0790 LP  0  0  0  0  0  0  0  0  0  0  0  0  # atno 17320 bound_to 7965
  144.6764  140.0307  143.7482 LP  0  0  0  0  0  0  0  0  0  0  0  0  # atno 17321 bound_to 7965
  139.8414  143.7558  152.3180 LP  0  0  0  0  0  0  0  0  0  0  0  0  # atno 17342 bound_to 10162
  139.7708  144.7477  151.0227 LP  0  0  0  0  0  0  0  0  0  0  0  0  # atno 17343 bound_to 10162
  156.1407  130.6242  151.0463 LP  0  0  0  0  0  0  0  0  0  0  0  0  # atno 17370 bound_to 10713
  157.6781  131.0845  150.7442 LP  0  0  0  0  0  0  0  0  0  0  0  0  # atno 17371 bound_to 10713
  141.0871  133.6729  156.2460 LP  0  0  0  0  0  0  0  0  0  0  0  0  # atno 17394 bound_to 11000
  140.6247  134.5325  157.5552 LP  0  0  0  0  0  0  0  0  0  0  0  0  # atno 17395 bound_to 11000

$$$$
