#       Name:                AV-unprocessed.smi:45
#       Creating user name   scv26
#       Creation time:       Thu Mar 26 16:26:45 2020


#       File generated by GOLD software.
#

@<TRIPOS>MOLECULE
AV-unprocessed.smi:45
    70    73     1
SMALL
NO_CHARGES


@<TRIPOS>ATOM
      1 ****        -4.0328   3.5057  -4.0135 C.3            1 S1                 0.0000
      2 ****        -3.4406   2.2276  -3.8334 O.3            1 S1                 0.0000
      3 ****        -3.2758   1.7607  -2.5459 C.ar           1 S1                 0.0000
      4 ****        -3.6776   2.4762  -1.3899 C.ar           1 S1                 0.0000
      5 ****        -3.4591   1.9421  -0.1058 C.ar           1 S1                 0.0000
      6 ****        -2.8402   0.6869   0.0506 C.ar           1 S1                 0.0000
      7 ****        -2.6084   0.1458   1.4557 C.3            1 S1                 0.0000
      8 ****        -1.5342  -0.8305   1.6107 N.pl3          1 S1                 0.0000
      9 ****        -0.1942  -0.5206   1.3135 C.ar           1 S1                 0.0000
     10 ****         0.1406   0.7818   1.1664 N.ar           1 S1                 0.0000
     11 ****         1.4057   1.1314   0.8975 C.ar           1 S1                 0.0000
     12 ****         1.7261   2.4772   0.7405 N.pl3          1 S1                 0.0000
     13 ****         3.0302   2.9997   1.1292 C.3            1 S1                 0.0000
     14 ****         2.7851   4.4389   1.5792 C.3            1 S1                 0.0000
     15 ****         1.5751   4.8535   0.7512 C.3            1 S1                 0.0000
     16 ****         0.7495   3.5624   0.6495 C.3            1 S1                 0.0000
     17 ****        -0.0981   3.4989  -0.6374 C.3            1 S1                 0.0000
     18 ****        -1.0818   4.5108  -0.6186 O.3            1 S1                 0.0000
     19 ****         2.3854   0.2219   0.7814 N.pl3          1 S1                 1.0000
     20 ****         2.1045  -1.0956   0.9165 C.ar           1 S1                 0.0000
     21 ****         0.7919  -1.5323   1.1955 C.ar           1 S1                 0.0000
     22 ****         0.4878  -3.0030   1.3020 C.2            1 S1                 0.0000
     23 ****        -0.5459  -3.4785   0.8319 O.2            1 S1                 0.0000
     24 ****         1.4059  -3.7309   1.9574 N.am           1 S1                 0.0000
     25 ****         1.3443  -5.1761   2.1430 C.3            1 S1                 0.0000
     26 ****         1.6802  -5.9436   0.8755 C.ar           1 S1                 0.0000
     27 ****         0.7063  -6.6902   0.3460 N.ar           1 S1                 0.0000
     28 ****         1.0005  -7.3646  -0.7866 C.ar           1 S1                 0.0000
     29 ****         2.2740  -7.2872  -1.3855 C.ar           1 S1                 0.0000
     30 ****         3.2200  -6.4683  -0.7368 C.ar           1 S1                 0.0000
     31 ****         2.9203  -5.7960   0.3960 N.ar           1 S1                 0.0000
     32 ****        -2.4611  -0.0408  -1.0979 C.ar           1 S1                 0.0000
     33 ****        -2.6695   0.4956  -2.3829 C.ar           1 S1                 0.0000
     34 ****        -2.1669  -0.4134  -3.7626 Cl             1 S1                 0.0000
     35 ****         0.0977   3.4895   1.5215 H              1 S1                 0.0000
     36 ****        -4.0836   3.7309  -5.0787 H              1 S1                 0.0000
     37 ****        -3.4412   4.2896  -3.5385 H              1 S1                 0.0000
     38 ****        -5.0509   3.5323  -3.6226 H              1 S1                 0.0000
     39 ****        -4.1495   3.4444  -1.4596 H              1 S1                 0.0000
     40 ****        -3.7635   2.5068   0.7633 H              1 S1                 0.0000
     41 ****        -2.4226   0.9793   2.1343 H              1 S1                 0.0000
     42 ****        -3.5344  -0.3204   1.7927 H              1 S1                 0.0000
     43 ****        -1.7951  -1.8050   1.6701 H              1 S1                 0.0000
     44 ****         3.4904   2.4125   1.9250 H              1 S1                 0.0000
     45 ****         3.6903   2.9737   0.2617 H              1 S1                 0.0000
     46 ****         2.5293   4.4582   2.6396 H              1 S1                 0.0000
     47 ****         3.6502   5.0851   1.4276 H              1 S1                 0.0000
     48 ****         1.0171   5.6774   1.1974 H              1 S1                 0.0000
     49 ****         1.9091   5.1734  -0.2372 H              1 S1                 0.0000
     50 ****         0.5264   3.6206  -1.5230 H              1 S1                 0.0000
     51 ****        -0.6023   2.5390  -0.7367 H              1 S1                 0.0000
     52 ****        -1.5890   4.4525  -1.4143 H              1 S1                 0.0000
     53 ****         2.9466  -1.7603   0.7860 H              1 S1                 0.0000
     54 ****         2.2200  -3.2615   2.3258 H              1 S1                 0.0000
     55 ****         2.0570  -5.4543   2.9199 H              1 S1                 0.0000
     56 ****         0.3583  -5.4616   2.5152 H              1 S1                 0.0000
     57 ****         0.2163  -7.9698  -1.2166 H              1 S1                 0.0000
     58 ****         2.5116  -7.8254  -2.2911 H              1 S1                 0.0000
     59 ****         4.2198  -6.3519  -1.1279 H              1 S1                 0.0000
     60 ****        -1.9986  -1.0124  -1.0037 H              1 S1                 0.0000
     61 ****         3.3416   0.5118   0.5752 H              1 S1                 0.0000
     62 ****        -2.5347   2.2585  -4.2557 LP             1 S1                 0.0000
     63 ****        -4.0119   1.5652  -4.3180 LP             1 S1                 0.0000
     64 ****        -0.5609   1.4884   1.2590 LP             1 S1                 0.0000
     65 ****        -0.6421   5.4073  -0.5641 LP             1 S1                 0.0000
     66 ****        -1.6802   4.3844   0.1726 LP             1 S1                 0.0000
     67 ****        -1.2035  -2.8849   0.3680 LP             1 S1                 0.0000
     68 ****        -0.7279  -4.4584   0.9140 LP             1 S1                 0.0000
     69 ****        -0.1981  -6.7469   0.7688 LP             1 S1                 0.0000
     70 ****         3.5935  -5.2156   0.8543 LP             1 S1                 0.0000
@<TRIPOS>BOND
    1    1    2 1     
    2    1   36 1     
    3    1   37 1     
    4    1   38 1     
    5    2    3 1     
    6    3   33 ar    
    7    3    4 ar    
    8    4    5 ar    
    9    4   39 1     
   10    5    6 ar    
   11    5   40 1     
   12    6    7 1     
   13    6   32 ar    
   14    7    8 1     
   15    7   41 1     
   16    7   42 1     
   17    8    9 1     
   18    8   43 1     
   19    9   21 ar    
   20    9   10 ar    
   21   10   11 ar    
   22   11   12 1     
   23   11   19 ar    
   24   12   16 1     
   25   12   13 1     
   26   13   14 1     
   27   13   44 1     
   28   13   45 1     
   29   14   15 1     
   30   14   46 1     
   31   14   47 1     
   32   15   16 1     
   33   15   48 1     
   34   15   49 1     
   35   16   35 1     
   36   16   17 1     
   37   17   18 1     
   38   17   50 1     
   39   17   51 1     
   40   18   52 1     
   41   19   20 ar    
   42   19   61 1     
   43   20   21 ar    
   44   20   53 1     
   45   21   22 1     
   46   22   23 2     
   47   22   24 am    
   48   24   25 1     
   49   24   54 1     
   50   25   26 1     
   51   25   55 1     
   52   25   56 1     
   53   26   31 ar    
   54   26   27 ar    
   55   27   28 ar    
   56   28   29 ar    
   57   28   57 1     
   58   29   30 ar    
   59   29   58 1     
   60   30   31 ar    
   61   30   59 1     
   62   32   33 ar    
   63   32   60 1     
   64   33   34 1     
   65    2   62 1     
   66    2   63 1     
   67   10   64 1     
   68   18   65 1     
   69   18   66 1     
   70   23   67 1     
   71   23   68 1     
   72   27   69 1     
   73   31   70 1     
@<TRIPOS>SUBSTRUCTURE
      1 S1             1
@<TRIPOS>SET
LONE_PAIRS      STATIC     ATOMS    <user>   **** ""
9 62 63 64 65 66 67 68 69 70
DONOR_HYDROGENS      STATIC     ATOMS    <user>   **** ""
4 43 52 61 54
ATOM$BLUE        STATIC     ATOMS    COLORGROUP SYSTEM
9 62 63 64 65 66 67 68 69 70
ATOM$RED        STATIC     ATOMS    COLORGROUP SYSTEM
4 43 52 61 54
