AV-unprocessed.smi:2319|AV-procd|sdf|9278|dock7
  -GOLD-   2272012503D 1   1.00000     0.00000
 Structure written by MMmdl.
 46 47  0  0  0  0  0  0  0  0  1 V2000
  147.1358  141.1545  153.2797 C   0  0  0  0  0  0  0  0  0  0  0  0
  147.8081  141.2213  154.6549 C   0  0  0  0  0  0  0  0  0  0  0  0
  149.1193  140.5079  154.7007 C   0  0  0  0  0  0  0  0  0  0  0  0
  150.1772  141.1879  155.2160 O   0  0  0  0  0  0  0  0  0  0  0  0
  151.3094  140.3593  155.1843 N   0  0  0  0  0  0  0  0  0  0  0  0
  150.9225  139.2056  154.6603 C   0  0  0  0  0  0  0  0  0  0  0  0
  151.9158  138.0824  154.5537 C   0  0  0  0  0  0  0  0  0  0  0  0
  149.5407  139.2700  154.3142 C   0  0  0  0  0  0  0  0  0  0  0  0
  148.7044  138.2713  153.7563 N   0  0  0  0  0  0  0  0  0  0  0  0
  147.4641  137.9498  154.1532 C   0  0  0  0  0  0  0  0  0  0  0  0
  146.8635  138.4822  155.0859 O   0  0  0  0  0  0  0  0  0  0  0  0
  146.9636  136.9451  153.4219 N   0  0  0  0  0  0  0  0  0  0  0  0
  145.6605  136.3186  153.6350 C   0  0  1  0  0  0  0  0  0  0  0  0
  144.5708  137.3515  153.8430 C   0  0  0  0  0  0  0  0  0  0  0  0
  143.2958  136.5979  153.4440 C   0  0  0  0  0  0  0  0  0  0  0  0
  142.6522  135.8817  154.6435 C   0  0  0  0  0  0  0  0  0  0  0  0
  142.2795  137.5067  152.7353 C   0  0  0  0  0  0  0  0  0  0  0  0
  143.7197  135.5902  152.5267 O   0  0  0  0  0  0  0  0  0  0  0  0
  145.1407  135.5293  152.4139 C   0  0  0  0  0  0  0  0  0  0  0  0
  145.5000  136.1577  151.0507 C   0  0  0  0  0  0  0  0  0  0  0  0
  145.5538  134.0497  152.4549 C   0  0  0  0  0  0  0  0  0  0  0  0
  146.1807  141.6796  153.2873 H   0  0  0  0  0  0  0  0  0  0  0  0
  146.9468  140.1218  152.9846 H   0  0  0  0  0  0  0  0  0  0  0  0
  147.7613  141.6130  152.5128 H   0  0  0  0  0  0  0  0  0  0  0  0
  147.9572  142.2644  154.9349 H   0  0  0  0  0  0  0  0  0  0  0  0
  147.1366  140.7997  155.4032 H   0  0  0  0  0  0  0  0  0  0  0  0
  151.4358  137.1153  154.7041 H   0  0  0  0  0  0  0  0  0  0  0  0
  152.7039  138.1737  155.3018 H   0  0  0  0  0  0  0  0  0  0  0  0
  152.3921  138.0734  153.5734 H   0  0  0  0  0  0  0  0  0  0  0  0
  149.1281  137.6748  153.0611 H   0  0  0  0  0  0  0  0  0  0  0  0
  147.5319  136.5683  152.6778 H   0  0  0  0  0  0  0  0  0  0  0  0
  145.6871  135.6741  154.5161 H   0  0  0  0  0  0  0  0  0  0  0  0
  144.5409  137.7366  154.8631 H   0  0  0  0  0  0  0  0  0  0  0  0
  144.7317  138.2021  153.1787 H   0  0  0  0  0  0  0  0  0  0  0  0
  142.3146  136.5960  155.3948 H   0  0  0  0  0  0  0  0  0  0  0  0
  143.3529  135.1993  155.1254 H   0  0  0  0  0  0  0  0  0  0  0  0
  141.7874  135.2949  154.3324 H   0  0  0  0  0  0  0  0  0  0  0  0
  141.9408  138.3075  153.3932 H   0  0  0  0  0  0  0  0  0  0  0  0
  141.4019  136.9432  152.4175 H   0  0  0  0  0  0  0  0  0  0  0  0
  142.7125  137.9660  151.8460 H   0  0  0  0  0  0  0  0  0  0  0  0
  146.5725  136.1158  150.8584 H   0  0  0  0  0  0  0  0  0  0  0  0
  145.1918  137.2017  150.9942 H   0  0  0  0  0  0  0  0  0  0  0  0
  145.0043  135.6291  150.2362 H   0  0  0  0  0  0  0  0  0  0  0  0
  146.6349  133.9378  152.3708 H   0  0  0  0  0  0  0  0  0  0  0  0
  145.0994  133.4911  151.6363 H   0  0  0  0  0  0  0  0  0  0  0  0
  145.2418  133.5775  153.3868 H   0  0  0  0  0  0  0  0  0  0  0  0
  1  2  1  0  0  0  0
  1 22  1  0  0  0  0
  1 23  1  0  0  0  0
  1 24  1  0  0  0  0
  2  3  1  0  0  0  0
  2 25  1  0  0  0  0
  2 26  1  0  0  0  0
  3  8  2  0  0  0  0
  3  4  1  0  0  0  0
  4  5  1  0  0  0  0
  5  6  2  0  0  0  0
  6  7  1  0  0  0  0
  6  8  1  0  0  0  0
  7 27  1  0  0  0  0
  7 28  1  0  0  0  0
  7 29  1  0  0  0  0
  8  9  1  0  0  0  0
  9 10  1  0  0  0  0
  9 30  1  0  0  0  0
 10 11  2  0  0  0  0
 10 12  1  0  0  0  0
 12 13  1  0  0  0  0
 12 31  1  0  0  0  0
 13 19  1  0  0  0  0
 13 14  1  0  0  0  0
 13 32  1  0  0  0  0
 14 15  1  0  0  0  0
 14 33  1  0  0  0  0
 14 34  1  0  0  0  0
 15 16  1  0  0  0  0
 15 17  1  0  0  0  0
 15 18  1  0  0  0  0
 16 35  1  0  0  0  0
 16 36  1  0  0  0  0
 16 37  1  0  0  0  0
 17 38  1  0  0  0  0
 17 39  1  0  0  0  0
 17 40  1  0  0  0  0
 18 19  1  0  0  0  0
 19 20  1  0  0  0  0
 19 21  1  0  0  0  0
 20 41  1  0  0  0  0
 20 42  1  0  0  0  0
 20 43  1  0  0  0  0
 21 44  1  0  0  0  0
 21 45  1  0  0  0  0
 21 46  1  0  0  0  0
M  END
> <s_m_source_file>
AV-unprocessed.smi

> <i_m_source_file_index>
2319

> <i_lp_mmshare_version>
43012

> <i_f3d_flags>
0

> <s_epik_input>
W0NIM11bQ0gyXWMxb25jKFtDSDNdKWMxW05IXUMoPU8pW05IXVtDQEBIXShDKE8yKShbQ0gzXSlbQ0gzXSlbQ0gyXUMyKFtDSDNdKVtDSDNd

> <s_epik_cmdline>
J2VwaWtfcHl0aG9uJywgJy1waCcsICc3LjAnLCAnLXRuJywgJzgnLCAnLW1hJywgJzIwMCcsICctbWV0YWxfYmluZGluZycsICctaW1hZScsICc8aW5maWxlLm1hZT4nLCAnLW9tYWUnLCAnPG91dGZpbGUubWFlPic=

> <r_lp_tautomer_probability>
1

> <r_epik_Ionization_Penalty>
3.17207e-05

> <r_epik_Ionization_Penalty_Charging>
0

> <r_epik_Ionization_Penalty_Neutral>
3.17207e-05

> <r_epik_State_Penalty>
-0

> <r_epik_Charging_Adjusted_Penalty>
0

> <i_epik_Tot_Q>
0

> <i_epik_Tot_abs_Q>
0

> <r_epik_Metal_State_Penalty>
-0

> <b_epik_Metal_Only>
0

> <s_lp_Force_Field>
OPLS_2005

> <r_lp_Energy>
19.7342

> <b_lp_Chiralities_Consistent>
1

> <s_lp_Variant>
AV-unprocessed.smi:2319-2

> <Gold.Version>
5.8.1

> <Gold.Id.Protein>
6NUR|6NUR_protein|mol2

> <Gold.PLP.Fitness>
36.1078

> <Gold.PLP.PLP>
-30.6057

> <Gold.PLP.part.hbond>
-4.2168

> <Gold.PLP.part.metal>
0.0000

> <Gold.PLP.part.buried>
-3.9130

> <Gold.PLP.part.nonpolar>
-23.1939

> <Gold.PLP.part.repulsive>
0.3317

> <Gold.PLP.ligand.clash>
0.0000

> <Gold.PLP.ligand.torsion>
0.6723

> <Gold.PLP.Chemscore.Hbond>
2.1910

> <Gold.PLP.Chemscore.CHOScore>
0.0000

> <Gold.PLP.Chemscore.Metal>
0.0000

> <Gold.Chemscore.Hbonds>
donor molecule, donor type, donor heavy atom, donor atom, acceptor molecule, acceptor atom, score
      L1  H     9    30       P1  7948  1.00
      L1  H    12    31       P1  7948  1.00
      P1  H  7989  7998       L1     5  0.17

> <Gold.PLP.Chemscore.Internal.Correction>
0.2740

> <Gold.Rescore>
     Score         DG    S(hbond)    S(metal)    S(lipo)     H(rot)  DE(clash)    DE(int)     intcor
     15.11     -17.45       1.91        0.00      73.22       1.16       0.18       2.17       ----

> <Gold.Chemscore.Fitness>
15.1085

> <Gold.Chemscore.DG>
-17.4508

> <Gold.Chemscore.ZeroCoef>
-5.4800

> <Gold.Chemscore.Hbond>
1.9074

> <Gold.Chemscore.Metal>
0.0000

> <Gold.Chemscore.Lipo>
73.2226

> <Gold.Chemscore.Internal_Hbond>
0.0000

> <Gold.Chemscore.DEClash>
0.1760

> <Gold.Chemscore.DEInternal>
2.1663

> <Gold.Chemscore.Rot>
1.1590

> <Gold.Chemscore.Internal.Correction>
   9.000000E+99

> <Gold.Chemscore.Hbonds>
donor molecule, donor type, donor heavy atom, donor atom, acceptor molecule, acceptor atom, score
      L1  H     9    30       P1  7948  0.94
      L1  H    12    31       P1  7948  0.99

> <Gold.Chemscore.Hbond.Weighted>
-6.3709

> <Gold.Chemscore.Metal.Weighted>
-0.0000

> <Gold.Chemscore.Lipo.Weighted>
-8.5670

> <Gold.Chemscore.Internal_Hbond.Weighted>
0.0000

> <Gold.Chemscore.DEClash.Weighted>
0.1760

> <Gold.Chemscore.DEInternal.Weighted>
2.1663

> <Gold.Chemscore.Rot.Weighted>
2.9671

> <Gold.Chemscore.Internal.Correction.Weighted>
   9.000000E+99

> <Gold.Protein.RotatedTorsions>
[ 6907 6896 6895 6894 ] final -130.78 input  -60.11 | X-H torsion
[ 7974 7965 7964 7962 ] final -147.27 input  175.53 | X-H torsion
[ 8008 7997 7996 7995 ] final -168.65 input   59.86 | X-H torsion
[ 10167 10162 10161 10158 ] final  176.41 input  -65.29 | X-H torsion
[ 10718 10713 10712 10709 ] final  177.84 input   66.30 | X-H torsion
[ 10763 10752 10751 10750 ] final  -32.01 input  -60.55 | X-H torsion
[ 11005 11000 10999 10996 ] final   41.87 input  -57.11 | X-H torsion

> <Gold.Protein.ActiveResidues>
 VAL166  LYS551  ARG553  GLY616  TRP617  ASP618  TYR619  PRO620  LYS621  CYS622 
 ASP623  PHE694  ASN695  SER759  ASP760  ASP761  ALA762  ILE779  LEU786  VAL792 
 PHE793  MET794  SER795  GLU796  ALA797  LYS798  CYS799  TRP800  GLU811  SER814 

> <Gold.Protein.RotatedAtoms>
  150.9435  133.6629  159.2785 H   0  0  0  0  0  0  0  0  0  0  0  0  # atno 6907 bound_to 6896
  151.4010  135.0970  159.9565 H   0  0  0  0  0  0  0  0  0  0  0  0  # atno 6908 bound_to 6896
  152.5080  133.8929  159.7457 H   0  0  0  0  0  0  0  0  0  0  0  0  # atno 6909 bound_to 6896
  144.8104  140.5348  143.5646 H   0  0  0  0  0  0  0  0  0  0  0  0  # atno 7974 bound_to 7965
  155.8943  140.1030  157.1396 H   0  0  0  0  0  0  0  0  0  0  0  0  # atno 8008 bound_to 7997
  154.4018  140.1304  156.4420 H   0  0  0  0  0  0  0  0  0  0  0  0  # atno 8009 bound_to 7997
  155.7497  140.3465  155.5146 H   0  0  0  0  0  0  0  0  0  0  0  0  # atno 8010 bound_to 7997
  139.5213  144.2918  152.0457 H   0  0  0  0  0  0  0  0  0  0  0  0  # atno 10167 bound_to 10162
  156.8994  130.9873  151.3038 H   0  0  0  0  0  0  0  0  0  0  0  0  # atno 10718 bound_to 10713
  153.8067  135.6886  153.4847 H   0  0  0  0  0  0  0  0  0  0  0  0  # atno 10763 bound_to 10752
  153.1654  135.4563  154.9828 H   0  0  0  0  0  0  0  0  0  0  0  0  # atno 10764 bound_to 10752
  154.7984  135.3328  154.7551 H   0  0  0  0  0  0  0  0  0  0  0  0  # atno 10765 bound_to 10752
  140.1793  134.4124  155.8210 H   0  0  0  0  0  0  0  0  0  0  0  0  # atno 11005 bound_to 11000
  145.5337  139.1475  143.3485 LP  0  0  0  0  0  0  0  0  0  0  0  0  # atno 17320 bound_to 7965
  146.2402  140.5477  142.8937 LP  0  0  0  0  0  0  0  0  0  0  0  0  # atno 17321 bound_to 7965
  140.2369  144.4310  150.6276 LP  0  0  0  0  0  0  0  0  0  0  0  0  # atno 17342 bound_to 10162
  140.6317  143.2188  151.6481 LP  0  0  0  0  0  0  0  0  0  0  0  0  # atno 17343 bound_to 10162
  157.6035  130.8530  149.8839 LP  0  0  0  0  0  0  0  0  0  0  0  0  # atno 17370 bound_to 10713
  156.0589  130.3703  150.1026 LP  0  0  0  0  0  0  0  0  0  0  0  0  # atno 17371 bound_to 10713
  141.2222  133.6993  156.7902 LP  0  0  0  0  0  0  0  0  0  0  0  0  # atno 17394 bound_to 11000
  140.2286  134.8703  157.3453 LP  0  0  0  0  0  0  0  0  0  0  0  0  # atno 17395 bound_to 11000

$$$$
