AV-unprocessed.smi:3185|AV-procd|sdf|12168|dock7
  -GOLD-   2272018 03D 1   1.00000     0.00000
 Structure written by MMmdl.
 38 39  0  0  0  0  0  0  0  0  2 V2000
  153.3080  141.7828  161.8559 N   0  0  0  0  0  0  0  0  0  0  0  0
  152.8161  142.4330  161.0355 C   0  0  0  0  0  0  0  0  0  0  0  0
  152.1896  143.2638  159.9949 C   0  0  0  0  0  0  0  0  0  0  0  0
  151.2436  142.4730  159.0805 C   0  0  0  0  0  0  0  0  0  0  0  0
  151.0769  143.1131  157.6954 C   0  0  0  0  0  0  0  0  0  0  0  0
  150.0548  142.4012  156.8999 N   0  3  0  0  0  0  0  0  0  0  0  0
  150.5763  141.4053  155.9338 C   0  0  1  0  0  0  0  0  0  0  0  0
  151.7250  140.6240  156.6032 C   0  0  0  0  0  0  0  0  0  0  0  0
  152.2915  139.5311  155.6854 C   0  0  0  0  0  0  0  0  0  0  0  0
  151.1878  138.5624  155.2414 C   0  0  0  0  0  0  0  0  0  0  0  0
  150.0439  139.3186  154.5518 C   0  0  0  0  0  0  0  0  0  0  0  0
  149.4642  140.4288  155.4565 C   0  0  2  0  0  0  0  0  0  0  0  0
  148.3677  141.1152  154.7842 N   0  0  0  0  0  0  0  0  0  0  0  0
  147.9095  140.9309  153.4957 C   0  0  0  0  0  0  0  0  0  0  0  0
  146.8531  141.7761  153.3123 C   0  0  0  0  0  0  0  0  0  0  0  0
  146.7386  142.4510  154.5591 C   0  0  0  0  0  0  0  0  0  0  0  0
  147.6441  142.0530  155.4377 N   0  0  0  0  0  0  0  0  0  0  0  0
  151.6518  144.0717  160.4915 H   0  0  0  0  0  0  0  0  0  0  0  0
  152.9872  143.7208  159.4088 H   0  0  0  0  0  0  0  0  0  0  0  0
  151.6161  141.4537  158.9718 H   0  0  0  0  0  0  0  0  0  0  0  0
  150.2693  142.3951  159.5647 H   0  0  0  0  0  0  0  0  0  0  0  0
  150.7941  144.1574  157.8082 H   0  0  0  0  0  0  0  0  0  0  0  0
  152.0273  143.0961  157.1606 H   0  0  0  0  0  0  0  0  0  0  0  0
  149.4608  141.9106  157.5530 H   0  0  0  0  0  0  0  0  0  0  0  0
  150.9952  141.9289  155.0723 H   0  0  0  0  0  0  0  0  0  0  0  0
  152.5251  141.3092  156.8863 H   0  0  0  0  0  0  0  0  0  0  0  0
  151.3714  140.1662  157.5284 H   0  0  0  0  0  0  0  0  0  0  0  0
  152.7539  139.9886  154.8096 H   0  0  0  0  0  0  0  0  0  0  0  0
  153.0804  138.9834  156.2019 H   0  0  0  0  0  0  0  0  0  0  0  0
  151.6001  137.8137  154.5640 H   0  0  0  0  0  0  0  0  0  0  0  0
  150.8028  138.0199  156.1059 H   0  0  0  0  0  0  0  0  0  0  0  0
  150.4162  139.7472  153.6201 H   0  0  0  0  0  0  0  0  0  0  0  0
  149.2574  138.6159  154.2737 H   0  0  0  0  0  0  0  0  0  0  0  0
  149.0416  139.9440  156.3385 H   0  0  0  0  0  0  0  0  0  0  0  0
  148.3654  140.2191  152.8234 H   0  0  0  0  0  0  0  0  0  0  0  0
  146.2531  141.8957  152.4223 H   0  0  0  0  0  0  0  0  0  0  0  0
  146.0279  143.2101  154.8508 H   0  0  0  0  0  0  0  0  0  0  0  0
  149.4906  143.0727  156.3991 H   0  0  0  0  0  0  0  0  0  0  0  0
  1  2  3  0  0  0  0
  2  3  1  0  0  0  0
  3  4  1  0  0  0  0
  3 18  1  0  0  0  0
  3 19  1  0  0  0  0
  4  5  1  0  0  0  0
  4 20  1  0  0  0  0
  4 21  1  0  0  0  0
  5  6  1  0  0  0  0
  5 22  1  0  0  0  0
  5 23  1  0  0  0  0
  6  7  1  0  0  0  0
  6 24  1  0  0  0  0
  6 38  1  0  0  0  0
  7 12  1  0  0  0  0
  7  8  1  0  0  0  0
  7 25  1  0  0  0  0
  8  9  1  0  0  0  0
  8 26  1  0  0  0  0
  8 27  1  0  0  0  0
  9 10  1  0  0  0  0
  9 28  1  0  0  0  0
  9 29  1  0  0  0  0
 10 11  1  0  0  0  0
 10 30  1  0  0  0  0
 10 31  1  0  0  0  0
 11 12  1  0  0  0  0
 11 32  1  0  0  0  0
 11 33  1  0  0  0  0
 12 13  1  0  0  0  0
 12 34  1  0  0  0  0
 13 17  1  0  0  0  0
 13 14  1  0  0  0  0
 14 15  2  0  0  0  0
 14 35  1  0  0  0  0
 15 16  1  0  0  0  0
 15 36  1  0  0  0  0
 16 17  2  0  0  0  0
 16 37  1  0  0  0  0
M  CHG  1   6   1
M  END
> <s_m_source_file>
AV-unprocessed.smi

> <i_m_source_file_index>
3185

> <i_lp_mmshare_version>
43012

> <i_f3d_flags>
0

> <s_epik_input>
TiNDW0NIMl1bQ0gyXVtDSDJdW05IXVtDQEBIXTFbQ0gyXVtDSDJdW0NIMl1bQ0gyXVtDQEhdMW4yW2NIXVtjSF1bY0hdbjI=

> <s_epik_cmdline>
J2VwaWtfcHl0aG9uJywgJy1waCcsICc3LjAnLCAnLXRuJywgJzgnLCAnLW1hJywgJzIwMCcsICctbWV0YWxfYmluZGluZycsICctaW1hZScsICc8aW5maWxlLm1hZT4nLCAnLW9tYWUnLCAnPG91dGZpbGUubWFlPic=

> <r_lp_tautomer_probability>
1

> <r_epik_Ionization_Penalty>
0.0143465

> <r_epik_Ionization_Penalty_Charging>
0.0143338

> <r_epik_Ionization_Penalty_Neutral>
1.27047e-05

> <r_epik_State_Penalty>
0.0112058

> <r_epik_Charging_Adjusted_Penalty>
0.0255397

> <i_epik_Tot_Q>
1

> <i_epik_Tot_abs_Q>
1

> <r_epik_Metal_State_Penalty>
0.0112253

> <b_epik_Metal_Only>
0

> <s_lp_Force_Field>
OPLS_2005

> <r_lp_Energy>
15.0666

> <b_lp_Chiralities_Consistent>
1

> <s_lp_Variant>
AV-unprocessed.smi:3185-4

> <Gold.Version>
5.8.1

> <Gold.Id.Protein>
6NUR|6NUR_protein|mol2

> <Gold.PLP.Fitness>
46.7057

> <Gold.PLP.PLP>
-38.7522

> <Gold.PLP.part.hbond>
-1.0000

> <Gold.PLP.part.metal>
0.0000

> <Gold.PLP.part.buried>
-4.5539

> <Gold.PLP.part.nonpolar>
-33.6839

> <Gold.PLP.part.repulsive>
1.2254

> <Gold.PLP.ligand.clash>
0.0000

> <Gold.PLP.ligand.torsion>
0.5864

> <Gold.PLP.Chemscore.Hbond>
2.0000

> <Gold.PLP.Chemscore.CHOScore>
1.0000

> <Gold.PLP.Chemscore.Metal>
0.0000

> <Gold.Chemscore.Hbonds>
donor molecule, donor type, donor heavy atom, donor atom, acceptor molecule, acceptor atom, score
      L1  H     6    38       P1  8028  2.00
      L1  C    14    35       P1  7957  1.00

> <Gold.PLP.Chemscore.Internal.Correction>
0.1262

> <Gold.Rescore>
     Score         DG    S(hbond)    S(metal)    S(lipo)     H(rot)  DE(clash)    DE(int)     intcor
     12.35     -14.94       0.97        0.00      94.27       1.88       0.43       2.16       ----

> <Gold.Chemscore.Fitness>
12.3470

> <Gold.Chemscore.DG>
-14.9354

> <Gold.Chemscore.ZeroCoef>
-5.4800

> <Gold.Chemscore.Hbond>
0.9673

> <Gold.Chemscore.Metal>
0.0000

> <Gold.Chemscore.Lipo>
94.2707

> <Gold.Chemscore.Internal_Hbond>
0.0000

> <Gold.Chemscore.DEClash>
0.4332

> <Gold.Chemscore.DEInternal>
2.1552

> <Gold.Chemscore.Rot>
1.8769

> <Gold.Chemscore.Internal.Correction>
   9.000000E+99

> <Gold.Chemscore.Hbonds>
donor molecule, donor type, donor heavy atom, donor atom, acceptor molecule, acceptor atom, score
      L1  H     6    38       P1  8028  0.99

> <Gold.Chemscore.Hbond.Weighted>
-3.2307

> <Gold.Chemscore.Metal.Weighted>
-0.0000

> <Gold.Chemscore.Lipo.Weighted>
-11.0297

> <Gold.Chemscore.Internal_Hbond.Weighted>
0.0000

> <Gold.Chemscore.DEClash.Weighted>
0.4332

> <Gold.Chemscore.DEInternal.Weighted>
2.1552

> <Gold.Chemscore.Rot.Weighted>
4.8049

> <Gold.Chemscore.Internal.Correction.Weighted>
   9.000000E+99

> <Gold.Protein.RotatedTorsions>
[ 6907 6896 6895 6894 ] final  -18.05 input  -60.11 | X-H torsion
[ 7974 7965 7964 7962 ] final  -13.84 input  175.53 | X-H torsion
[ 8008 7997 7996 7995 ] final  171.33 input   59.86 | X-H torsion
[ 10167 10162 10161 10158 ] final   22.22 input  -65.29 | X-H torsion
[ 10718 10713 10712 10709 ] final -139.86 input   66.30 | X-H torsion
[ 10763 10752 10751 10750 ] final   16.26 input  -60.55 | X-H torsion
[ 11005 11000 10999 10996 ] final    2.61 input  -57.11 | X-H torsion

> <Gold.Protein.ActiveResidues>
 VAL166  LYS551  ARG553  GLY616  TRP617  ASP618  TYR619  PRO620  LYS621  CYS622 
 ASP623  PHE694  ASN695  SER759  ASP760  ASP761  ALA762  ILE779  LEU786  VAL792 
 PHE793  MET794  SER795  GLU796  ALA797  LYS798  CYS799  TRP800  GLU811  SER814 

> <Gold.Protein.RotatedAtoms>
  151.2841  135.0722  159.9179 H   0  0  0  0  0  0  0  0  0  0  0  0  # atno 6907 bound_to 6896
  152.5329  134.0000  159.7900 H   0  0  0  0  0  0  0  0  0  0  0  0  # atno 6908 bound_to 6896
  151.0259  133.5783  159.2697 H   0  0  0  0  0  0  0  0  0  0  0  0  # atno 6909 bound_to 6896
  146.2098  140.3262  142.8395 H   0  0  0  0  0  0  0  0  0  0  0  0  # atno 7974 bound_to 7965
  156.1281  140.1514  156.9106 H   0  0  0  0  0  0  0  0  0  0  0  0  # atno 8008 bound_to 7997
  154.4887  140.0857  156.7586 H   0  0  0  0  0  0  0  0  0  0  0  0  # atno 8009 bound_to 7997
  155.4307  140.3427  155.4282 H   0  0  0  0  0  0  0  0  0  0  0  0  # atno 8010 bound_to 7997
  140.5366  143.9750  150.6495 H   0  0  0  0  0  0  0  0  0  0  0  0  # atno 10167 bound_to 10162
  156.3156  130.7506  151.1592 H   0  0  0  0  0  0  0  0  0  0  0  0  # atno 10718 bound_to 10713
  153.1448  135.6767  153.8972 H   0  0  0  0  0  0  0  0  0  0  0  0  # atno 10763 bound_to 10752
  153.8417  135.3104  155.3428 H   0  0  0  0  0  0  0  0  0  0  0  0  # atno 10764 bound_to 10752
  154.7816  135.4885  153.9941 H   0  0  0  0  0  0  0  0  0  0  0  0  # atno 10765 bound_to 10752
  140.6024  133.9824  155.8138 H   0  0  0  0  0  0  0  0  0  0  0  0  # atno 11005 bound_to 11000
  144.8884  140.7492  143.5942 LP  0  0  0  0  0  0  0  0  0  0  0  0  # atno 17320 bound_to 7965
  145.3184  139.1796  143.4601 LP  0  0  0  0  0  0  0  0  0  0  0  0  # atno 17321 bound_to 7965
  140.3139  143.3180  152.0851 LP  0  0  0  0  0  0  0  0  0  0  0  0  # atno 17342 bound_to 10162
  139.4973  144.6618  151.6447 LP  0  0  0  0  0  0  0  0  0  0  0  0  # atno 17343 bound_to 10162
  157.7401  131.0521  150.5190 LP  0  0  0  0  0  0  0  0  0  0  0  0  # atno 17370 bound_to 10713
  156.5335  130.4190  149.6189 LP  0  0  0  0  0  0  0  0  0  0  0  0  # atno 17371 bound_to 10713
  141.0863  133.9985  157.3308 LP  0  0  0  0  0  0  0  0  0  0  0  0  # atno 17394 bound_to 11000
  139.9227  135.0201  156.8122 LP  0  0  0  0  0  0  0  0  0  0  0  0  # atno 17395 bound_to 11000

$$$$
