AV-unprocessed.smi:78|AV-procd|sdf|775|dock5
  -GOLD-   2262017123D 1   1.00000     0.00000
 Structure written by MMmdl.
 56 59  0  0  0  0  0  0  0  0  1 V2000
  147.5779  134.8269  162.4564 C   0  0  0  0  0  0  0  0  0  0  0  0
  146.9910  134.0899  161.2433 C   0  0  0  0  0  0  0  0  0  0  0  0
  146.6846  132.6272  161.6063 C   0  0  0  0  0  0  0  0  0  0  0  0
  147.9351  134.2154  160.0245 C   0  0  0  0  0  0  0  0  0  0  0  0
  147.8256  135.5133  159.1751 C   0  0  2  0  0  0  0  0  0  0  0  0
  147.2577  136.6491  160.0530 C   0  0  0  0  0  0  0  0  0  0  0  0
  147.9514  137.1240  160.9501 O   0  0  0  0  0  0  0  0  0  0  0  0
  146.0142  137.1059  159.8232 N   0  0  0  0  0  0  0  0  0  0  0  0
  145.1087  136.6523  158.7695 C   0  0  0  0  0  0  0  0  0  0  0  0
  145.5484  135.3374  158.1058 C   0  0  0  0  0  0  0  0  0  0  0  0
  147.0008  135.2984  157.9760 N   0  0  0  0  0  0  0  0  0  0  0  0
  147.5632  134.7888  156.8507 C   0  0  0  0  0  0  0  0  0  0  0  0
  148.9084  134.6057  156.8330 N   0  0  0  0  0  0  0  0  0  0  0  0
  149.5062  134.0884  155.7567 C   0  0  0  0  0  0  0  0  0  0  0  0
  148.9551  133.6815  154.6122 N   0  0  0  0  0  0  0  0  0  0  0  0
  147.6025  133.8537  154.6238 C   0  0  0  0  0  0  0  0  0  0  0  0
  146.8338  134.4084  155.6864 C   0  0  0  0  0  0  0  0  0  0  0  0
  145.4902  134.4254  155.3323 N   0  0  0  0  0  0  0  0  0  0  0  0
  145.4683  133.9261  154.1276 C   0  0  0  0  0  0  0  0  0  0  0  0
  146.6896  133.5181  153.6377 N   0  0  0  0  0  0  0  0  0  0  0  0
  146.9702  132.9436  152.3487 C   0  0  0  0  0  0  0  0  0  0  0  0
  146.5645  133.6508  151.0466 C   0  0  0  0  0  0  0  0  0  0  0  0
  145.3465  132.7093  150.9149 C   0  0  0  0  0  0  0  0  0  0  0  0
  144.0334  133.2347  151.5276 C   0  0  0  0  0  0  0  0  0  0  0  0
  143.6096  134.4301  150.9043 O   0  0  0  0  0  0  0  0  0  0  0  0
  145.0092  132.1819  149.5067 C   0  0  0  0  0  0  0  0  0  0  0  0
  144.4674  133.1815  148.6669 O   0  0  0  0  0  0  0  0  0  0  0  0
  146.1357  131.7583  151.8419 C   0  0  0  0  0  0  0  0  0  0  0  0
  148.5289  134.3914  162.7646 H   0  0  0  0  0  0  0  0  0  0  0  0
  146.8998  134.7833  163.3090 H   0  0  0  0  0  0  0  0  0  0  0  0
  147.7505  135.8798  162.2313 H   0  0  0  0  0  0  0  0  0  0  0  0
  146.0494  134.5852  161.0173 H   0  0  0  0  0  0  0  0  0  0  0  0
  147.5984  132.0745  161.8267 H   0  0  0  0  0  0  0  0  0  0  0  0
  146.1678  132.1086  160.8001 H   0  0  0  0  0  0  0  0  0  0  0  0
  146.0420  132.5695  162.4851 H   0  0  0  0  0  0  0  0  0  0  0  0
  148.9651  134.1084  160.3677 H   0  0  0  0  0  0  0  0  0  0  0  0
  147.7574  133.3509  159.3824 H   0  0  0  0  0  0  0  0  0  0  0  0
  148.8247  135.8445  158.8933 H   0  0  0  0  0  0  0  0  0  0  0  0
  145.6748  137.8459  160.4205 H   0  0  0  0  0  0  0  0  0  0  0  0
  144.0983  136.5593  159.1681 H   0  0  0  0  0  0  0  0  0  0  0  0
  145.0760  137.4407  158.0168 H   0  0  0  0  0  0  0  0  0  0  0  0
  145.2281  134.4868  158.7080 H   0  0  0  0  0  0  0  0  0  0  0  0
  145.0504  135.2502  157.1394 H   0  0  0  0  0  0  0  0  0  0  0  0
  150.5787  133.9805  155.8245 H   0  0  0  0  0  0  0  0  0  0  0  0
  144.5459  133.8324  153.5745 H   0  0  0  0  0  0  0  0  0  0  0  0
  148.0347  132.7061  152.3552 H   0  0  0  0  0  0  0  0  0  0  0  0
  146.3116  134.7064  151.1341 H   0  0  0  0  0  0  0  0  0  0  0  0
  147.3084  133.5080  150.2612 H   0  0  0  0  0  0  0  0  0  0  0  0
  143.2372  132.4944  151.4421 H   0  0  0  0  0  0  0  0  0  0  0  0
  144.1427  133.4369  152.5929 H   0  0  0  0  0  0  0  0  0  0  0  0
  142.7072  134.3287  150.6422 H   0  0  0  0  0  0  0  0  0  0  0  0
  145.8989  131.7828  149.0184 H   0  0  0  0  0  0  0  0  0  0  0  0
  144.2855  131.3679  149.5559 H   0  0  0  0  0  0  0  0  0  0  0  0
  145.1358  133.8285  148.5008 H   0  0  0  0  0  0  0  0  0  0  0  0
  146.7473  131.0280  151.3101 H   0  0  0  0  0  0  0  0  0  0  0  0
  145.5247  131.2651  152.5983 H   0  0  0  0  0  0  0  0  0  0  0  0
  1  2  1  0  0  0  0
  1 29  1  0  0  0  0
  1 30  1  0  0  0  0
  1 31  1  0  0  0  0
  2  3  1  0  0  0  0
  2  4  1  0  0  0  0
  2 32  1  0  0  0  0
  3 33  1  0  0  0  0
  3 34  1  0  0  0  0
  3 35  1  0  0  0  0
  4  5  1  0  0  0  0
  4 36  1  0  0  0  0
  4 37  1  0  0  0  0
  5 11  1  0  0  0  0
  5  6  1  0  0  0  0
  5 38  1  0  0  0  0
  6  7  2  0  0  0  0
  6  8  1  0  0  0  0
  8  9  1  0  0  0  0
  8 39  1  0  0  0  0
  9 10  1  0  0  0  0
  9 40  1  0  0  0  0
  9 41  1  0  0  0  0
 10 11  1  0  0  0  0
 10 42  1  0  0  0  0
 10 43  1  0  0  0  0
 11 12  1  0  0  0  0
 12 17  1  0  0  0  0
 12 13  2  0  0  0  0
 13 14  1  0  0  0  0
 14 15  2  0  0  0  0
 14 44  1  0  0  0  0
 15 16  1  0  0  0  0
 16 20  1  0  0  0  0
 16 17  2  0  0  0  0
 17 18  1  0  0  0  0
 18 19  2  0  0  0  0
 19 20  1  0  0  0  0
 19 45  1  0  0  0  0
 20 21  1  0  0  0  0
 21 28  1  0  0  0  0
 21 22  1  0  0  0  0
 21 46  1  0  0  0  0
 22 23  1  0  0  0  0
 22 47  1  0  0  0  0
 22 48  1  0  0  0  0
 23 24  1  0  0  0  0
 23 26  1  0  0  0  0
 23 28  1  0  0  0  0
 24 25  1  0  0  0  0
 24 49  1  0  0  0  0
 24 50  1  0  0  0  0
 25 51  1  0  0  0  0
 26 27  1  0  0  0  0
 26 52  1  0  0  0  0
 26 53  1  0  0  0  0
 27 54  1  0  0  0  0
 28 55  1  0  0  0  0
 28 56  1  0  0  0  0
M  END
> <s_m_source_file>
AV-unprocessed.smi

> <i_m_source_file_index>
78

> <i_lp_mmshare_version>
43012

> <i_f3d_flags>
0

> <s_epik_input>
W0NIM11bQ0hdKFtDSDNdKVtDSDJdW0NAQEhdMUMoPU8pW05IXVtDSDJdW0NIMl1OMWMobltjSF1uMiljKGMyMyluW2NIXW4zW0NIXShbQ0gyXTQpW0NIMl1DNChbQ0gyXVtPSF0pW0NIMl1bT0hd

> <s_epik_cmdline>
J2VwaWtfcHl0aG9uJywgJy1waCcsICc3LjAnLCAnLXRuJywgJzgnLCAnLW1hJywgJzIwMCcsICctbWV0YWxfYmluZGluZycsICctaW1hZScsICc8aW5maWxlLm1hZT4nLCAnLW9tYWUnLCAnPG91dGZpbGUubWFlPic=

> <r_lp_tautomer_probability>
1

> <r_epik_Ionization_Penalty>
0.000550083

> <r_epik_Ionization_Penalty_Charging>
0

> <r_epik_Ionization_Penalty_Neutral>
0.000550083

> <r_epik_State_Penalty>
0.000250415

> <r_epik_Charging_Adjusted_Penalty>
0.000250415

> <i_epik_Tot_Q>
0

> <i_epik_Tot_abs_Q>
0

> <r_epik_Metal_State_Penalty>
-0

> <b_epik_Metal_Only>
0

> <s_lp_Force_Field>
OPLS_2005

> <r_lp_Energy>
48.6174

> <b_lp_Chiralities_Consistent>
1

> <s_lp_Variant>
AV-unprocessed.smi:78-1

> <Gold.Version>
5.8.1

> <Gold.Id.Protein>
6NUR|6NUR_protein|mol2

> <Gold.PLP.Fitness>
45.4429

> <Gold.PLP.PLP>
-35.6662

> <Gold.PLP.part.hbond>
-4.5183

> <Gold.PLP.part.metal>
0.0000

> <Gold.PLP.part.buried>
-6.1335

> <Gold.PLP.part.nonpolar>
-25.4599

> <Gold.PLP.part.repulsive>
0.2482

> <Gold.PLP.ligand.clash>
0.0000

> <Gold.PLP.ligand.torsion>
1.1412

> <Gold.PLP.Chemscore.Hbond>
3.7920

> <Gold.PLP.Chemscore.CHOScore>
0.0000

> <Gold.PLP.Chemscore.Metal>
0.0000

> <Gold.Chemscore.Hbonds>
donor molecule, donor type, donor heavy atom, donor atom, acceptor molecule, acceptor atom, score
      L1  H    25    51       P1 10186  1.00
      L1  H    27    54       P1  7921  1.00
      P1  H  6931  6943       L1     7  0.94
      P1  H  6934  6947       L1     7  0.73

> <Gold.PLP.Chemscore.Internal.Correction>
0.6830

> <Gold.Rescore>
     Score         DG    S(hbond)    S(metal)    S(lipo)     H(rot)  DE(clash)    DE(int)     intcor
     12.34     -16.70       3.28        0.00      76.40       3.39       0.01       4.35       ----

> <Gold.Chemscore.Fitness>
12.3414

> <Gold.Chemscore.DG>
-16.6966

> <Gold.Chemscore.ZeroCoef>
-5.4800

> <Gold.Chemscore.Hbond>
3.2771

> <Gold.Chemscore.Metal>
0.0000

> <Gold.Chemscore.Lipo>
76.4025

> <Gold.Chemscore.Internal_Hbond>
0.0000

> <Gold.Chemscore.DEClash>
0.0089

> <Gold.Chemscore.DEInternal>
4.3463

> <Gold.Chemscore.Rot>
3.3859

> <Gold.Chemscore.Internal.Correction>
   9.000000E+99

> <Gold.Chemscore.Hbonds>
donor molecule, donor type, donor heavy atom, donor atom, acceptor molecule, acceptor atom, score
      L1  H    25    51       P1 10186  0.48
      L1  H    27    54       P1  7921  0.89
      P1  H  6931  6943       L1     7  0.91
      P1  H  6934  6947       L1     7  0.15

> <Gold.Chemscore.Hbond.Weighted>
-10.9454

> <Gold.Chemscore.Metal.Weighted>
-0.0000

> <Gold.Chemscore.Lipo.Weighted>
-8.9391

> <Gold.Chemscore.Internal_Hbond.Weighted>
0.0000

> <Gold.Chemscore.DEClash.Weighted>
0.0089

> <Gold.Chemscore.DEInternal.Weighted>
4.3463

> <Gold.Chemscore.Rot.Weighted>
8.6679

> <Gold.Chemscore.Internal.Correction.Weighted>
   9.000000E+99

> <Gold.Protein.RotatedTorsions>
[ 6907 6896 6895 6894 ] final  -21.76 input  -60.11 | X-H torsion
[ 7974 7965 7964 7962 ] final  114.07 input  175.53 | X-H torsion
[ 8008 7997 7996 7995 ] final   26.71 input   59.86 | X-H torsion
[ 10167 10162 10161 10158 ] final  -13.05 input  -65.29 | X-H torsion
[ 10718 10713 10712 10709 ] final    4.50 input   66.30 | X-H torsion
[ 10763 10752 10751 10750 ] final -122.95 input  -60.55 | X-H torsion
[ 11005 11000 10999 10996 ] final  111.40 input  -57.11 | X-H torsion

> <Gold.Protein.ActiveResidues>
 VAL166  LYS551  ARG553  GLY616  TRP617  ASP618  TYR619  PRO620  LYS621  CYS622 
 ASP623  PHE694  ASN695  SER759  ASP760  ASP761  ALA762  ILE779  LEU786  VAL792 
 PHE793  MET794  SER795  GLU796  ALA797  LYS798  CYS799  TRP800  GLU811  SER814 

> <Gold.Protein.RotatedAtoms>
  151.2285  135.0545  159.8977 H   0  0  0  0  0  0  0  0  0  0  0  0  # atno 6907 bound_to 6896
  152.5407  134.0562  159.8142 H   0  0  0  0  0  0  0  0  0  0  0  0  # atno 6908 bound_to 6896
  151.0739  133.5395  159.2657 H   0  0  0  0  0  0  0  0  0  0  0  0  # atno 6909 bound_to 6896
  145.2090  139.2915  143.4278 H   0  0  0  0  0  0  0  0  0  0  0  0  # atno 7974 bound_to 7965
  155.0316  140.3159  155.4756 H   0  0  0  0  0  0  0  0  0  0  0  0  # atno 8008 bound_to 7997
  156.2873  140.2179  156.5380 H   0  0  0  0  0  0  0  0  0  0  0  0  # atno 8009 bound_to 7997
  154.7366  140.0477  157.0761 H   0  0  0  0  0  0  0  0  0  0  0  0  # atno 8010 bound_to 7997
  140.7174  143.5467  150.9348 H   0  0  0  0  0  0  0  0  0  0  0  0  # atno 10167 bound_to 10162
  156.8936  130.5696  149.5649 H   0  0  0  0  0  0  0  0  0  0  0  0  # atno 10718 bound_to 10713
  154.8699  135.4115  154.2864 H   0  0  0  0  0  0  0  0  0  0  0  0  # atno 10763 bound_to 10752
  153.3748  135.7009  153.6616 H   0  0  0  0  0  0  0  0  0  0  0  0  # atno 10764 bound_to 10752
  153.5463  135.3638  155.2712 H   0  0  0  0  0  0  0  0  0  0  0  0  # atno 10765 bound_to 10752
  139.8903  134.9507  156.6427 H   0  0  0  0  0  0  0  0  0  0  0  0  # atno 11005 bound_to 11000
  146.3402  140.2359  142.8594 LP  0  0  0  0  0  0  0  0  0  0  0  0  # atno 17320 bound_to 7965
  144.9875  140.8516  143.5360 LP  0  0  0  0  0  0  0  0  0  0  0  0  # atno 17321 bound_to 7965
  139.9190  143.6628  152.3100 LP  0  0  0  0  0  0  0  0  0  0  0  0  # atno 17342 bound_to 10162
  139.7039  144.7631  151.1227 LP  0  0  0  0  0  0  0  0  0  0  0  0  # atno 17343 bound_to 10162
  156.0617  130.5668  150.9206 LP  0  0  0  0  0  0  0  0  0  0  0  0  # atno 17370 bound_to 10713
  157.6069  131.0938  150.8863 LP  0  0  0  0  0  0  0  0  0  0  0  0  # atno 17371 bound_to 10713
  140.7581  133.8840  155.8397 LP  0  0  0  0  0  0  0  0  0  0  0  0  # atno 17394 bound_to 11000
  140.9944  134.1234  157.4377 LP  0  0  0  0  0  0  0  0  0  0  0  0  # atno 17395 bound_to 11000

$$$$
