AV-unprocessed.smi:773|AV-procd|sdf|3690|dock2
  -GOLD-   22720 1103D 1   1.00000     0.00000
 Structure written by MMmdl.
 39 40  0  0  0  0  0  0  0  0  1 V2000
  146.1745  140.9808  157.3359 C   0  0  0  0  0  0  0  0  0  0  0  0
  145.9699  141.9767  156.2312 C   0  0  0  0  0  0  0  0  0  0  0  0
  145.1190  142.9746  156.4006 N   0  0  0  0  0  0  0  0  0  0  0  0
  145.1370  143.6995  155.2051 O   0  0  0  0  0  0  0  0  0  0  0  0
  146.0095  143.1025  154.3539 C   0  0  0  0  0  0  0  0  0  0  0  0
  146.1570  143.7172  153.0037 C   0  0  0  0  0  0  0  0  0  0  0  0
  146.5762  142.0060  154.9424 C   0  0  0  0  0  0  0  0  0  0  0  0
  147.5770  141.0366  154.3616 C   0  0  0  0  0  0  0  0  0  0  0  0
  148.7216  140.6840  155.3385 C   0  0  1  0  0  0  0  0  0  0  0  0
  149.8129  139.8479  154.6566 C   0  0  0  0  0  0  0  0  0  0  0  0
  149.3221  141.8912  155.9076 N   0  0  0  0  0  0  0  0  0  0  0  0
  150.1873  141.9256  156.9321 C   0  0  0  0  0  0  0  0  0  0  0  0
  150.6572  140.9269  157.4779 O   0  0  0  0  0  0  0  0  0  0  0  0
  150.4429  143.1805  157.3225 N   0  0  0  0  0  0  0  0  0  0  0  0
  151.2436  143.5243  158.4901 C   0  0  0  0  0  0  0  0  0  0  0  0
  150.5557  144.5266  159.4303 C   0  0  0  0  0  0  0  0  0  0  0  0
  151.9187  145.2153  159.5692 C   0  0  0  0  0  0  0  0  0  0  0  0
  152.2813  144.6175  158.2035 C   0  0  0  0  0  0  0  0  0  0  0  0
  146.1282  139.9609  156.9539 H   0  0  0  0  0  0  0  0  0  0  0  0
  145.4136  141.0751  158.1116 H   0  0  0  0  0  0  0  0  0  0  0  0
  147.1486  141.1161  157.8060 H   0  0  0  0  0  0  0  0  0  0  0  0
  147.2088  143.8071  152.7324 H   0  0  0  0  0  0  0  0  0  0  0  0
  145.7138  144.7127  152.9736 H   0  0  0  0  0  0  0  0  0  0  0  0
  145.6637  143.1053  152.2484 H   0  0  0  0  0  0  0  0  0  0  0  0
  147.0771  140.1170  154.0555 H   0  0  0  0  0  0  0  0  0  0  0  0
  148.0064  141.4458  153.4465 H   0  0  0  0  0  0  0  0  0  0  0  0
  148.3030  140.0769  156.1431 H   0  0  0  0  0  0  0  0  0  0  0  0
  149.3997  138.9282  154.2419 H   0  0  0  0  0  0  0  0  0  0  0  0
  150.5928  139.5676  155.3654 H   0  0  0  0  0  0  0  0  0  0  0  0
  150.2852  140.3977  153.8417 H   0  0  0  0  0  0  0  0  0  0  0  0
  149.0037  142.7720  155.5316 H   0  0  0  0  0  0  0  0  0  0  0  0
  150.0142  143.9416  156.8166 H   0  0  0  0  0  0  0  0  0  0  0  0
  151.6705  142.6703  159.0200 H   0  0  0  0  0  0  0  0  0  0  0  0
  149.8134  145.1553  158.9341 H   0  0  0  0  0  0  0  0  0  0  0  0
  150.1655  144.0930  160.3515 H   0  0  0  0  0  0  0  0  0  0  0  0
  151.8799  146.3045  159.5970 H   0  0  0  0  0  0  0  0  0  0  0  0
  152.5190  144.8087  160.3849 H   0  0  0  0  0  0  0  0  0  0  0  0
  153.3089  144.2623  158.1202 H   0  0  0  0  0  0  0  0  0  0  0  0
  152.0102  145.2728  157.3734 H   0  0  0  0  0  0  0  0  0  0  0  0
  1  2  1  0  0  0  0
  1 19  1  0  0  0  0
  1 20  1  0  0  0  0
  1 21  1  0  0  0  0
  2  7  1  0  0  0  0
  2  3  2  0  0  0  0
  3  4  1  0  0  0  0
  4  5  1  0  0  0  0
  5  6  1  0  0  0  0
  5  7  2  0  0  0  0
  6 22  1  0  0  0  0
  6 23  1  0  0  0  0
  6 24  1  0  0  0  0
  7  8  1  0  0  0  0
  8  9  1  0  0  0  0
  8 25  1  0  0  0  0
  8 26  1  0  0  0  0
  9 10  1  0  0  0  0
  9 11  1  0  0  0  0
  9 27  1  0  0  0  0
 10 28  1  0  0  0  0
 10 29  1  0  0  0  0
 10 30  1  0  0  0  0
 11 12  1  0  0  0  0
 11 31  1  0  0  0  0
 12 13  2  0  0  0  0
 12 14  1  0  0  0  0
 14 15  1  0  0  0  0
 14 32  1  0  0  0  0
 15 18  1  0  0  0  0
 15 16  1  0  0  0  0
 15 33  1  0  0  0  0
 16 17  1  0  0  0  0
 16 34  1  0  0  0  0
 16 35  1  0  0  0  0
 17 18  1  0  0  0  0
 17 36  1  0  0  0  0
 17 37  1  0  0  0  0
 18 38  1  0  0  0  0
 18 39  1  0  0  0  0
M  END
> <s_m_source_file>
AV-unprocessed.smi

> <i_m_source_file_index>
773

> <i_lp_mmshare_version>
43012

> <i_f3d_flags>
0

> <s_epik_input>
W0NIM11jMW5vYyhbQ0gzXSljMVtDSDJdW0NASF0oW0NIM10pW05IXUMoPU8pW05IXVtDSF0yW0NIMl1bQ0gyXVtDSDJdMg==

> <s_epik_cmdline>
J2VwaWtfcHl0aG9uJywgJy1waCcsICc3LjAnLCAnLXRuJywgJzgnLCAnLW1hJywgJzIwMCcsICctbWV0YWxfYmluZGluZycsICctaW1hZScsICc8aW5maWxlLm1hZT4nLCAnLW9tYWUnLCAnPG91dGZpbGUubWFlPic=

> <r_lp_tautomer_probability>
1

> <r_epik_Ionization_Penalty>
6.63278e-05

> <r_epik_Ionization_Penalty_Charging>
0

> <r_epik_Ionization_Penalty_Neutral>
6.63278e-05

> <r_epik_State_Penalty>
-0

> <r_epik_Charging_Adjusted_Penalty>
0

> <i_epik_Tot_Q>
0

> <i_epik_Tot_abs_Q>
0

> <r_epik_Metal_State_Penalty>
-0

> <b_epik_Metal_Only>
0

> <s_lp_Force_Field>
OPLS_2005

> <r_lp_Energy>
6.89309

> <b_lp_Chiralities_Consistent>
1

> <s_lp_Variant>
AV-unprocessed.smi:773-2

> <Gold.Version>
5.8.1

> <Gold.Id.Protein>
6NUR|6NUR_protein|mol2

> <Gold.PLP.Fitness>
41.2140

> <Gold.PLP.PLP>
-35.8182

> <Gold.PLP.part.hbond>
-2.0000

> <Gold.PLP.part.metal>
0.0000

> <Gold.PLP.part.buried>
-5.2178

> <Gold.PLP.part.nonpolar>
-29.0794

> <Gold.PLP.part.repulsive>
0.3565

> <Gold.PLP.ligand.clash>
0.0000

> <Gold.PLP.ligand.torsion>
0.4293

> <Gold.PLP.Chemscore.Hbond>
2.0000

> <Gold.PLP.Chemscore.CHOScore>
0.0000

> <Gold.PLP.Chemscore.Metal>
0.0000

> <Gold.Chemscore.Hbonds>
donor molecule, donor type, donor heavy atom, donor atom, acceptor molecule, acceptor atom, score
      L1  H    11    31       P1  8028  1.00
      L1  H    14    32       P1  8028  1.00

> <Gold.PLP.Chemscore.Internal.Correction>
0.2544

> <Gold.Rescore>
     Score         DG    S(hbond)    S(metal)    S(lipo)     H(rot)  DE(clash)    DE(int)     intcor
     17.55     -18.35       1.95        0.00      88.59       1.56       0.52       0.28       ----

> <Gold.Chemscore.Fitness>
17.5455

> <Gold.Chemscore.DG>
-18.3468

> <Gold.Chemscore.ZeroCoef>
-5.4800

> <Gold.Chemscore.Hbond>
1.9467

> <Gold.Chemscore.Metal>
0.0000

> <Gold.Chemscore.Lipo>
88.5878

> <Gold.Chemscore.Internal_Hbond>
0.0000

> <Gold.Chemscore.DEClash>
0.5184

> <Gold.Chemscore.DEInternal>
0.2830

> <Gold.Chemscore.Rot>
1.5625

> <Gold.Chemscore.Internal.Correction>
   9.000000E+99

> <Gold.Chemscore.Hbonds>
donor molecule, donor type, donor heavy atom, donor atom, acceptor molecule, acceptor atom, score
      L1  H    11    31       P1  8028  0.94
      L1  H    14    32       P1  8028  0.98

> <Gold.Chemscore.Hbond.Weighted>
-6.5021

> <Gold.Chemscore.Metal.Weighted>
-0.0000

> <Gold.Chemscore.Lipo.Weighted>
-10.3648

> <Gold.Chemscore.Internal_Hbond.Weighted>
0.0000

> <Gold.Chemscore.DEClash.Weighted>
0.5184

> <Gold.Chemscore.DEInternal.Weighted>
0.2830

> <Gold.Chemscore.Rot.Weighted>
4.0000

> <Gold.Chemscore.Internal.Correction.Weighted>
   9.000000E+99

> <Gold.Protein.RotatedTorsions>
[ 6907 6896 6895 6894 ] final -166.64 input  -60.11 | X-H torsion
[ 7974 7965 7964 7962 ] final  -95.92 input  175.53 | X-H torsion
[ 8008 7997 7996 7995 ] final  103.88 input   59.86 | X-H torsion
[ 10167 10162 10161 10158 ] final  119.28 input  -65.29 | X-H torsion
[ 10718 10713 10712 10709 ] final -177.05 input   66.30 | X-H torsion
[ 10763 10752 10751 10750 ] final   11.15 input  -60.55 | X-H torsion
[ 11005 11000 10999 10996 ] final  174.75 input  -57.11 | X-H torsion

> <Gold.Protein.ActiveResidues>
 VAL166  LYS551  ARG553  GLY616  TRP617  ASP618  TYR619  PRO620  LYS621  CYS622 
 ASP623  PHE694  ASN695  SER759  ASP760  ASP761  ALA762  ILE779  LEU786  VAL792 
 PHE793  MET794  SER795  GLU796  ALA797  LYS798  CYS799  TRP800  GLU811  SER814 

> <Gold.Protein.RotatedAtoms>
  151.4468  133.3628  159.2789 H   0  0  0  0  0  0  0  0  0  0  0  0  # atno 6907 bound_to 6896
  150.9119  134.8537  159.7441 H   0  0  0  0  0  0  0  0  0  0  0  0  # atno 6908 bound_to 6896
  152.4936  134.4399  159.9592 H   0  0  0  0  0  0  0  0  0  0  0  0  # atno 6909 bound_to 6896
  145.3537  140.9481  143.2540 H   0  0  0  0  0  0  0  0  0  0  0  0  # atno 7974 bound_to 7965
  156.1524  140.3157  155.8669 H   0  0  0  0  0  0  0  0  0  0  0  0  # atno 8008 bound_to 7997
  155.3946  140.0496  157.3056 H   0  0  0  0  0  0  0  0  0  0  0  0  # atno 8009 bound_to 7997
  154.5070  140.2150  155.9243 H   0  0  0  0  0  0  0  0  0  0  0  0  # atno 8010 bound_to 7997
  139.6056  144.7069  151.2961 H   0  0  0  0  0  0  0  0  0  0  0  0  # atno 10167 bound_to 10162
  156.8237  130.9629  151.3110 H   0  0  0  0  0  0  0  0  0  0  0  0  # atno 10718 bound_to 10713
  153.1956  135.6848  153.8296 H   0  0  0  0  0  0  0  0  0  0  0  0  # atno 10763 bound_to 10752
  153.7580  135.3214  155.3333 H   0  0  0  0  0  0  0  0  0  0  0  0  # atno 10764 bound_to 10752
  154.8142  135.4697  154.0699 H   0  0  0  0  0  0  0  0  0  0  0  0  # atno 10765 bound_to 10752
  140.3547  134.7164  157.4291 H   0  0  0  0  0  0  0  0  0  0  0  0  # atno 11005 bound_to 11000
  144.8698  139.5054  143.6773 LP  0  0  0  0  0  0  0  0  0  0  0  0  # atno 17320 bound_to 7965
  146.2957  139.7271  142.9128 LP  0  0  0  0  0  0  0  0  0  0  0  0  # atno 17321 bound_to 7965
  140.7282  143.6941  150.7898 LP  0  0  0  0  0  0  0  0  0  0  0  0  # atno 17342 bound_to 10162
  140.0526  143.5234  152.2666 LP  0  0  0  0  0  0  0  0  0  0  0  0  # atno 17343 bound_to 10162
  157.6443  130.8831  149.9509 LP  0  0  0  0  0  0  0  0  0  0  0  0  # atno 17370 bound_to 10713
  156.0974  130.3658  150.0281 LP  0  0  0  0  0  0  0  0  0  0  0  0  # atno 17371 bound_to 10713
  140.0675  134.5910  155.8679 LP  0  0  0  0  0  0  0  0  0  0  0  0  # atno 17394 bound_to 11000
  141.2002  133.6611  156.5883 LP  0  0  0  0  0  0  0  0  0  0  0  0  # atno 17395 bound_to 11000

$$$$
