#       Name:                AV-unprocessed.smi:3071
#       Creating user name   scv26
#       Creation time:       Fri Mar 27 17:11:56 2020


#       File generated by GOLD software.
#

@<TRIPOS>MOLECULE
AV-unprocessed.smi:3071
    29    30     1
SMALL
NO_CHARGES


@<TRIPOS>ATOM
      1 ****        -1.5040   2.5093  -0.8982 C.3            1 S1                 0.0000
      2 ****        -1.8991   1.0756  -1.0515 C.2            1 S1                 0.0000
      3 ****        -3.1551   0.6205  -1.1280 N.pl3          1 S1                 1.0000
      4 ****        -3.1619  -0.7402  -1.2707 C.2            1 S1                 0.0000
      5 ****        -1.8497  -1.1344  -1.2820 C.2            1 S1                 0.0000
      6 ****        -1.0941   0.0028  -1.1424 N.pl3          1 S1                 0.0000
      7 ****         0.3737   0.0740  -1.1012 C.3            1 S1                 0.0000
      8 ****         0.9352   0.0677   0.3337 C.3            1 S1                 0.0000
      9 ****         0.5108  -1.1282   1.1920 C.3            1 S1                 0.0000
     10 ****         1.6047  -1.1873   2.2515 C.3            1 S1                 0.0000
     11 ****         2.8647  -0.7704   1.4883 C.3            1 S1                 0.0000
     12 ****         2.4120   0.0553   0.3496 N.4            1 S1                 1.0000
     13 ****        -2.4042   3.1236  -0.8587 H              1 S1                 0.0000
     14 ****        -0.8959   2.7998  -1.7552 H              1 S1                 0.0000
     15 ****        -0.9378   2.6230   0.0260 H              1 S1                 0.0000
     16 ****        -4.0760  -1.3105  -1.3527 H              1 S1                 0.0000
     17 ****        -1.4100  -2.1169  -1.3756 H              1 S1                 0.0000
     18 ****         0.7572  -0.7804  -1.6607 H              1 S1                 0.0000
     19 ****         0.6941   0.9660  -1.6408 H              1 S1                 0.0000
     20 ****         0.6264   0.9784   0.8486 H              1 S1                 0.0000
     21 ****        -0.4856  -1.0123   1.6200 H              1 S1                 0.0000
     22 ****         0.5212  -2.0455   0.6009 H              1 S1                 0.0000
     23 ****         1.3921  -0.4637   3.0400 H              1 S1                 0.0000
     24 ****         1.6961  -2.1704   2.7148 H              1 S1                 0.0000
     25 ****         3.5663  -0.2245   2.1200 H              1 S1                 0.0000
     26 ****         3.3792  -1.6480   1.0949 H              1 S1                 0.0000
     27 ****         2.7548  -0.3646  -0.5030 H              1 S1                 0.0000
     28 ****         2.7669   0.9979   0.4285 H              1 S1                 0.0000
     29 ****        -3.9823   1.2033  -1.0894 H              1 S1                 0.0000
@<TRIPOS>BOND
    1    1    2 1     
    2    1   13 1     
    3    1   14 1     
    4    1   15 1     
    5    2    6 1     
    6    2    3 2     
    7    3    4 1     
    8    3   29 1     
    9    4    5 2     
   10    4   16 1     
   11    5    6 1     
   12    5   17 1     
   13    6    7 1     
   14    7    8 1     
   15    7   18 1     
   16    7   19 1     
   17    8   12 1     
   18    8    9 1     
   19    8   20 1     
   20    9   10 1     
   21    9   21 1     
   22    9   22 1     
   23   10   11 1     
   24   10   23 1     
   25   10   24 1     
   26   11   12 1     
   27   11   25 1     
   28   11   26 1     
   29   12   27 1     
   30   12   28 1     
@<TRIPOS>SUBSTRUCTURE
      1 S1             1
@<TRIPOS>SET
DONOR_HYDROGENS      STATIC     ATOMS    <user>   **** ""
3 29 27 28
ATOM$RED        STATIC     ATOMS    COLORGROUP SYSTEM
3 29 27 28
