#       Name:                AV-unprocessed.smi:3287
#       Creating user name   scv26
#       Creation time:       Fri Mar 27 18:52:32 2020


#       File generated by GOLD software.
#

@<TRIPOS>MOLECULE
AV-unprocessed.smi:3287
    46    47     1
SMALL
NO_CHARGES


@<TRIPOS>ATOM
      1 ****        -3.9273   0.5751  -2.3846 C.3            1 S1                 0.0000
      2 ****        -3.0931   1.2083  -1.2567 C.3            1 S1                 0.0000
      3 ****        -3.3169   0.4304   0.0556 C.3            1 S1                 0.0000
      4 ****        -2.5161   1.0222   1.2261 C.3            1 S1                 0.0000
      5 ****        -1.0130   1.1076   0.9132 C.3            1 S1                 0.0000
      6 ****        -0.4089  -0.2452   0.8898 N.4            1 S1                 1.0000
      7 ****         1.0629  -0.2871   1.0289 C.3            1 S1                 0.0000
      8 ****         1.5820  -1.7345   1.0745 C.3            1 S1                 0.0000
      9 ****         1.0350  -2.3817   2.2074 O.3            1 S1                 0.0000
     10 ****         3.1023  -1.7687   1.0814 C.ar           1 S1                 0.0000
     11 ****         3.8153  -2.0314  -0.1072 C.ar           1 S1                 0.0000
     12 ****         5.2237  -2.0454  -0.0596 C.ar           1 S1                 0.0000
     13 ****         5.9297  -1.8176   1.0686 N.ar           1 S1                 0.0000
     14 ****         5.2433  -1.5640   2.2032 C.ar           1 S1                 0.0000
     15 ****         3.8357  -1.5257   2.2635 C.ar           1 S1                 0.0000
     16 ****        -0.7874   1.8770  -0.4050 C.3            1 S1                 0.0000
     17 ****        -1.5806   1.2910  -1.5940 C.3            1 S1                 0.0000
     18 ****        -1.2955   2.1129  -2.8638 C.3            1 S1                 0.0000
     19 ****        -3.5625  -0.4209  -2.6376 H              1 S1                 0.0000
     20 ****        -3.9107   1.1799  -3.2907 H              1 S1                 0.0000
     21 ****        -4.9729   0.4792  -2.0901 H              1 S1                 0.0000
     22 ****        -3.4627   2.2241  -1.1065 H              1 S1                 0.0000
     23 ****        -4.3773   0.4331   0.3111 H              1 S1                 0.0000
     24 ****        -3.0424  -0.6159  -0.0850 H              1 S1                 0.0000
     25 ****        -2.8938   2.0224   1.4431 H              1 S1                 0.0000
     26 ****        -2.6826   0.4339   2.1294 H              1 S1                 0.0000
     27 ****        -0.5400   1.6597   1.7266 H              1 S1                 0.0000
     28 ****        -0.7912  -0.7648   1.6674 H              1 S1                 0.0000
     29 ****         1.5167   0.2288   0.1828 H              1 S1                 0.0000
     30 ****         1.3632   0.2499   1.9299 H              1 S1                 0.0000
     31 ****         1.2303  -2.2718   0.1924 H              1 S1                 0.0000
     32 ****         1.3294  -3.2804   2.2103 H              1 S1                 0.0000
     33 ****         3.2999  -2.2180  -1.0381 H              1 S1                 0.0000
     34 ****         5.7983  -2.2430  -0.9525 H              1 S1                 0.0000
     35 ****         5.8332  -1.3841   3.0898 H              1 S1                 0.0000
     36 ****         3.3368  -1.3132   3.1978 H              1 S1                 0.0000
     37 ****        -1.0943   2.9136  -0.2566 H              1 S1                 0.0000
     38 ****         0.2744   1.9219  -0.6463 H              1 S1                 0.0000
     39 ****        -1.2160   0.2788  -1.7748 H              1 S1                 0.0000
     40 ****        -1.6981   3.1231  -2.7818 H              1 S1                 0.0000
     41 ****        -1.7266   1.6509  -3.7515 H              1 S1                 0.0000
     42 ****        -0.2234   2.1982  -3.0426 H              1 S1                 0.0000
     43 ****        -0.6779  -0.7094   0.0342 H              1 S1                 0.0000
     44 ****         0.0364  -2.3539   2.1625 LP             1 S1                 0.0000
     45 ****         1.3441  -1.9226   3.0402 LP             1 S1                 0.0000
     46 ****         6.9295  -1.8361   1.0639 LP             1 S1                 0.0000
@<TRIPOS>BOND
    1    1    2 1     
    2    1   19 1     
    3    1   20 1     
    4    1   21 1     
    5    2   17 1     
    6    2    3 1     
    7    2   22 1     
    8    3    4 1     
    9    3   23 1     
   10    3   24 1     
   11    4    5 1     
   12    4   25 1     
   13    4   26 1     
   14    5    6 1     
   15    5   16 1     
   16    5   27 1     
   17    6    7 1     
   18    6   28 1     
   19    6   43 1     
   20    7    8 1     
   21    7   29 1     
   22    7   30 1     
   23    8    9 1     
   24    8   10 1     
   25    8   31 1     
   26    9   32 1     
   27   10   15 ar    
   28   10   11 ar    
   29   11   12 ar    
   30   11   33 1     
   31   12   13 ar    
   32   12   34 1     
   33   13   14 ar    
   34   14   15 ar    
   35   14   35 1     
   36   15   36 1     
   37   16   17 1     
   38   16   37 1     
   39   16   38 1     
   40   17   18 1     
   41   17   39 1     
   42   18   40 1     
   43   18   41 1     
   44   18   42 1     
   45    9   44 1     
   46    9   45 1     
   47   13   46 1     
@<TRIPOS>SUBSTRUCTURE
      1 S1             1
@<TRIPOS>SET
LONE_PAIRS      STATIC     ATOMS    <user>   **** ""
3 44 45 46
DONOR_HYDROGENS      STATIC     ATOMS    <user>   **** ""
3 28 43 32
ATOM$BLUE        STATIC     ATOMS    COLORGROUP SYSTEM
3 44 45 46
ATOM$RED        STATIC     ATOMS    COLORGROUP SYSTEM
3 28 43 32
