AV-unprocessed.smi:2494|AV-procd|sdf|9821|dock3
  -GOLD-   2272013453D 1   1.00000     0.00000
 Structure written by MMmdl.
 30 31  0  0  0  0  0  0  0  0  1 V2000
  149.1972  141.2460  153.2015 O   0  0  0  0  0  0  0  0  0  0  0  0
  148.3421  140.8074  154.2352 C   0  0  0  0  0  0  0  0  0  0  0  0
  149.1476  140.6208  155.5316 C   0  0  0  0  0  0  0  0  0  0  0  0
  150.5129  139.9089  155.3334 C   0  0  2  0  0  0  0  0  0  0  0  0
  150.2977  138.4582  154.8340 C   0  0  0  0  0  0  0  0  0  0  0  0
  151.5344  137.7681  154.7139 O   0  0  0  0  0  0  0  0  0  0  0  0
  152.1947  137.6645  155.9655 C   0  0  0  0  0  0  0  0  0  0  0  0
  152.5249  139.0764  156.4629 C   0  0  0  0  0  0  0  0  0  0  0  0
  151.3191  139.8936  156.5649 N   0  0  0  0  0  0  0  0  0  0  0  0
  151.5316  141.0664  157.2785 C   0  0  0  0  0  0  0  0  0  0  0  0
  151.0491  142.2073  156.7673 N   0  0  0  0  0  0  0  0  0  0  0  0
  151.2906  143.3422  157.4586 C   0  0  0  0  0  0  0  0  0  0  0  0
  152.0262  143.3311  158.6601 C   0  0  0  0  0  0  0  0  0  0  0  0
  152.3395  144.7778  159.5460 Cl  0  0  0  0  0  0  0  0  0  0  0  0
  152.4951  142.0768  159.0986 C   0  0  0  0  0  0  0  0  0  0  0  0
  152.2492  140.9466  158.4010 N   0  0  0  0  0  0  0  0  0  0  0  0
  149.3193  140.5356  152.5902 H   0  0  0  0  0  0  0  0  0  0  0  0
  147.5510  141.5461  154.3590 H   0  0  0  0  0  0  0  0  0  0  0  0
  147.8749  139.8693  153.9342 H   0  0  0  0  0  0  0  0  0  0  0  0
  149.2947  141.6108  155.9618 H   0  0  0  0  0  0  0  0  0  0  0  0
  148.5494  140.0681  156.2575 H   0  0  0  0  0  0  0  0  0  0  0  0
  151.0834  140.4512  154.5779 H   0  0  0  0  0  0  0  0  0  0  0  0
  149.6332  137.9086  155.5032 H   0  0  0  0  0  0  0  0  0  0  0  0
  149.8288  138.4540  153.8509 H   0  0  0  0  0  0  0  0  0  0  0  0
  151.5735  137.1274  156.6842 H   0  0  0  0  0  0  0  0  0  0  0  0
  153.1104  137.0870  155.8381 H   0  0  0  0  0  0  0  0  0  0  0  0
  153.0209  139.0126  157.4323 H   0  0  0  0  0  0  0  0  0  0  0  0
  153.2248  139.5583  155.7787 H   0  0  0  0  0  0  0  0  0  0  0  0
  150.8975  144.2610  157.0488 H   0  0  0  0  0  0  0  0  0  0  0  0
  153.0697  141.9785  160.0077 H   0  0  0  0  0  0  0  0  0  0  0  0
  1  2  1  0  0  0  0
  1 17  1  0  0  0  0
  2  3  1  0  0  0  0
  2 18  1  0  0  0  0
  2 19  1  0  0  0  0
  3  4  1  0  0  0  0
  3 20  1  0  0  0  0
  3 21  1  0  0  0  0
  4  9  1  0  0  0  0
  4  5  1  0  0  0  0
  4 22  1  0  0  0  0
  5  6  1  0  0  0  0
  5 23  1  0  0  0  0
  5 24  1  0  0  0  0
  6  7  1  0  0  0  0
  7  8  1  0  0  0  0
  7 25  1  0  0  0  0
  7 26  1  0  0  0  0
  8  9  1  0  0  0  0
  8 27  1  0  0  0  0
  8 28  1  0  0  0  0
  9 10  1  0  0  0  0
 10 16  1  0  0  0  0
 10 11  2  0  0  0  0
 11 12  1  0  0  0  0
 12 13  2  0  0  0  0
 12 29  1  0  0  0  0
 13 14  1  0  0  0  0
 13 15  1  0  0  0  0
 15 16  2  0  0  0  0
 15 30  1  0  0  0  0
M  END
> <s_m_source_file>
AV-unprocessed.smi

> <i_m_source_file_index>
2494

> <i_lp_mmshare_version>
43012

> <i_f3d_flags>
0

> <s_epik_input>
W09IXVtDSDJdW0NIMl1bQ0BASF0xW0NIMl1PW0NIMl1bQ0gyXU4xYzJuW2NIXWMoQ2wpW2NIXW4y

> <s_epik_cmdline>
J2VwaWtfcHl0aG9uJywgJy1waCcsICc3LjAnLCAnLXRuJywgJzgnLCAnLW1hJywgJzIwMCcsICctbWV0YWxfYmluZGluZycsICctaW1hZScsICc8aW5maWxlLm1hZT4nLCAnLW9tYWUnLCAnPG91dGZpbGUubWFlPic=

> <r_lp_tautomer_probability>
1

> <r_epik_Ionization_Penalty>
3.66811e-07

> <r_epik_Ionization_Penalty_Charging>
0

> <r_epik_Ionization_Penalty_Neutral>
3.66811e-07

> <r_epik_State_Penalty>
-0

> <r_epik_Charging_Adjusted_Penalty>
0

> <i_epik_Tot_Q>
0

> <i_epik_Tot_abs_Q>
0

> <r_epik_Metal_State_Penalty>
-0

> <b_epik_Metal_Only>
0

> <s_lp_Force_Field>
OPLS_2005

> <r_lp_Energy>
15.3646

> <b_lp_Chiralities_Consistent>
1

> <s_lp_Variant>
AV-unprocessed.smi:2494-1

> <Gold.Version>
5.8.1

> <Gold.Id.Protein>
6NUR|6NUR_protein|mol2

> <Gold.PLP.Fitness>
37.9958

> <Gold.PLP.PLP>
-29.4185

> <Gold.PLP.part.hbond>
-2.5158

> <Gold.PLP.part.metal>
0.0000

> <Gold.PLP.part.buried>
-3.5614

> <Gold.PLP.part.nonpolar>
-24.1020

> <Gold.PLP.part.repulsive>
0.2156

> <Gold.PLP.ligand.clash>
0.0000

> <Gold.PLP.ligand.torsion>
0.2818

> <Gold.PLP.Chemscore.Hbond>
1.9420

> <Gold.PLP.Chemscore.CHOScore>
1.0000

> <Gold.PLP.Chemscore.Metal>
0.0000

> <Gold.Chemscore.Hbonds>
donor molecule, donor type, donor heavy atom, donor atom, acceptor molecule, acceptor atom, score
      L1  H     1    17       P1  7957  0.98
      P1  H  8011  8017       L1     1  0.90
      L1  C    12    29       P1  8028  1.00

> <Gold.PLP.Chemscore.Internal.Correction>
0.3150

> <Gold.Rescore>
     Score         DG    S(hbond)    S(metal)    S(lipo)     H(rot)  DE(clash)    DE(int)     intcor
     13.20     -14.96       1.43        0.00      84.74       2.04       0.07       1.69       ----

> <Gold.Chemscore.Fitness>
13.2001

> <Gold.Chemscore.DG>
-14.9580

> <Gold.Chemscore.ZeroCoef>
-5.4800

> <Gold.Chemscore.Hbond>
1.4346

> <Gold.Chemscore.Metal>
0.0000

> <Gold.Chemscore.Lipo>
84.7419

> <Gold.Chemscore.Internal_Hbond>
0.0000

> <Gold.Chemscore.DEClash>
0.0650

> <Gold.Chemscore.DEInternal>
1.6928

> <Gold.Chemscore.Rot>
2.0424

> <Gold.Chemscore.Internal.Correction>
   9.000000E+99

> <Gold.Chemscore.Hbonds>
donor molecule, donor type, donor heavy atom, donor atom, acceptor molecule, acceptor atom, score
      L1  H     1    17       P1  7957  0.87
      P1  H  8011  8017       L1     1  0.17

> <Gold.Chemscore.Hbond.Weighted>
-4.7916

> <Gold.Chemscore.Metal.Weighted>
-0.0000

> <Gold.Chemscore.Lipo.Weighted>
-9.9148

> <Gold.Chemscore.Internal_Hbond.Weighted>
0.0000

> <Gold.Chemscore.DEClash.Weighted>
0.0650

> <Gold.Chemscore.DEInternal.Weighted>
1.6928

> <Gold.Chemscore.Rot.Weighted>
5.2285

> <Gold.Chemscore.Internal.Correction.Weighted>
   9.000000E+99

> <Gold.Protein.RotatedTorsions>
[ 6907 6896 6895 6894 ] final  -95.09 input  -60.11 | X-H torsion
[ 7974 7965 7964 7962 ] final   45.22 input  175.53 | X-H torsion
[ 8008 7997 7996 7995 ] final  -55.33 input   59.86 | X-H torsion
[ 10167 10162 10161 10158 ] final   94.52 input  -65.29 | X-H torsion
[ 10718 10713 10712 10709 ] final  140.50 input   66.30 | X-H torsion
[ 10763 10752 10751 10750 ] final  165.14 input  -60.55 | X-H torsion
[ 11005 11000 10999 10996 ] final -126.49 input  -57.11 | X-H torsion

> <Gold.Protein.ActiveResidues>
 VAL166  LYS551  ARG553  GLY616  TRP617  ASP618  TYR619  PRO620  LYS621  CYS622 
 ASP623  PHE694  ASN695  SER759  ASP760  ASP761  ALA762  ILE779  LEU786  VAL792 
 PHE793  MET794  SER795  GLU796  ALA797  LYS798  CYS799  TRP800  GLU811  SER814 

> <Gold.Protein.RotatedAtoms>
  150.6956  134.1711  159.4212 H   0  0  0  0  0  0  0  0  0  0  0  0  # atno 6907 bound_to 6896
  151.9689  135.0084  160.0561 H   0  0  0  0  0  0  0  0  0  0  0  0  # atno 6908 bound_to 6896
  152.1859  133.4704  159.5019 H   0  0  0  0  0  0  0  0  0  0  0  0  # atno 6909 bound_to 6896
  146.0499  139.4988  142.9725 H   0  0  0  0  0  0  0  0  0  0  0  0  # atno 7974 bound_to 7965
  154.4191  140.1155  156.5459 H   0  0  0  0  0  0  0  0  0  0  0  0  # atno 8008 bound_to 7997
  155.6460  140.3496  155.4712 H   0  0  0  0  0  0  0  0  0  0  0  0  # atno 8009 bound_to 7997
  155.9832  140.1164  157.0697 H   0  0  0  0  0  0  0  0  0  0  0  0  # atno 8010 bound_to 7997
  139.8076  144.6787  150.9683 H   0  0  0  0  0  0  0  0  0  0  0  0  # atno 10167 bound_to 10162
  157.4026  131.1018  151.0536 H   0  0  0  0  0  0  0  0  0  0  0  0  # atno 10718 bound_to 10713
  154.3195  135.2756  155.2526 H   0  0  0  0  0  0  0  0  0  0  0  0  # atno 10763 bound_to 10752
  154.4886  135.5839  153.6446 H   0  0  0  0  0  0  0  0  0  0  0  0  # atno 10764 bound_to 10752
  152.9878  135.6129  154.3379 H   0  0  0  0  0  0  0  0  0  0  0  0  # atno 10765 bound_to 10752
  140.9677  134.0848  157.3902 H   0  0  0  0  0  0  0  0  0  0  0  0  # atno 11005 bound_to 11000
  145.6742  141.0208  143.1641 LP  0  0  0  0  0  0  0  0  0  0  0  0  # atno 17320 bound_to 7965
  144.7117  139.8346  143.7412 LP  0  0  0  0  0  0  0  0  0  0  0  0  # atno 17321 bound_to 7965
  140.7819  143.4218  151.0829 LP  0  0  0  0  0  0  0  0  0  0  0  0  # atno 17342 bound_to 10162
  139.7887  143.8250  152.3148 LP  0  0  0  0  0  0  0  0  0  0  0  0  # atno 17343 bound_to 10162
  157.1530  130.6192  149.5588 LP  0  0  0  0  0  0  0  0  0  0  0  0  # atno 17370 bound_to 10713
  155.9827  130.4843  150.6896 LP  0  0  0  0  0  0  0  0  0  0  0  0  # atno 17371 bound_to 10713
  139.8901  135.0109  156.6715 LP  0  0  0  0  0  0  0  0  0  0  0  0  # atno 17394 bound_to 11000
  140.7374  133.9006  155.8254 LP  0  0  0  0  0  0  0  0  0  0  0  0  # atno 17395 bound_to 11000

$$$$
