#       Name:                AV-unprocessed.smi:1738
#       Creating user name   scv26
#       Creation time:       Fri Mar 27 08:21:39 2020


#       File generated by GOLD software.
#

@<TRIPOS>MOLECULE
AV-unprocessed.smi:1738
    49    51     1
SMALL
NO_CHARGES


@<TRIPOS>ATOM
      1 ****        -7.3040   1.8065  -1.5249 C.3            1 S1                 0.0000
      2 ****        -7.1703   0.0232  -1.0960 S.o2           1 S1                 0.0000
      3 ****        -7.7344  -0.1603   0.2504 O.2            1 S1                 0.0000
      4 ****        -7.7024  -0.7632  -2.2198 O.2            1 S1                 0.0000
      5 ****        -5.4059  -0.2617  -1.0110 C.ar           1 S1                 0.0000
      6 ****        -4.7678  -0.4243   0.2347 C.ar           1 S1                 0.0000
      7 ****        -3.3714  -0.6046   0.2479 C.ar           1 S1                 0.0000
      8 ****        -2.6666  -0.6001  -0.9821 C.ar           1 S1                 0.0000
      9 ****        -1.2612  -0.7764  -1.1185 N.am           1 S1                 0.0000
     10 ****        -0.3113  -0.8449  -0.1694 C.2            1 S1                 0.0000
     11 ****        -0.4988  -0.7479   1.0424 O.2            1 S1                 0.0000
     12 ****         0.9009  -1.0278  -0.7125 N.am           1 S1                 0.0000
     13 ****         2.1470  -1.1657   0.0369 C.3            1 S1                 0.0000
     14 ****         3.1945  -1.9962  -0.6951 C.3            1 S1                 0.0000
     15 ****         4.4857  -1.5894   0.0167 C.3            1 S1                 0.0000
     16 ****         4.3107  -0.1694   0.4002 N.4            1 S1                 1.0000
     17 ****         4.9301   0.1971   1.6972 C.3            1 S1                 0.0000
     18 ****         4.7223   1.6931   1.9975 C.3            1 S1                 0.0000
     19 ****         3.2581   2.1480   1.8233 C.3            1 S1                 0.0000
     20 ****         2.3224   0.9850   1.4590 C.3            1 S1                 0.0000
     21 ****         2.8669   0.1757   0.2597 C.3            1 S1                 0.0000
     22 ****        -3.4148  -0.4199  -2.1660 C.ar           1 S1                 0.0000
     23 ****        -4.7526  -0.2455  -2.1917 N.ar           1 S1                 0.0000
     24 ****        -8.3552   2.0833  -1.6014 H              1 S1                 0.0000
     25 ****        -6.8105   1.9891  -2.4794 H              1 S1                 0.0000
     26 ****        -6.8260   2.4043  -0.7490 H              1 S1                 0.0000
     27 ****        -5.3274  -0.4155   1.1582 H              1 S1                 0.0000
     28 ****        -2.8838  -0.7438   1.1989 H              1 S1                 0.0000
     29 ****        -0.9337  -0.8461  -2.0710 H              1 S1                 0.0000
     30 ****         0.9642  -1.0939  -1.7181 H              1 S1                 0.0000
     31 ****         1.9561  -1.6459   0.9992 H              1 S1                 0.0000
     32 ****         3.0023  -3.0684  -0.6415 H              1 S1                 0.0000
     33 ****         3.2429  -1.7108  -1.7473 H              1 S1                 0.0000
     34 ****         4.6114  -2.2043   0.9096 H              1 S1                 0.0000
     35 ****         5.3684  -1.7272  -0.6083 H              1 S1                 0.0000
     36 ****         4.4979  -0.4095   2.4948 H              1 S1                 0.0000
     37 ****         5.9957  -0.0337   1.6704 H              1 S1                 0.0000
     38 ****         5.0604   1.9082   3.0118 H              1 S1                 0.0000
     39 ****         5.3589   2.2849   1.3386 H              1 S1                 0.0000
     40 ****         2.9057   2.6368   2.7322 H              1 S1                 0.0000
     41 ****         3.2098   2.9025   1.0371 H              1 S1                 0.0000
     42 ****         2.2024   0.3353   2.3272 H              1 S1                 0.0000
     43 ****         1.3282   1.3704   1.2319 H              1 S1                 0.0000
     44 ****         2.7895   0.7829  -0.6438 H              1 S1                 0.0000
     45 ****        -2.9229  -0.4102  -3.1279 H              1 S1                 0.0000
     46 ****         4.7867   0.3788  -0.3023 H              1 S1                 0.0000
     47 ****        -1.4234  -0.6050   1.3955 LP             1 S1                 0.0000
     48 ****         0.2735  -0.8119   1.6746 LP             1 S1                 0.0000
     49 ****        -5.2415  -0.1093  -3.0533 LP             1 S1                 0.0000
@<TRIPOS>BOND
    1    1    2 1     
    2    1   24 1     
    3    1   25 1     
    4    1   26 1     
    5    2    3 2     
    6    2    4 2     
    7    2    5 1     
    8    5   23 ar    
    9    5    6 ar    
   10    6    7 ar    
   11    6   27 1     
   12    7    8 ar    
   13    7   28 1     
   14    8    9 1     
   15    8   22 ar    
   16    9   10 am    
   17    9   29 1     
   18   10   11 2     
   19   10   12 am    
   20   12   13 1     
   21   12   30 1     
   22   13   21 1     
   23   13   14 1     
   24   13   31 1     
   25   14   15 1     
   26   14   32 1     
   27   14   33 1     
   28   15   16 1     
   29   15   34 1     
   30   15   35 1     
   31   16   21 1     
   32   16   17 1     
   33   16   46 1     
   34   17   18 1     
   35   17   36 1     
   36   17   37 1     
   37   18   19 1     
   38   18   38 1     
   39   18   39 1     
   40   19   20 1     
   41   19   40 1     
   42   19   41 1     
   43   20   21 1     
   44   20   42 1     
   45   20   43 1     
   46   21   44 1     
   47   22   23 ar    
   48   22   45 1     
   49   11   47 1     
   50   11   48 1     
   51   23   49 1     
@<TRIPOS>SUBSTRUCTURE
      1 S1             1
@<TRIPOS>SET
LONE_PAIRS      STATIC     ATOMS    <user>   **** ""
5 3 4 47 48 49
DONOR_HYDROGENS      STATIC     ATOMS    <user>   **** ""
3 29 30 46
ATOM$BLUE        STATIC     ATOMS    COLORGROUP SYSTEM
5 3 4 47 48 49
ATOM$RED        STATIC     ATOMS    COLORGROUP SYSTEM
3 29 30 46
