#       Name:                AV-unprocessed.smi:2969
#       Creating user name   scv26
#       Creation time:       Fri Mar 27 16:23:50 2020


#       File generated by GOLD software.
#

@<TRIPOS>MOLECULE
AV-unprocessed.smi:2969
    48    48     1
SMALL
NO_CHARGES


@<TRIPOS>ATOM
      1 ****        -3.2782  -2.3843   2.2357 C.3            1 S1                 0.0000
      2 ****        -2.4377  -3.0739   1.1534 C.3            1 S1                 0.0000
      3 ****        -2.3513  -2.3011  -0.1784 C.3            1 S1                 0.0000
      4 ****        -1.6851  -1.0150  -0.0731 N.am           1 S1                 0.0000
      5 ****        -0.2940  -0.8766  -0.0566 C.2            1 S1                 0.0000
      6 ****         0.4722  -2.0310  -0.1316 N.pl3          1 S1                 0.0000
      7 ****         0.3075   0.3456   0.0580 C.2            1 S1                 0.0000
      8 ****         1.7080   0.4838   0.0314 N.am           1 S1                 0.0000
      9 ****         2.3674   0.3034  -1.2736 C.3            1 S1                 0.0000
     10 ****         2.6453   1.6432  -1.9742 C.3            1 S1                 0.0000
     11 ****         1.4233   2.1828  -2.4489 O.3            1 S1                 0.0000
     12 ****         1.5857   3.4542  -3.0508 C.3            1 S1                 0.0000
     13 ****         2.4431   0.7411   1.1478 C.2            1 S1                 0.0000
     14 ****         3.6527   0.9708   1.0841 O.2            1 S1                 0.0000
     15 ****         1.7882   0.7022   2.5456 C.3            1 S1                 0.0000
     16 ****         1.0575  -0.4039   2.6904 F              1 S1                 0.0000
     17 ****         2.7371   0.7013   3.4830 F              1 S1                 0.0000
     18 ****         1.0235   1.7779   2.7245 F              1 S1                 0.0000
     19 ****        -0.5025   1.5703   0.1226 C.2            1 S1                 0.0000
     20 ****        -0.0659   2.7192   0.1797 O.2            1 S1                 0.0000
     21 ****        -1.8791   1.3644   0.1117 N.am           1 S1                 0.0000
     22 ****        -2.5129   0.1302   0.0287 C.2            1 S1                 0.0000
     23 ****        -3.7433   0.0858   0.0486 O.2            1 S1                 0.0000
     24 ****        -2.4684   2.1821   0.1698 H              1 S1                 0.0000
     25 ****        -3.3548  -3.0120   3.1235 H              1 S1                 0.0000
     26 ****        -4.2898  -2.1850   1.8810 H              1 S1                 0.0000
     27 ****        -2.8344  -1.4368   2.5418 H              1 S1                 0.0000
     28 ****        -1.4359  -3.2574   1.5422 H              1 S1                 0.0000
     29 ****        -2.8651  -4.0570   0.9549 H              1 S1                 0.0000
     30 ****        -1.7874  -2.8685  -0.9190 H              1 S1                 0.0000
     31 ****        -3.3346  -2.1609  -0.6288 H              1 S1                 0.0000
     32 ****         0.0519  -2.9471  -0.1963 H              1 S1                 0.0000
     33 ****         1.4812  -1.9981  -0.1585 H              1 S1                 0.0000
     34 ****         3.3031  -0.2433  -1.1447 H              1 S1                 0.0000
     35 ****         1.7605  -0.3216  -1.9300 H              1 S1                 0.0000
     36 ****         3.1412   2.3404  -1.2972 H              1 S1                 0.0000
     37 ****         3.3153   1.4809  -2.8196 H              1 S1                 0.0000
     38 ****         0.6202   3.8188  -3.4009 H              1 S1                 0.0000
     39 ****         2.2584   3.4025  -3.9077 H              1 S1                 0.0000
     40 ****         1.9798   4.1794  -2.3377 H              1 S1                 0.0000
     41 ****         0.7919   2.2716  -1.6785 LP             1 S1                 0.0000
     42 ****         1.0376   1.5553  -3.1253 LP             1 S1                 0.0000
     43 ****         4.1156   0.9708   0.1977 LP             1 S1                 0.0000
     44 ****         4.1709   1.1570   1.9189 LP             1 S1                 0.0000
     45 ****         0.9212   2.8793   0.1850 LP             1 S1                 0.0000
     46 ****        -0.6982   3.4929   0.2209 LP             1 S1                 0.0000
     47 ****        -4.2128  -0.7953  -0.0088 LP             1 S1                 0.0000
     48 ****        -4.2730   0.9308   0.1222 LP             1 S1                 0.0000
@<TRIPOS>BOND
    1    1    2 1     
    2    1   25 1     
    3    1   26 1     
    4    1   27 1     
    5    2    3 1     
    6    2   28 1     
    7    2   29 1     
    8    3    4 1     
    9    3   30 1     
   10    3   31 1     
   11    4   22 1     
   12    4    5 1     
   13    5    6 1     
   14    5    7 2     
   15    6   32 1     
   16    6   33 1     
   17    7    8 1     
   18    7   19 1     
   19    8    9 1     
   20    8   13 am    
   21    9   10 1     
   22    9   34 1     
   23    9   35 1     
   24   10   11 1     
   25   10   36 1     
   26   10   37 1     
   27   11   12 1     
   28   12   38 1     
   29   12   39 1     
   30   12   40 1     
   31   13   14 2     
   32   13   15 1     
   33   15   16 1     
   34   15   17 1     
   35   15   18 1     
   36   19   20 2     
   37   19   21 1     
   38   21   24 1     
   39   21   22 1     
   40   22   23 2     
   41   11   41 1     
   42   11   42 1     
   43   14   43 1     
   44   14   44 1     
   45   20   45 1     
   46   20   46 1     
   47   23   47 1     
   48   23   48 1     
@<TRIPOS>SUBSTRUCTURE
      1 S1             1
@<TRIPOS>SET
LONE_PAIRS      STATIC     ATOMS    <user>   **** ""
8 41 42 43 44 45 46 47 48
DONOR_HYDROGENS      STATIC     ATOMS    <user>   **** ""
3 32 33 24
ATOM$BLUE        STATIC     ATOMS    COLORGROUP SYSTEM
8 41 42 43 44 45 46 47 48
ATOM$RED        STATIC     ATOMS    COLORGROUP SYSTEM
3 32 33 24
