AV-unprocessed.smi:1337|AV-procd|sdf|5498|dock10
  -GOLD-   22720 5 83D 1   1.00000     0.00000
 Structure written by MMmdl.
 38 39  0  0  0  0  0  0  0  0  1 V2000
  151.9522  136.2248  156.2622 O   0  0  0  0  0  0  0  0  0  0  0  0
  151.3104  136.5610  155.2660 C   0  0  0  0  0  0  0  0  0  0  0  0
  151.7501  137.7625  154.4173 C   0  0  0  0  0  0  0  0  0  0  0  0
  150.9866  138.9871  154.7078 N   0  0  0  0  0  0  0  0  0  0  0  0
  149.7201  139.1194  154.1140 C   0  0  0  0  0  0  0  0  0  0  0  0
  148.9644  140.2038  154.3389 C   0  0  0  0  0  0  0  0  0  0  0  0
  149.5347  141.2239  155.2283 C   0  0  0  0  0  0  0  0  0  0  0  0
  150.6875  141.1051  155.7735 N   0  0  0  0  0  0  0  0  0  0  0  0
  151.4776  139.9638  155.5385 C   0  0  0  0  0  0  0  0  0  0  0  0
  152.5840  139.8402  156.0643 O   0  0  0  0  0  0  0  0  0  0  0  0
  150.1937  135.9342  154.8662 N   0  0  0  0  0  0  0  0  0  0  0  0
  149.6034  134.7761  155.5268 C   0  0  0  0  0  0  0  0  0  0  0  0
  149.2937  133.6515  154.5236 C   0  0  0  0  0  0  0  0  0  0  0  0
  149.9826  132.3433  154.8756 C   0  0  0  0  0  0  0  0  0  0  0  0
  150.9444  132.2760  155.8168 C   0  0  0  0  0  0  0  0  0  0  0  0
  151.6785  131.0025  156.1983 C   0  0  0  0  0  0  0  0  0  0  0  0
  151.4681  129.8764  155.1725 C   0  0  0  0  0  0  0  0  0  0  0  0
  149.9998  129.7923  154.7373 C   0  0  0  0  0  0  0  0  0  0  0  0
  149.5260  131.1116  154.1012 C   0  0  0  0  0  0  0  0  0  0  0  0
  152.8167  137.9441  154.5635 H   0  0  0  0  0  0  0  0  0  0  0  0
  151.6474  137.4900  153.3661 H   0  0  0  0  0  0  0  0  0  0  0  0
  149.4106  138.2972  153.4854 H   0  0  0  0  0  0  0  0  0  0  0  0
  147.9832  140.3665  153.9180 H   0  0  0  0  0  0  0  0  0  0  0  0
  148.9053  142.1011  155.3977 H   0  0  0  0  0  0  0  0  0  0  0  0
  149.7238  136.2798  154.0420 H   0  0  0  0  0  0  0  0  0  0  0  0
  150.3092  134.4265  156.2804 H   0  0  0  0  0  0  0  0  0  0  0  0
  148.6989  135.0705  156.0620 H   0  0  0  0  0  0  0  0  0  0  0  0
  148.2164  133.4848  154.4799 H   0  0  0  0  0  0  0  0  0  0  0  0
  149.5980  133.9495  153.5197 H   0  0  0  0  0  0  0  0  0  0  0  0
  151.2295  133.1661  156.3586 H   0  0  0  0  0  0  0  0  0  0  0  0
  152.7427  131.2171  156.3003 H   0  0  0  0  0  0  0  0  0  0  0  0
  151.3222  130.6897  157.1801 H   0  0  0  0  0  0  0  0  0  0  0  0
  152.0909  130.0609  154.2960 H   0  0  0  0  0  0  0  0  0  0  0  0
  151.7970  128.9247  155.5905 H   0  0  0  0  0  0  0  0  0  0  0  0
  149.8590  128.9697  154.0355 H   0  0  0  0  0  0  0  0  0  0  0  0
  149.3817  129.5650  155.6068 H   0  0  0  0  0  0  0  0  0  0  0  0
  148.4382  131.1092  154.0256 H   0  0  0  0  0  0  0  0  0  0  0  0
  149.9129  131.1866  153.0846 H   0  0  0  0  0  0  0  0  0  0  0  0
  1  2  2  0  0  0  0
  2  3  1  0  0  0  0
  2 11  1  0  0  0  0
  3  4  1  0  0  0  0
  3 20  1  0  0  0  0
  3 21  1  0  0  0  0
  4  9  1  0  0  0  0
  4  5  1  0  0  0  0
  5  6  2  0  0  0  0
  5 22  1  0  0  0  0
  6  7  1  0  0  0  0
  6 23  1  0  0  0  0
  7  8  2  0  0  0  0
  7 24  1  0  0  0  0
  8  9  1  0  0  0  0
  9 10  2  0  0  0  0
 11 12  1  0  0  0  0
 11 25  1  0  0  0  0
 12 13  1  0  0  0  0
 12 26  1  0  0  0  0
 12 27  1  0  0  0  0
 13 14  1  0  0  0  0
 13 28  1  0  0  0  0
 13 29  1  0  0  0  0
 14 19  1  0  0  0  0
 14 15  2  0  0  0  0
 15 16  1  0  0  0  0
 15 30  1  0  0  0  0
 16 17  1  0  0  0  0
 16 31  1  0  0  0  0
 16 32  1  0  0  0  0
 17 18  1  0  0  0  0
 17 33  1  0  0  0  0
 17 34  1  0  0  0  0
 18 19  1  0  0  0  0
 18 35  1  0  0  0  0
 18 36  1  0  0  0  0
 19 37  1  0  0  0  0
 19 38  1  0  0  0  0
M  END
> <s_m_source_file>
AV-unprocessed.smi

> <i_m_source_file_index>
1337

> <i_lp_mmshare_version>
43012

> <i_f3d_flags>
0

> <s_epik_input>
Tz1jMW5bY0hdW2NIXVtjSF1uMVtDSDJdQyg9TylbTkhdW0NIMl1bQ0gyXUMyPVtDSF1bQ0gyXVtDSDJdW0NIMl1bQ0gyXTI=

> <s_epik_cmdline>
J2VwaWtfcHl0aG9uJywgJy1waCcsICc3LjAnLCAnLXRuJywgJzgnLCAnLW1hJywgJzIwMCcsICctbWV0YWxfYmluZGluZycsICctaW1hZScsICc8aW5maWxlLm1hZT4nLCAnLW9tYWUnLCAnPG91dGZpbGUubWFlPic=

> <r_lp_tautomer_probability>
1

> <r_epik_Ionization_Penalty>
7.10509e-06

> <r_epik_Ionization_Penalty_Charging>
1.70435e-08

> <r_epik_Ionization_Penalty_Neutral>
7.08805e-06

> <r_epik_State_Penalty>
-0

> <r_epik_Charging_Adjusted_Penalty>
1.70435e-08

> <i_epik_Tot_Q>
0

> <i_epik_Tot_abs_Q>
0

> <r_epik_Metal_State_Penalty>
-0

> <b_epik_Metal_Only>
0

> <s_lp_Force_Field>
OPLS_2005

> <r_lp_Energy>
9.56824

> <b_lp_Chiralities_Consistent>
1

> <s_lp_Variant>
AV-unprocessed.smi:1337-1

> <Gold.Version>
5.8.1

> <Gold.Id.Protein>
6NUR|6NUR_protein|mol2

> <Gold.PLP.Fitness>
50.7730

> <Gold.PLP.PLP>
-38.9014

> <Gold.PLP.part.hbond>
-3.0902

> <Gold.PLP.part.metal>
0.0000

> <Gold.PLP.part.buried>
-0.7450

> <Gold.PLP.part.nonpolar>
-35.3751

> <Gold.PLP.part.repulsive>
0.1195

> <Gold.PLP.ligand.clash>
0.0000

> <Gold.PLP.ligand.torsion>
1.1138

> <Gold.PLP.Chemscore.Hbond>
2.9280

> <Gold.PLP.Chemscore.CHOScore>
1.7592

> <Gold.PLP.Chemscore.Metal>
0.0000

> <Gold.Chemscore.Hbonds>
donor molecule, donor type, donor heavy atom, donor atom, acceptor molecule, acceptor atom, score
      L1  H    11    25       P1  7948  0.37
      P1  H  7997  8008       L1    10  1.00
      P1  H 10752 10763       L1     1  0.60
      L1  C     5    22       P1  7948  0.74
      L1  C     5    22       P1  7957  0.02
      L1  C     7    24       P1  8028  0.76

> <Gold.PLP.Chemscore.Internal.Correction>
0.0376

> <Gold.Rescore>
     Score         DG    S(hbond)    S(metal)    S(lipo)     H(rot)  DE(clash)    DE(int)     intcor
     16.10     -17.37       2.48        0.00      72.18       1.89       0.33       0.94       ----

> <Gold.Chemscore.Fitness>
16.1007

> <Gold.Chemscore.DG>
-17.3746

> <Gold.Chemscore.ZeroCoef>
-5.4800

> <Gold.Chemscore.Hbond>
2.4828

> <Gold.Chemscore.Metal>
0.0000

> <Gold.Chemscore.Lipo>
72.1753

> <Gold.Chemscore.Internal_Hbond>
0.0000

> <Gold.Chemscore.DEClash>
0.3347

> <Gold.Chemscore.DEInternal>
0.9391

> <Gold.Chemscore.Rot>
1.8916

> <Gold.Chemscore.Internal.Correction>
   9.000000E+99

> <Gold.Chemscore.Hbonds>
donor molecule, donor type, donor heavy atom, donor atom, acceptor molecule, acceptor atom, score
      L1  H    11    25       P1  7948  0.18
      P1  H  7997  8008       L1    10  0.95
      P1  H 10752 10763       L1     1  0.04

> <Gold.Chemscore.Hbond.Weighted>
-8.2925

> <Gold.Chemscore.Metal.Weighted>
-0.0000

> <Gold.Chemscore.Lipo.Weighted>
-8.4445

> <Gold.Chemscore.Internal_Hbond.Weighted>
0.0000

> <Gold.Chemscore.DEClash.Weighted>
0.3347

> <Gold.Chemscore.DEInternal.Weighted>
0.9391

> <Gold.Chemscore.Rot.Weighted>
4.8425

> <Gold.Chemscore.Internal.Correction.Weighted>
   9.000000E+99

> <Gold.Protein.RotatedTorsions>
[ 6907 6896 6895 6894 ] final  101.86 input  -60.11 | X-H torsion
[ 7974 7965 7964 7962 ] final  159.34 input  175.53 | X-H torsion
[ 8008 7997 7996 7995 ] final  -20.57 input   59.86 | X-H torsion
[ 10167 10162 10161 10158 ] final   20.38 input  -65.29 | X-H torsion
[ 10718 10713 10712 10709 ] final -162.17 input   66.30 | X-H torsion
[ 10763 10752 10751 10750 ] final  104.11 input  -60.55 | X-H torsion
[ 11005 11000 10999 10996 ] final  175.09 input  -57.11 | X-H torsion

> <Gold.Protein.ActiveResidues>
 VAL166  LYS551  ARG553  GLY616  TRP617  ASP618  TYR619  PRO620  LYS621  CYS622 
 ASP623  PHE694  ASN695  SER759  ASP760  ASP761  ALA762  ILE779  LEU786  VAL792 
 PHE793  MET794  SER795  GLU796  ALA797  LYS798  CYS799  TRP800  GLU811  SER814 

> <Gold.Protein.RotatedAtoms>
  152.5339  134.0062  159.7917 H   0  0  0  0  0  0  0  0  0  0  0  0  # atno 6907 bound_to 6896
  151.0272  133.5815  159.2672 H   0  0  0  0  0  0  0  0  0  0  0  0  # atno 6908 bound_to 6896
  151.2832  135.0727  159.9231 H   0  0  0  0  0  0  0  0  0  0  0  0  # atno 6909 bound_to 6896
  144.7796  139.7603  143.6265 H   0  0  0  0  0  0  0  0  0  0  0  0  # atno 7974 bound_to 7965
  154.4761  140.2058  155.9874 H   0  0  0  0  0  0  0  0  0  0  0  0  # atno 8008 bound_to 7997
  156.1092  140.3232  155.8018 H   0  0  0  0  0  0  0  0  0  0  0  0  # atno 8009 bound_to 7997
  155.4665  140.0528  157.2975 H   0  0  0  0  0  0  0  0  0  0  0  0  # atno 8010 bound_to 7997
  140.5508  143.9513  150.6577 H   0  0  0  0  0  0  0  0  0  0  0  0  # atno 10167 bound_to 10162
  156.6066  130.8833  151.2926 H   0  0  0  0  0  0  0  0  0  0  0  0  # atno 10718 bound_to 10713
  153.3616  135.3954  155.1722 H   0  0  0  0  0  0  0  0  0  0  0  0  # atno 10763 bound_to 10752
  154.8680  135.3681  154.5092 H   0  0  0  0  0  0  0  0  0  0  0  0  # atno 10764 bound_to 10752
  153.5552  135.7082  153.5633 H   0  0  0  0  0  0  0  0  0  0  0  0  # atno 10765 bound_to 10752
  140.3584  134.7134  157.4315 H   0  0  0  0  0  0  0  0  0  0  0  0  # atno 11005 bound_to 11000
  146.1996  139.5283  142.9752 LP  0  0  0  0  0  0  0  0  0  0  0  0  # atno 17320 bound_to 7965
  145.6088  141.0343  143.1978 LP  0  0  0  0  0  0  0  0  0  0  0  0  # atno 17321 bound_to 7965
  140.2938  143.3306  152.1037 LP  0  0  0  0  0  0  0  0  0  0  0  0  # atno 17342 bound_to 10162
  139.5026  144.6739  151.6176 LP  0  0  0  0  0  0  0  0  0  0  0  0  # atno 17343 bound_to 10162
  157.7265  130.9631  150.1660 LP  0  0  0  0  0  0  0  0  0  0  0  0  # atno 17370 bound_to 10713
  156.2424  130.3692  149.8322 LP  0  0  0  0  0  0  0  0  0  0  0  0  # atno 17371 bound_to 10713
  140.0646  134.5947  155.8710 LP  0  0  0  0  0  0  0  0  0  0  0  0  # atno 17394 bound_to 11000
  141.1991  133.6605  156.5828 LP  0  0  0  0  0  0  0  0  0  0  0  0  # atno 17395 bound_to 11000

$$$$
