AV-unprocessed.smi:2886|AV-procd|sdf|11089|dock8
  -GOLD-   2272015563D 1   1.00000     0.00000
 Structure written by MMmdl.
 28 30  0  0  0  0  0  0  0  0  1 V2000
  151.0865  137.9688  154.0029 O   0  0  0  0  0  0  0  0  0  0  0  0
  150.7551  139.0945  154.3697 C   0  0  0  0  0  0  0  0  0  0  0  0
  149.8750  139.8386  153.6595 N   0  0  0  0  0  0  0  0  0  0  0  0
  149.4261  141.0978  153.9750 N   0  0  0  0  0  0  0  0  0  0  0  0
  149.8755  141.6591  155.0451 C   0  0  0  0  0  0  0  0  0  0  0  0
  150.8429  141.0170  155.9290 C   0  0  0  0  0  0  0  0  0  0  0  0
  151.3258  141.6226  157.0818 N   0  0  0  0  0  0  0  0  0  0  0  0
  151.0003  142.9341  157.6262 C   0  0  2  0  0  0  0  0  0  0  0  0
  152.0793  143.9822  157.3514 C   0  0  0  0  0  0  0  0  0  0  0  0
  152.3617  144.5125  158.7647 C   0  0  2  0  0  0  0  0  0  0  0  0
  153.1858  143.5125  159.5861 C   0  0  0  0  0  0  0  0  0  0  0  0
  152.1558  142.4210  159.8712 C   0  0  0  0  0  0  0  0  0  0  0  0
  150.9063  142.9688  159.1611 C   0  0  1  0  0  0  0  0  0  0  0  0
  151.0899  144.3585  159.3741 O   0  0  0  0  0  0  0  0  0  0  0  0
  151.2481  139.7640  155.5813 C   0  0  0  0  0  0  0  0  0  0  0  0
  152.3822  138.9020  156.5666 Cl  0  0  0  0  0  0  0  0  0  0  0  0
  149.4834  139.4605  152.8088 H   0  0  0  0  0  0  0  0  0  0  0  0
  149.5401  142.6527  155.3401 H   0  0  0  0  0  0  0  0  0  0  0  0
  152.1003  141.1615  157.5386 H   0  0  0  0  0  0  0  0  0  0  0  0
  150.0655  143.2959  157.1982 H   0  0  0  0  0  0  0  0  0  0  0  0
  152.9761  143.5768  156.8805 H   0  0  0  0  0  0  0  0  0  0  0  0
  151.6869  144.7708  156.7088 H   0  0  0  0  0  0  0  0  0  0  0  0
  152.7522  145.5303  158.7863 H   0  0  0  0  0  0  0  0  0  0  0  0
  154.0558  143.1436  159.0418 H   0  0  0  0  0  0  0  0  0  0  0  0
  153.5307  143.9646  160.5167 H   0  0  0  0  0  0  0  0  0  0  0  0
  152.4613  141.4405  159.5053 H   0  0  0  0  0  0  0  0  0  0  0  0
  151.9805  142.3384  160.9443 H   0  0  0  0  0  0  0  0  0  0  0  0
  149.9678  142.5750  159.5529 H   0  0  0  0  0  0  0  0  0  0  0  0
  1  2  2  0  0  0  0
  2 15  1  0  0  0  0
  2  3  1  0  0  0  0
  3 17  1  0  0  0  0
  3  4  1  0  0  0  0
  4  5  2  0  0  0  0
  5  6  1  0  0  0  0
  5 18  1  0  0  0  0
  6  7  1  0  0  0  0
  6 15  2  0  0  0  0
  7  8  1  0  0  0  0
  7 19  1  0  0  0  0
  8 13  1  0  0  0  0
  8  9  1  0  0  0  0
  8 20  1  0  0  0  0
  9 10  1  0  0  0  0
  9 21  1  0  0  0  0
  9 22  1  0  0  0  0
 10 14  1  0  0  0  0
 10 11  1  0  0  0  0
 10 23  1  0  0  0  0
 11 12  1  0  0  0  0
 11 24  1  0  0  0  0
 11 25  1  0  0  0  0
 12 13  1  0  0  0  0
 12 26  1  0  0  0  0
 12 27  1  0  0  0  0
 13 14  1  0  0  0  0
 13 28  1  0  0  0  0
 15 16  1  0  0  0  0
M  END
> <s_m_source_file>
AV-unprocessed.smi

> <i_m_source_file_index>
2886

> <i_lp_mmshare_version>
43012

> <i_f3d_flags>
0

> <s_epik_input>
Tz1jMVtuSF1uW2NIXWMoYzFDbClbTkhdW0NASF0oW0NIMl1bQ0BASF0yMylbQ0BASF0oTzMpW0NIMl1bQ0gyXTI=

> <s_epik_cmdline>
J2VwaWtfcHl0aG9uJywgJy1waCcsICc3LjAnLCAnLXRuJywgJzgnLCAnLW1hJywgJzIwMCcsICctbWV0YWxfYmluZGluZycsICctaW1hZScsICc8aW5maWxlLm1hZT4nLCAnLW9tYWUnLCAnPG91dGZpbGUubWFlPic=

> <r_lp_tautomer_probability>
0.986175

> <r_epik_Ionization_Penalty>
0.000975594

> <r_epik_Ionization_Penalty_Charging>
0.000940184

> <r_epik_Ionization_Penalty_Neutral>
3.54099e-05

> <r_epik_State_Penalty>
0.00620319

> <r_epik_Charging_Adjusted_Penalty>
0.00714337

> <i_epik_Tot_Q>
0

> <i_epik_Tot_abs_Q>
0

> <r_epik_Metal_State_Penalty>
0.287699

> <b_epik_Metal_Only>
0

> <s_lp_Force_Field>
OPLS_2005

> <r_lp_Energy>
55.2825

> <b_lp_Chiralities_Consistent>
1

> <s_lp_Variant>
AV-unprocessed.smi:2886-3

> <Gold.Version>
5.8.1

> <Gold.Id.Protein>
6NUR|6NUR_protein|mol2

> <Gold.PLP.Fitness>
39.2073

> <Gold.PLP.PLP>
-33.8624

> <Gold.PLP.part.hbond>
-2.7489

> <Gold.PLP.part.metal>
0.0000

> <Gold.PLP.part.buried>
-3.7585

> <Gold.PLP.part.nonpolar>
-29.0690

> <Gold.PLP.part.repulsive>
2.2572

> <Gold.PLP.ligand.clash>
0.0000

> <Gold.PLP.ligand.torsion>
0.2799

> <Gold.PLP.Chemscore.Hbond>
0.9652

> <Gold.PLP.Chemscore.CHOScore>
1.0000

> <Gold.PLP.Chemscore.Metal>
0.0000

> <Gold.Chemscore.Hbonds>
donor molecule, donor type, donor heavy atom, donor atom, acceptor molecule, acceptor atom, score
      L1  H     3    17       P1  7957  0.61
      P1  H  8011  8017       L1     4  0.63
      L1  C     5    18       P1  8028  1.00

> <Gold.PLP.Chemscore.Internal.Correction>
0.0090

> <Gold.Rescore>
     Score         DG    S(hbond)    S(metal)    S(lipo)     H(rot)  DE(clash)    DE(int)     intcor
     14.22     -16.30       0.66        0.00      95.54       1.00       1.84       0.24       ----

> <Gold.Chemscore.Fitness>
14.2223

> <Gold.Chemscore.DG>
-16.3048

> <Gold.Chemscore.ZeroCoef>
-5.4800

> <Gold.Chemscore.Hbond>
0.6606

> <Gold.Chemscore.Metal>
0.0000

> <Gold.Chemscore.Lipo>
95.5427

> <Gold.Chemscore.Internal_Hbond>
0.0000

> <Gold.Chemscore.DEClash>
1.8394

> <Gold.Chemscore.DEInternal>
0.2431

> <Gold.Chemscore.Rot>
1.0000

> <Gold.Chemscore.Internal.Correction>
   9.000000E+99

> <Gold.Chemscore.Hbonds>
donor molecule, donor type, donor heavy atom, donor atom, acceptor molecule, acceptor atom, score
      L1  H     3    17       P1  7957  0.60
      P1  H  8011  8017       L1     4  0.28

> <Gold.Chemscore.Hbond.Weighted>
-2.2063

> <Gold.Chemscore.Metal.Weighted>
-0.0000

> <Gold.Chemscore.Lipo.Weighted>
-11.1785

> <Gold.Chemscore.Internal_Hbond.Weighted>
0.0000

> <Gold.Chemscore.DEClash.Weighted>
1.8394

> <Gold.Chemscore.DEInternal.Weighted>
0.2431

> <Gold.Chemscore.Rot.Weighted>
2.5600

> <Gold.Chemscore.Internal.Correction.Weighted>
   9.000000E+99

> <Gold.Protein.RotatedTorsions>
[ 6907 6896 6895 6894 ] final  -95.95 input  -60.11 | X-H torsion
[ 7974 7965 7964 7962 ] final   47.87 input  175.53 | X-H torsion
[ 8008 7997 7996 7995 ] final  -55.38 input   59.86 | X-H torsion
[ 10167 10162 10161 10158 ] final   57.18 input  -65.29 | X-H torsion
[ 10718 10713 10712 10709 ] final  105.29 input   66.30 | X-H torsion
[ 10763 10752 10751 10750 ] final    1.48 input  -60.55 | X-H torsion
[ 11005 11000 10999 10996 ] final  144.82 input  -57.11 | X-H torsion

> <Gold.Protein.ActiveResidues>
 VAL166  LYS551  ARG553  GLY616  TRP617  ASP618  TYR619  PRO620  LYS621  CYS622 
 ASP623  PHE694  ASN695  SER759  ASP760  ASP761  ALA762  ILE779  LEU786  VAL792 
 PHE793  MET794  SER795  GLU796  ALA797  LYS798  CYS799  TRP800  GLU811  SER814 

> <Gold.Protein.RotatedAtoms>
  150.6976  134.1578  159.4164 H   0  0  0  0  0  0  0  0  0  0  0  0  # atno 6907 bound_to 6896
  151.9559  135.0144  160.0554 H   0  0  0  0  0  0  0  0  0  0  0  0  # atno 6908 bound_to 6896
  152.1969  133.4778  159.5075 H   0  0  0  0  0  0  0  0  0  0  0  0  # atno 6909 bound_to 6896
  146.0258  139.4704  142.9869 H   0  0  0  0  0  0  0  0  0  0  0  0  # atno 7974 bound_to 7965
  154.4193  140.1154  156.5468 H   0  0  0  0  0  0  0  0  0  0  0  0  # atno 8008 bound_to 7997
  155.6451  140.3496  155.4709 H   0  0  0  0  0  0  0  0  0  0  0  0  # atno 8009 bound_to 7997
  155.9839  140.1165  157.0691 H   0  0  0  0  0  0  0  0  0  0  0  0  # atno 8010 bound_to 7997
  140.2008  144.3990  150.6530 H   0  0  0  0  0  0  0  0  0  0  0  0  # atno 10167 bound_to 10162
  157.6710  131.0824  150.5835 H   0  0  0  0  0  0  0  0  0  0  0  0  # atno 10718 bound_to 10713
  153.3075  135.6960  153.7146 H   0  0  0  0  0  0  0  0  0  0  0  0  # atno 10763 bound_to 10752
  153.6036  135.3457  155.2955 H   0  0  0  0  0  0  0  0  0  0  0  0  # atno 10764 bound_to 10752
  154.8567  135.4346  154.2203 H   0  0  0  0  0  0  0  0  0  0  0  0  # atno 10765 bound_to 10752
  140.0663  134.9177  157.1269 H   0  0  0  0  0  0  0  0  0  0  0  0  # atno 11005 bound_to 11000
  145.7121  141.0103  143.1448 LP  0  0  0  0  0  0  0  0  0  0  0  0  # atno 17320 bound_to 7965
  144.7009  139.8769  143.7444 LP  0  0  0  0  0  0  0  0  0  0  0  0  # atno 17321 bound_to 7965
  140.6392  143.2200  151.6329 LP  0  0  0  0  0  0  0  0  0  0  0  0  # atno 17342 bound_to 10162
  139.5218  144.3182  152.0934 LP  0  0  0  0  0  0  0  0  0  0  0  0  # atno 17343 bound_to 10162
  156.6135  130.4386  149.5849 LP  0  0  0  0  0  0  0  0  0  0  0  0  # atno 17370 bound_to 10713
  156.2411  130.6852  151.1557 LP  0  0  0  0  0  0  0  0  0  0  0  0  # atno 17371 bound_to 10713
  140.3694  134.2406  155.7179 LP  0  0  0  0  0  0  0  0  0  0  0  0  # atno 17394 bound_to 11000
  141.1994  133.8013  157.0539 LP  0  0  0  0  0  0  0  0  0  0  0  0  # atno 17395 bound_to 11000

$$$$
