AV-unprocessed.smi:218|AV-procd|sdf|1665|dock4
  -GOLD-   2262020 73D 1   1.00000     0.00000
 Structure written by MMmdl.
 54 57  0  0  0  0  0  0  0  0  1 V2000
  154.5364  138.4819  157.1628 C   0  0  0  0  0  0  0  0  0  0  0  0
  155.0829  137.0552  157.2954 C   0  0  0  0  0  0  0  0  0  0  0  0
  156.2967  137.0098  158.2397 C   0  0  0  0  0  0  0  0  0  0  0  0
  155.4577  136.6303  155.9836 O   0  0  0  0  0  0  0  0  0  0  0  0
  154.5317  136.6432  154.9581 C   0  0  0  0  0  0  0  0  0  0  0  0
  153.3906  135.8239  155.0785 C   0  0  0  0  0  0  0  0  0  0  0  0
  152.4422  135.8199  154.0361 C   0  0  0  0  0  0  0  0  0  0  0  0
  151.1995  134.9614  154.1295 C   0  0  0  0  0  0  0  0  0  0  0  0
  151.4890  133.5420  153.9868 N   0  0  0  0  0  0  0  0  0  0  0  0
  150.5288  132.6955  153.5578 C   0  0  0  0  0  0  0  0  0  0  0  0
  150.7838  131.3704  153.3993 N   0  0  0  0  0  0  0  0  0  0  0  0
  149.8174  130.5525  152.9722 C   0  0  0  0  0  0  0  0  0  0  0  0
  148.5562  130.8484  152.6523 N   0  0  0  0  0  0  0  0  0  0  0  0
  148.2921  132.1780  152.8102 C   0  0  0  0  0  0  0  0  0  0  0  0
  149.2217  133.1589  153.2571 C   0  0  0  0  0  0  0  0  0  0  0  0
  148.6103  134.4047  153.2979 N   0  0  0  0  0  0  0  0  0  0  0  0
  147.3898  134.1692  152.8983 C   0  0  0  0  0  0  0  0  0  0  0  0
  147.1106  132.8581  152.5827 N   0  0  0  0  0  0  0  0  0  0  0  0
  145.8010  132.3089  152.1048 C   0  0  1  0  0  0  0  0  0  0  0  0
  144.8071  133.2878  152.1828 O   0  0  0  0  0  0  0  0  0  0  0  0
  143.9378  133.2371  151.0458 C   0  0  1  0  0  0  0  0  0  0  0  0
  144.0980  134.5535  150.2575 C   0  0  0  0  0  0  0  0  0  0  0  0
  143.4295  134.4518  149.0189 O   0  0  0  0  0  0  0  0  0  0  0  0
  144.3786  131.9690  150.2915 C   0  0  1  0  0  0  0  0  0  0  0  0
  144.1362  131.9589  148.8967 O   0  0  0  0  0  0  0  0  0  0  0  0
  145.8458  131.8194  150.6544 C   0  0  1  0  0  0  0  0  0  0  0  0
  146.7062  132.5859  149.8278 O   0  0  0  0  0  0  0  0  0  0  0  0
  152.6661  136.6425  152.9142 C   0  0  0  0  0  0  0  0  0  0  0  0
  153.8353  137.4268  152.8835 C   0  0  0  0  0  0  0  0  0  0  0  0
  154.7509  137.4305  153.8756 N   0  0  0  0  0  0  0  0  0  0  0  0
  145.5620  131.5087  152.8067 H   0  0  0  0  0  0  0  0  0  0  0  0
  142.9017  133.1261  151.3687 H   0  0  0  0  0  0  0  0  0  0  0  0
  143.8398  131.1217  150.7189 H   0  0  0  0  0  0  0  0  0  0  0  0
  146.1721  130.7794  150.6244 H   0  0  0  0  0  0  0  0  0  0  0  0
  154.2131  138.8701  158.1290 H   0  0  0  0  0  0  0  0  0  0  0  0
  153.6778  138.5095  156.4914 H   0  0  0  0  0  0  0  0  0  0  0  0
  155.2918  139.1604  156.7653 H   0  0  0  0  0  0  0  0  0  0  0  0
  154.2767  136.4374  157.6936 H   0  0  0  0  0  0  0  0  0  0  0  0
  156.0308  137.3701  159.2337 H   0  0  0  0  0  0  0  0  0  0  0  0
  157.1086  137.6337  157.8657 H   0  0  0  0  0  0  0  0  0  0  0  0
  156.6841  135.9977  158.3535 H   0  0  0  0  0  0  0  0  0  0  0  0
  153.2479  135.2102  155.9560 H   0  0  0  0  0  0  0  0  0  0  0  0
  150.7136  135.1400  155.0897 H   0  0  0  0  0  0  0  0  0  0  0  0
  150.4996  135.2713  153.3522 H   0  0  0  0  0  0  0  0  0  0  0  0
  152.4208  133.2481  154.2425 H   0  0  0  0  0  0  0  0  0  0  0  0
  150.0931  129.5131  152.8707 H   0  0  0  0  0  0  0  0  0  0  0  0
  146.6504  134.9532  152.8230 H   0  0  0  0  0  0  0  0  0  0  0  0
  143.7308  135.4137  150.8153 H   0  0  0  0  0  0  0  0  0  0  0  0
  145.1469  134.7440  150.0319 H   0  0  0  0  0  0  0  0  0  0  0  0
  142.4994  134.5077  149.1790 H   0  0  0  0  0  0  0  0  0  0  0  0
  144.9425  131.7420  148.4533 H   0  0  0  0  0  0  0  0  0  0  0  0
  147.3545  132.0067  149.4571 H   0  0  0  0  0  0  0  0  0  0  0  0
  151.9607  136.6742  152.0969 H   0  0  0  0  0  0  0  0  0  0  0  0
  154.0409  138.0687  152.0398 H   0  0  0  0  0  0  0  0  0  0  0  0
  1  2  1  0  0  0  0
  1 35  1  0  0  0  0
  1 36  1  0  0  0  0
  1 37  1  0  0  0  0
  2  3  1  0  0  0  0
  2  4  1  0  0  0  0
  2 38  1  0  0  0  0
  3 39  1  0  0  0  0
  3 40  1  0  0  0  0
  3 41  1  0  0  0  0
  4  5  1  0  0  0  0
  5 30  1  0  0  0  0
  5  6  2  0  0  0  0
  6  7  1  0  0  0  0
  6 42  1  0  0  0  0
  7  8  1  0  0  0  0
  7 28  2  0  0  0  0
  8  9  1  0  0  0  0
  8 43  1  0  0  0  0
  8 44  1  0  0  0  0
  9 10  1  0  0  0  0
  9 45  1  0  0  0  0
 10 15  1  0  0  0  0
 10 11  2  0  0  0  0
 11 12  1  0  0  0  0
 12 13  2  0  0  0  0
 12 46  1  0  0  0  0
 13 14  1  0  0  0  0
 14 18  1  0  0  0  0
 14 15  2  0  0  0  0
 15 16  1  0  0  0  0
 16 17  2  0  0  0  0
 17 18  1  0  0  0  0
 17 47  1  0  0  0  0
 18 19  1  0  0  0  0
 19 31  1  0  0  0  0
 19 26  1  0  0  0  0
 19 20  1  0  0  0  0
 20 21  1  0  0  0  0
 21 32  1  0  0  0  0
 21 22  1  0  0  0  0
 21 24  1  0  0  0  0
 22 23  1  0  0  0  0
 22 48  1  0  0  0  0
 22 49  1  0  0  0  0
 23 50  1  0  0  0  0
 24 33  1  0  0  0  0
 24 25  1  0  0  0  0
 24 26  1  0  0  0  0
 25 51  1  0  0  0  0
 26 34  1  0  0  0  0
 26 27  1  0  0  0  0
 27 52  1  0  0  0  0
 28 29  1  0  0  0  0
 28 53  1  0  0  0  0
 29 30  2  0  0  0  0
 29 54  1  0  0  0  0
M  END
> <s_m_source_file>
AV-unprocessed.smi

> <i_m_source_file_index>
218

> <i_lp_mmshare_version>
43012

> <i_f3d_flags>
0

> <s_epik_input>
W0NIM11bQ0hdKFtDSDNdKU9jMVtjSF1jKFtjSF1bY0hdbjEpW0NIMl1bTkhdYyhuW2NIXW4yKWMoYzIzKW5bY0hdbjNbQ0BASF00T1tDQEhdKFtDSDJdW09IXSlbQ0BASF0oW09IXSlbQ0BIXTRbT0hd

> <s_epik_cmdline>
J2VwaWtfcHl0aG9uJywgJy1waCcsICc3LjAnLCAnLXRuJywgJzgnLCAnLW1hJywgJzIwMCcsICctbWV0YWxfYmluZGluZycsICctaW1hZScsICc8aW5maWxlLm1hZT4nLCAnLW9tYWUnLCAnPG91dGZpbGUubWFlPic=

> <r_lp_tautomer_probability>
1

> <r_epik_Ionization_Penalty>
0.00457014

> <r_epik_Ionization_Penalty_Charging>
0

> <r_epik_Ionization_Penalty_Neutral>
0.00457014

> <r_epik_State_Penalty>
-0

> <r_epik_Charging_Adjusted_Penalty>
0

> <i_epik_Tot_Q>
0

> <i_epik_Tot_abs_Q>
0

> <r_epik_Metal_State_Penalty>
-0

> <b_epik_Metal_Only>
0

> <s_epik_Chemistry_Notes>
This compound contains an acetal/aminal-like group ( X-CH(R)-Y where X, Y are N, S, or O) that may be acid/base labile, releasing an aldehyde.

> <s_lp_Force_Field>
OPLS_2005

> <r_lp_Energy>
50.2222

> <b_lp_Chiralities_Consistent>
1

> <s_lp_Variant>
AV-unprocessed.smi:218-4

> <Gold.Version>
5.8.1

> <Gold.Id.Protein>
6NUR|6NUR_protein|mol2

> <Gold.PLP.Fitness>
52.7823

> <Gold.PLP.PLP>
-44.4225

> <Gold.PLP.part.hbond>
-5.2263

> <Gold.PLP.part.metal>
0.0000

> <Gold.PLP.part.buried>
-7.5425

> <Gold.PLP.part.nonpolar>
-34.5953

> <Gold.PLP.part.repulsive>
2.5973

> <Gold.PLP.ligand.clash>
0.0000

> <Gold.PLP.ligand.torsion>
0.4468

> <Gold.PLP.Chemscore.Hbond>
3.0292

> <Gold.PLP.Chemscore.CHOScore>
0.0000

> <Gold.PLP.Chemscore.Metal>
0.0000

> <Gold.Chemscore.Hbonds>
donor molecule, donor type, donor heavy atom, donor atom, acceptor molecule, acceptor atom, score
      L1  H    23    50       P1 10186  0.99
      L1  H    27    52       P1 10747  0.54
      P1  H 10785 10796       L1    25  0.49
      L1  C    12    46       P1 10737  0.15

> <Gold.PLP.Chemscore.Internal.Correction>
0.1658

> <Gold.Rescore>
     Score         DG    S(hbond)    S(metal)    S(lipo)     H(rot)  DE(clash)    DE(int)     intcor
      9.91     -12.36       2.96        0.00      81.55       4.90       0.58       1.87       ----

> <Gold.Chemscore.Fitness>
9.9088

> <Gold.Chemscore.DG>
-12.3605

> <Gold.Chemscore.ZeroCoef>
-5.4800

> <Gold.Chemscore.Hbond>
2.9613

> <Gold.Chemscore.Metal>
0.0000

> <Gold.Chemscore.Lipo>
81.5489

> <Gold.Chemscore.Internal_Hbond>
0.0000

> <Gold.Chemscore.DEClash>
0.5785

> <Gold.Chemscore.DEInternal>
1.8731

> <Gold.Chemscore.Rot>
4.9029

> <Gold.Chemscore.Internal.Correction>
   9.000000E+99

> <Gold.Chemscore.Hbonds>
donor molecule, donor type, donor heavy atom, donor atom, acceptor molecule, acceptor atom, score
      L1  H    23    50       P1 10186  0.92
      L1  H    27    52       P1 10747  0.54
      P1  H 10785 10796       L1    25  0.02

> <Gold.Chemscore.Hbond.Weighted>
-9.8908

> <Gold.Chemscore.Metal.Weighted>
-0.0000

> <Gold.Chemscore.Lipo.Weighted>
-9.5412

> <Gold.Chemscore.Internal_Hbond.Weighted>
0.0000

> <Gold.Chemscore.DEClash.Weighted>
0.5785

> <Gold.Chemscore.DEInternal.Weighted>
1.8731

> <Gold.Chemscore.Rot.Weighted>
12.5515

> <Gold.Chemscore.Internal.Correction.Weighted>
   9.000000E+99

> <Gold.Protein.RotatedTorsions>
[ 6907 6896 6895 6894 ] final  139.35 input  -60.11 | X-H torsion
[ 7974 7965 7964 7962 ] final  125.17 input  175.53 | X-H torsion
[ 8008 7997 7996 7995 ] final -163.96 input   59.86 | X-H torsion
[ 10167 10162 10161 10158 ] final -101.00 input  -65.29 | X-H torsion
[ 10718 10713 10712 10709 ] final -148.51 input   66.30 | X-H torsion
[ 10763 10752 10751 10750 ] final   93.24 input  -60.55 | X-H torsion
[ 11005 11000 10999 10996 ] final  -38.94 input  -57.11 | X-H torsion

> <Gold.Protein.ActiveResidues>
 VAL166  LYS551  ARG553  GLY616  TRP617  ASP618  TYR619  PRO620  LYS621  CYS622 
 ASP623  PHE694  ASN695  SER759  ASP760  ASP761  ALA762  ILE779  LEU786  VAL792 
 PHE793  MET794  SER795  GLU796  ALA797  LYS798  CYS799  TRP800  GLU811  SER814 

> <Gold.Protein.RotatedAtoms>
  152.2559  133.5255  159.5352 H   0  0  0  0  0  0  0  0  0  0  0  0  # atno 6907 bound_to 6896
  150.7109  134.0896  159.3936 H   0  0  0  0  0  0  0  0  0  0  0  0  # atno 6908 bound_to 6896
  151.8815  135.0452  160.0540 H   0  0  0  0  0  0  0  0  0  0  0  0  # atno 6909 bound_to 6896
  145.0760  139.3693  143.4933 H   0  0  0  0  0  0  0  0  0  0  0  0  # atno 7974 bound_to 7965
  155.8288  140.0930  157.1805 H   0  0  0  0  0  0  0  0  0  0  0  0  # atno 8008 bound_to 7997
  154.3979  140.1423  156.3649 H   0  0  0  0  0  0  0  0  0  0  0  0  # atno 8009 bound_to 7997
  155.8188  140.3447  155.5504 H   0  0  0  0  0  0  0  0  0  0  0  0  # atno 8010 bound_to 7997
  140.2460  143.3506  152.0759 H   0  0  0  0  0  0  0  0  0  0  0  0  # atno 10167 bound_to 10162
  156.4212  130.8030  151.2253 H   0  0  0  0  0  0  0  0  0  0  0  0  # atno 10718 bound_to 10713
  153.2281  135.4332  155.0564 H   0  0  0  0  0  0  0  0  0  0  0  0  # atno 10763 bound_to 10752
  154.8283  135.3372  154.6828 H   0  0  0  0  0  0  0  0  0  0  0  0  # atno 10764 bound_to 10752
  153.7257  135.7014  153.5058 H   0  0  0  0  0  0  0  0  0  0  0  0  # atno 10765 bound_to 10752
  141.0065  133.6929  156.2119 H   0  0  0  0  0  0  0  0  0  0  0  0  # atno 11005 bound_to 11000
  146.3530  140.0528  142.8634 LP  0  0  0  0  0  0  0  0  0  0  0  0  # atno 17320 bound_to 7965
  145.1235  140.9476  143.4586 LP  0  0  0  0  0  0  0  0  0  0  0  0  # atno 17321 bound_to 7965
  139.5062  144.6809  151.6012 LP  0  0  0  0  0  0  0  0  0  0  0  0  # atno 17342 bound_to 10162
  140.6077  143.9493  150.6431 LP  0  0  0  0  0  0  0  0  0  0  0  0  # atno 17343 bound_to 10162
  157.7508  131.0227  150.3804 LP  0  0  0  0  0  0  0  0  0  0  0  0  # atno 17370 bound_to 10713
  156.4122  130.3936  149.6883 LP  0  0  0  0  0  0  0  0  0  0  0  0  # atno 17371 bound_to 10713
  140.6805  134.4772  157.5589 LP  0  0  0  0  0  0  0  0  0  0  0  0  # atno 17394 bound_to 11000
  139.9066  134.8436  156.1683 LP  0  0  0  0  0  0  0  0  0  0  0  0  # atno 17395 bound_to 11000

$$$$
