AV-unprocessed.smi:25|AV-procd|sdf|181|dock10
  -GOLD-   2262015443D 1   1.00000     0.00000
 Structure written by MMmdl.
 47 50  0  0  0  0  0  0  0  0  1 V2000
  151.5416  139.8075  155.1997 C   0  0  0  0  0  0  0  0  0  0  0  0
  150.6280  140.4809  156.2431 C   0  0  2  0  0  0  0  0  0  0  0  0
  150.5323  142.0055  156.0094 C   0  0  0  0  0  0  0  0  0  0  0  0
  151.1850  142.5787  157.2292 C   0  0  0  0  0  0  0  0  0  0  0  0
  151.4497  143.9394  157.4622 C   0  0  0  0  0  0  0  0  0  0  0  0
  152.1043  144.2979  158.6573 C   0  0  0  0  0  0  0  0  0  0  0  0
  152.4878  143.3017  159.5817 C   0  0  0  0  0  0  0  0  0  0  0  0
  152.2145  141.9392  159.3302 C   0  0  0  0  0  0  0  0  0  0  0  0
  151.5383  141.5828  158.1383 C   0  0  0  0  0  0  0  0  0  0  0  0
  151.1420  140.3119  157.6220 N   0  0  0  0  0  0  0  0  0  0  0  0
  151.0418  139.1094  158.2535 C   0  0  0  0  0  0  0  0  0  0  0  0
  151.4253  138.9713  159.4178 O   0  0  0  0  0  0  0  0  0  0  0  0
  150.4754  137.8709  157.5321 C   0  0  0  0  0  0  0  0  0  0  0  0
  149.2138  137.3628  158.1207 N   0  0  0  0  0  0  0  0  0  0  0  0
  148.0346  137.3961  157.3353 C   0  0  0  0  0  0  0  0  0  0  0  0
  148.0395  137.8526  156.1911 O   0  0  0  0  0  0  0  0  0  0  0  0
  146.8402  136.8560  157.9723 C   0  0  0  0  0  0  0  0  0  0  0  0
  145.6899  136.7881  157.2810 F   0  0  0  0  0  0  0  0  0  0  0  0
  146.8739  136.4048  159.2427 C   0  0  0  0  0  0  0  0  0  0  0  0
  148.0134  136.4454  160.0270 N   0  0  0  0  0  0  0  0  0  0  0  0
  148.0422  135.8520  161.4211 C   0  0  1  0  0  0  0  0  0  0  0  0
  147.0184  136.4682  162.3908 C   0  0  0  0  0  0  0  0  0  0  0  0
  145.9579  135.3876  162.4720 C   0  0  0  0  0  0  0  0  0  0  0  0
  146.7908  134.1266  162.2800 C   0  0  0  0  0  0  0  0  0  0  0  0
  147.7567  134.4901  161.3022 O   0  0  0  0  0  0  0  0  0  0  0  0
  149.2292  136.8824  159.4530 C   0  0  0  0  0  0  0  0  0  0  0  0
  150.2786  136.8557  160.0997 O   0  0  0  0  0  0  0  0  0  0  0  0
  151.1767  139.9907  154.1889 H   0  0  0  0  0  0  0  0  0  0  0  0
  151.5880  138.7271  155.3333 H   0  0  0  0  0  0  0  0  0  0  0  0
  152.5599  140.1931  155.2598 H   0  0  0  0  0  0  0  0  0  0  0  0
  149.6254  140.0559  156.1649 H   0  0  0  0  0  0  0  0  0  0  0  0
  151.0474  142.3317  155.1051 H   0  0  0  0  0  0  0  0  0  0  0  0
  149.4950  142.3379  155.9568 H   0  0  0  0  0  0  0  0  0  0  0  0
  151.1651  144.6912  156.7409 H   0  0  0  0  0  0  0  0  0  0  0  0
  152.3228  145.3356  158.8619 H   0  0  0  0  0  0  0  0  0  0  0  0
  153.0012  143.5846  160.4887 H   0  0  0  0  0  0  0  0  0  0  0  0
  152.5511  141.2257  160.0602 H   0  0  0  0  0  0  0  0  0  0  0  0
  150.3178  138.1266  156.4844 H   0  0  0  0  0  0  0  0  0  0  0  0
  151.2277  137.0816  157.5359 H   0  0  0  0  0  0  0  0  0  0  0  0
  145.9609  135.9939  159.6426 H   0  0  0  0  0  0  0  0  0  0  0  0
  149.0547  136.0068  161.7966 H   0  0  0  0  0  0  0  0  0  0  0  0
  147.5006  136.5836  163.3623 H   0  0  0  0  0  0  0  0  0  0  0  0
  146.6571  137.4480  162.0792 H   0  0  0  0  0  0  0  0  0  0  0  0
  145.4108  135.3960  163.4150 H   0  0  0  0  0  0  0  0  0  0  0  0
  145.2378  135.4890  161.6600 H   0  0  0  0  0  0  0  0  0  0  0  0
  147.3030  133.8602  163.2059 H   0  0  0  0  0  0  0  0  0  0  0  0
  146.1957  133.2715  161.9588 H   0  0  0  0  0  0  0  0  0  0  0  0
  1  2  1  0  0  0  0
  1 28  1  0  0  0  0
  1 29  1  0  0  0  0
  1 30  1  0  0  0  0
  2 10  1  0  0  0  0
  2  3  1  0  0  0  0
  2 31  1  0  0  0  0
  3  4  1  0  0  0  0
  3 32  1  0  0  0  0
  3 33  1  0  0  0  0
  4  9  2  0  0  0  0
  4  5  1  0  0  0  0
  5  6  2  0  0  0  0
  5 34  1  0  0  0  0
  6  7  1  0  0  0  0
  6 35  1  0  0  0  0
  7  8  2  0  0  0  0
  7 36  1  0  0  0  0
  8  9  1  0  0  0  0
  8 37  1  0  0  0  0
  9 10  1  0  0  0  0
 10 11  1  0  0  0  0
 11 12  2  0  0  0  0
 11 13  1  0  0  0  0
 13 14  1  0  0  0  0
 13 38  1  0  0  0  0
 13 39  1  0  0  0  0
 14 26  1  0  0  0  0
 14 15  1  0  0  0  0
 15 16  2  0  0  0  0
 15 17  1  0  0  0  0
 17 18  1  0  0  0  0
 17 19  2  0  0  0  0
 19 20  1  0  0  0  0
 19 40  1  0  0  0  0
 20 21  1  0  0  0  0
 20 26  1  0  0  0  0
 21 25  1  0  0  0  0
 21 22  1  0  0  0  0
 21 41  1  0  0  0  0
 22 23  1  0  0  0  0
 22 42  1  0  0  0  0
 22 43  1  0  0  0  0
 23 24  1  0  0  0  0
 23 44  1  0  0  0  0
 23 45  1  0  0  0  0
 24 25  1  0  0  0  0
 24 46  1  0  0  0  0
 24 47  1  0  0  0  0
 26 27  2  0  0  0  0
M  END
> <s_m_source_file>
AV-unprocessed.smi

> <i_m_source_file_index>
25

> <i_lp_mmshare_version>
43012

> <i_f3d_flags>
0

> <s_epik_input>
W2NIXTFbY0hdW2NIXVtjSF1jKGMxMilOKFtDQEhdKFtDSDNdKVtDSDJdMilDKD1PKVtDSDJdbjNjKD1PKWMoRilbY0hdbihjMz1PKVtDQEBIXTRbQ0gyXVtDSDJdW0NIMl1PNA==

> <s_epik_cmdline>
J2VwaWtfcHl0aG9uJywgJy1waCcsICc3LjAnLCAnLXRuJywgJzgnLCAnLW1hJywgJzIwMCcsICctbWV0YWxfYmluZGluZycsICctaW1hZScsICc8aW5maWxlLm1hZT4nLCAnLW9tYWUnLCAnPG91dGZpbGUubWFlPic=

> <r_lp_tautomer_probability>
1

> <r_epik_Ionization_Penalty>
1.67943e-06

> <r_epik_Ionization_Penalty_Charging>
3.79603e-09

> <r_epik_Ionization_Penalty_Neutral>
1.67563e-06

> <r_epik_State_Penalty>
-0

> <r_epik_Charging_Adjusted_Penalty>
3.79603e-09

> <i_epik_Tot_Q>
0

> <i_epik_Tot_abs_Q>
0

> <r_epik_Metal_State_Penalty>
-0

> <b_epik_Metal_Only>
0

> <s_epik_Chemistry_Notes>
This compound contains an acetal/aminal-like group ( X-CH(R)-Y where X, Y are N, S, or O) that may be acid/base labile, releasing an aldehyde.

> <s_lp_Force_Field>
OPLS_2005

> <r_lp_Energy>
54.5982

> <b_lp_Chiralities_Consistent>
1

> <s_lp_Variant>
AV-unprocessed.smi:25-3

> <Gold.Version>
5.8.1

> <Gold.Id.Protein>
6NUR|6NUR_protein|mol2

> <Gold.PLP.Fitness>
51.1953

> <Gold.PLP.PLP>
-48.3481

> <Gold.PLP.part.hbond>
-2.5821

> <Gold.PLP.part.metal>
0.0000

> <Gold.PLP.part.buried>
-2.0600

> <Gold.PLP.part.nonpolar>
-44.7730

> <Gold.PLP.part.repulsive>
0.0039

> <Gold.PLP.ligand.clash>
0.0000

> <Gold.PLP.ligand.torsion>
0.1273

> <Gold.PLP.Chemscore.Hbond>
1.0000

> <Gold.PLP.Chemscore.CHOScore>
0.0000

> <Gold.PLP.Chemscore.Metal>
0.0000

> <Gold.Chemscore.Hbonds>
donor molecule, donor type, donor heavy atom, donor atom, acceptor molecule, acceptor atom, score
      P1  H  6896  6909       L1    27  1.00

> <Gold.PLP.Chemscore.Internal.Correction>
0.1018

> <Gold.Rescore>
     Score         DG    S(hbond)    S(metal)    S(lipo)     H(rot)  DE(clash)    DE(int)     intcor
     15.60     -18.83       0.98        0.00     119.98       1.55       0.61       2.62       ----

> <Gold.Chemscore.Fitness>
15.6048

> <Gold.Chemscore.DG>
-18.8338

> <Gold.Chemscore.ZeroCoef>
-5.4800

> <Gold.Chemscore.Hbond>
0.9824

> <Gold.Chemscore.Metal>
0.0000

> <Gold.Chemscore.Lipo>
119.9808

> <Gold.Chemscore.Internal_Hbond>
0.0000

> <Gold.Chemscore.DEClash>
0.6082

> <Gold.Chemscore.DEInternal>
2.6208

> <Gold.Chemscore.Rot>
1.5489

> <Gold.Chemscore.Internal.Correction>
   9.000000E+99

> <Gold.Chemscore.Hbonds>
donor molecule, donor type, donor heavy atom, donor atom, acceptor molecule, acceptor atom, score
      P1  H  6896  6909       L1    27  0.48

> <Gold.Chemscore.Hbond.Weighted>
-3.2812

> <Gold.Chemscore.Metal.Weighted>
-0.0000

> <Gold.Chemscore.Lipo.Weighted>
-14.0377

> <Gold.Chemscore.Internal_Hbond.Weighted>
0.0000

> <Gold.Chemscore.DEClash.Weighted>
0.6082

> <Gold.Chemscore.DEInternal.Weighted>
2.6208

> <Gold.Chemscore.Rot.Weighted>
3.9651

> <Gold.Chemscore.Internal.Correction.Weighted>
   9.000000E+99

> <Gold.Protein.RotatedTorsions>
[ 6907 6896 6895 6894 ] final   84.34 input  -60.11 | X-H torsion
[ 7974 7965 7964 7962 ] final   46.72 input  175.53 | X-H torsion
[ 8008 7997 7996 7995 ] final  -52.99 input   59.86 | X-H torsion
[ 10167 10162 10161 10158 ] final  -71.34 input  -65.29 | X-H torsion
[ 10718 10713 10712 10709 ] final   86.12 input   66.30 | X-H torsion
[ 10763 10752 10751 10750 ] final -152.39 input  -60.55 | X-H torsion
[ 11005 11000 10999 10996 ] final -124.19 input  -57.11 | X-H torsion

> <Gold.Protein.ActiveResidues>
 VAL166  LYS551  ARG553  GLY616  TRP617  ASP618  TYR619  PRO620  LYS621  CYS622 
 ASP623  PHE694  ASN695  SER759  ASP760  ASP761  ALA762  ILE779  LEU786  VAL792 
 PHE793  MET794  SER795  GLU796  ALA797  LYS798  CYS799  TRP800  GLU811  SER814 

> <Gold.Protein.RotatedAtoms>
  152.5350  134.2756  159.8987 H   0  0  0  0  0  0  0  0  0  0  0  0  # atno 6907 bound_to 6896
  151.2712  133.4248  159.2629 H   0  0  0  0  0  0  0  0  0  0  0  0  # atno 6908 bound_to 6896
  151.0366  134.9592  159.8196 H   0  0  0  0  0  0  0  0  0  0  0  0  # atno 6909 bound_to 6896
  146.0363  139.4825  142.9806 H   0  0  0  0  0  0  0  0  0  0  0  0  # atno 7974 bound_to 7965
  154.4121  140.1210  156.5081 H   0  0  0  0  0  0  0  0  0  0  0  0  # atno 8008 bound_to 7997
  155.6827  140.3496  155.4842 H   0  0  0  0  0  0  0  0  0  0  0  0  # atno 8009 bound_to 7997
  155.9537  140.1110  157.0944 H   0  0  0  0  0  0  0  0  0  0  0  0  # atno 8010 bound_to 7997
  140.5281  143.2324  151.7311 H   0  0  0  0  0  0  0  0  0  0  0  0  # atno 10167 bound_to 10162
  157.6924  131.0202  150.2925 H   0  0  0  0  0  0  0  0  0  0  0  0  # atno 10718 bound_to 10713
  154.7997  135.3237  154.7580 H   0  0  0  0  0  0  0  0  0  0  0  0  # atno 10763 bound_to 10752
  153.8250  135.6884  153.4826 H   0  0  0  0  0  0  0  0  0  0  0  0  # atno 10764 bound_to 10752
  153.1707  135.4624  154.9842 H   0  0  0  0  0  0  0  0  0  0  0  0  # atno 10765 bound_to 10752
  140.9861  134.0605  157.3709 H   0  0  0  0  0  0  0  0  0  0  0  0  # atno 11005 bound_to 11000
  145.6958  141.0151  143.1531 LP  0  0  0  0  0  0  0  0  0  0  0  0  # atno 17320 bound_to 7965
  144.7053  139.8586  143.7432 LP  0  0  0  0  0  0  0  0  0  0  0  0  # atno 17321 bound_to 7965
  139.4945  144.4155  152.0034 LP  0  0  0  0  0  0  0  0  0  0  0  0  # atno 17342 bound_to 10162
  140.3256  144.3377  150.5999 LP  0  0  0  0  0  0  0  0  0  0  0  0  # atno 17343 bound_to 10162
  156.3454  130.3822  149.7374 LP  0  0  0  0  0  0  0  0  0  0  0  0  # atno 17370 bound_to 10713
  156.4869  130.8067  151.3079 LP  0  0  0  0  0  0  0  0  0  0  0  0  # atno 17371 bound_to 10713
  139.8971  135.0149  156.7084 LP  0  0  0  0  0  0  0  0  0  0  0  0  # atno 17394 bound_to 11000
  140.7113  133.9221  155.8086 LP  0  0  0  0  0  0  0  0  0  0  0  0  # atno 17395 bound_to 11000

$$$$
