AV-unprocessed.smi:148|AV-procd|sdf|1206|dock10
  -GOLD-   2262018373D 1   1.00000     0.00000
 Structure written by MMmdl.
 63 67  0  0  0  0  0  0  0  0  1 V2000
  149.5486  141.0956  153.3056 O   0  0  0  0  0  0  0  0  0  0  0  0
  149.0662  140.5956  154.5353 C   0  0  0  0  0  0  0  0  0  0  0  0
  149.7505  139.2590  154.9064 C   0  0  2  0  0  0  0  0  0  0  0  0
  148.9787  138.5180  156.0299 C   0  0  0  0  0  0  0  0  0  0  0  0
  147.6686  138.0602  155.6024 N   0  0  0  0  0  0  0  0  0  0  0  0
  146.7009  137.4710  156.3859 C   0  0  0  0  0  0  0  0  0  0  0  0
  145.5947  137.1611  155.7659 N   0  0  0  0  0  0  0  0  0  0  0  0
  145.8240  137.5589  154.4554 C   0  0  0  0  0  0  0  0  0  0  0  0
  145.0453  137.5428  153.2694 C   0  0  0  0  0  0  0  0  0  0  0  0
  143.7819  137.0655  153.2536 N   0  0  0  0  0  0  0  0  0  0  0  0
  142.9885  137.7157  154.2992 C   0  0  0  0  0  0  0  0  0  0  0  0
  141.4924  137.4446  154.1160 C   0  0  0  0  0  0  0  0  0  0  0  0
  141.2408  135.9370  154.0700 C   0  0  0  0  0  0  0  0  0  0  0  0
  142.0966  135.2982  152.9687 C   0  0  0  0  0  0  0  0  0  0  0  0
  143.6123  135.6017  153.1313 C   0  0  1  0  0  0  0  0  0  0  0  0
  144.4275  134.9551  151.9556 C   0  0  1  0  0  0  0  0  0  0  0  0
  145.9677  134.9435  152.0903 C   0  0  0  0  0  0  0  0  0  0  0  0
  146.4907  133.7847  151.2293 C   0  0  0  0  0  0  0  0  0  0  0  0
  145.2548  133.0287  150.7365 C   0  0  0  0  0  0  0  0  0  0  0  0
  144.1210  133.4703  151.6622 C   0  0  1  0  0  0  0  0  0  0  0  0
  144.1748  132.6860  152.8414 O   0  0  0  0  0  0  0  0  0  0  0  0
  145.6047  138.0284  152.1294 N   0  0  0  0  0  0  0  0  0  0  0  0
  146.8509  138.5116  152.1547 C   0  0  0  0  0  0  0  0  0  0  0  0
  147.6902  138.6050  153.1892 N   0  0  0  0  0  0  0  0  0  0  0  0
  147.1271  138.1143  154.3308 C   0  0  0  0  0  0  0  0  0  0  0  0
  151.2609  139.4477  155.2183 C   0  0  2  0  0  0  0  0  0  0  0  0
  152.1482  138.2257  154.9750 C   0  0  0  0  0  0  0  0  0  0  0  0
  153.0245  138.1426  156.2264 C   0  0  0  0  0  0  0  0  0  0  0  0
  152.9561  139.4419  156.7921 O   0  0  0  0  0  0  0  0  0  0  0  0
  151.6146  139.8759  156.6478 C   0  0  0  0  0  0  0  0  0  0  0  0
  149.4833  140.4121  152.6565 H   0  0  0  0  0  0  0  0  0  0  0  0
  149.2202  141.3418  155.3151 H   0  0  0  0  0  0  0  0  0  0  0  0
  147.9893  140.4694  154.4257 H   0  0  0  0  0  0  0  0  0  0  0  0
  149.7003  138.6257  154.0193 H   0  0  0  0  0  0  0  0  0  0  0  0
  149.5287  137.6468  156.3829 H   0  0  0  0  0  0  0  0  0  0  0  0
  148.8416  139.1664  156.8948 H   0  0  0  0  0  0  0  0  0  0  0  0
  146.8372  137.2882  157.4419 H   0  0  0  0  0  0  0  0  0  0  0  0
  143.3071  137.3518  155.2774 H   0  0  0  0  0  0  0  0  0  0  0  0
  143.1644  138.7928  154.2878 H   0  0  0  0  0  0  0  0  0  0  0  0
  140.9261  137.8970  154.9304 H   0  0  0  0  0  0  0  0  0  0  0  0
  141.1424  137.9090  153.1931 H   0  0  0  0  0  0  0  0  0  0  0  0
  141.4857  135.4897  155.0341 H   0  0  0  0  0  0  0  0  0  0  0  0
  140.1841  135.7370  153.8902 H   0  0  0  0  0  0  0  0  0  0  0  0
  141.9039  134.2267  152.9828 H   0  0  0  0  0  0  0  0  0  0  0  0
  141.7559  135.6581  151.9967 H   0  0  0  0  0  0  0  0  0  0  0  0
  143.9443  135.1531  154.0689 H   0  0  0  0  0  0  0  0  0  0  0  0
  144.1836  135.5055  151.0451 H   0  0  0  0  0  0  0  0  0  0  0  0
  146.4258  135.8767  151.7694 H   0  0  0  0  0  0  0  0  0  0  0  0
  146.2531  134.7792  153.1302 H   0  0  0  0  0  0  0  0  0  0  0  0
  147.0886  134.1436  150.3908 H   0  0  0  0  0  0  0  0  0  0  0  0
  147.1273  133.1330  151.8289 H   0  0  0  0  0  0  0  0  0  0  0  0
  145.0267  133.3419  149.7167 H   0  0  0  0  0  0  0  0  0  0  0  0
  145.3997  131.9476  150.7183 H   0  0  0  0  0  0  0  0  0  0  0  0
  143.1504  133.3332  151.1842 H   0  0  0  0  0  0  0  0  0  0  0  0
  143.2957  132.5780  153.1705 H   0  0  0  0  0  0  0  0  0  0  0  0
  147.2279  138.8809  151.2124 H   0  0  0  0  0  0  0  0  0  0  0  0
  151.6491  140.2245  154.5580 H   0  0  0  0  0  0  0  0  0  0  0  0
  151.5959  137.3000  154.8167 H   0  0  0  0  0  0  0  0  0  0  0  0
  152.7629  138.3855  154.0881 H   0  0  0  0  0  0  0  0  0  0  0  0
  152.6145  137.4209  156.9346 H   0  0  0  0  0  0  0  0  0  0  0  0
  154.0523  137.8557  156.0029 H   0  0  0  0  0  0  0  0  0  0  0  0
  151.5249  140.9521  156.7975 H   0  0  0  0  0  0  0  0  0  0  0  0
  151.0051  139.3756  157.3999 H   0  0  0  0  0  0  0  0  0  0  0  0
  1  2  1  0  0  0  0
  1 31  1  0  0  0  0
  2  3  1  0  0  0  0
  2 32  1  0  0  0  0
  2 33  1  0  0  0  0
  3  4  1  0  0  0  0
  3 26  1  0  0  0  0
  3 34  1  0  0  0  0
  4  5  1  0  0  0  0
  4 35  1  0  0  0  0
  4 36  1  0  0  0  0
  5 25  1  0  0  0  0
  5  6  1  0  0  0  0
  6  7  2  0  0  0  0
  6 37  1  0  0  0  0
  7  8  1  0  0  0  0
  8 25  2  0  0  0  0
  8  9  1  0  0  0  0
  9 10  1  0  0  0  0
  9 22  2  0  0  0  0
 10 15  1  0  0  0  0
 10 11  1  0  0  0  0
 11 12  1  0  0  0  0
 11 38  1  0  0  0  0
 11 39  1  0  0  0  0
 12 13  1  0  0  0  0
 12 40  1  0  0  0  0
 12 41  1  0  0  0  0
 13 14  1  0  0  0  0
 13 42  1  0  0  0  0
 13 43  1  0  0  0  0
 14 15  1  0  0  0  0
 14 44  1  0  0  0  0
 14 45  1  0  0  0  0
 15 16  1  0  0  0  0
 15 46  1  0  0  0  0
 16 20  1  0  0  0  0
 16 17  1  0  0  0  0
 16 47  1  0  0  0  0
 17 18  1  0  0  0  0
 17 48  1  0  0  0  0
 17 49  1  0  0  0  0
 18 19  1  0  0  0  0
 18 50  1  0  0  0  0
 18 51  1  0  0  0  0
 19 20  1  0  0  0  0
 19 52  1  0  0  0  0
 19 53  1  0  0  0  0
 20 21  1  0  0  0  0
 20 54  1  0  0  0  0
 21 55  1  0  0  0  0
 22 23  1  0  0  0  0
 23 24  2  0  0  0  0
 23 56  1  0  0  0  0
 24 25  1  0  0  0  0
 26 30  1  0  0  0  0
 26 27  1  0  0  0  0
 26 57  1  0  0  0  0
 27 28  1  0  0  0  0
 27 58  1  0  0  0  0
 27 59  1  0  0  0  0
 28 29  1  0  0  0  0
 28 60  1  0  0  0  0
 28 61  1  0  0  0  0
 29 30  1  0  0  0  0
 30 62  1  0  0  0  0
 30 63  1  0  0  0  0
M  END
> <s_m_source_file>
AV-unprocessed.smi

> <i_m_source_file_index>
148

> <i_lp_mmshare_version>
43012

> <i_f3d_flags>
0

> <s_epik_input>
W0NIMl0xT1tDSDJdW0NIMl1bQ0BIXTFbQ0BIXShbQ0gyXVtPSF0pW0NIMl1uKFtjSF1uMiljKGMyMyluW2NIXW5jM040W0NIMl1bQ0gyXVtDSDJdW0NIMl1bQ0BIXTRbQ0BASF01W0NIMl1bQ0gyXVtDSDJdW0NASF01W09IXQ==

> <s_epik_cmdline>
J2VwaWtfcHl0aG9uJywgJy1waCcsICc3LjAnLCAnLXRuJywgJzgnLCAnLW1hJywgJzIwMCcsICctbWV0YWxfYmluZGluZycsICctaW1hZScsICc8aW5maWxlLm1hZT4nLCAnLW9tYWUnLCAnPG91dGZpbGUubWFlPic=

> <r_lp_tautomer_probability>
1

> <r_epik_Ionization_Penalty>
0.00556303

> <r_epik_Ionization_Penalty_Charging>
0

> <r_epik_Ionization_Penalty_Neutral>
0.00556303

> <r_epik_State_Penalty>
0.00401767

> <r_epik_Charging_Adjusted_Penalty>
0.00401767

> <i_epik_Tot_Q>
0

> <i_epik_Tot_abs_Q>
0

> <r_epik_Metal_State_Penalty>
-0

> <b_epik_Metal_Only>
0

> <s_lp_Force_Field>
OPLS_2005

> <r_lp_Energy>
71.7906

> <b_lp_Chiralities_Consistent>
1

> <s_lp_Variant>
AV-unprocessed.smi:148-5

> <Gold.Version>
5.8.1

> <Gold.Id.Protein>
6NUR|6NUR_protein|mol2

> <Gold.PLP.Fitness>
48.9368

> <Gold.PLP.PLP>
-38.7250

> <Gold.PLP.part.hbond>
-4.3593

> <Gold.PLP.part.metal>
0.0000

> <Gold.PLP.part.buried>
-4.4757

> <Gold.PLP.part.nonpolar>
-34.5463

> <Gold.PLP.part.repulsive>
4.4490

> <Gold.PLP.ligand.clash>
0.0136

> <Gold.PLP.ligand.torsion>
1.0774

> <Gold.PLP.Chemscore.Hbond>
3.3733

> <Gold.PLP.Chemscore.CHOScore>
0.5171

> <Gold.PLP.Chemscore.Metal>
0.0000

> <Gold.Chemscore.Hbonds>
donor molecule, donor type, donor heavy atom, donor atom, acceptor molecule, acceptor atom, score
      L1  H     1    31       P1  7957  0.91
      L1  H    21    55       P1 10957  0.58
      P1  H  7989  7998       L1     1  0.10
      P1  H  7997  8010       L1    29  1.00
      P1  H  8011  8017       L1     1  1.00
      L1  C    23    56       P1  7957  0.67

> <Gold.PLP.Chemscore.Internal.Correction>
0.7090

> <Gold.Rescore>
     Score         DG    S(hbond)    S(metal)    S(lipo)     H(rot)  DE(clash)    DE(int)     intcor
      7.45     -15.38       2.30        0.00      91.55       3.32       3.18       4.75       ----

> <Gold.Chemscore.Fitness>
7.4529

> <Gold.Chemscore.DG>
-15.3834

> <Gold.Chemscore.ZeroCoef>
-5.4800

> <Gold.Chemscore.Hbond>
2.3030

> <Gold.Chemscore.Metal>
0.0000

> <Gold.Chemscore.Lipo>
91.5508

> <Gold.Chemscore.Internal_Hbond>
0.0000

> <Gold.Chemscore.DEClash>
3.1802

> <Gold.Chemscore.DEInternal>
4.7503

> <Gold.Chemscore.Rot>
3.3203

> <Gold.Chemscore.Internal.Correction>
   9.000000E+99

> <Gold.Chemscore.Hbonds>
donor molecule, donor type, donor heavy atom, donor atom, acceptor molecule, acceptor atom, score
      L1  H     1    31       P1  7957  0.85
      L1  H    21    55       P1 10957  0.13
      P1  H  7997  8010       L1    29  0.53
      P1  H  8011  8017       L1     1  0.25

> <Gold.Chemscore.Hbond.Weighted>
-7.6920

> <Gold.Chemscore.Metal.Weighted>
-0.0000

> <Gold.Chemscore.Lipo.Weighted>
-10.7114

> <Gold.Chemscore.Internal_Hbond.Weighted>
0.0000

> <Gold.Chemscore.DEClash.Weighted>
3.1802

> <Gold.Chemscore.DEInternal.Weighted>
4.7503

> <Gold.Chemscore.Rot.Weighted>
8.5000

> <Gold.Chemscore.Internal.Correction.Weighted>
   9.000000E+99

> <Gold.Protein.RotatedTorsions>
[ 6907 6896 6895 6894 ] final  169.05 input  -60.11 | X-H torsion
[ 7974 7965 7964 7962 ] final   27.83 input  175.53 | X-H torsion
[ 8008 7997 7996 7995 ] final   64.59 input   59.86 | X-H torsion
[ 10167 10162 10161 10158 ] final  155.70 input  -65.29 | X-H torsion
[ 10718 10713 10712 10709 ] final  113.51 input   66.30 | X-H torsion
[ 10763 10752 10751 10750 ] final  143.77 input  -60.55 | X-H torsion
[ 11005 11000 10999 10996 ] final -119.35 input  -57.11 | X-H torsion

> <Gold.Protein.ActiveResidues>
 VAL166  LYS551  ARG553  GLY616  TRP617  ASP618  TYR619  PRO620  LYS621  CYS622 
 ASP623  PHE694  ASN695  SER759  ASP760  ASP761  ALA762  ILE779  LEU786  VAL792 
 PHE793  MET794  SER795  GLU796  ALA797  LYS798  CYS799  TRP800  GLU811  SER814 

> <Gold.Protein.RotatedAtoms>
  151.8380  133.3419  159.3633 H   0  0  0  0  0  0  0  0  0  0  0  0  # atno 6907 bound_to 6896
  150.7243  134.5418  159.5760 H   0  0  0  0  0  0  0  0  0  0  0  0  # atno 6908 bound_to 6896
  152.2886  134.7748  160.0433 H   0  0  0  0  0  0  0  0  0  0  0  0  # atno 6909 bound_to 6896
  146.1762  139.7138  142.8932 H   0  0  0  0  0  0  0  0  0  0  0  0  # atno 7974 bound_to 7965
  155.6484  140.3497  155.4739 H   0  0  0  0  0  0  0  0  0  0  0  0  # atno 8008 bound_to 7997
  155.9868  140.1185  157.0699 H   0  0  0  0  0  0  0  0  0  0  0  0  # atno 8009 bound_to 7997
  154.4207  140.1127  156.5497 H   0  0  0  0  0  0  0  0  0  0  0  0  # atno 8010 bound_to 7997
  139.4821  144.5075  151.8075 H   0  0  0  0  0  0  0  0  0  0  0  0  # atno 10167 bound_to 10162
  157.6334  131.0985  150.7052 H   0  0  0  0  0  0  0  0  0  0  0  0  # atno 10718 bound_to 10713
  153.9779  135.2944  155.3422 H   0  0  0  0  0  0  0  0  0  0  0  0  # atno 10763 bound_to 10752
  154.7286  135.5078  153.8929 H   0  0  0  0  0  0  0  0  0  0  0  0  # atno 10764 bound_to 10752
  153.0869  135.6696  154.0046 H   0  0  0  0  0  0  0  0  0  0  0  0  # atno 10765 bound_to 10752
  141.0221  134.0108  157.3267 H   0  0  0  0  0  0  0  0  0  0  0  0  # atno 11005 bound_to 11000
  145.4204  141.0406  143.2967 LP  0  0  0  0  0  0  0  0  0  0  0  0  # atno 17320 bound_to 7965
  144.8240  139.5741  143.6974 LP  0  0  0  0  0  0  0  0  0  0  0  0  # atno 17321 bound_to 7965
  140.4575  144.1769  150.5903 LP  0  0  0  0  0  0  0  0  0  0  0  0  # atno 17342 bound_to 10162
  140.4520  143.2483  151.9335 LP  0  0  0  0  0  0  0  0  0  0  0  0  # atno 17343 bound_to 10162
  156.7387  130.4732  149.5482 LP  0  0  0  0  0  0  0  0  0  0  0  0  # atno 17370 bound_to 10713
  156.1554  130.6338  151.0650 LP  0  0  0  0  0  0  0  0  0  0  0  0  # atno 17371 bound_to 10713
  139.9153  135.0196  156.7855 LP  0  0  0  0  0  0  0  0  0  0  0  0  # atno 17394 bound_to 11000
  140.6554  133.9693  155.7777 LP  0  0  0  0  0  0  0  0  0  0  0  0  # atno 17395 bound_to 11000

$$$$
