AV-unprocessed.smi:1056|AV-procd|sdf|4646|dock4
  -GOLD-   22720 3153D 1   1.00000     0.00000
 Structure written by MMmdl.
 45 47  0  0  0  0  0  0  0  0  4 V2000
  152.6361  142.6136  161.0581 C   0  0  0  0  0  0  0  0  0  0  0  0
  152.2679  141.9801  159.7271 C   0  0  0  0  0  0  0  0  0  0  0  0
  151.3778  142.6715  158.8749 C   0  0  0  0  0  0  0  0  0  0  0  0
  151.0624  142.0682  157.6632 C   0  0  0  0  0  0  0  0  0  0  0  0
  150.2328  142.4905  156.6230 N   0  3  0  0  0  0  0  0  0  0  0  0
  150.2372  141.5578  155.6317 C   0  0  0  0  0  0  0  0  0  0  0  0
  151.0534  140.5417  156.0249 N   0  0  0  0  0  0  0  0  0  0  0  0
  151.4060  139.2991  155.3172 C   0  0  0  0  0  0  0  0  0  0  0  0
  150.1910  138.4175  154.9538 C   0  0  2  0  0  0  0  0  0  0  0  0
  150.6331  137.3433  154.1457 O   0  0  0  0  0  0  0  0  0  0  0  0
  149.0791  139.1853  154.2048 C   0  0  0  0  0  0  0  0  0  0  0  0
  148.0269  138.2957  153.6486 N   0  3  2  0  0  0  0  0  0  0  0  0
  147.0439  139.0309  152.8109 C   0  0  0  0  0  0  0  0  0  0  0  0
  146.1747  138.0425  152.0101 C   0  0  0  0  0  0  0  0  0  0  0  0
  145.6775  136.9753  152.8860 N   0  5  0  0  0  0  0  0  0  0  0  0
  146.2322  136.5707  154.0708 C   0  0  0  0  0  0  0  0  0  0  0  0
  145.8915  135.5827  154.7174 O   0  0  0  0  0  0  0  0  0  0  0  0
  147.3512  137.4569  154.6808 C   0  0  0  0  0  0  0  0  0  0  0  0
  151.5965  140.8200  157.2859 C   0  0  0  0  0  0  0  0  0  0  0  0
  152.4751  140.1260  158.1156 C   0  0  0  0  0  0  0  0  0  0  0  0
  152.8092  140.7233  159.3520 C   0  0  0  0  0  0  0  0  0  0  0  0
  153.7674  139.9900  160.2752 C   0  0  0  0  0  0  0  0  0  0  0  0
  152.1761  143.5954  161.1735 H   0  0  0  0  0  0  0  0  0  0  0  0
  153.7157  142.7418  161.1371 H   0  0  0  0  0  0  0  0  0  0  0  0
  152.2996  141.9879  161.8852 H   0  0  0  0  0  0  0  0  0  0  0  0
  150.9628  143.6294  159.1531 H   0  0  0  0  0  0  0  0  0  0  0  0
  149.6892  141.6114  154.7017 H   0  0  0  0  0  0  0  0  0  0  0  0
  151.9354  139.5889  154.4084 H   0  0  0  0  0  0  0  0  0  0  0  0
  152.1255  138.7367  155.9117 H   0  0  0  0  0  0  0  0  0  0  0  0
  149.8073  137.9985  155.8828 H   0  0  0  0  0  0  0  0  0  0  0  0
  149.9467  137.1150  153.5371 H   0  0  0  0  0  0  0  0  0  0  0  0
  148.6089  139.9143  154.8660 H   0  0  0  0  0  0  0  0  0  0  0  0
  149.5351  139.7574  153.3955 H   0  0  0  0  0  0  0  0  0  0  0  0
  146.4209  139.6610  153.4483 H   0  0  0  0  0  0  0  0  0  0  0  0
  147.5551  139.6944  152.1124 H   0  0  0  0  0  0  0  0  0  0  0  0
  145.3633  138.5853  151.5264 H   0  0  0  0  0  0  0  0  0  0  0  0
  146.7780  137.6274  151.2024 H   0  0  0  0  0  0  0  0  0  0  0  0
  148.0711  136.8067  155.1764 H   0  0  0  0  0  0  0  0  0  0  0  0
  146.9084  138.0942  155.4476 H   0  0  0  0  0  0  0  0  0  0  0  0
  152.8910  139.1700  157.8350 H   0  0  0  0  0  0  0  0  0  0  0  0
  154.0645  139.0269  159.8590 H   0  0  0  0  0  0  0  0  0  0  0  0
  153.3023  139.8043  161.2437 H   0  0  0  0  0  0  0  0  0  0  0  0
  154.6719  140.5783  160.4318 H   0  0  0  0  0  0  0  0  0  0  0  0
  148.4867  137.6578  153.0151 H   0  0  0  0  0  0  0  0  0  0  0  0
  149.7043  143.3531  156.5872 H   0  0  0  0  0  0  0  0  0  0  0  0
  1  2  1  0  0  0  0
  1 23  1  0  0  0  0
  1 24  1  0  0  0  0
  1 25  1  0  0  0  0
  2 21  1  0  0  0  0
  2  3  2  0  0  0  0
  3  4  1  0  0  0  0
  3 26  1  0  0  0  0
  4 19  2  0  0  0  0
  4  5  1  0  0  0  0
  5  6  2  0  0  0  0
  5 45  1  0  0  0  0
  6  7  1  0  0  0  0
  6 27  1  0  0  0  0
  7  8  1  0  0  0  0
  7 19  1  0  0  0  0
  8  9  1  0  0  0  0
  8 28  1  0  0  0  0
  8 29  1  0  0  0  0
  9 10  1  0  0  0  0
  9 11  1  0  0  0  0
  9 30  1  0  0  0  0
 10 31  1  0  0  0  0
 11 12  1  0  0  0  0
 11 32  1  0  0  0  0
 11 33  1  0  0  0  0
 12 18  1  0  0  0  0
 12 13  1  0  0  0  0
 12 44  1  0  0  0  0
 13 14  1  0  0  0  0
 13 34  1  0  0  0  0
 13 35  1  0  0  0  0
 14 15  1  0  0  0  0
 14 36  1  0  0  0  0
 14 37  1  0  0  0  0
 15 16  1  0  0  0  0
 16 17  2  0  0  0  0
 16 18  1  0  0  0  0
 18 38  1  0  0  0  0
 18 39  1  0  0  0  0
 19 20  1  0  0  0  0
 20 21  2  0  0  0  0
 20 40  1  0  0  0  0
 21 22  1  0  0  0  0
 22 41  1  0  0  0  0
 22 42  1  0  0  0  0
 22 43  1  0  0  0  0
M  CHG  1   5   1
M  CHG  1  12   1
M  CHG  1  15  -1
M  END
> <s_m_source_file>
AV-unprocessed.smi

> <i_m_source_file_index>
1056

> <i_lp_mmshare_version>
43012

> <i_f3d_flags>
0

> <s_epik_input>
W0NIM11jKFtjSF0xKWMoW0NIM10pW2NIXWMoYzEyKW4oW2NIXW4yKVtDSDJdW0NASF0oW09IXSlbQ0gyXU4zW0NIMl1bQ0gyXVtOSF1DKD1PKVtDSDJdMw==

> <s_epik_cmdline>
J2VwaWtfcHl0aG9uJywgJy1waCcsICc3LjAnLCAnLXRuJywgJzgnLCAnLW1hJywgJzIwMCcsICctbWV0YWxfYmluZGluZycsICctaW1hZScsICc8aW5maWxlLm1hZT4nLCAnLW9tYWUnLCAnPG91dGZpbGUubWFlPic=

> <r_epik_Ionization_Penalty>
6.22415

> <r_epik_Ionization_Penalty_Charging>
6.22415

> <r_epik_Ionization_Penalty_Neutral>
4.02797e-07

> <r_epik_State_Penalty>
6.37716

> <r_epik_Charging_Adjusted_Penalty>
12.6013

> <i_epik_Tot_Q>
1

> <i_epik_Tot_abs_Q>
3

> <r_epik_Metal_State_Penalty>
2.53509

> <b_epik_Metal_Only>
1

> <s_lp_Force_Field>
OPLS_2005

> <r_lp_Energy>
27.0798

> <b_lp_Chiralities_Consistent>
1

> <s_lp_Variant>
AV-unprocessed.smi:1056-17

> <Gold.Version>
5.8.1

> <Gold.Id.Protein>
6NUR|6NUR_protein|mol2

> <Gold.PLP.Fitness>
56.5954

> <Gold.PLP.PLP>
-42.1976

> <Gold.PLP.part.hbond>
-4.0193

> <Gold.PLP.part.metal>
0.0000

> <Gold.PLP.part.buried>
-2.2427

> <Gold.PLP.part.nonpolar>
-35.8482

> <Gold.PLP.part.repulsive>
0.3163

> <Gold.PLP.ligand.clash>
0.0000

> <Gold.PLP.ligand.torsion>
0.1036

> <Gold.PLP.Chemscore.Hbond>
4.8613

> <Gold.PLP.Chemscore.CHOScore>
0.0000

> <Gold.PLP.Chemscore.Metal>
0.0000

> <Gold.Chemscore.Hbonds>
donor molecule, donor type, donor heavy atom, donor atom, acceptor molecule, acceptor atom, score
      L1  H     5    45       P1  8028  2.00
      L1  H    10    31       P1  7948  0.83
      L1  H    12    44       P1  7948  2.00

> <Gold.PLP.Chemscore.Internal.Correction>
0.0212

> <Gold.Rescore>
     Score         DG    S(hbond)    S(metal)    S(lipo)     H(rot)  DE(clash)    DE(int)     intcor
     18.60     -19.82       2.51        0.00     102.65       2.37       0.14       1.08       ----

> <Gold.Chemscore.Fitness>
18.5973

> <Gold.Chemscore.DG>
-19.8161

> <Gold.Chemscore.ZeroCoef>
-5.4800

> <Gold.Chemscore.Hbond>
2.5147

> <Gold.Chemscore.Metal>
0.0000

> <Gold.Chemscore.Lipo>
102.6517

> <Gold.Chemscore.Internal_Hbond>
0.0000

> <Gold.Chemscore.DEClash>
0.1378

> <Gold.Chemscore.DEInternal>
1.0809

> <Gold.Chemscore.Rot>
2.3724

> <Gold.Chemscore.Internal.Correction>
   9.000000E+99

> <Gold.Chemscore.Hbonds>
donor molecule, donor type, donor heavy atom, donor atom, acceptor molecule, acceptor atom, score
      L1  H     5    45       P1  8028  0.96
      L1  H    10    31       P1  7948  0.32
      L1  H    12    44       P1  7948  1.00

> <Gold.Chemscore.Hbond.Weighted>
-8.3992

> <Gold.Chemscore.Metal.Weighted>
-0.0000

> <Gold.Chemscore.Lipo.Weighted>
-12.0102

> <Gold.Chemscore.Internal_Hbond.Weighted>
0.0000

> <Gold.Chemscore.DEClash.Weighted>
0.1378

> <Gold.Chemscore.DEInternal.Weighted>
1.0809

> <Gold.Chemscore.Rot.Weighted>
6.0734

> <Gold.Chemscore.Internal.Correction.Weighted>
   9.000000E+99

> <Gold.Protein.RotatedTorsions>
[ 6907 6896 6895 6894 ] final  -59.55 input  -60.11 | X-H torsion
[ 7974 7965 7964 7962 ] final   13.61 input  175.53 | X-H torsion
[ 8008 7997 7996 7995 ] final  121.35 input   59.86 | X-H torsion
[ 10167 10162 10161 10158 ] final  -58.71 input  -65.29 | X-H torsion
[ 10718 10713 10712 10709 ] final   52.65 input   66.30 | X-H torsion
[ 10763 10752 10751 10750 ] final   94.76 input  -60.55 | X-H torsion
[ 11005 11000 10999 10996 ] final -119.25 input  -57.11 | X-H torsion

> <Gold.Protein.ActiveResidues>
 VAL166  LYS551  ARG553  GLY616  TRP617  ASP618  TYR619  PRO620  LYS621  CYS622 
 ASP623  PHE694  ASN695  SER759  ASP760  ASP761  ALA762  ILE779  LEU786  VAL792 
 PHE793  MET794  SER795  GLU796  ALA797  LYS798  CYS799  TRP800  GLU811  SER814 

> <Gold.Protein.RotatedAtoms>
  150.7922  134.6954  159.6519 H   0  0  0  0  0  0  0  0  0  0  0  0  # atno 6907 bound_to 6896
  152.4029  134.6252  160.0071 H   0  0  0  0  0  0  0  0  0  0  0  0  # atno 6908 bound_to 6896
  151.6518  133.3284  159.3190 H   0  0  0  0  0  0  0  0  0  0  0  0  # atno 6909 bound_to 6896
  146.2325  139.9163  142.8516 H   0  0  0  0  0  0  0  0  0  0  0  0  # atno 7974 bound_to 7965
  156.2683  140.2810  156.1294 H   0  0  0  0  0  0  0  0  0  0  0  0  # atno 8008 bound_to 7997
  155.1070  140.0390  157.2731 H   0  0  0  0  0  0  0  0  0  0  0  0  # atno 8009 bound_to 7997
  154.6771  140.2600  155.6952 H   0  0  0  0  0  0  0  0  0  0  0  0  # atno 8010 bound_to 7997
  140.6180  143.2409  151.5549 H   0  0  0  0  0  0  0  0  0  0  0  0  # atno 10167 bound_to 10162
  157.5094  130.8491  149.8416 H   0  0  0  0  0  0  0  0  0  0  0  0  # atno 10718 bound_to 10713
  153.2454  135.4278  155.0742 H   0  0  0  0  0  0  0  0  0  0  0  0  # atno 10763 bound_to 10752
  154.8359  135.3413  154.6589 H   0  0  0  0  0  0  0  0  0  0  0  0  # atno 10764 bound_to 10752
  153.7012  135.7028  153.5119 H   0  0  0  0  0  0  0  0  0  0  0  0  # atno 10765 bound_to 10752
  141.0228  134.0098  157.3257 H   0  0  0  0  0  0  0  0  0  0  0  0  # atno 11005 bound_to 11000
  145.2180  140.9923  143.4062 LP  0  0  0  0  0  0  0  0  0  0  0  0  # atno 17320 bound_to 7965
  144.9634  139.3955  143.6344 LP  0  0  0  0  0  0  0  0  0  0  0  0  # atno 17321 bound_to 7965
  139.5415  144.2635  152.1359 LP  0  0  0  0  0  0  0  0  0  0  0  0  # atno 17342 bound_to 10162
  140.1849  144.4808  150.6509 LP  0  0  0  0  0  0  0  0  0  0  0  0  # atno 17343 bound_to 10162
  156.0279  130.3773  150.1769 LP  0  0  0  0  0  0  0  0  0  0  0  0  # atno 17370 bound_to 10713
  156.9959  130.9907  151.3403 LP  0  0  0  0  0  0  0  0  0  0  0  0  # atno 17371 bound_to 10713
  139.9157  135.0196  156.7871 LP  0  0  0  0  0  0  0  0  0  0  0  0  # atno 17394 bound_to 11000
  140.6543  133.9703  155.7771 LP  0  0  0  0  0  0  0  0  0  0  0  0  # atno 17395 bound_to 11000

$$$$
