AV-unprocessed.smi:1107|AV-procd|sdf|4783|dock6
  -GOLD-   22720 3323D 1   1.00000     0.00000
 Structure written by MMmdl.
 49 50  0  0  0  0  0  0  0  0  2 V2000
  155.0232  137.8915  158.1489 C   0  0  0  0  0  0  0  0  0  0  0  0
  154.0273  137.9381  157.0106 C   0  0  0  0  0  0  0  0  0  0  0  0
  153.4352  139.1788  156.8406 N   0  0  0  0  0  0  0  0  0  0  0  0
  152.5109  139.3210  155.8209 C   0  0  0  0  0  0  0  0  0  0  0  0
  151.8990  140.7062  155.7103 C   0  0  0  0  0  0  0  0  0  0  0  0
  152.1942  138.2792  155.0109 C   0  0  0  0  0  0  0  0  0  0  0  0
  151.1637  138.3828  153.8851 C   0  0  0  0  0  0  0  0  0  0  0  0
  149.6857  138.3972  154.2919 C   0  0  0  0  0  0  0  0  0  0  0  0
  149.3773  138.1449  155.4554 O   0  0  0  0  0  0  0  0  0  0  0  0
  148.7847  138.7181  153.3475 N   0  0  0  0  0  0  0  0  0  0  0  0
  147.3401  138.8438  153.5336 C   0  0  2  0  0  0  0  0  0  0  0  0
  147.0556  140.0634  154.4204 C   0  0  0  0  0  0  0  0  0  0  0  0
  146.7484  137.5530  154.1445 C   0  0  0  0  0  0  0  0  0  0  0  0
  146.1345  136.6599  153.1283 N   0  3  0  0  0  0  0  0  0  0  0  0
  145.6488  135.3785  153.7012 C   0  0  0  0  0  0  0  0  0  0  0  0
  145.1766  134.4240  152.5913 C   0  0  0  0  0  0  0  0  0  0  0  0
  144.0973  135.0811  151.7208 C   0  0  0  0  0  0  0  0  0  0  0  0
  144.6071  136.4214  151.1747 C   0  0  0  0  0  0  0  0  0  0  0  0
  145.0867  137.3328  152.3162 C   0  0  0  0  0  0  0  0  0  0  0  0
  152.8529  136.9731  155.2480 C   0  0  0  0  0  0  0  0  0  0  0  0
  152.5854  135.9859  154.5640 O   0  0  0  0  0  0  0  0  0  0  0  0
  153.7864  136.8831  156.2928 N   0  0  0  0  0  0  0  0  0  0  0  0
  153.6448  139.9804  157.4184 H   0  0  0  0  0  0  0  0  0  0  0  0
  155.4617  136.8973  158.2437 H   0  0  0  0  0  0  0  0  0  0  0  0
  154.5353  138.1399  159.0919 H   0  0  0  0  0  0  0  0  0  0  0  0
  155.8303  138.6043  157.9774 H   0  0  0  0  0  0  0  0  0  0  0  0
  152.1574  141.1609  154.7538 H   0  0  0  0  0  0  0  0  0  0  0  0
  152.2544  141.3677  156.5017 H   0  0  0  0  0  0  0  0  0  0  0  0
  150.8125  140.6499  155.7843 H   0  0  0  0  0  0  0  0  0  0  0  0
  151.3151  137.5727  153.1706 H   0  0  0  0  0  0  0  0  0  0  0  0
  151.3520  139.2914  153.3131 H   0  0  0  0  0  0  0  0  0  0  0  0
  149.1346  138.9031  152.4181 H   0  0  0  0  0  0  0  0  0  0  0  0
  146.8671  139.0354  152.5697 H   0  0  0  0  0  0  0  0  0  0  0  0
  145.9835  140.2040  154.5615 H   0  0  0  0  0  0  0  0  0  0  0  0
  147.4500  140.9759  153.9720 H   0  0  0  0  0  0  0  0  0  0  0  0
  147.5092  139.9543  155.4061 H   0  0  0  0  0  0  0  0  0  0  0  0
  147.5570  137.0197  154.6471 H   0  0  0  0  0  0  0  0  0  0  0  0
  146.0167  137.7891  154.9188 H   0  0  0  0  0  0  0  0  0  0  0  0
  146.4501  134.8984  154.2644 H   0  0  0  0  0  0  0  0  0  0  0  0
  144.8377  135.5757  154.4039 H   0  0  0  0  0  0  0  0  0  0  0  0
  146.0260  134.1396  151.9686 H   0  0  0  0  0  0  0  0  0  0  0  0
  144.7921  133.5023  153.0291 H   0  0  0  0  0  0  0  0  0  0  0  0
  143.8200  134.4198  150.8994 H   0  0  0  0  0  0  0  0  0  0  0  0
  143.1947  135.2425  152.3115 H   0  0  0  0  0  0  0  0  0  0  0  0
  145.4278  136.2464  150.4777 H   0  0  0  0  0  0  0  0  0  0  0  0
  143.8189  136.9169  150.6071 H   0  0  0  0  0  0  0  0  0  0  0  0
  144.2469  137.6075  152.9562 H   0  0  0  0  0  0  0  0  0  0  0  0
  145.4749  138.2585  151.8920 H   0  0  0  0  0  0  0  0  0  0  0  0
  146.8793  136.4128  152.4921 H   0  0  0  0  0  0  0  0  0  0  0  0
  1 24  1  0  0  0  0
  1 25  1  0  0  0  0
  1 26  1  0  0  0  0
  1  2  1  0  0  0  0
  2  3  1  0  0  0  0
  2 22  2  0  0  0  0
  3  4  1  0  0  0  0
  3 23  1  0  0  0  0
  4  6  2  0  0  0  0
  4  5  1  0  0  0  0
  5 27  1  0  0  0  0
  5 28  1  0  0  0  0
  5 29  1  0  0  0  0
  6 20  1  0  0  0  0
  6  7  1  0  0  0  0
  7  8  1  0  0  0  0
  7 30  1  0  0  0  0
  7 31  1  0  0  0  0
  8  9  2  0  0  0  0
  8 10  1  0  0  0  0
 10 11  1  0  0  0  0
 10 32  1  0  0  0  0
 11 12  1  0  0  0  0
 11 13  1  0  0  0  0
 11 33  1  0  0  0  0
 12 34  1  0  0  0  0
 12 35  1  0  0  0  0
 12 36  1  0  0  0  0
 13 14  1  0  0  0  0
 13 37  1  0  0  0  0
 13 38  1  0  0  0  0
 14 19  1  0  0  0  0
 14 15  1  0  0  0  0
 14 49  1  0  0  0  0
 15 16  1  0  0  0  0
 15 39  1  0  0  0  0
 15 40  1  0  0  0  0
 16 17  1  0  0  0  0
 16 41  1  0  0  0  0
 16 42  1  0  0  0  0
 17 18  1  0  0  0  0
 17 43  1  0  0  0  0
 17 44  1  0  0  0  0
 18 19  1  0  0  0  0
 18 45  1  0  0  0  0
 18 46  1  0  0  0  0
 19 47  1  0  0  0  0
 19 48  1  0  0  0  0
 20 21  2  0  0  0  0
 20 22  1  0  0  0  0
M  CHG  1  14   1
M  END
> <s_m_source_file>
AV-unprocessed.smi

> <i_m_source_file_index>
1107

> <i_lp_mmshare_version>
43012

> <i_f3d_flags>
0

> <s_epik_input>
W0NIM11jMW5jKFtDSDNdKWMoYyg9TylbbkhdMSlbQ0gyXUMoPU8pW05IXVtDQEhdKFtDSDNdKVtDSDJdTjJbQ0gyXVtDSDJdW0NIMl1bQ0gyXVtDSDJdMg==

> <s_epik_cmdline>
J2VwaWtfcHl0aG9uJywgJy1waCcsICc3LjAnLCAnLXRuJywgJzgnLCAnLW1hJywgJzIwMCcsICctbWV0YWxfYmluZGluZycsICctaW1hZScsICc8aW5maWxlLm1hZT4nLCAnLW9tYWUnLCAnPG91dGZpbGUubWFlPic=

> <r_lp_tautomer_probability>
0.156392

> <r_epik_Ionization_Penalty>
0.0190033

> <r_epik_Ionization_Penalty_Charging>
0.0189172

> <r_epik_Ionization_Penalty_Neutral>
8.60838e-05

> <r_epik_State_Penalty>
1.15342

> <r_epik_Charging_Adjusted_Penalty>
1.17233

> <i_epik_Tot_Q>
1

> <i_epik_Tot_abs_Q>
1

> <r_epik_Metal_State_Penalty>
1.34593

> <b_epik_Metal_Only>
0

> <s_lp_Force_Field>
OPLS_2005

> <r_lp_Energy>
27.2894

> <b_lp_Chiralities_Consistent>
1

> <s_lp_Variant>
AV-unprocessed.smi:1107-3

> <Gold.Version>
5.8.1

> <Gold.Id.Protein>
6NUR|6NUR_protein|mol2

> <Gold.PLP.Fitness>
42.0384

> <Gold.PLP.PLP>
-32.4617

> <Gold.PLP.part.hbond>
-3.6129

> <Gold.PLP.part.metal>
0.0000

> <Gold.PLP.part.buried>
-3.2219

> <Gold.PLP.part.nonpolar>
-26.8078

> <Gold.PLP.part.repulsive>
0.1994

> <Gold.PLP.ligand.clash>
0.0000

> <Gold.PLP.ligand.torsion>
0.9187

> <Gold.PLP.Chemscore.Hbond>
3.7840

> <Gold.PLP.Chemscore.CHOScore>
0.0000

> <Gold.PLP.Chemscore.Metal>
0.0000

> <Gold.Chemscore.Hbonds>
donor molecule, donor type, donor heavy atom, donor atom, acceptor molecule, acceptor atom, score
      L1  H    10    32       P1  7957  1.00
      L1  H    14    49       P1  7948  1.33

> <Gold.PLP.Chemscore.Internal.Correction>
0.0621

> <Gold.Rescore>
     Score         DG    S(hbond)    S(metal)    S(lipo)     H(rot)  DE(clash)    DE(int)     intcor
     15.55     -18.00       2.94        0.00      66.59       1.98       0.19       2.26       ----

> <Gold.Chemscore.Fitness>
15.5467

> <Gold.Chemscore.DG>
-18.0017

> <Gold.Chemscore.ZeroCoef>
-5.4800

> <Gold.Chemscore.Hbond>
2.9370

> <Gold.Chemscore.Metal>
0.0000

> <Gold.Chemscore.Lipo>
66.5851

> <Gold.Chemscore.Internal_Hbond>
0.0000

> <Gold.Chemscore.DEClash>
0.1910

> <Gold.Chemscore.DEInternal>
2.2639

> <Gold.Chemscore.Rot>
1.9837

> <Gold.Chemscore.Internal.Correction>
   9.000000E+99

> <Gold.Chemscore.Hbonds>
donor molecule, donor type, donor heavy atom, donor atom, acceptor molecule, acceptor atom, score
      L1  H    10    32       P1  7957  0.91
      L1  H    14    49       P1  7948  0.66

> <Gold.Chemscore.Hbond.Weighted>
-9.8095

> <Gold.Chemscore.Metal.Weighted>
-0.0000

> <Gold.Chemscore.Lipo.Weighted>
-7.7905

> <Gold.Chemscore.Internal_Hbond.Weighted>
0.0000

> <Gold.Chemscore.DEClash.Weighted>
0.1910

> <Gold.Chemscore.DEInternal.Weighted>
2.2639

> <Gold.Chemscore.Rot.Weighted>
5.0783

> <Gold.Chemscore.Internal.Correction.Weighted>
   9.000000E+99

> <Gold.Protein.RotatedTorsions>
[ 6907 6896 6895 6894 ] final  148.31 input  -60.11 | X-H torsion
[ 7974 7965 7964 7962 ] final  130.78 input  175.53 | X-H torsion
[ 8008 7997 7996 7995 ] final  -70.02 input   59.86 | X-H torsion
[ 10167 10162 10161 10158 ] final  -36.48 input  -65.29 | X-H torsion
[ 10718 10713 10712 10709 ] final -152.71 input   66.30 | X-H torsion
[ 10763 10752 10751 10750 ] final -169.02 input  -60.55 | X-H torsion
[ 11005 11000 10999 10996 ] final  128.33 input  -57.11 | X-H torsion

> <Gold.Protein.ActiveResidues>
 VAL166  LYS551  ARG553  GLY616  TRP617  ASP618  TYR619  PRO620  LYS621  CYS622 
 ASP623  PHE694  ASN695  SER759  ASP760  ASP761  ALA762  ILE779  LEU786  VAL792 
 PHE793  MET794  SER795  GLU796  ALA797  LYS798  CYS799  TRP800  GLU811  SER814 

> <Gold.Protein.RotatedAtoms>
  152.1432  133.4476  159.4776 H   0  0  0  0  0  0  0  0  0  0  0  0  # atno 6907 bound_to 6896
  150.6888  134.2280  159.4432 H   0  0  0  0  0  0  0  0  0  0  0  0  # atno 6908 bound_to 6896
  152.0172  134.9843  160.0620 H   0  0  0  0  0  0  0  0  0  0  0  0  # atno 6909 bound_to 6896
  145.0142  139.4191  143.5229 H   0  0  0  0  0  0  0  0  0  0  0  0  # atno 7974 bound_to 7965
  154.4981  140.0842  156.7739 H   0  0  0  0  0  0  0  0  0  0  0  0  # atno 8008 bound_to 7997
  155.4068  140.3439  155.4242 H   0  0  0  0  0  0  0  0  0  0  0  0  # atno 8009 bound_to 7997
  156.1420  140.1532  156.8893 H   0  0  0  0  0  0  0  0  0  0  0  0  # atno 8010 bound_to 7997
  140.7141  143.3406  151.2366 H   0  0  0  0  0  0  0  0  0  0  0  0  # atno 10167 bound_to 10162
  156.4761  130.8281  151.2509 H   0  0  0  0  0  0  0  0  0  0  0  0  # atno 10718 bound_to 10713
  154.6567  135.2919  154.9918 H   0  0  0  0  0  0  0  0  0  0  0  0  # atno 10763 bound_to 10752
  154.0992  135.6579  153.4869 H   0  0  0  0  0  0  0  0  0  0  0  0  # atno 10764 bound_to 10752
  153.0406  135.5238  154.7500 H   0  0  0  0  0  0  0  0  0  0  0  0  # atno 10765 bound_to 10752
  139.9555  134.9614  156.8986 H   0  0  0  0  0  0  0  0  0  0  0  0  # atno 11005 bound_to 11000
  146.3475  139.9604  142.8718 LP  0  0  0  0  0  0  0  0  0  0  0  0  # atno 17320 bound_to 7965
  145.1982  140.9842  143.4171 LP  0  0  0  0  0  0  0  0  0  0  0  0  # atno 17321 bound_to 7965
  139.6912  143.9688  152.2860 LP  0  0  0  0  0  0  0  0  0  0  0  0  # atno 17342 bound_to 10162
  139.9351  144.6717  150.8323 LP  0  0  0  0  0  0  0  0  0  0  0  0  # atno 17343 bound_to 10162
  157.7487  131.0060  150.3135 LP  0  0  0  0  0  0  0  0  0  0  0  0  # atno 17370 bound_to 10713
  156.3569  130.3840  149.7283 LP  0  0  0  0  0  0  0  0  0  0  0  0  # atno 17371 bound_to 10713
  140.5620  134.0526  155.7402 LP  0  0  0  0  0  0  0  0  0  0  0  0  # atno 17394 bound_to 11000
  141.1225  133.9437  157.2701 LP  0  0  0  0  0  0  0  0  0  0  0  0  # atno 17395 bound_to 11000

$$$$
