AV-unprocessed.smi:2137|AV-procd|sdf|8708|dock5
  -GOLD-   2272011473D 1   1.00000     0.00000
 Structure written by MMmdl.
 50 51  0  0  0  0  0  0  0  0  2 V2000
  146.1321  129.4395  151.1780 C   0  0  0  0  0  0  0  0  0  0  0  0
  145.5235  130.6167  151.9606 C   0  0  2  0  0  0  0  0  0  0  0  0
  144.8245  131.6428  151.0496 C   0  0  0  0  0  0  0  0  0  0  0  0
  145.8459  132.4943  150.2826 C   0  0  0  0  0  0  0  0  0  0  0  0
  146.8582  133.1389  151.2425 C   0  0  0  0  0  0  0  0  0  0  0  0
  147.5384  132.1106  152.0716 N   0  3  1  0  0  0  0  0  0  0  0  0
  148.6306  132.6838  152.8983 C   0  0  0  0  0  0  0  0  0  0  0  0
  148.0976  133.4525  154.1197 C   0  0  0  0  0  0  0  0  0  0  0  0
  149.2279  134.0151  154.9919 C   0  0  0  0  0  0  0  0  0  0  0  0
  148.6858  134.8613  156.0469 N   0  0  0  0  0  0  0  0  0  0  0  0
  149.2729  135.0754  157.2331 C   0  0  0  0  0  0  0  0  0  0  0  0
  150.3350  134.5481  157.5660 O   0  0  0  0  0  0  0  0  0  0  0  0
  148.5318  136.0115  158.1967 C   0  0  0  0  0  0  0  0  0  0  0  0
  148.1023  135.3319  159.4254 N   0  0  0  0  0  0  0  0  0  0  0  0
  147.8010  133.9826  159.3944 C   0  0  0  0  0  0  0  0  0  0  0  0
  147.4012  133.2838  160.4792 C   0  0  0  0  0  0  0  0  0  0  0  0
  147.2659  133.9312  161.7784 C   0  0  0  0  0  0  0  0  0  0  0  0
  146.8811  133.3394  162.7878 O   0  0  0  0  0  0  0  0  0  0  0  0
  147.5985  135.3066  161.7867 N   0  0  0  0  0  0  0  0  0  0  0  0
  147.4739  136.0296  163.0358 C   0  0  0  0  0  0  0  0  0  0  0  0
  147.9977  136.0366  160.6443 C   0  0  0  0  0  0  0  0  0  0  0  0
  148.2433  137.2447  160.6917 O   0  0  0  0  0  0  0  0  0  0  0  0
  146.5614  131.3142  152.8640 C   0  0  0  0  0  0  0  0  0  0  0  0
  146.9412  129.7605  150.5220 H   0  0  0  0  0  0  0  0  0  0  0  0
  145.3793  128.9485  150.5606 H   0  0  0  0  0  0  0  0  0  0  0  0
  146.5381  128.6881  151.8561 H   0  0  0  0  0  0  0  0  0  0  0  0
  144.7592  130.1888  152.6109 H   0  0  0  0  0  0  0  0  0  0  0  0
  144.1491  131.1426  150.3546 H   0  0  0  0  0  0  0  0  0  0  0  0
  144.2026  132.2990  151.6601 H   0  0  0  0  0  0  0  0  0  0  0  0
  146.3714  131.8790  149.5515 H   0  0  0  0  0  0  0  0  0  0  0  0
  145.3291  133.2682  149.7141 H   0  0  0  0  0  0  0  0  0  0  0  0
  147.5953  133.6926  150.6595 H   0  0  0  0  0  0  0  0  0  0  0  0
  146.3590  133.8605  151.8912 H   0  0  0  0  0  0  0  0  0  0  0  0
  149.2671  131.8771  153.2642 H   0  0  0  0  0  0  0  0  0  0  0  0
  149.2669  133.3216  152.2826 H   0  0  0  0  0  0  0  0  0  0  0  0
  147.4596  134.2767  153.8014 H   0  0  0  0  0  0  0  0  0  0  0  0
  147.4709  132.7904  154.7191 H   0  0  0  0  0  0  0  0  0  0  0  0
  149.7972  133.2044  155.4483 H   0  0  0  0  0  0  0  0  0  0  0  0
  149.9203  134.5838  154.3685 H   0  0  0  0  0  0  0  0  0  0  0  0
  147.8092  135.3264  155.8602 H   0  0  0  0  0  0  0  0  0  0  0  0
  149.1584  136.8704  158.4447 H   0  0  0  0  0  0  0  0  0  0  0  0
  147.6665  136.4201  157.6732 H   0  0  0  0  0  0  0  0  0  0  0  0
  147.8882  133.4563  158.4549 H   0  0  0  0  0  0  0  0  0  0  0  0
  147.1770  132.2315  160.3842 H   0  0  0  0  0  0  0  0  0  0  0  0
  148.2390  136.8062  163.0811 H   0  0  0  0  0  0  0  0  0  0  0  0
  147.6361  135.3509  163.8742 H   0  0  0  0  0  0  0  0  0  0  0  0
  146.4697  136.4551  163.0561 H   0  0  0  0  0  0  0  0  0  0  0  0
  146.0514  131.9761  153.5658 H   0  0  0  0  0  0  0  0  0  0  0  0
  147.0734  130.5646  153.4665 H   0  0  0  0  0  0  0  0  0  0  0  0
  147.9779  131.4751  151.4211 H   0  0  0  0  0  0  0  0  0  0  0  0
  1  2  1  0  0  0  0
  1 24  1  0  0  0  0
  1 25  1  0  0  0  0
  1 26  1  0  0  0  0
  2 23  1  0  0  0  0
  2  3  1  0  0  0  0
  2 27  1  0  0  0  0
  3  4  1  0  0  0  0
  3 28  1  0  0  0  0
  3 29  1  0  0  0  0
  4  5  1  0  0  0  0
  4 30  1  0  0  0  0
  4 31  1  0  0  0  0
  5  6  1  0  0  0  0
  5 32  1  0  0  0  0
  5 33  1  0  0  0  0
  6  7  1  0  0  0  0
  6 23  1  0  0  0  0
  6 50  1  0  0  0  0
  7  8  1  0  0  0  0
  7 34  1  0  0  0  0
  7 35  1  0  0  0  0
  8  9  1  0  0  0  0
  8 36  1  0  0  0  0
  8 37  1  0  0  0  0
  9 10  1  0  0  0  0
  9 38  1  0  0  0  0
  9 39  1  0  0  0  0
 10 11  1  0  0  0  0
 10 40  1  0  0  0  0
 11 12  2  0  0  0  0
 11 13  1  0  0  0  0
 13 14  1  0  0  0  0
 13 41  1  0  0  0  0
 13 42  1  0  0  0  0
 14 21  1  0  0  0  0
 14 15  1  0  0  0  0
 15 16  2  0  0  0  0
 15 43  1  0  0  0  0
 16 17  1  0  0  0  0
 16 44  1  0  0  0  0
 17 18  2  0  0  0  0
 17 19  1  0  0  0  0
 19 20  1  0  0  0  0
 19 21  1  0  0  0  0
 20 45  1  0  0  0  0
 20 46  1  0  0  0  0
 20 47  1  0  0  0  0
 21 22  2  0  0  0  0
 23 48  1  0  0  0  0
 23 49  1  0  0  0  0
M  CHG  1   6   1
M  END
> <s_m_source_file>
AV-unprocessed.smi

> <i_m_source_file_index>
2137

> <i_lp_mmshare_version>
43012

> <i_f3d_flags>
0

> <s_epik_input>
W0NIM11bQ0BASF0xW0NIMl1bQ0gyXVtDSDJdTihbQ0gyXTEpW0NIMl1bQ0gyXVtDSDJdW05IXUMoPU8pW0NIMl1uMltjSF1bY0hdYyg9TyluKFtDSDNdKWMyPU8=

> <s_epik_cmdline>
J2VwaWtfcHl0aG9uJywgJy1waCcsICc3LjAnLCAnLXRuJywgJzgnLCAnLW1hJywgJzIwMCcsICctbWV0YWxfYmluZGluZycsICctaW1hZScsICc8aW5maWxlLm1hZT4nLCAnLW9tYWUnLCAnPG91dGZpbGUubWFlPic=

> <r_lp_tautomer_probability>
1

> <r_epik_Ionization_Penalty>
0.000384839

> <r_epik_Ionization_Penalty_Charging>
0.000384812

> <r_epik_Ionization_Penalty_Neutral>
2.6907e-08

> <r_epik_State_Penalty>
0.000235226

> <r_epik_Charging_Adjusted_Penalty>
0.000620038

> <i_epik_Tot_Q>
1

> <i_epik_Tot_abs_Q>
1

> <r_epik_Metal_State_Penalty>
-0

> <b_epik_Metal_Only>
0

> <s_lp_Force_Field>
OPLS_2005

> <r_lp_Energy>
28.7219

> <b_lp_Chiralities_Consistent>
1

> <s_lp_Variant>
AV-unprocessed.smi:2137-3

> <Gold.Version>
5.8.1

> <Gold.Id.Protein>
6NUR|6NUR_protein|mol2

> <Gold.PLP.Fitness>
49.8738

> <Gold.PLP.PLP>
-41.3870

> <Gold.PLP.part.hbond>
-4.5728

> <Gold.PLP.part.metal>
0.0000

> <Gold.PLP.part.buried>
-2.8526

> <Gold.PLP.part.nonpolar>
-34.1742

> <Gold.PLP.part.repulsive>
0.0410

> <Gold.PLP.ligand.clash>
0.0000

> <Gold.PLP.ligand.torsion>
0.6623

> <Gold.PLP.Chemscore.Hbond>
3.2560

> <Gold.PLP.Chemscore.CHOScore>
0.0000

> <Gold.PLP.Chemscore.Metal>
0.0000

> <Gold.Chemscore.Hbonds>
donor molecule, donor type, donor heavy atom, donor atom, acceptor molecule, acceptor atom, score
      L1  H     6    50       P1 10747  1.00
      P1  H  6896  6907       L1    12  0.69
      P1  H  6931  6943       L1    22  0.80
      P1  H  6934  6947       L1    22  0.56

> <Gold.PLP.Chemscore.Internal.Correction>
0.0435

> <Gold.Rescore>
     Score         DG    S(hbond)    S(metal)    S(lipo)     H(rot)  DE(clash)    DE(int)     intcor
     19.92     -20.82       3.22        0.00      89.01       2.27       0.25       0.66       ----

> <Gold.Chemscore.Fitness>
19.9170

> <Gold.Chemscore.DG>
-20.8206

> <Gold.Chemscore.ZeroCoef>
-5.4800

> <Gold.Chemscore.Hbond>
3.2184

> <Gold.Chemscore.Metal>
0.0000

> <Gold.Chemscore.Lipo>
89.0141

> <Gold.Chemscore.Internal_Hbond>
0.0000

> <Gold.Chemscore.DEClash>
0.2465

> <Gold.Chemscore.DEInternal>
0.6571

> <Gold.Chemscore.Rot>
2.2748

> <Gold.Chemscore.Internal.Correction>
   9.000000E+99

> <Gold.Chemscore.Hbonds>
donor molecule, donor type, donor heavy atom, donor atom, acceptor molecule, acceptor atom, score
      L1  H     6    50       P1 10747  0.99
      P1  H  6896  6907       L1    12  0.67
      P1  H  6931  6943       L1    22  0.80
      P1  H  6934  6947       L1    22  0.53

> <Gold.Chemscore.Hbond.Weighted>
-10.7493

> <Gold.Chemscore.Metal.Weighted>
-0.0000

> <Gold.Chemscore.Lipo.Weighted>
-10.4146

> <Gold.Chemscore.Internal_Hbond.Weighted>
0.0000

> <Gold.Chemscore.DEClash.Weighted>
0.2465

> <Gold.Chemscore.DEInternal.Weighted>
0.6571

> <Gold.Chemscore.Rot.Weighted>
5.8234

> <Gold.Chemscore.Internal.Correction.Weighted>
   9.000000E+99

> <Gold.Protein.RotatedTorsions>
[ 6907 6896 6895 6894 ] final  -99.51 input  -60.11 | X-H torsion
[ 7974 7965 7964 7962 ] final   82.85 input  175.53 | X-H torsion
[ 8008 7997 7996 7995 ] final -157.62 input   59.86 | X-H torsion
[ 10167 10162 10161 10158 ] final  -77.76 input  -65.29 | X-H torsion
[ 10718 10713 10712 10709 ] final   23.07 input   66.30 | X-H torsion
[ 10763 10752 10751 10750 ] final -101.60 input  -60.55 | X-H torsion
[ 11005 11000 10999 10996 ] final   75.61 input  -57.11 | X-H torsion

> <Gold.Protein.ActiveResidues>
 VAL166  LYS551  ARG553  GLY616  TRP617  ASP618  TYR619  PRO620  LYS621  CYS622 
 ASP623  PHE694  ASN695  SER759  ASP760  ASP761  ALA762  ILE779  LEU786  VAL792 
 PHE793  MET794  SER795  GLU796  ALA797  LYS798  CYS799  TRP800  GLU811  SER814 

> <Gold.Protein.RotatedAtoms>
  150.7083  134.1029  159.3971 H   0  0  0  0  0  0  0  0  0  0  0  0  # atno 6907 bound_to 6896
  151.9015  135.0374  160.0516 H   0  0  0  0  0  0  0  0  0  0  0  0  # atno 6908 bound_to 6896
  152.2410  133.5100  159.5307 H   0  0  0  0  0  0  0  0  0  0  0  0  # atno 6909 bound_to 6896
  145.6197  139.2383  143.2145 H   0  0  0  0  0  0  0  0  0  0  0  0  # atno 7974 bound_to 7965
  155.7352  140.0807  157.2271 H   0  0  0  0  0  0  0  0  0  0  0  0  # atno 8008 bound_to 7997
  154.4028  140.1588  156.2608 H   0  0  0  0  0  0  0  0  0  0  0  0  # atno 8009 bound_to 7997
  155.9072  140.3406  155.6074 H   0  0  0  0  0  0  0  0  0  0  0  0  # atno 8010 bound_to 7997
  140.4742  143.2419  151.8159 H   0  0  0  0  0  0  0  0  0  0  0  0  # atno 10167 bound_to 10162
  157.1610  130.6717  149.6044 H   0  0  0  0  0  0  0  0  0  0  0  0  # atno 10718 bound_to 10713
  154.7670  135.4892  153.9574 H   0  0  0  0  0  0  0  0  0  0  0  0  # atno 10763 bound_to 10752
  153.1320  135.6755  153.9170 H   0  0  0  0  0  0  0  0  0  0  0  0  # atno 10764 bound_to 10752
  153.8871  135.3125  155.3425 H   0  0  0  0  0  0  0  0  0  0  0  0  # atno 10765 bound_to 10752
  139.9335  134.7532  156.1293 H   0  0  0  0  0  0  0  0  0  0  0  0  # atno 11005 bound_to 11000
  146.1441  140.7017  142.9353 LP  0  0  0  0  0  0  0  0  0  0  0  0  # atno 17320 bound_to 7965
  144.7236  140.4453  143.6990 LP  0  0  0  0  0  0  0  0  0  0  0  0  # atno 17321 bound_to 7965
  139.4823  144.4854  151.9253 LP  0  0  0  0  0  0  0  0  0  0  0  0  # atno 17342 bound_to 10162
  140.3939  144.2580  150.5897 LP  0  0  0  0  0  0  0  0  0  0  0  0  # atno 17343 bound_to 10162
  155.9754  130.4711  150.6455 LP  0  0  0  0  0  0  0  0  0  0  0  0  # atno 17370 bound_to 10713
  157.4132  131.0826  151.1201 LP  0  0  0  0  0  0  0  0  0  0  0  0  # atno 17371 bound_to 10713
  141.0937  133.6704  156.2598 LP  0  0  0  0  0  0  0  0  0  0  0  0  # atno 17394 bound_to 11000
  140.6137  134.5433  157.5537 LP  0  0  0  0  0  0  0  0  0  0  0  0  # atno 17395 bound_to 11000

$$$$
