AV-unprocessed.smi:1654|AV-procd|sdf|6643|dock8
  -GOLD-   22720 7343D 1   1.00000     0.00000
 Structure written by MMmdl.
 39 40  0  0  0  0  0  0  0  0  2 V2000
  152.7369  139.8798  154.9000 O   0  0  0  0  0  0  0  0  0  0  0  0
  151.6855  139.9872  155.9247 S   0  0  0  0  0  0  0  0  0  0  0  0
  151.5259  138.8665  156.8664 O   0  0  0  0  0  0  0  0  0  0  0  0
  151.6386  141.4286  156.6668 N   0  5  0  0  0  0  0  0  0  0  0  0
  151.0243  141.5228  157.9788 C   0  0  0  0  0  0  0  0  0  0  0  0
  151.3841  142.8746  158.6280 C   0  0  0  0  0  0  0  0  0  0  0  0
  152.0651  142.7433  159.9845 C   0  0  0  0  0  0  0  0  0  0  0  0
  153.0016  141.7159  160.2325 C   0  0  0  0  0  0  0  0  0  0  0  0
  153.5941  141.6271  161.5069 C   0  0  0  0  0  0  0  0  0  0  0  0
  153.2219  142.5693  162.4860 C   0  0  0  0  0  0  0  0  0  0  0  0
  152.3234  143.5529  162.2659 N   0  0  0  0  0  0  0  0  0  0  0  0
  151.7606  143.6317  161.0405 C   0  0  0  0  0  0  0  0  0  0  0  0
  150.1855  140.1302  155.0496 N   0  0  0  0  0  0  0  0  0  0  0  0
  149.8396  139.1005  154.0511 C   0  0  0  0  0  0  0  0  0  0  0  0
  148.4271  138.5550  154.3102 C   0  0  0  0  0  0  0  0  0  0  0  0
  147.2912  139.3364  153.6251 C   0  0  0  0  0  0  0  0  0  0  0  0
  147.4701  140.8632  153.5393 C   0  0  0  0  0  0  0  0  0  0  0  0
  148.1072  141.5146  154.7771 C   0  0  0  0  0  0  0  0  0  0  0  0
  149.6475  141.4762  154.7691 C   0  0  0  0  0  0  0  0  0  0  0  0
  149.9388  141.4362  157.9195 H   0  0  0  0  0  0  0  0  0  0  0  0
  151.3549  140.7155  158.6332 H   0  0  0  0  0  0  0  0  0  0  0  0
  152.0408  143.4403  157.9651 H   0  0  0  0  0  0  0  0  0  0  0  0
  150.4837  143.4784  158.7498 H   0  0  0  0  0  0  0  0  0  0  0  0
  153.2630  141.0088  159.4589 H   0  0  0  0  0  0  0  0  0  0  0  0
  154.3162  140.8555  161.7284 H   0  0  0  0  0  0  0  0  0  0  0  0
  153.6563  142.5305  163.4741 H   0  0  0  0  0  0  0  0  0  0  0  0
  151.0451  144.4284  160.8984 H   0  0  0  0  0  0  0  0  0  0  0  0
  149.9467  139.4949  153.0400 H   0  0  0  0  0  0  0  0  0  0  0  0
  150.5444  138.2735  154.1180 H   0  0  0  0  0  0  0  0  0  0  0  0
  148.3766  137.5201  153.9707 H   0  0  0  0  0  0  0  0  0  0  0  0
  148.2493  138.5123  155.3860 H   0  0  0  0  0  0  0  0  0  0  0  0
  147.1557  138.9550  152.6123 H   0  0  0  0  0  0  0  0  0  0  0  0
  146.3612  139.1116  154.1485 H   0  0  0  0  0  0  0  0  0  0  0  0
  148.0586  141.1162  152.6566 H   0  0  0  0  0  0  0  0  0  0  0  0
  146.4891  141.3076  153.3678 H   0  0  0  0  0  0  0  0  0  0  0  0
  147.8086  142.5632  154.7912 H   0  0  0  0  0  0  0  0  0  0  0  0
  147.7098  141.0819  155.6963 H   0  0  0  0  0  0  0  0  0  0  0  0
  150.0096  142.1796  155.5178 H   0  0  0  0  0  0  0  0  0  0  0  0
  150.0438  141.8323  153.8175 H   0  0  0  0  0  0  0  0  0  0  0  0
  1  2  2  0  0  0  0
  2  3  2  0  0  0  0
  2  4  1  0  0  0  0
  2 13  1  0  0  0  0
  4  5  1  0  0  0  0
  5  6  1  0  0  0  0
  5 20  1  0  0  0  0
  5 21  1  0  0  0  0
  6  7  1  0  0  0  0
  6 22  1  0  0  0  0
  6 23  1  0  0  0  0
  7 12  1  0  0  0  0
  7  8  2  0  0  0  0
  8  9  1  0  0  0  0
  8 24  1  0  0  0  0
  9 10  2  0  0  0  0
  9 25  1  0  0  0  0
 10 11  1  0  0  0  0
 10 26  1  0  0  0  0
 11 12  2  0  0  0  0
 12 27  1  0  0  0  0
 13 19  1  0  0  0  0
 13 14  1  0  0  0  0
 14 15  1  0  0  0  0
 14 28  1  0  0  0  0
 14 29  1  0  0  0  0
 15 16  1  0  0  0  0
 15 30  1  0  0  0  0
 15 31  1  0  0  0  0
 16 17  1  0  0  0  0
 16 32  1  0  0  0  0
 16 33  1  0  0  0  0
 17 18  1  0  0  0  0
 17 34  1  0  0  0  0
 17 35  1  0  0  0  0
 18 19  1  0  0  0  0
 18 36  1  0  0  0  0
 18 37  1  0  0  0  0
 19 38  1  0  0  0  0
 19 39  1  0  0  0  0
M  CHG  1   4  -1
M  END
> <s_m_source_file>
AV-unprocessed.smi

> <i_m_source_file_index>
1654

> <i_lp_mmshare_version>
43012

> <i_f3d_flags>
0

> <s_epik_input>
W0NIMl0xW0NIMl1bQ0gyXVtDSDJdW0NIMl1bQ0gyXU4xUyg9TykoPU8pW05IXVtDSDJdW0NIMl1jMltjSF1bY0hdW2NIXW5bY0hdMg==

> <s_epik_cmdline>
J2VwaWtfcHl0aG9uJywgJy1waCcsICc3LjAnLCAnLXRuJywgJzgnLCAnLW1hJywgJzIwMCcsICctbWV0YWxfYmluZGluZycsICctaW1hZScsICc8aW5maWxlLm1hZT4nLCAnLW9tYWUnLCAnPG91dGZpbGUubWFlPic=

> <r_lp_tautomer_probability>
1

> <r_epik_Ionization_Penalty>
3.13138

> <r_epik_Ionization_Penalty_Charging>
3.10426

> <r_epik_Ionization_Penalty_Neutral>
0.027117

> <r_epik_State_Penalty>
3.10111

> <r_epik_Charging_Adjusted_Penalty>
6.20538

> <i_epik_Tot_Q>
-1

> <i_epik_Tot_abs_Q>
1

> <r_epik_Metal_State_Penalty>
0.464106

> <b_epik_Metal_Only>
1

> <s_lp_Force_Field>
OPLS_2005

> <r_lp_Energy>
12.7892

> <b_lp_Chiralities_Consistent>
1

> <s_lp_Variant>
AV-unprocessed.smi:1654-2

> <Gold.Version>
5.8.1

> <Gold.Id.Protein>
6NUR|6NUR_protein|mol2

> <Gold.PLP.Fitness>
44.1029

> <Gold.PLP.PLP>
-41.9000

> <Gold.PLP.part.hbond>
-1.9903

> <Gold.PLP.part.metal>
0.0000

> <Gold.PLP.part.buried>
-1.7108

> <Gold.PLP.part.nonpolar>
-37.8402

> <Gold.PLP.part.repulsive>
0.2119

> <Gold.PLP.ligand.clash>
0.0000

> <Gold.PLP.ligand.torsion>
2.4133

> <Gold.PLP.Chemscore.Hbond>
1.3130

> <Gold.PLP.Chemscore.CHOScore>
0.0000

> <Gold.PLP.Chemscore.Metal>
0.0000

> <Gold.Chemscore.Hbonds>
donor molecule, donor type, donor heavy atom, donor atom, acceptor molecule, acceptor atom, score
      P1  H  7989  7998       L1     1  0.36
      P1  H  7997  8008       L1     1  1.00

> <Gold.PLP.Chemscore.Internal.Correction>
3.0905

> <Gold.Rescore>
     Score         DG    S(hbond)    S(metal)    S(lipo)     H(rot)  DE(clash)    DE(int)     intcor
     13.69     -17.13       0.80        0.00     104.67       1.27       0.98       2.46       ----

> <Gold.Chemscore.Fitness>
13.6908

> <Gold.Chemscore.DG>
-17.1346

> <Gold.Chemscore.ZeroCoef>
-5.4800

> <Gold.Chemscore.Hbond>
0.7993

> <Gold.Chemscore.Metal>
0.0000

> <Gold.Chemscore.Lipo>
104.6665

> <Gold.Chemscore.Internal_Hbond>
0.0000

> <Gold.Chemscore.DEClash>
0.9845

> <Gold.Chemscore.DEInternal>
2.4593

> <Gold.Chemscore.Rot>
1.2738

> <Gold.Chemscore.Internal.Correction>
   9.000000E+99

> <Gold.Chemscore.Hbonds>
donor molecule, donor type, donor heavy atom, donor atom, acceptor molecule, acceptor atom, score
      P1  H  7989  7998       L1     1  0.04
      P1  H  7997  8008       L1     1  0.28

> <Gold.Chemscore.Hbond.Weighted>
-2.6696

> <Gold.Chemscore.Metal.Weighted>
-0.0000

> <Gold.Chemscore.Lipo.Weighted>
-12.2460

> <Gold.Chemscore.Internal_Hbond.Weighted>
0.0000

> <Gold.Chemscore.DEClash.Weighted>
0.9845

> <Gold.Chemscore.DEInternal.Weighted>
2.4593

> <Gold.Chemscore.Rot.Weighted>
3.2610

> <Gold.Chemscore.Internal.Correction.Weighted>
   9.000000E+99

> <Gold.Protein.RotatedTorsions>
[ 6907 6896 6895 6894 ] final -153.92 input  -60.11 | X-H torsion
[ 7974 7965 7964 7962 ] final   39.36 input  175.53 | X-H torsion
[ 8008 7997 7996 7995 ] final  -24.36 input   59.86 | X-H torsion
[ 10167 10162 10161 10158 ] final -133.88 input  -65.29 | X-H torsion
[ 10718 10713 10712 10709 ] final  -75.14 input   66.30 | X-H torsion
[ 10763 10752 10751 10750 ] final  129.90 input  -60.55 | X-H torsion
[ 11005 11000 10999 10996 ] final   62.10 input  -57.11 | X-H torsion

> <Gold.Protein.ActiveResidues>
 VAL166  LYS551  ARG553  GLY616  TRP617  ASP618  TYR619  PRO620  LYS621  CYS622 
 ASP623  PHE694  ASN695  SER759  ASP760  ASP761  ALA762  ILE779  LEU786  VAL792 
 PHE793  MET794  SER795  GLU796  ALA797  LYS798  CYS799  TRP800  GLU811  SER814 

> <Gold.Protein.RotatedAtoms>
  151.2497  133.4356  159.2610 H   0  0  0  0  0  0  0  0  0  0  0  0  # atno 6907 bound_to 6896
  151.0628  134.9748  159.8279 H   0  0  0  0  0  0  0  0  0  0  0  0  # atno 6908 bound_to 6896
  152.5401  134.2447  159.8928 H   0  0  0  0  0  0  0  0  0  0  0  0  # atno 6909 bound_to 6896
  146.0990  139.5661  142.9426 H   0  0  0  0  0  0  0  0  0  0  0  0  # atno 7974 bound_to 7965
  154.4534  140.1956  156.0452 H   0  0  0  0  0  0  0  0  0  0  0  0  # atno 8008 bound_to 7997
  156.0695  140.3286  155.7531 H   0  0  0  0  0  0  0  0  0  0  0  0  # atno 8009 bound_to 7997
  155.5286  140.0576  157.2884 H   0  0  0  0  0  0  0  0  0  0  0  0  # atno 8010 bound_to 7997
  139.8937  143.6691  152.2607 H   0  0  0  0  0  0  0  0  0  0  0  0  # atno 10167 bound_to 10162
  156.0218  130.4434  150.2998 H   0  0  0  0  0  0  0  0  0  0  0  0  # atno 10718 bound_to 10713
  153.7492  135.3212  155.3318 H   0  0  0  0  0  0  0  0  0  0  0  0  # atno 10763 bound_to 10752
  154.8269  135.4563  154.0948 H   0  0  0  0  0  0  0  0  0  0  0  0  # atno 10764 bound_to 10752
  153.2146  135.6940  153.8155 H   0  0  0  0  0  0  0  0  0  0  0  0  # atno 10765 bound_to 10752
  140.0115  134.6289  155.9773 H   0  0  0  0  0  0  0  0  0  0  0  0  # atno 11005 bound_to 11000
  145.5891  141.0372  143.2080 LP  0  0  0  0  0  0  0  0  0  0  0  0  # atno 17320 bound_to 7965
  144.7418  139.7428  143.7308 LP  0  0  0  0  0  0  0  0  0  0  0  0  # atno 17321 bound_to 7965
  139.7087  144.7624  151.1149 LP  0  0  0  0  0  0  0  0  0  0  0  0  # atno 17342 bound_to 10162
  140.7721  143.5360  150.9368 LP  0  0  0  0  0  0  0  0  0  0  0  0  # atno 17343 bound_to 10162
  157.1101  131.0219  151.3051 LP  0  0  0  0  0  0  0  0  0  0  0  0  # atno 17370 bound_to 10713
  157.4711  130.7709  149.7324 LP  0  0  0  0  0  0  0  0  0  0  0  0  # atno 17371 bound_to 10713
  141.1714  133.6537  156.4666 LP  0  0  0  0  0  0  0  0  0  0  0  0  # atno 17394 bound_to 11000
  140.4546  134.6898  157.5056 LP  0  0  0  0  0  0  0  0  0  0  0  0  # atno 17395 bound_to 11000

$$$$
