#       Name:                AV-unprocessed.smi:2923
#       Creating user name   scv26
#       Creation time:       Fri Mar 27 16:10:11 2020


#       File generated by GOLD software.
#

@<TRIPOS>MOLECULE
AV-unprocessed.smi:2923
    52    54     1
SMALL
NO_CHARGES


@<TRIPOS>ATOM
      1 ****        -6.5874  -0.6204  -1.1086 C.3            1 S1                 0.0000
      2 ****        -6.0195  -1.1255   0.1324 N.3            1 S1                 0.0000
      3 ****        -6.6293  -0.6366   1.3600 C.3            1 S1                 0.0000
      4 ****        -4.6196  -1.0641   0.1543 C.ar           1 S1                 0.0000
      5 ****        -3.8347  -2.2353   0.1253 C.ar           1 S1                 0.0000
      6 ****        -2.4292  -2.1264   0.1426 C.ar           1 S1                 0.0000
      7 ****        -1.8251  -0.8515   0.1974 C.ar           1 S1                 0.0000
      8 ****        -0.4054  -0.7912   0.1945 N.am           1 S1                 0.0000
      9 ****         0.3895   0.2241   0.5739 C.2            1 S1                 0.0000
     10 ****         0.0033   1.2974   1.0356 O.2            1 S1                 0.0000
     11 ****         1.6815  -0.0827   0.4000 N.am           1 S1                 0.0000
     12 ****         2.8018   0.7999   0.7421 C.3            1 S1                 0.0000
     13 ****         4.1520   0.0807   0.6850 C.3            1 S1                 0.0000
     14 ****         4.6055  -1.3345   0.6840 C.3            1 S1                 0.0000
     15 ****         5.7057  -1.1844  -0.4016 C.3            1 S1                 0.0000
     16 ****         5.5246   0.1363  -0.9744 O.3            1 S1                 0.0000
     17 ****         4.1468   0.3982  -0.7965 C.3            1 S1                 0.0000
     18 ****         3.3655   1.6831  -0.4420 C.3            1 S1                 0.0000
     19 ****         2.3645   2.1575  -1.5015 C.3            1 S1                 0.0000
     20 ****         4.1929   2.9251  -0.0637 C.3            1 S1                 0.0000
     21 ****        -2.6633   0.2904   0.2152 C.ar           1 S1                 0.0000
     22 ****        -4.0057   0.1422   0.1956 N.pl3          1 S1                 1.0000
     23 ****        -6.0886  -1.0615  -1.9726 H              1 S1                 0.0000
     24 ****        -6.4901   0.4642  -1.1706 H              1 S1                 0.0000
     25 ****        -7.6466  -0.8715  -1.1678 H              1 S1                 0.0000
     26 ****        -6.1493  -1.0773   2.2346 H              1 S1                 0.0000
     27 ****        -7.6860  -0.9031   1.3869 H              1 S1                 0.0000
     28 ****        -6.5489   0.4488   1.4322 H              1 S1                 0.0000
     29 ****        -4.3028  -3.2083   0.0882 H              1 S1                 0.0000
     30 ****        -1.8219  -3.0195   0.1180 H              1 S1                 0.0000
     31 ****         0.0646  -1.6380  -0.0901 H              1 S1                 0.0000
     32 ****         1.9136  -0.9873   0.0169 H              1 S1                 0.0000
     33 ****         2.6585   1.3578   1.6691 H              1 S1                 0.0000
     34 ****         4.8794   0.6753   1.2427 H              1 S1                 0.0000
     35 ****         5.0056  -1.6538   1.6466 H              1 S1                 0.0000
     36 ****         3.8166  -2.0221   0.3760 H              1 S1                 0.0000
     37 ****         6.7081  -1.2663   0.0197 H              1 S1                 0.0000
     38 ****         5.5981  -1.9503  -1.1707 H              1 S1                 0.0000
     39 ****         3.5483  -0.2923  -1.3999 H              1 S1                 0.0000
     40 ****         2.8647   2.6621  -2.3289 H              1 S1                 0.0000
     41 ****         1.6399   2.8550  -1.0800 H              1 S1                 0.0000
     42 ****         1.8023   1.3298  -1.9341 H              1 S1                 0.0000
     43 ****         4.7815   3.2787  -0.9108 H              1 S1                 0.0000
     44 ****         4.8922   2.7514   0.7522 H              1 S1                 0.0000
     45 ****         3.5502   3.7476   0.2518 H              1 S1                 0.0000
     46 ****        -2.3212   1.3142   0.2303 H              1 S1                 0.0000
     47 ****        -4.5846   0.9823   0.2086 H              1 S1                 0.0000
     48 ****        -6.2719  -2.0930   0.1239 LP             1 S1                 0.0000
     49 ****        -0.9749   1.4677   1.1542 LP             1 S1                 0.0000
     50 ****         0.6677   1.9994   1.2923 LP             1 S1                 0.0000
     51 ****         5.7649   0.1391  -1.9451 LP             1 S1                 0.0000
     52 ****         6.0806   0.8129  -0.4915 LP             1 S1                 0.0000
@<TRIPOS>BOND
    1    1    2 1     
    2    1   23 1     
    3    1   24 1     
    4    1   25 1     
    5    2    3 1     
    6    2    4 1     
    7    3   26 1     
    8    3   27 1     
    9    3   28 1     
   10    4   22 ar    
   11    4    5 ar    
   12    5    6 ar    
   13    5   29 1     
   14    6    7 ar    
   15    6   30 1     
   16    7    8 1     
   17    7   21 ar    
   18    8    9 am    
   19    8   31 1     
   20    9   10 2     
   21    9   11 am    
   22   11   12 1     
   23   11   32 1     
   24   12   18 1     
   25   12   13 1     
   26   12   33 1     
   27   13   17 1     
   28   13   14 1     
   29   13   34 1     
   30   14   15 1     
   31   14   35 1     
   32   14   36 1     
   33   15   16 1     
   34   15   37 1     
   35   15   38 1     
   36   16   17 1     
   37   17   18 1     
   38   17   39 1     
   39   18   19 1     
   40   18   20 1     
   41   19   40 1     
   42   19   41 1     
   43   19   42 1     
   44   20   43 1     
   45   20   44 1     
   46   20   45 1     
   47   21   22 ar    
   48   21   46 1     
   49   22   47 1     
   50    2   48 1     
   51   10   49 1     
   52   10   50 1     
   53   16   51 1     
   54   16   52 1     
@<TRIPOS>SUBSTRUCTURE
      1 S1             1
@<TRIPOS>SET
LONE_PAIRS      STATIC     ATOMS    <user>   **** ""
5 48 49 50 51 52
DONOR_HYDROGENS      STATIC     ATOMS    <user>   **** ""
3 31 32 47
ATOM$BLUE        STATIC     ATOMS    COLORGROUP SYSTEM
5 48 49 50 51 52
ATOM$RED        STATIC     ATOMS    COLORGROUP SYSTEM
3 31 32 47
