AV-unprocessed.smi:2000|AV-procd|sdf|8101|dock5
  -GOLD-   2272010323D 1   1.00000     0.00000
 Structure written by MMmdl.
 43 44  0  0  0  0  0  0  0  0  1 V2000
  147.5685  134.6607  161.5573 C   0  0  0  0  0  0  0  0  0  0  0  0
  147.7092  135.9940  160.8051 C   0  0  1  0  0  0  0  0  0  0  0  0
  148.5034  135.8286  159.5021 C   0  0  0  0  0  0  0  0  0  0  0  0
  148.7915  134.7069  159.0838 O   0  0  0  0  0  0  0  0  0  0  0  0
  148.8644  136.9589  158.8735 N   0  0  0  0  0  0  0  0  0  0  0  0
  149.6373  137.0155  157.6359 C   0  0  0  0  0  0  0  0  0  0  0  0
  151.0169  137.6691  157.7577 C   0  0  0  0  0  0  0  0  0  0  0  0
  151.9222  137.2858  158.7758 C   0  0  0  0  0  0  0  0  0  0  0  0
  153.1706  137.9263  158.8697 C   0  0  0  0  0  0  0  0  0  0  0  0
  153.4716  138.9386  157.9423 C   0  0  0  0  0  0  0  0  0  0  0  0
  152.6199  139.3243  156.9712 N   0  0  0  0  0  0  0  0  0  0  0  0
  151.4153  138.7097  156.8760 C   0  0  0  0  0  0  0  0  0  0  0  0
  150.5616  139.1275  155.8401 N   0  0  0  0  0  0  0  0  0  0  0  0
  150.3993  138.1168  154.8027 C   0  0  0  0  0  0  0  0  0  0  0  0
  149.3119  138.5550  153.8061 C   0  0  0  0  0  0  0  0  0  0  0  0
  149.6323  139.8390  153.2763 O   0  0  0  0  0  0  0  0  0  0  0  0
  149.7155  140.8331  154.2938 C   0  0  0  0  0  0  0  0  0  0  0  0
  150.8233  140.4538  155.2911 C   0  0  0  0  0  0  0  0  0  0  0  0
  146.0310  136.6969  160.4464 S   0  0  0  0  0  0  0  0  0  0  0  0
  145.3194  136.9543  162.1258 C   0  0  0  0  0  0  0  0  0  0  0  0
  146.1891  138.0146  159.8120 O   0  0  0  0  0  0  0  0  0  0  0  0
  145.2391  135.6607  159.7663 O   0  0  0  0  0  0  0  0  0  0  0  0
  148.5417  134.2046  161.7428 H   0  0  0  0  0  0  0  0  0  0  0  0
  146.9646  133.9463  160.9962 H   0  0  0  0  0  0  0  0  0  0  0  0
  147.0865  134.8092  162.5236 H   0  0  0  0  0  0  0  0  0  0  0  0
  148.2233  136.7051  161.4529 H   0  0  0  0  0  0  0  0  0  0  0  0
  148.5934  137.8414  159.2823 H   0  0  0  0  0  0  0  0  0  0  0  0
  149.7276  136.0062  157.2324 H   0  0  0  0  0  0  0  0  0  0  0  0
  149.0593  137.5827  156.9063 H   0  0  0  0  0  0  0  0  0  0  0  0
  151.6747  136.5131  159.4880 H   0  0  0  0  0  0  0  0  0  0  0  0
  153.8792  137.6494  159.6361 H   0  0  0  0  0  0  0  0  0  0  0  0
  154.4197  139.4542  157.9824 H   0  0  0  0  0  0  0  0  0  0  0  0
  151.3484  137.9785  154.2825 H   0  0  0  0  0  0  0  0  0  0  0  0
  150.1349  137.1560  155.2462 H   0  0  0  0  0  0  0  0  0  0  0  0
  149.2427  137.8400  152.9863 H   0  0  0  0  0  0  0  0  0  0  0  0
  148.3334  138.5831  154.2882 H   0  0  0  0  0  0  0  0  0  0  0  0
  149.9373  141.7959  153.8334 H   0  0  0  0  0  0  0  0  0  0  0  0
  148.7535  140.9344  154.7991 H   0  0  0  0  0  0  0  0  0  0  0  0
  150.8714  141.1852  156.0986 H   0  0  0  0  0  0  0  0  0  0  0  0
  151.7891  140.4644  154.7837 H   0  0  0  0  0  0  0  0  0  0  0  0
  144.2874  137.2913  162.0298 H   0  0  0  0  0  0  0  0  0  0  0  0
  145.8914  137.7124  162.6602 H   0  0  0  0  0  0  0  0  0  0  0  0
  145.3420  136.0173  162.6816 H   0  0  0  0  0  0  0  0  0  0  0  0
  1  2  1  0  0  0  0
  1 23  1  0  0  0  0
  1 24  1  0  0  0  0
  1 25  1  0  0  0  0
  2  3  1  0  0  0  0
  2 19  1  0  0  0  0
  2 26  1  0  0  0  0
  3  4  2  0  0  0  0
  3  5  1  0  0  0  0
  5  6  1  0  0  0  0
  5 27  1  0  0  0  0
  6  7  1  0  0  0  0
  6 28  1  0  0  0  0
  6 29  1  0  0  0  0
  7 12  1  0  0  0  0
  7  8  2  0  0  0  0
  8  9  1  0  0  0  0
  8 30  1  0  0  0  0
  9 10  2  0  0  0  0
  9 31  1  0  0  0  0
 10 11  1  0  0  0  0
 10 32  1  0  0  0  0
 11 12  2  0  0  0  0
 12 13  1  0  0  0  0
 13 18  1  0  0  0  0
 13 14  1  0  0  0  0
 14 15  1  0  0  0  0
 14 33  1  0  0  0  0
 14 34  1  0  0  0  0
 15 16  1  0  0  0  0
 15 35  1  0  0  0  0
 15 36  1  0  0  0  0
 16 17  1  0  0  0  0
 17 18  1  0  0  0  0
 17 37  1  0  0  0  0
 17 38  1  0  0  0  0
 18 39  1  0  0  0  0
 18 40  1  0  0  0  0
 19 20  1  0  0  0  0
 19 21  2  0  0  0  0
 19 22  2  0  0  0  0
 20 41  1  0  0  0  0
 20 42  1  0  0  0  0
 20 43  1  0  0  0  0
M  END
> <s_m_source_file>
AV-unprocessed.smi

> <i_m_source_file_index>
2000

> <i_lp_mmshare_version>
43012

> <i_f3d_flags>
0

> <s_epik_input>
W0NIM11TKD1PKSg9TylbQ0BIXShbQ0gzXSlDKD1PKVtOSF1bQ0gyXWMxW2NIXVtjSF1bY0hdbmMxTjJbQ0gyXVtDSDJdT1tDSDJdW0NIMl0y

> <s_epik_cmdline>
J2VwaWtfcHl0aG9uJywgJy1waCcsICc3LjAnLCAnLXRuJywgJzgnLCAnLW1hJywgJzIwMCcsICctbWV0YWxfYmluZGluZycsICctaW1hZScsICc8aW5maWxlLm1hZT4nLCAnLW9tYWUnLCAnPG91dGZpbGUubWFlPic=

> <r_lp_tautomer_probability>
1

> <r_epik_Ionization_Penalty>
0.00349769

> <r_epik_Ionization_Penalty_Charging>
0

> <r_epik_Ionization_Penalty_Neutral>
0.00349769

> <r_epik_State_Penalty>
0.00248024

> <r_epik_Charging_Adjusted_Penalty>
0.00248024

> <i_epik_Tot_Q>
0

> <i_epik_Tot_abs_Q>
0

> <r_epik_Metal_State_Penalty>
-0

> <b_epik_Metal_Only>
0

> <s_lp_Force_Field>
OPLS_2005

> <r_lp_Energy>
18.4728

> <b_lp_Chiralities_Consistent>
1

> <s_lp_Variant>
AV-unprocessed.smi:2000-2

> <Gold.Version>
5.8.1

> <Gold.Id.Protein>
6NUR|6NUR_protein|mol2

> <Gold.PLP.Fitness>
38.3421

> <Gold.PLP.PLP>
-30.8957

> <Gold.PLP.part.hbond>
-4.4093

> <Gold.PLP.part.metal>
0.0000

> <Gold.PLP.part.buried>
-2.1100

> <Gold.PLP.part.nonpolar>
-24.0070

> <Gold.PLP.part.repulsive>
0.6334

> <Gold.PLP.ligand.clash>
0.0000

> <Gold.PLP.ligand.torsion>
0.7057

> <Gold.PLP.Chemscore.Hbond>
2.8515

> <Gold.PLP.Chemscore.CHOScore>
0.0000

> <Gold.PLP.Chemscore.Metal>
0.0000

> <Gold.Chemscore.Hbonds>
donor molecule, donor type, donor heavy atom, donor atom, acceptor molecule, acceptor atom, score
      P1  H  6896  6908       L1     4  1.00
      P1  H  6934  6947       L1    21  0.86

> <Gold.PLP.Chemscore.Internal.Correction>
0.3034

> <Gold.Rescore>
     Score         DG    S(hbond)    S(metal)    S(lipo)     H(rot)  DE(clash)    DE(int)     intcor
     13.21     -16.49       2.32        0.00      73.31       2.08       1.27       2.02       ----

> <Gold.Chemscore.Fitness>
13.2061

> <Gold.Chemscore.DG>
-16.4949

> <Gold.Chemscore.ZeroCoef>
-5.4800

> <Gold.Chemscore.Hbond>
2.3211

> <Gold.Chemscore.Metal>
0.0000

> <Gold.Chemscore.Lipo>
73.3147

> <Gold.Chemscore.Internal_Hbond>
0.0000

> <Gold.Chemscore.DEClash>
1.2691

> <Gold.Chemscore.DEInternal>
2.0196

> <Gold.Chemscore.Rot>
2.0764

> <Gold.Chemscore.Internal.Correction>
   9.000000E+99

> <Gold.Chemscore.Hbonds>
donor molecule, donor type, donor heavy atom, donor atom, acceptor molecule, acceptor atom, score
      P1  H  6896  6908       L1     4  0.65
      P1  H  6934  6947       L1    21  0.59

> <Gold.Chemscore.Hbond.Weighted>
-7.7526

> <Gold.Chemscore.Metal.Weighted>
-0.0000

> <Gold.Chemscore.Lipo.Weighted>
-8.5778

> <Gold.Chemscore.Internal_Hbond.Weighted>
0.0000

> <Gold.Chemscore.DEClash.Weighted>
1.2691

> <Gold.Chemscore.DEInternal.Weighted>
2.0196

> <Gold.Chemscore.Rot.Weighted>
5.3155

> <Gold.Chemscore.Internal.Correction.Weighted>
   9.000000E+99

> <Gold.Protein.RotatedTorsions>
[ 6907 6896 6895 6894 ] final  157.64 input  -60.11 | X-H torsion
[ 7974 7965 7964 7962 ] final  144.81 input  175.53 | X-H torsion
[ 8008 7997 7996 7995 ] final -171.52 input   59.86 | X-H torsion
[ 10167 10162 10161 10158 ] final  -86.93 input  -65.29 | X-H torsion
[ 10718 10713 10712 10709 ] final   43.32 input   66.30 | X-H torsion
[ 10763 10752 10751 10750 ] final   80.73 input  -60.55 | X-H torsion
[ 11005 11000 10999 10996 ] final  174.85 input  -57.11 | X-H torsion

> <Gold.Protein.ActiveResidues>
 VAL166  LYS551  ARG553  GLY616  TRP617  ASP618  TYR619  PRO620  LYS621  CYS622 
 ASP623  PHE694  ASN695  SER759  ASP760  ASP761  ALA762  ILE779  LEU786  VAL792 
 PHE793  MET794  SER795  GLU796  ALA797  LYS798  CYS799  TRP800  GLU811  SER814 

> <Gold.Protein.RotatedAtoms>
  152.0122  133.3865  159.4223 H   0  0  0  0  0  0  0  0  0  0  0  0  # atno 6907 bound_to 6896
  150.6898  134.3718  159.5005 H   0  0  0  0  0  0  0  0  0  0  0  0  # atno 6908 bound_to 6896
  152.1480  134.9010  160.0600 H   0  0  0  0  0  0  0  0  0  0  0  0  # atno 6909 bound_to 6896
  144.8805  139.5707  143.5845 H   0  0  0  0  0  0  0  0  0  0  0  0  # atno 7974 bound_to 7965
  155.9327  140.1094  157.1119 H   0  0  0  0  0  0  0  0  0  0  0  0  # atno 8008 bound_to 7997
  154.4074  140.1234  156.4889 H   0  0  0  0  0  0  0  0  0  0  0  0  # atno 8009 bound_to 7997
  155.7060  140.3471  155.4956 H   0  0  0  0  0  0  0  0  0  0  0  0  # atno 8010 bound_to 7997
  140.3894  143.2712  151.9284 H   0  0  0  0  0  0  0  0  0  0  0  0  # atno 10167 bound_to 10162
  157.4146  130.7934  149.7461 H   0  0  0  0  0  0  0  0  0  0  0  0  # atno 10718 bound_to 10713
  153.1057  135.4792  154.8947 H   0  0  0  0  0  0  0  0  0  0  0  0  # atno 10763 bound_to 10752
  154.7428  135.3086  154.8701 H   0  0  0  0  0  0  0  0  0  0  0  0  # atno 10764 bound_to 10752
  153.9304  135.6845  153.4799 H   0  0  0  0  0  0  0  0  0  0  0  0  # atno 10765 bound_to 10752
  140.3558  134.7156  157.4298 H   0  0  0  0  0  0  0  0  0  0  0  0  # atno 11005 bound_to 11000
  146.2991  139.7370  142.9105 LP  0  0  0  0  0  0  0  0  0  0  0  0  # atno 17320 bound_to 7965
  145.3964  141.0379  143.3095 LP  0  0  0  0  0  0  0  0  0  0  0  0  # atno 17321 bound_to 7965
  139.4790  144.5742  151.8038 LP  0  0  0  0  0  0  0  0  0  0  0  0  # atno 17342 bound_to 10162
  140.4856  144.1386  150.5940 LP  0  0  0  0  0  0  0  0  0  0  0  0  # atno 17343 bound_to 10162
  155.9861  130.3977  150.3228 LP  0  0  0  0  0  0  0  0  0  0  0  0  # atno 17370 bound_to 10713
  157.1370  131.0286  151.2944 LP  0  0  0  0  0  0  0  0  0  0  0  0  # atno 17371 bound_to 10713
  140.0666  134.5921  155.8688 LP  0  0  0  0  0  0  0  0  0  0  0  0  # atno 17394 bound_to 11000
  141.1999  133.6609  156.5867 LP  0  0  0  0  0  0  0  0  0  0  0  0  # atno 17395 bound_to 11000

$$$$
