AV-unprocessed.smi:2329|AV-procd|sdf|9305|dock7
  -GOLD-   2272012523D 1   1.00000     0.00000
 Structure written by MMmdl.
 45 48  0  0  0  0  0  0  0  0  1 V2000
  155.1311  140.1855  162.2556 C   0  0  0  0  0  0  0  0  0  0  0  0
  154.0885  141.2542  162.0043 C   0  0  0  0  0  0  0  0  0  0  0  0
  153.7934  142.2242  162.9823 C   0  0  0  0  0  0  0  0  0  0  0  0
  152.8160  143.1903  162.6839 C   0  0  0  0  0  0  0  0  0  0  0  0
  152.1785  143.1468  161.4292 C   0  0  0  0  0  0  0  0  0  0  0  0
  152.5323  142.1386  160.5048 C   0  0  0  0  0  0  0  0  0  0  0  0
  151.8305  142.1820  159.2725 N   0  0  0  0  0  0  0  0  0  0  0  0
  151.9494  141.3629  158.2093 C   0  0  0  0  0  0  0  0  0  0  0  0
  152.7188  140.4060  158.1416 O   0  0  0  0  0  0  0  0  0  0  0  0
  151.1234  141.6665  157.1924 N   0  0  0  0  0  0  0  0  0  0  0  0
  151.0049  140.9785  155.9054 C   0  0  1  0  0  0  0  0  0  0  0  0
  151.0786  139.4509  156.0610 C   0  0  2  0  0  0  0  0  0  0  0  0
  152.2382  138.6939  155.4736 C   0  0  0  0  0  0  0  0  0  0  0  0
  151.6916  138.2296  154.1209 C   0  0  0  0  0  0  0  0  0  0  0  0
  150.6212  139.1281  153.8389 O   0  0  0  0  0  0  0  0  0  0  0  0
  149.9336  139.3742  155.0632 C   0  0  2  0  0  0  0  0  0  0  0  0
  149.5587  140.8402  155.3681 C   0  0  0  0  0  0  0  0  0  0  0  0
  148.3760  141.0266  156.3215 C   0  0  0  0  0  0  0  0  0  0  0  0
  147.1245  141.0703  155.4462 C   0  0  0  0  0  0  0  0  0  0  0  0
  147.5923  141.6465  154.1068 C   0  0  0  0  0  0  0  0  0  0  0  0
  149.1229  141.7037  154.1842 C   0  0  0  0  0  0  0  0  0  0  0  0
  153.4770  141.2118  160.8010 N   0  0  0  0  0  0  0  0  0  0  0  0
  155.5076  140.2324  163.2778 H   0  0  0  0  0  0  0  0  0  0  0  0
  155.9741  140.3120  161.5756 H   0  0  0  0  0  0  0  0  0  0  0  0
  154.7055  139.1943  162.0953 H   0  0  0  0  0  0  0  0  0  0  0  0
  154.3004  142.2306  163.9360 H   0  0  0  0  0  0  0  0  0  0  0  0
  152.5589  143.9521  163.4049 H   0  0  0  0  0  0  0  0  0  0  0  0
  151.4247  143.8810  161.1842 H   0  0  0  0  0  0  0  0  0  0  0  0
  151.1452  142.9184  159.1896 H   0  0  0  0  0  0  0  0  0  0  0  0
  150.4907  142.4396  157.3397 H   0  0  0  0  0  0  0  0  0  0  0  0
  151.6968  141.3367  155.1394 H   0  0  0  0  0  0  0  0  0  0  0  0
  150.7673  139.1126  157.0512 H   0  0  0  0  0  0  0  0  0  0  0  0
  153.1017  139.3465  155.3407 H   0  0  0  0  0  0  0  0  0  0  0  0
  152.5472  137.8515  156.0930 H   0  0  0  0  0  0  0  0  0  0  0  0
  152.4460  138.2431  153.3341 H   0  0  0  0  0  0  0  0  0  0  0  0
  151.2930  137.2167  154.1961 H   0  0  0  0  0  0  0  0  0  0  0  0
  149.1812  138.6213  155.3032 H   0  0  0  0  0  0  0  0  0  0  0  0
  148.3121  140.2387  157.0728 H   0  0  0  0  0  0  0  0  0  0  0  0
  148.4599  141.9721  156.8582 H   0  0  0  0  0  0  0  0  0  0  0  0
  146.7458  140.0585  155.2964 H   0  0  0  0  0  0  0  0  0  0  0  0
  146.3257  141.6583  155.8988 H   0  0  0  0  0  0  0  0  0  0  0  0
  147.2667  141.0069  153.2855 H   0  0  0  0  0  0  0  0  0  0  0  0
  147.1777  142.6400  153.9328 H   0  0  0  0  0  0  0  0  0  0  0  0
  149.4335  142.7367  154.3408 H   0  0  0  0  0  0  0  0  0  0  0  0
  149.5751  141.3870  153.2443 H   0  0  0  0  0  0  0  0  0  0  0  0
  1  2  1  0  0  0  0
  1 23  1  0  0  0  0
  1 24  1  0  0  0  0
  1 25  1  0  0  0  0
  2 22  1  0  0  0  0
  2  3  2  0  0  0  0
  3  4  1  0  0  0  0
  3 26  1  0  0  0  0
  4  5  2  0  0  0  0
  4 27  1  0  0  0  0
  5  6  1  0  0  0  0
  5 28  1  0  0  0  0
  6  7  1  0  0  0  0
  6 22  2  0  0  0  0
  7  8  1  0  0  0  0
  7 29  1  0  0  0  0
  8  9  2  0  0  0  0
  8 10  1  0  0  0  0
 10 11  1  0  0  0  0
 10 30  1  0  0  0  0
 11 17  1  0  0  0  0
 11 12  1  0  0  0  0
 11 31  1  0  0  0  0
 12 16  1  0  0  0  0
 12 13  1  0  0  0  0
 12 32  1  0  0  0  0
 13 14  1  0  0  0  0
 13 33  1  0  0  0  0
 13 34  1  0  0  0  0
 14 15  1  0  0  0  0
 14 35  1  0  0  0  0
 14 36  1  0  0  0  0
 15 16  1  0  0  0  0
 16 17  1  0  0  0  0
 16 37  1  0  0  0  0
 17 21  1  0  0  0  0
 17 18  1  0  0  0  0
 18 19  1  0  0  0  0
 18 38  1  0  0  0  0
 18 39  1  0  0  0  0
 19 20  1  0  0  0  0
 19 40  1  0  0  0  0
 19 41  1  0  0  0  0
 20 21  1  0  0  0  0
 20 42  1  0  0  0  0
 20 43  1  0  0  0  0
 21 44  1  0  0  0  0
 21 45  1  0  0  0  0
M  END
> <s_m_source_file>
AV-unprocessed.smi

> <i_m_source_file_index>
2329

> <i_lp_mmshare_version>
43012

> <i_f3d_flags>
0

> <s_epik_input>
W0NIM11jMVtjSF1bY0hdW2NIXWMobjEpW05IXUMoPU8pW05IXVtDQEBIXTJbQ0BASF0oW0NIMl1bQ0gyXU8zKVtDQEhdM0MyNFtDSDJdW0NIMl1bQ0gyXVtDSDJdNA==

> <s_epik_cmdline>
J2VwaWtfcHl0aG9uJywgJy1waCcsICc3LjAnLCAnLXRuJywgJzgnLCAnLW1hJywgJzIwMCcsICctbWV0YWxfYmluZGluZycsICctaW1hZScsICc8aW5maWxlLm1hZT4nLCAnLW9tYWUnLCAnPG91dGZpbGUubWFlPic=

> <r_lp_tautomer_probability>
1

> <r_epik_Ionization_Penalty>
8.97002e-05

> <r_epik_Ionization_Penalty_Charging>
0

> <r_epik_Ionization_Penalty_Neutral>
8.97002e-05

> <r_epik_State_Penalty>
-0

> <r_epik_Charging_Adjusted_Penalty>
0

> <i_epik_Tot_Q>
0

> <i_epik_Tot_abs_Q>
0

> <r_epik_Metal_State_Penalty>
-0

> <b_epik_Metal_Only>
0

> <s_lp_Force_Field>
OPLS_2005

> <r_lp_Energy>
64.4638

> <b_lp_Chiralities_Consistent>
1

> <s_lp_Variant>
AV-unprocessed.smi:2329-4

> <Gold.Version>
5.8.1

> <Gold.Id.Protein>
6NUR|6NUR_protein|mol2

> <Gold.PLP.Fitness>
46.9914

> <Gold.PLP.PLP>
-42.9174

> <Gold.PLP.part.hbond>
-2.0000

> <Gold.PLP.part.metal>
0.0000

> <Gold.PLP.part.buried>
1.5371

> <Gold.PLP.part.nonpolar>
-41.2032

> <Gold.PLP.part.repulsive>
1.2252

> <Gold.PLP.ligand.clash>
0.0000

> <Gold.PLP.ligand.torsion>
0.2827

> <Gold.PLP.Chemscore.Hbond>
1.4853

> <Gold.PLP.Chemscore.CHOScore>
0.0000

> <Gold.PLP.Chemscore.Metal>
0.0000

> <Gold.Chemscore.Hbonds>
donor molecule, donor type, donor heavy atom, donor atom, acceptor molecule, acceptor atom, score
      P1  H  7989  7998       L1    15  1.00
      P1  H  7997  8009       L1     9  0.42

> <Gold.PLP.Chemscore.Internal.Correction>
0.1838

> <Gold.Rescore>
     Score         DG    S(hbond)    S(metal)    S(lipo)     H(rot)  DE(clash)    DE(int)     intcor
     12.75     -15.83       0.02        0.00     109.67       1.00       0.12       2.95       ----

> <Gold.Chemscore.Fitness>
12.7528

> <Gold.Chemscore.DG>
-15.8277

> <Gold.Chemscore.ZeroCoef>
-5.4800

> <Gold.Chemscore.Hbond>
0.0229

> <Gold.Chemscore.Metal>
0.0000

> <Gold.Chemscore.Lipo>
109.6671

> <Gold.Chemscore.Internal_Hbond>
0.0000

> <Gold.Chemscore.DEClash>
0.1220

> <Gold.Chemscore.DEInternal>
2.9529

> <Gold.Chemscore.Rot>
1.0000

> <Gold.Chemscore.Internal.Correction>
   9.000000E+99

> <Gold.Chemscore.Hbonds>
donor molecule, donor type, donor heavy atom, donor atom, acceptor molecule, acceptor atom, score
      P1  H  7989  7998       L1    15  0.13
      P1  H  7997  8009       L1     9  0.41

> <Gold.Chemscore.Hbond.Weighted>
-0.0766

> <Gold.Chemscore.Metal.Weighted>
-0.0000

> <Gold.Chemscore.Lipo.Weighted>
-12.8311

> <Gold.Chemscore.Internal_Hbond.Weighted>
0.0000

> <Gold.Chemscore.DEClash.Weighted>
0.1220

> <Gold.Chemscore.DEInternal.Weighted>
2.9529

> <Gold.Chemscore.Rot.Weighted>
2.5600

> <Gold.Chemscore.Internal.Correction.Weighted>
   9.000000E+99

> <Gold.Protein.RotatedTorsions>
[ 6907 6896 6895 6894 ] final   39.39 input  -60.11 | X-H torsion
[ 7974 7965 7964 7962 ] final -177.16 input  175.53 | X-H torsion
[ 8008 7997 7996 7995 ] final  176.12 input   59.86 | X-H torsion
[ 10167 10162 10161 10158 ] final -149.88 input  -65.29 | X-H torsion
[ 10718 10713 10712 10709 ] final  -49.06 input   66.30 | X-H torsion
[ 10763 10752 10751 10750 ] final  158.75 input  -60.55 | X-H torsion
[ 11005 11000 10999 10996 ] final -163.36 input  -57.11 | X-H torsion

> <Gold.Protein.ActiveResidues>
 VAL166  LYS551  ARG553  GLY616  TRP617  ASP618  TYR619  PRO620  LYS621  CYS622 
 ASP623  PHE694  ASN695  SER759  ASP760  ASP761  ALA762  ILE779  LEU786  VAL792 
 PHE793  MET794  SER795  GLU796  ALA797  LYS798  CYS799  TRP800  GLU811  SER814 

> <Gold.Protein.RotatedAtoms>
  152.1689  134.8851  160.0535 H   0  0  0  0  0  0  0  0  0  0  0  0  # atno 6907 bound_to 6896
  151.9818  133.3755  159.4118 H   0  0  0  0  0  0  0  0  0  0  0  0  # atno 6908 bound_to 6896
  150.6898  134.3953  159.5138 H   0  0  0  0  0  0  0  0  0  0  0  0  # atno 6909 bound_to 6896
  144.7127  140.1061  143.6414 H   0  0  0  0  0  0  0  0  0  0  0  0  # atno 7974 bound_to 7965
  156.0799  140.1391  156.9726 H   0  0  0  0  0  0  0  0  0  0  0  0  # atno 8008 bound_to 7997
  154.4579  140.0954  156.6859 H   0  0  0  0  0  0  0  0  0  0  0  0  # atno 8009 bound_to 7997
  155.5093  140.3453  155.4387 H   0  0  0  0  0  0  0  0  0  0  0  0  # atno 8010 bound_to 7997
  139.7404  143.8671  152.2560 H   0  0  0  0  0  0  0  0  0  0  0  0  # atno 10167 bound_to 10162
  156.1929  130.4153  149.9347 H   0  0  0  0  0  0  0  0  0  0  0  0  # atno 10718 bound_to 10713
  154.2209  135.2782  155.2925 H   0  0  0  0  0  0  0  0  0  0  0  0  # atno 10763 bound_to 10752
  154.5702  135.5620  153.7091 H   0  0  0  0  0  0  0  0  0  0  0  0  # atno 10764 bound_to 10752
  153.0042  135.6319  154.2349 H   0  0  0  0  0  0  0  0  0  0  0  0  # atno 10765 bound_to 10752
  140.5990  134.4967  157.5203 H   0  0  0  0  0  0  0  0  0  0  0  0  # atno 11005 bound_to 11000
  145.9496  139.2724  143.1220 LP  0  0  0  0  0  0  0  0  0  0  0  0  # atno 17320 bound_to 7965
  145.9338  140.9030  143.0343 LP  0  0  0  0  0  0  0  0  0  0  0  0  # atno 17321 bound_to 7965
  139.8620  144.7112  150.9088 LP  0  0  0  0  0  0  0  0  0  0  0  0  # atno 17342 bound_to 10162
  140.7785  143.3809  151.1478 LP  0  0  0  0  0  0  0  0  0  0  0  0  # atno 17343 bound_to 10162
  156.7082  130.8959  151.3606 LP  0  0  0  0  0  0  0  0  0  0  0  0  # atno 17370 bound_to 10713
  157.6940  130.9262  150.0591 LP  0  0  0  0  0  0  0  0  0  0  0  0  # atno 17371 bound_to 10713
  139.9241  134.8091  156.1122 LP  0  0  0  0  0  0  0  0  0  0  0  0  # atno 17394 bound_to 11000
  141.0885  133.6724  156.2489 LP  0  0  0  0  0  0  0  0  0  0  0  0  # atno 17395 bound_to 11000

$$$$
