AV-unprocessed.smi:2562|AV-procd|sdf|10042|dock1
  -GOLD-   2272014 83D 1   1.00000     0.00000
 Structure written by MMmdl.
 31 32  0  0  0  0  0  0  0  0  2 V2000
  150.7937  131.0132  155.2434 C   0  0  0  0  0  0  0  0  0  0  0  0
  149.6151  131.3813  154.3357 C   0  0  0  0  0  0  0  0  0  0  0  0
  149.2374  132.8663  154.4333 C   0  0  0  0  0  0  0  0  0  0  0  0
  148.0376  133.2079  153.6117 C   0  0  0  0  0  0  0  0  0  0  0  0
  146.9356  133.7394  154.1450 N   0  0  0  0  0  0  0  0  0  0  0  0
  146.0260  133.9534  153.1706 N   0  0  0  0  0  0  0  0  0  0  0  0
  146.6799  133.5429  152.0846 C   0  0  0  0  0  0  0  0  0  0  0  0
  146.0197  133.5618  150.7410 C   0  0  2  0  0  0  0  0  0  0  0  0
  144.6039  134.1664  150.7952 C   0  0  0  0  0  0  0  0  0  0  0  0
  143.9650  134.0682  149.4685 N   0  3  0  0  0  0  0  0  0  0  0  0
  143.9644  132.6783  148.9697 C   0  0  0  0  0  0  0  0  0  0  0  0
  145.3943  132.1088  148.9820 C   0  0  0  0  0  0  0  0  0  0  0  0
  145.9421  132.2102  150.2925 O   0  0  0  0  0  0  0  0  0  0  0  0
  147.9388  133.0497  152.2961 N   0  0  0  0  0  0  0  0  0  0  0  0
  146.7661  133.9567  155.1170 H   0  0  0  0  0  0  0  0  0  0  0  0
  151.0356  129.9539  155.1553 H   0  0  0  0  0  0  0  0  0  0  0  0
  150.5627  131.2158  156.2896 H   0  0  0  0  0  0  0  0  0  0  0  0
  151.6864  131.5812  154.9801 H   0  0  0  0  0  0  0  0  0  0  0  0
  149.8667  131.1348  153.3036 H   0  0  0  0  0  0  0  0  0  0  0  0
  148.7538  130.7666  154.5997 H   0  0  0  0  0  0  0  0  0  0  0  0
  149.0336  133.1319  155.4715 H   0  0  0  0  0  0  0  0  0  0  0  0
  150.0744  133.4880  154.1125 H   0  0  0  0  0  0  0  0  0  0  0  0
  146.6456  134.1321  150.0515 H   0  0  0  0  0  0  0  0  0  0  0  0
  143.9901  133.6373  151.5260 H   0  0  0  0  0  0  0  0  0  0  0  0
  144.6414  135.2119  151.1023 H   0  0  0  0  0  0  0  0  0  0  0  0
  143.0144  134.4050  149.5269 H   0  0  0  0  0  0  0  0  0  0  0  0
  143.3124  132.0713  149.5995 H   0  0  0  0  0  0  0  0  0  0  0  0
  143.5500  132.6557  147.9615 H   0  0  0  0  0  0  0  0  0  0  0  0
  145.3839  131.0606  148.6828 H   0  0  0  0  0  0  0  0  0  0  0  0
  146.0301  132.6362  148.2691 H   0  0  0  0  0  0  0  0  0  0  0  0
  144.4802  134.6450  148.8186 H   0  0  0  0  0  0  0  0  0  0  0  0
  1  2  1  0  0  0  0
  1 16  1  0  0  0  0
  1 17  1  0  0  0  0
  1 18  1  0  0  0  0
  2  3  1  0  0  0  0
  2 19  1  0  0  0  0
  2 20  1  0  0  0  0
  3 21  1  0  0  0  0
  3 22  1  0  0  0  0
  3  4  1  0  0  0  0
  4 14  2  0  0  0  0
  4  5  1  0  0  0  0
  5  6  1  0  0  0  0
  5 15  1  0  0  0  0
  6  7  2  0  0  0  0
  7 14  1  0  0  0  0
  7  8  1  0  0  0  0
  8 13  1  0  0  0  0
  8  9  1  0  0  0  0
  8 23  1  0  0  0  0
  9 10  1  0  0  0  0
  9 24  1  0  0  0  0
  9 25  1  0  0  0  0
 10 11  1  0  0  0  0
 10 26  1  0  0  0  0
 10 31  1  0  0  0  0
 11 12  1  0  0  0  0
 11 27  1  0  0  0  0
 11 28  1  0  0  0  0
 12 13  1  0  0  0  0
 12 29  1  0  0  0  0
 12 30  1  0  0  0  0
M  CHG  1  10   1
M  END
> <s_m_source_file>
AV-unprocessed.smi

> <i_m_source_file_index>
2562

> <i_lp_mmshare_version>
43012

> <i_f3d_flags>
0

> <s_epik_input>
W0NIM11bQ0gyXVtDSDJdYzFuW25IXWMobjEpW0NAQEhdMltDSDJdW05IXVtDSDJdW0NIMl1PMg==

> <s_epik_cmdline>
J2VwaWtfcHl0aG9uJywgJy1waCcsICc3LjAnLCAnLXRuJywgJzgnLCAnLW1hJywgJzIwMCcsICctbWV0YWxfYmluZGluZycsICctaW1hZScsICc8aW5maWxlLm1hZT4nLCAnLW9tYWUnLCAnPG91dGZpbGUubWFlPic=

> <r_lp_tautomer_probability>
0.948284

> <r_epik_Ionization_Penalty>
0.10647

> <r_epik_Ionization_Penalty_Charging>
0.100865

> <r_epik_Ionization_Penalty_Neutral>
0.0056057

> <r_epik_State_Penalty>
0.375056

> <r_epik_Charging_Adjusted_Penalty>
0.47592

> <i_epik_Tot_Q>
1

> <i_epik_Tot_abs_Q>
1

> <r_epik_Metal_State_Penalty>
0.497514

> <b_epik_Metal_Only>
0

> <s_lp_Force_Field>
OPLS_2005

> <r_lp_Energy>
10.3016

> <b_lp_Chiralities_Consistent>
1

> <s_lp_Variant>
AV-unprocessed.smi:2562-1

> <Gold.Version>
5.8.1

> <Gold.Id.Protein>
6NUR|6NUR_protein|mol2

> <Gold.PLP.Fitness>
35.4799

> <Gold.PLP.PLP>
-26.5663

> <Gold.PLP.part.hbond>
-2.0000

> <Gold.PLP.part.metal>
0.0000

> <Gold.PLP.part.buried>
-3.9559

> <Gold.PLP.part.nonpolar>
-21.4949

> <Gold.PLP.part.repulsive>
0.5680

> <Gold.PLP.ligand.clash>
0.0000

> <Gold.PLP.ligand.torsion>
0.0146

> <Gold.PLP.Chemscore.Hbond>
2.9760

> <Gold.PLP.Chemscore.CHOScore>
0.0000

> <Gold.PLP.Chemscore.Metal>
0.0000

> <Gold.Chemscore.Hbonds>
donor molecule, donor type, donor heavy atom, donor atom, acceptor molecule, acceptor atom, score
      L1  H    10    26       P1 10186  2.00
      L1  H    10    31       P1  7921  0.94

> <Gold.PLP.Chemscore.Internal.Correction>
0.0148

> <Gold.Rescore>
     Score         DG    S(hbond)    S(metal)    S(lipo)     H(rot)  DE(clash)    DE(int)     intcor
     14.67     -14.80       1.93        0.00      57.60       1.51       0.06       0.07       ----

> <Gold.Chemscore.Fitness>
14.6726

> <Gold.Chemscore.DG>
-14.8004

> <Gold.Chemscore.ZeroCoef>
-5.4800

> <Gold.Chemscore.Hbond>
1.9315

> <Gold.Chemscore.Metal>
0.0000

> <Gold.Chemscore.Lipo>
57.5963

> <Gold.Chemscore.Internal_Hbond>
0.0000

> <Gold.Chemscore.DEClash>
0.0561

> <Gold.Chemscore.DEInternal>
0.0717

> <Gold.Chemscore.Rot>
1.5115

> <Gold.Chemscore.Internal.Correction>
   9.000000E+99

> <Gold.Chemscore.Hbonds>
donor molecule, donor type, donor heavy atom, donor atom, acceptor molecule, acceptor atom, score
      L1  H    10    26       P1 10186  0.95
      L1  H    10    31       P1  7921  0.84

> <Gold.Chemscore.Hbond.Weighted>
-6.4511

> <Gold.Chemscore.Metal.Weighted>
-0.0000

> <Gold.Chemscore.Lipo.Weighted>
-6.7388

> <Gold.Chemscore.Internal_Hbond.Weighted>
0.0000

> <Gold.Chemscore.DEClash.Weighted>
0.0561

> <Gold.Chemscore.DEInternal.Weighted>
0.0717

> <Gold.Chemscore.Rot.Weighted>
3.8695

> <Gold.Chemscore.Internal.Correction.Weighted>
   9.000000E+99

> <Gold.Protein.RotatedTorsions>
[ 6907 6896 6895 6894 ] final -116.73 input  -60.11 | X-H torsion
[ 7974 7965 7964 7962 ] final -104.71 input  175.53 | X-H torsion
[ 8008 7997 7996 7995 ] final  136.55 input   59.86 | X-H torsion
[ 10167 10162 10161 10158 ] final -137.65 input  -65.29 | X-H torsion
[ 10718 10713 10712 10709 ] final -171.93 input   66.30 | X-H torsion
[ 10763 10752 10751 10750 ] final  102.42 input  -60.55 | X-H torsion
[ 11005 11000 10999 10996 ] final  -63.71 input  -57.11 | X-H torsion

> <Gold.Protein.ActiveResidues>
 VAL166  LYS551  ARG553  GLY616  TRP617  ASP618  TYR619  PRO620  LYS621  CYS622 
 ASP623  PHE694  ASN695  SER759  ASP760  ASP761  ALA762  ILE779  LEU786  VAL792 
 PHE793  MET794  SER795  GLU796  ALA797  LYS798  CYS799  TRP800  GLU811  SER814 

> <Gold.Protein.RotatedAtoms>
  150.8079  133.8476  159.3196 H   0  0  0  0  0  0  0  0  0  0  0  0  # atno 6907 bound_to 6896
  151.6270  135.1025  160.0123 H   0  0  0  0  0  0  0  0  0  0  0  0  # atno 6908 bound_to 6896
  152.4170  133.7014  159.6483 H   0  0  0  0  0  0  0  0  0  0  0  0  # atno 6909 bound_to 6896
  145.2397  140.9201  143.3157 H   0  0  0  0  0  0  0  0  0  0  0  0  # atno 7974 bound_to 7965
  156.3004  140.2442  156.3764 H   0  0  0  0  0  0  0  0  0  0  0  0  # atno 8008 bound_to 7997
  154.8741  140.0415  157.1762 H   0  0  0  0  0  0  0  0  0  0  0  0  # atno 8009 bound_to 7997
  154.8764  140.2943  155.5455 H   0  0  0  0  0  0  0  0  0  0  0  0  # atno 8010 bound_to 7997
  139.8556  143.7142  152.2654 H   0  0  0  0  0  0  0  0  0  0  0  0  # atno 10167 bound_to 10162
  156.7481  130.9367  151.3113 H   0  0  0  0  0  0  0  0  0  0  0  0  # atno 10718 bound_to 10713
  153.3394  135.4011  155.1559 H   0  0  0  0  0  0  0  0  0  0  0  0  # atno 10763 bound_to 10752
  154.8640  135.3630  154.5366 H   0  0  0  0  0  0  0  0  0  0  0  0  # atno 10764 bound_to 10752
  153.5810  135.7076  153.5523 H   0  0  0  0  0  0  0  0  0  0  0  0  # atno 10765 bound_to 10752
  141.1402  133.6655  156.5722 H   0  0  0  0  0  0  0  0  0  0  0  0  # atno 11005 bound_to 11000
  144.9600  139.3990  143.6360 LP  0  0  0  0  0  0  0  0  0  0  0  0  # atno 17320 bound_to 7965
  146.3331  139.8649  142.8850 LP  0  0  0  0  0  0  0  0  0  0  0  0  # atno 17321 bound_to 7965
  139.7423  144.7556  151.0634 LP  0  0  0  0  0  0  0  0  0  0  0  0  # atno 17342 bound_to 10162
  140.7782  143.4958  150.9835 LP  0  0  0  0  0  0  0  0  0  0  0  0  # atno 17343 bound_to 10162
  157.6789  130.9121  150.0218 LP  0  0  0  0  0  0  0  0  0  0  0  0  # atno 17370 bound_to 10713
  156.1420  130.3642  149.9568 LP  0  0  0  0  0  0  0  0  0  0  0  0  # atno 17371 bound_to 10713
  140.3904  134.7445  157.4718 LP  0  0  0  0  0  0  0  0  0  0  0  0  # atno 17394 bound_to 11000
  140.0571  134.6049  155.8793 LP  0  0  0  0  0  0  0  0  0  0  0  0  # atno 17395 bound_to 11000

$$$$
