AV-unprocessed.smi:2454|AV-procd|sdf|9697|dock2
  -GOLD-   2272013333D 1   1.00000     0.00000
 Structure written by MMmdl.
 42 43  0  0  0  0  0  0  0  0  1 V2000
  151.2295  143.0671  157.6562 C   0  0  0  0  0  0  0  0  0  0  0  0
  150.6310  141.8390  157.2810 O   0  0  0  0  0  0  0  0  0  0  0  0
  150.6741  141.6197  155.8812 C   0  0  0  0  0  0  0  0  0  0  0  0
  150.2679  140.2029  155.5321 C   0  0  0  0  0  0  0  0  0  0  0  0
  149.7990  139.3107  156.5194 C   0  0  0  0  0  0  0  0  0  0  0  0
  149.4344  138.0110  156.1004 C   0  0  0  0  0  0  0  0  0  0  0  0
  148.9689  137.1490  157.1366 N   0  0  0  0  0  0  0  0  0  0  0  0
  148.3519  137.4122  158.3087 C   0  0  0  0  0  0  0  0  0  0  0  0
  148.0964  138.5674  158.6449 O   0  0  0  0  0  0  0  0  0  0  0  0
  148.0417  136.3492  159.0691 N   0  0  0  0  0  0  0  0  0  0  0  0
  147.3691  136.3921  160.3632 C   0  0  2  0  0  0  0  0  0  0  0  0
  148.3908  136.2676  161.5107 C   0  0  0  0  0  0  0  0  0  0  0  0
  147.6905  136.2267  162.8770 C   0  0  0  0  0  0  0  0  0  0  0  0
  146.6493  135.0980  162.9377 C   0  0  0  0  0  0  0  0  0  0  0  0
  145.6119  135.2193  161.8015 C   0  0  2  0  0  0  0  0  0  0  0  0
  144.5505  134.1017  161.8652 C   0  0  0  0  0  0  0  0  0  0  0  0
  145.1234  132.8987  161.8163 F   0  0  0  0  0  0  0  0  0  0  0  0
  143.8520  134.2005  162.9961 F   0  0  0  0  0  0  0  0  0  0  0  0
  143.7028  134.2174  160.8429 F   0  0  0  0  0  0  0  0  0  0  0  0
  146.3267  135.2605  160.4341 C   0  0  0  0  0  0  0  0  0  0  0  0
  149.5446  137.6728  154.7899 N   0  0  0  0  0  0  0  0  0  0  0  0
  149.9985  138.5946  153.9372 C   0  0  0  0  0  0  0  0  0  0  0  0
  150.3666  139.8406  154.2355 N   0  0  0  0  0  0  0  0  0  0  0  0
  151.1710  143.1875  158.7378 H   0  0  0  0  0  0  0  0  0  0  0  0
  150.7176  143.9130  157.1951 H   0  0  0  0  0  0  0  0  0  0  0  0
  152.2818  143.0963  157.3704 H   0  0  0  0  0  0  0  0  0  0  0  0
  150.0102  142.3207  155.3721 H   0  0  0  0  0  0  0  0  0  0  0  0
  151.6822  141.8039  155.5063 H   0  0  0  0  0  0  0  0  0  0  0  0
  149.7211  139.6151  157.5533 H   0  0  0  0  0  0  0  0  0  0  0  0
  149.1266  136.1674  156.9618 H   0  0  0  0  0  0  0  0  0  0  0  0
  148.2895  135.4354  158.7156 H   0  0  0  0  0  0  0  0  0  0  0  0
  146.8433  137.3441  160.4586 H   0  0  0  0  0  0  0  0  0  0  0  0
  148.9844  135.3615  161.3813 H   0  0  0  0  0  0  0  0  0  0  0  0
  149.0919  137.1025  161.4852 H   0  0  0  0  0  0  0  0  0  0  0  0
  148.4289  136.0936  163.6680 H   0  0  0  0  0  0  0  0  0  0  0  0
  147.2034  137.1840  163.0668 H   0  0  0  0  0  0  0  0  0  0  0  0
  147.1563  134.1344  162.8751 H   0  0  0  0  0  0  0  0  0  0  0  0
  146.1496  135.1204  163.9065 H   0  0  0  0  0  0  0  0  0  0  0  0
  145.0909  136.1693  161.9298 H   0  0  0  0  0  0  0  0  0  0  0  0
  145.5938  135.3927  159.6374 H   0  0  0  0  0  0  0  0  0  0  0  0
  146.8133  134.3018  160.2473 H   0  0  0  0  0  0  0  0  0  0  0  0
  150.0759  138.3003  152.9010 H   0  0  0  0  0  0  0  0  0  0  0  0
  1  2  1  0  0  0  0
  1 24  1  0  0  0  0
  1 25  1  0  0  0  0
  1 26  1  0  0  0  0
  2  3  1  0  0  0  0
  3  4  1  0  0  0  0
  3 27  1  0  0  0  0
  3 28  1  0  0  0  0
  4 23  1  0  0  0  0
  4  5  2  0  0  0  0
  5  6  1  0  0  0  0
  5 29  1  0  0  0  0
  6  7  1  0  0  0  0
  6 21  2  0  0  0  0
  7  8  1  0  0  0  0
  7 30  1  0  0  0  0
  8  9  2  0  0  0  0
  8 10  1  0  0  0  0
 10 11  1  0  0  0  0
 10 31  1  0  0  0  0
 11 20  1  0  0  0  0
 11 12  1  0  0  0  0
 11 32  1  0  0  0  0
 12 13  1  0  0  0  0
 12 33  1  0  0  0  0
 12 34  1  0  0  0  0
 13 14  1  0  0  0  0
 13 35  1  0  0  0  0
 13 36  1  0  0  0  0
 14 15  1  0  0  0  0
 14 37  1  0  0  0  0
 14 38  1  0  0  0  0
 15 16  1  0  0  0  0
 15 20  1  0  0  0  0
 15 39  1  0  0  0  0
 16 17  1  0  0  0  0
 16 18  1  0  0  0  0
 16 19  1  0  0  0  0
 20 40  1  0  0  0  0
 20 41  1  0  0  0  0
 21 22  1  0  0  0  0
 22 23  2  0  0  0  0
 22 42  1  0  0  0  0
M  END
> <s_m_source_file>
AV-unprocessed.smi

> <i_m_source_file_index>
2454

> <i_lp_mmshare_version>
43012

> <i_f3d_flags>
0

> <s_epik_input>
W0NIM11PW0NIMl1jMVtjSF1jKG5bY0hdbjEpW05IXUMoPU8pW05IXVtDQEBIXTJbQ0gyXVtDSDJdW0NIMl1bQ0BASF0oQyhGKShGKUYpW0NIMl0y

> <s_epik_cmdline>
J2VwaWtfcHl0aG9uJywgJy1waCcsICc3LjAnLCAnLXRuJywgJzgnLCAnLW1hJywgJzIwMCcsICctbWV0YWxfYmluZGluZycsICctaW1hZScsICc8aW5maWxlLm1hZT4nLCAnLW9tYWUnLCAnPG91dGZpbGUubWFlPic=

> <r_lp_tautomer_probability>
1

> <r_epik_Ionization_Penalty>
3.01554e-05

> <r_epik_Ionization_Penalty_Charging>
0

> <r_epik_Ionization_Penalty_Neutral>
3.01554e-05

> <r_epik_State_Penalty>
-0

> <r_epik_Charging_Adjusted_Penalty>
0

> <i_epik_Tot_Q>
0

> <i_epik_Tot_abs_Q>
0

> <r_epik_Metal_State_Penalty>
-0

> <b_epik_Metal_Only>
0

> <s_lp_Force_Field>
OPLS_2005

> <r_lp_Energy>
14.2483

> <b_lp_Chiralities_Consistent>
1

> <s_lp_Variant>
AV-unprocessed.smi:2454-3

> <Gold.Version>
5.8.1

> <Gold.Id.Protein>
6NUR|6NUR_protein|mol2

> <Gold.PLP.Fitness>
40.1711

> <Gold.PLP.PLP>
-33.0033

> <Gold.PLP.part.hbond>
-2.0000

> <Gold.PLP.part.metal>
0.0000

> <Gold.PLP.part.buried>
-3.7461

> <Gold.PLP.part.nonpolar>
-27.6269

> <Gold.PLP.part.repulsive>
0.5050

> <Gold.PLP.ligand.clash>
0.0000

> <Gold.PLP.ligand.torsion>
0.5258

> <Gold.PLP.Chemscore.Hbond>
1.0000

> <Gold.PLP.Chemscore.CHOScore>
1.7169

> <Gold.PLP.Chemscore.Metal>
0.0000

> <Gold.Chemscore.Hbonds>
donor molecule, donor type, donor heavy atom, donor atom, acceptor molecule, acceptor atom, score
      P1  H  7989  7998       L1    23  1.00
      L1  C    22    42       P1  7948  0.93
      L1  C    22    42       P1  7949  0.01
      L1  C    22    42       P1  7957  0.78

> <Gold.PLP.Chemscore.Internal.Correction>
0.0687

> <Gold.Rescore>
     Score         DG    S(hbond)    S(metal)    S(lipo)     H(rot)  DE(clash)    DE(int)     intcor
     11.67     -13.47       0.98        0.00      75.38       1.60       0.00       1.80       ----

> <Gold.Chemscore.Fitness>
11.6719

> <Gold.Chemscore.DG>
-13.4743

> <Gold.Chemscore.ZeroCoef>
-5.4800

> <Gold.Chemscore.Hbond>
0.9820

> <Gold.Chemscore.Metal>
0.0000

> <Gold.Chemscore.Lipo>
75.3812

> <Gold.Chemscore.Internal_Hbond>
0.0000

> <Gold.Chemscore.DEClash>
0.0015

> <Gold.Chemscore.DEInternal>
1.8009

> <Gold.Chemscore.Rot>
1.6035

> <Gold.Chemscore.Internal.Correction>
   9.000000E+99

> <Gold.Chemscore.Hbonds>
donor molecule, donor type, donor heavy atom, donor atom, acceptor molecule, acceptor atom, score
      P1  H  7989  7998       L1    23  0.65

> <Gold.Chemscore.Hbond.Weighted>
-3.2797

> <Gold.Chemscore.Metal.Weighted>
-0.0000

> <Gold.Chemscore.Lipo.Weighted>
-8.8196

> <Gold.Chemscore.Internal_Hbond.Weighted>
0.0000

> <Gold.Chemscore.DEClash.Weighted>
0.0015

> <Gold.Chemscore.DEInternal.Weighted>
1.8009

> <Gold.Chemscore.Rot.Weighted>
4.1050

> <Gold.Chemscore.Internal.Correction.Weighted>
   9.000000E+99

> <Gold.Protein.RotatedTorsions>
[ 6907 6896 6895 6894 ] final  -52.30 input  -60.11 | X-H torsion
[ 7974 7965 7964 7962 ] final  -90.62 input  175.53 | X-H torsion
[ 8008 7997 7996 7995 ] final   12.03 input   59.86 | X-H torsion
[ 10167 10162 10161 10158 ] final   21.75 input  -65.29 | X-H torsion
[ 10718 10713 10712 10709 ] final  -86.81 input   66.30 | X-H torsion
[ 10763 10752 10751 10750 ] final -174.61 input  -60.55 | X-H torsion
[ 11005 11000 10999 10996 ] final  -43.15 input  -57.11 | X-H torsion

> <Gold.Protein.ActiveResidues>
 VAL166  LYS551  ARG553  GLY616  TRP617  ASP618  TYR619  PRO620  LYS621  CYS622 
 ASP623  PHE694  ASN695  SER759  ASP760  ASP761  ALA762  ILE779  LEU786  VAL792 
 PHE793  MET794  SER795  GLU796  ALA797  LYS798  CYS799  TRP800  GLU811  SER814 

> <Gold.Protein.RotatedAtoms>
  150.8531  134.7862  159.7023 H   0  0  0  0  0  0  0  0  0  0  0  0  # atno 6907 bound_to 6896
  152.4590  134.5223  159.9796 H   0  0  0  0  0  0  0  0  0  0  0  0  # atno 6908 bound_to 6896
  151.5341  133.3406  159.2959 H   0  0  0  0  0  0  0  0  0  0  0  0  # atno 6909 bound_to 6896
  145.4240  140.9552  143.2165 H   0  0  0  0  0  0  0  0  0  0  0  0  # atno 7974 bound_to 7965
  154.8150  140.2874  155.5827 H   0  0  0  0  0  0  0  0  0  0  0  0  # atno 8008 bound_to 7997
  156.2992  140.2561  156.2975 H   0  0  0  0  0  0  0  0  0  0  0  0  # atno 8009 bound_to 7997
  154.9404  140.0381  157.2083 H   0  0  0  0  0  0  0  0  0  0  0  0  # atno 8010 bound_to 7997
  140.5402  143.9690  150.6515 H   0  0  0  0  0  0  0  0  0  0  0  0  # atno 10167 bound_to 10162
  155.9988  130.4778  150.4772 H   0  0  0  0  0  0  0  0  0  0  0  0  # atno 10718 bound_to 10713
  154.5942  135.2848  155.0604 H   0  0  0  0  0  0  0  0  0  0  0  0  # atno 10763 bound_to 10752
  154.1893  135.6443  153.5059 H   0  0  0  0  0  0  0  0  0  0  0  0  # atno 10764 bound_to 10752
  153.0132  135.5442  154.6638 H   0  0  0  0  0  0  0  0  0  0  0  0  # atno 10765 bound_to 10752
  141.0365  133.6798  156.2694 H   0  0  0  0  0  0  0  0  0  0  0  0  # atno 11005 bound_to 11000
  144.8226  139.5765  143.6980 LP  0  0  0  0  0  0  0  0  0  0  0  0  # atno 17320 bound_to 7965
  146.2641  139.6480  142.9341 LP  0  0  0  0  0  0  0  0  0  0  0  0  # atno 17321 bound_to 7965
  140.3089  143.3211  152.0899 LP  0  0  0  0  0  0  0  0  0  0  0  0  # atno 17342 bound_to 10162
  139.4986  144.6649  151.6379 LP  0  0  0  0  0  0  0  0  0  0  0  0  # atno 17343 bound_to 10162
  157.2781  131.0601  151.2216 LP  0  0  0  0  0  0  0  0  0  0  0  0  # atno 17370 bound_to 10713
  157.3272  130.6967  149.6303 LP  0  0  0  0  0  0  0  0  0  0  0  0  # atno 17371 bound_to 10713
  140.6313  134.5261  157.5560 LP  0  0  0  0  0  0  0  0  0  0  0  0  # atno 17394 bound_to 11000
  139.9244  134.8085  156.1113 LP  0  0  0  0  0  0  0  0  0  0  0  0  # atno 17395 bound_to 11000

$$$$
