AV-unprocessed.smi:2442|AV-procd|sdf|9624|dock1
  -GOLD-   2272013253D 1   1.00000     0.00000
 Structure written by MMmdl.
 46 47  0  0  0  0  0  0  0  0  1 V2000
  144.4947  135.6266  150.2770 C   0  0  0  0  0  0  0  0  0  0  0  0
  145.4885  134.9854  151.0610 O   0  0  0  0  0  0  0  0  0  0  0  0
  144.9757  134.2382  152.1603 C   0  0  1  0  0  0  0  0  0  0  0  0
  143.7699  133.3798  151.7221 C   0  0  0  0  0  0  0  0  0  0  0  0
  144.1776  132.2883  150.7187 C   0  0  0  0  0  0  0  0  0  0  0  0
  145.3005  131.4051  151.2830 C   0  0  0  0  0  0  0  0  0  0  0  0
  146.5112  132.2498  151.7097 C   0  0  0  0  0  0  0  0  0  0  0  0
  146.1084  133.3431  152.7184 C   0  0  1  0  0  0  0  0  0  0  0  0
  147.2797  134.1355  153.0847 N   0  0  0  0  0  0  0  0  0  0  0  0
  147.8154  134.2020  154.3111 C   0  0  0  0  0  0  0  0  0  0  0  0
  147.3860  133.5858  155.2870 O   0  0  0  0  0  0  0  0  0  0  0  0
  148.8693  135.0291  154.3505 N   0  0  0  0  0  0  0  0  0  0  0  0
  149.6391  135.3308  155.5512 C   0  0  0  0  0  0  0  0  0  0  0  0
  150.9972  135.9615  155.2018 C   0  0  0  0  0  0  0  0  0  0  0  0
  150.9199  137.4773  155.1154 C   0  0  0  0  0  0  0  0  0  0  0  0
  149.9056  138.0790  154.3413 C   0  0  0  0  0  0  0  0  0  0  0  0
  149.8525  139.4847  154.2689 C   0  0  0  0  0  0  0  0  0  0  0  0
  150.7258  140.2929  154.9046 N   0  0  0  0  0  0  0  0  0  0  0  0
  151.6964  139.7148  155.6432 C   0  0  0  0  0  0  0  0  0  0  0  0
  151.8443  138.3178  155.7841 C   0  0  0  0  0  0  0  0  0  0  0  0
  152.9709  137.7602  156.6362 C   0  0  0  0  0  0  0  0  0  0  0  0
  144.9730  136.1847  149.4725 H   0  0  0  0  0  0  0  0  0  0  0  0
  143.9173  136.3334  150.8744 H   0  0  0  0  0  0  0  0  0  0  0  0
  143.8104  134.9103  149.8229 H   0  0  0  0  0  0  0  0  0  0  0  0
  144.6547  134.9223  152.9479 H   0  0  0  0  0  0  0  0  0  0  0  0
  143.3329  132.9071  152.6026 H   0  0  0  0  0  0  0  0  0  0  0  0
  142.9824  134.0011  151.2970 H   0  0  0  0  0  0  0  0  0  0  0  0
  143.3126  131.6737  150.4681 H   0  0  0  0  0  0  0  0  0  0  0  0
  144.5075  132.7508  149.7874 H   0  0  0  0  0  0  0  0  0  0  0  0
  144.9276  130.8423  152.1397 H   0  0  0  0  0  0  0  0  0  0  0  0
  145.6044  130.6691  150.5379 H   0  0  0  0  0  0  0  0  0  0  0  0
  147.2724  131.6013  152.1447 H   0  0  0  0  0  0  0  0  0  0  0  0
  146.9626  132.7058  150.8273 H   0  0  0  0  0  0  0  0  0  0  0  0
  145.7415  132.8439  153.6175 H   0  0  0  0  0  0  0  0  0  0  0  0
  147.7012  134.6855  152.3506 H   0  0  0  0  0  0  0  0  0  0  0  0
  149.1478  135.4923  153.4979 H   0  0  0  0  0  0  0  0  0  0  0  0
  149.0645  135.9902  156.2037 H   0  0  0  0  0  0  0  0  0  0  0  0
  149.7898  134.4045  156.1062 H   0  0  0  0  0  0  0  0  0  0  0  0
  151.7335  135.6890  155.9592 H   0  0  0  0  0  0  0  0  0  0  0  0
  151.3782  135.5575  154.2640 H   0  0  0  0  0  0  0  0  0  0  0  0
  149.1822  137.4777  153.8105 H   0  0  0  0  0  0  0  0  0  0  0  0
  149.0875  139.9734  153.6836 H   0  0  0  0  0  0  0  0  0  0  0  0
  152.3776  140.3920  156.1372 H   0  0  0  0  0  0  0  0  0  0  0  0
  153.6528  138.5494  156.9543 H   0  0  0  0  0  0  0  0  0  0  0  0
  153.5508  137.0237  156.0802 H   0  0  0  0  0  0  0  0  0  0  0  0
  152.5692  137.2823  157.5299 H   0  0  0  0  0  0  0  0  0  0  0  0
  1  2  1  0  0  0  0
  1 22  1  0  0  0  0
  1 23  1  0  0  0  0
  1 24  1  0  0  0  0
  2  3  1  0  0  0  0
  3  8  1  0  0  0  0
  3  4  1  0  0  0  0
  3 25  1  0  0  0  0
  4  5  1  0  0  0  0
  4 26  1  0  0  0  0
  4 27  1  0  0  0  0
  5  6  1  0  0  0  0
  5 28  1  0  0  0  0
  5 29  1  0  0  0  0
  6  7  1  0  0  0  0
  6 30  1  0  0  0  0
  6 31  1  0  0  0  0
  7  8  1  0  0  0  0
  7 32  1  0  0  0  0
  7 33  1  0  0  0  0
  8  9  1  0  0  0  0
  8 34  1  0  0  0  0
  9 10  1  0  0  0  0
  9 35  1  0  0  0  0
 10 11  2  0  0  0  0
 10 12  1  0  0  0  0
 12 13  1  0  0  0  0
 12 36  1  0  0  0  0
 13 14  1  0  0  0  0
 13 37  1  0  0  0  0
 13 38  1  0  0  0  0
 14 15  1  0  0  0  0
 14 39  1  0  0  0  0
 14 40  1  0  0  0  0
 15 20  1  0  0  0  0
 15 16  2  0  0  0  0
 16 17  1  0  0  0  0
 16 41  1  0  0  0  0
 17 18  2  0  0  0  0
 17 42  1  0  0  0  0
 18 19  1  0  0  0  0
 19 20  2  0  0  0  0
 19 43  1  0  0  0  0
 20 21  1  0  0  0  0
 21 44  1  0  0  0  0
 21 45  1  0  0  0  0
 21 46  1  0  0  0  0
M  END
> <s_m_source_file>
AV-unprocessed.smi

> <i_m_source_file_index>
2442

> <i_lp_mmshare_version>
43012

> <i_f3d_flags>
0

> <s_epik_input>
W0NIM11PW0NAQEhdMVtDSDJdW0NIMl1bQ0gyXVtDSDJdW0NASF0xW05IXUMoPU8pW05IXVtDSDJdW0NIMl1jMltjSF1bY0hdbltjSF1jMltDSDNd

> <s_epik_cmdline>
J2VwaWtfcHl0aG9uJywgJy1waCcsICc3LjAnLCAnLXRuJywgJzgnLCAnLW1hJywgJzIwMCcsICctbWV0YWxfYmluZGluZycsICctaW1hZScsICc8aW5maWxlLm1hZT4nLCAnLW9tYWUnLCAnPG91dGZpbGUubWFlPic=

> <r_epik_Ionization_Penalty>
0.106136

> <r_epik_Ionization_Penalty_Charging>
0

> <r_epik_Ionization_Penalty_Neutral>
0.106136

> <r_epik_State_Penalty>
0.0959393

> <r_epik_Charging_Adjusted_Penalty>
0.0959393

> <i_epik_Tot_Q>
0

> <i_epik_Tot_abs_Q>
0

> <r_epik_Metal_State_Penalty>
0.0812517

> <b_epik_Metal_Only>
0

> <s_lp_Force_Field>
OPLS_2005

> <r_lp_Energy>
9.97505

> <b_lp_Chiralities_Consistent>
1

> <s_lp_Variant>
AV-unprocessed.smi:2442-2

> <Gold.Version>
5.8.1

> <Gold.Id.Protein>
6NUR|6NUR_protein|mol2

> <Gold.PLP.Fitness>
42.3957

> <Gold.PLP.PLP>
-32.2869

> <Gold.PLP.part.hbond>
-3.0000

> <Gold.PLP.part.metal>
0.0000

> <Gold.PLP.part.buried>
-0.3195

> <Gold.PLP.part.nonpolar>
-28.9728

> <Gold.PLP.part.repulsive>
0.2831

> <Gold.PLP.ligand.clash>
0.0000

> <Gold.PLP.ligand.torsion>
0.4993

> <Gold.PLP.Chemscore.Hbond>
2.9600

> <Gold.PLP.Chemscore.CHOScore>
0.7058

> <Gold.PLP.Chemscore.Metal>
0.0000

> <Gold.Chemscore.Hbonds>
donor molecule, donor type, donor heavy atom, donor atom, acceptor molecule, acceptor atom, score
      L1  H     9    35       P1  7948  0.96
      L1  H    12    36       P1  7948  1.00
      P1  H  7989  7998       L1    18  0.95
      L1  C    17    42       P1  7957  0.59

> <Gold.PLP.Chemscore.Internal.Correction>
0.1099

> <Gold.Rescore>
     Score         DG    S(hbond)    S(metal)    S(lipo)     H(rot)  DE(clash)    DE(int)     intcor
     15.83     -17.72       1.68        0.00      92.34       1.64       1.47       0.41       ----

> <Gold.Chemscore.Fitness>
15.8348

> <Gold.Chemscore.DG>
-17.7170

> <Gold.Chemscore.ZeroCoef>
-5.4800

> <Gold.Chemscore.Hbond>
1.6847

> <Gold.Chemscore.Metal>
0.0000

> <Gold.Chemscore.Lipo>
92.3381

> <Gold.Chemscore.Internal_Hbond>
0.0000

> <Gold.Chemscore.DEClash>
1.4688

> <Gold.Chemscore.DEInternal>
0.4134

> <Gold.Chemscore.Rot>
1.6380

> <Gold.Chemscore.Internal.Correction>
   9.000000E+99

> <Gold.Chemscore.Hbonds>
donor molecule, donor type, donor heavy atom, donor atom, acceptor molecule, acceptor atom, score
      L1  H     9    35       P1  7948  0.65
      L1  H    12    36       P1  7948  0.55
      P1  H  7989  7998       L1    18  0.07

> <Gold.Chemscore.Hbond.Weighted>
-5.6269

> <Gold.Chemscore.Metal.Weighted>
-0.0000

> <Gold.Chemscore.Lipo.Weighted>
-10.8036

> <Gold.Chemscore.Internal_Hbond.Weighted>
0.0000

> <Gold.Chemscore.DEClash.Weighted>
1.4688

> <Gold.Chemscore.DEInternal.Weighted>
0.4134

> <Gold.Chemscore.Rot.Weighted>
4.1934

> <Gold.Chemscore.Internal.Correction.Weighted>
   9.000000E+99

> <Gold.Protein.RotatedTorsions>
[ 6907 6896 6895 6894 ] final   79.76 input  -60.11 | X-H torsion
[ 7974 7965 7964 7962 ] final  -38.83 input  175.53 | X-H torsion
[ 8008 7997 7996 7995 ] final  138.58 input   59.86 | X-H torsion
[ 10167 10162 10161 10158 ] final  -50.33 input  -65.29 | X-H torsion
[ 10718 10713 10712 10709 ] final  173.96 input   66.30 | X-H torsion
[ 10763 10752 10751 10750 ] final  -74.48 input  -60.55 | X-H torsion
[ 11005 11000 10999 10996 ] final -110.76 input  -57.11 | X-H torsion

> <Gold.Protein.ActiveResidues>
 VAL166  LYS551  ARG553  GLY616  TRP617  ASP618  TYR619  PRO620  LYS621  CYS622 
 ASP623  PHE694  ASN695  SER759  ASP760  ASP761  ALA762  ILE779  LEU786  VAL792 
 PHE793  MET794  SER795  GLU796  ALA797  LYS798  CYS799  TRP800  GLU811  SER814 

> <Gold.Protein.RotatedAtoms>
  152.5210  134.3461  159.9234 H   0  0  0  0  0  0  0  0  0  0  0  0  # atno 6907 bound_to 6896
  151.3411  133.3955  159.2679 H   0  0  0  0  0  0  0  0  0  0  0  0  # atno 6908 bound_to 6896
  150.9802  134.9177  159.7898 H   0  0  0  0  0  0  0  0  0  0  0  0  # atno 6909 bound_to 6896
  146.0451  140.6557  142.9069 H   0  0  0  0  0  0  0  0  0  0  0  0  # atno 7974 bound_to 7965
  156.2996  140.2390  156.4096 H   0  0  0  0  0  0  0  0  0  0  0  0  # atno 8008 bound_to 7997
  154.8453  140.0426  157.1588 H   0  0  0  0  0  0  0  0  0  0  0  0  # atno 8009 bound_to 7997
  154.9058  140.2983  155.5296 H   0  0  0  0  0  0  0  0  0  0  0  0  # atno 8010 bound_to 7997
  140.6643  143.2662  151.4343 H   0  0  0  0  0  0  0  0  0  0  0  0  # atno 10167 bound_to 10162
  156.9566  131.0048  151.2937 H   0  0  0  0  0  0  0  0  0  0  0  0  # atno 10718 bound_to 10713
  154.4736  135.5863  153.6339 H   0  0  0  0  0  0  0  0  0  0  0  0  # atno 10763 bound_to 10752
  152.9838  135.6073  154.3335 H   0  0  0  0  0  0  0  0  0  0  0  0  # atno 10764 bound_to 10752
  154.3220  135.2843  155.2494 H   0  0  0  0  0  0  0  0  0  0  0  0  # atno 10765 bound_to 10752
  141.0773  133.9279  157.2363 H   0  0  0  0  0  0  0  0  0  0  0  0  # atno 11005 bound_to 11000
  144.7093  140.3979  143.7093 LP  0  0  0  0  0  0  0  0  0  0  0  0  # atno 17320 bound_to 7965
  145.6820  139.1620  143.2695 LP  0  0  0  0  0  0  0  0  0  0  0  0  # atno 17321 bound_to 7965
  139.5886  144.1549  152.2060 LP  0  0  0  0  0  0  0  0  0  0  0  0  # atno 17342 bound_to 10162
  140.0896  144.5632  150.7064 LP  0  0  0  0  0  0  0  0  0  0  0  0  # atno 17343 bound_to 10162
  157.5686  130.8295  149.8361 LP  0  0  0  0  0  0  0  0  0  0  0  0  # atno 17370 bound_to 10713
  156.0340  130.3756  150.1611 LP  0  0  0  0  0  0  0  0  0  0  0  0  # atno 17371 bound_to 10713
  139.9586  135.0160  156.9197 LP  0  0  0  0  0  0  0  0  0  0  0  0  # atno 17394 bound_to 11000
  140.5545  134.0595  155.7379 LP  0  0  0  0  0  0  0  0  0  0  0  0  # atno 17395 bound_to 11000

$$$$
