AV-unprocessed.smi:2647|AV-procd|sdf|10284|dock5
  -GOLD-   2272014293D 1   1.00000     0.00000
 Structure written by MMmdl.
 31 32  0  0  0  0  0  0  0  0  2 V2000
  151.2175  135.0671  155.7977 O   0  0  0  0  0  0  0  0  0  0  0  0
  150.4008  135.1491  154.8774 C   0  0  0  0  0  0  0  0  0  0  0  0
  150.0121  136.3529  154.4329 N   0  0  0  0  0  0  0  0  0  0  0  0
  150.4633  137.6422  154.9456 C   0  0  0  0  0  0  0  0  0  0  0  0
  151.6817  138.1647  154.1682 C   0  0  0  0  0  0  0  0  0  0  0  0
  152.6311  138.9911  155.0520 C   0  0  0  0  0  0  0  0  0  0  0  0
  151.8881  139.8549  155.9753 N   0  0  0  0  0  0  0  0  0  0  0  0
  150.7928  140.5495  155.6361 C   0  0  0  0  0  0  0  0  0  0  0  0
  150.2653  140.5830  154.5246 O   0  0  0  0  0  0  0  0  0  0  0  0
  150.2440  141.3216  156.8282 C   0  0  0  0  0  0  0  0  0  0  0  0
  151.2200  140.9619  157.9527 C   0  0  0  0  0  0  0  0  0  0  0  0
  152.2016  140.0200  157.2684 C   0  0  0  0  0  0  0  0  0  0  0  0
  153.1438  139.4984  157.8637 O   0  0  0  0  0  0  0  0  0  0  0  0
  149.8156  134.1151  154.2309 N   0  5  0  0  0  0  0  0  0  0  0  0
  150.0677  132.8531  154.6157 C   0  0  0  0  0  0  0  0  0  0  0  0
  150.9558  132.5591  155.5790 N   0  0  0  0  0  0  0  0  0  0  0  0
  151.0695  131.1966  155.8200 N   0  0  0  0  0  0  0  0  0  0  0  0
  150.2665  130.4935  155.0216 C   0  0  0  0  0  0  0  0  0  0  0  0
  149.3007  131.4313  153.9022 S   0  0  0  0  0  0  0  0  0  0  0  0
  149.3433  136.3721  153.6771 H   0  0  0  0  0  0  0  0  0  0  0  0
  149.6475  138.3664  154.9141 H   0  0  0  0  0  0  0  0  0  0  0  0
  150.7221  137.5121  155.9966 H   0  0  0  0  0  0  0  0  0  0  0  0
  152.2240  137.3215  153.7379 H   0  0  0  0  0  0  0  0  0  0  0  0
  151.3456  138.7755  153.3292 H   0  0  0  0  0  0  0  0  0  0  0  0
  153.2904  138.3243  155.6103 H   0  0  0  0  0  0  0  0  0  0  0  0
  153.2885  139.5969  154.4260 H   0  0  0  0  0  0  0  0  0  0  0  0
  150.2371  142.3922  156.6214 H   0  0  0  0  0  0  0  0  0  0  0  0
  149.2272  140.9994  157.0550 H   0  0  0  0  0  0  0  0  0  0  0  0
  151.7392  141.8404  158.3371 H   0  0  0  0  0  0  0  0  0  0  0  0
  150.7196  140.4577  158.7802 H   0  0  0  0  0  0  0  0  0  0  0  0
  150.2444  129.4162  155.0904 H   0  0  0  0  0  0  0  0  0  0  0  0
  1  2  2  0  0  0  0
  2  3  1  0  0  0  0
  2 14  1  0  0  0  0
  3  4  1  0  0  0  0
  3 20  1  0  0  0  0
  4  5  1  0  0  0  0
  4 21  1  0  0  0  0
  4 22  1  0  0  0  0
  5  6  1  0  0  0  0
  5 23  1  0  0  0  0
  5 24  1  0  0  0  0
  6  7  1  0  0  0  0
  6 25  1  0  0  0  0
  6 26  1  0  0  0  0
  7 12  1  0  0  0  0
  7  8  1  0  0  0  0
  8  9  2  0  0  0  0
  8 10  1  0  0  0  0
 10 11  1  0  0  0  0
 10 27  1  0  0  0  0
 10 28  1  0  0  0  0
 11 12  1  0  0  0  0
 11 29  1  0  0  0  0
 11 30  1  0  0  0  0
 12 13  2  0  0  0  0
 14 15  1  0  0  0  0
 15 19  1  0  0  0  0
 15 16  2  0  0  0  0
 16 17  1  0  0  0  0
 17 18  2  0  0  0  0
 18 19  1  0  0  0  0
 18 31  1  0  0  0  0
M  CHG  1  14  -1
M  END
> <s_m_source_file>
AV-unprocessed.smi

> <i_m_source_file_index>
2647

> <i_lp_mmshare_version>
43012

> <i_f3d_flags>
0

> <s_epik_input>
czFbY0hdbm5jMVtOSF1DKD1PKVtOSF1bQ0gyXVtDSDJdW0NIMl1OMkMoPU8pW0NIMl1bQ0gyXUMyPU8=

> <s_epik_cmdline>
J2VwaWtfcHl0aG9uJywgJy1waCcsICc3LjAnLCAnLXRuJywgJzgnLCAnLW1hJywgJzIwMCcsICctbWV0YWxfYmluZGluZycsICctaW1hZScsICc8aW5maWxlLm1hZT4nLCAnLW9tYWUnLCAnPG91dGZpbGUubWFlPic=

> <r_lp_tautomer_probability>
1

> <r_epik_Ionization_Penalty>
3.50019

> <r_epik_Ionization_Penalty_Charging>
3.45871

> <r_epik_Ionization_Penalty_Neutral>
0.0414811

> <r_epik_State_Penalty>
3.45698

> <r_epik_Charging_Adjusted_Penalty>
6.91569

> <i_epik_Tot_Q>
-1

> <i_epik_Tot_abs_Q>
1

> <r_epik_Metal_State_Penalty>
0.503209

> <b_epik_Metal_Only>
1

> <s_lp_Force_Field>
OPLS_2005

> <r_lp_Energy>
9.35786

> <b_lp_Chiralities_Consistent>
1

> <s_lp_Variant>
AV-unprocessed.smi:2647-2

> <Gold.Version>
5.8.1

> <Gold.Id.Protein>
6NUR|6NUR_protein|mol2

> <Gold.PLP.Fitness>
43.3742

> <Gold.PLP.PLP>
-33.4994

> <Gold.PLP.part.hbond>
-4.4279

> <Gold.PLP.part.metal>
0.0000

> <Gold.PLP.part.buried>
-3.1729

> <Gold.PLP.part.nonpolar>
-24.8528

> <Gold.PLP.part.repulsive>
0.3760

> <Gold.PLP.ligand.clash>
0.0000

> <Gold.PLP.ligand.torsion>
0.7266

> <Gold.PLP.Chemscore.Hbond>
3.7425

> <Gold.PLP.Chemscore.CHOScore>
0.0000

> <Gold.PLP.Chemscore.Metal>
0.0000

> <Gold.Chemscore.Hbonds>
donor molecule, donor type, donor heavy atom, donor atom, acceptor molecule, acceptor atom, score
      L1  H     3    20       P1  7948  0.98
      P1  H  7989  7998       L1     9  0.90
      P1  H  7997  8009       L1    13  0.90
      P1  H 10752 10765       L1     1  0.89

> <Gold.PLP.Chemscore.Internal.Correction>
0.1005

> <Gold.Rescore>
     Score         DG    S(hbond)    S(metal)    S(lipo)     H(rot)  DE(clash)    DE(int)     intcor
      6.92     -13.07       2.48        0.00      44.86       2.32       0.22       5.93       ----

> <Gold.Chemscore.Fitness>
6.9177

> <Gold.Chemscore.DG>
-13.0696

> <Gold.Chemscore.ZeroCoef>
-5.4800

> <Gold.Chemscore.Hbond>
2.4805

> <Gold.Chemscore.Metal>
0.0000

> <Gold.Chemscore.Lipo>
44.8616

> <Gold.Chemscore.Internal_Hbond>
0.0000

> <Gold.Chemscore.DEClash>
0.2205

> <Gold.Chemscore.DEInternal>
5.9314

> <Gold.Chemscore.Rot>
2.3219

> <Gold.Chemscore.Internal.Correction>
   9.000000E+99

> <Gold.Chemscore.Hbonds>
donor molecule, donor type, donor heavy atom, donor atom, acceptor molecule, acceptor atom, score
      L1  H     3    20       P1  7948  0.80
      P1  H  7989  7998       L1     9  0.31
      P1  H  7997  8009       L1    13  0.18
      P1  H 10752 10765       L1     1  0.36

> <Gold.Chemscore.Hbond.Weighted>
-8.2849

> <Gold.Chemscore.Metal.Weighted>
-0.0000

> <Gold.Chemscore.Lipo.Weighted>
-5.2488

> <Gold.Chemscore.Internal_Hbond.Weighted>
0.0000

> <Gold.Chemscore.DEClash.Weighted>
0.2205

> <Gold.Chemscore.DEInternal.Weighted>
5.9314

> <Gold.Chemscore.Rot.Weighted>
5.9441

> <Gold.Chemscore.Internal.Correction.Weighted>
   9.000000E+99

> <Gold.Protein.RotatedTorsions>
[ 6907 6896 6895 6894 ] final  139.46 input  -60.11 | X-H torsion
[ 7974 7965 7964 7962 ] final   86.89 input  175.53 | X-H torsion
[ 8008 7997 7996 7995 ] final  170.30 input   59.86 | X-H torsion
[ 10167 10162 10161 10158 ] final   41.28 input  -65.29 | X-H torsion
[ 10718 10713 10712 10709 ] final -132.78 input   66.30 | X-H torsion
[ 10763 10752 10751 10750 ] final -160.42 input  -60.55 | X-H torsion
[ 11005 11000 10999 10996 ] final  -84.07 input  -57.11 | X-H torsion

> <Gold.Protein.ActiveResidues>
 VAL166  LYS551  ARG553  GLY616  TRP617  ASP618  TYR619  PRO620  LYS621  CYS622 
 ASP623  PHE694  ASN695  SER759  ASP760  ASP761  ALA762  ILE779  LEU786  VAL792 
 PHE793  MET794  SER795  GLU796  ALA797  LYS798  CYS799  TRP800  GLU811  SER814 

> <Gold.Protein.RotatedAtoms>
  152.2546  133.5244  159.5345 H   0  0  0  0  0  0  0  0  0  0  0  0  # atno 6907 bound_to 6896
  150.7105  134.0913  159.3942 H   0  0  0  0  0  0  0  0  0  0  0  0  # atno 6908 bound_to 6896
  151.8832  135.0445  160.0541 H   0  0  0  0  0  0  0  0  0  0  0  0  # atno 6909 bound_to 6896
  145.5662  139.2309  143.2432 H   0  0  0  0  0  0  0  0  0  0  0  0  # atno 7974 bound_to 7965
  156.1378  140.1541  156.8968 H   0  0  0  0  0  0  0  0  0  0  0  0  # atno 8008 bound_to 7997
  154.4962  140.0837  156.7739 H   0  0  0  0  0  0  0  0  0  0  0  0  # atno 8009 bound_to 7997
  155.4136  140.3420  155.4268 H   0  0  0  0  0  0  0  0  0  0  0  0  # atno 8010 bound_to 7997
  140.3659  144.2168  150.6135 H   0  0  0  0  0  0  0  0  0  0  0  0  # atno 10167 bound_to 10162
  156.2381  130.7078  151.0928 H   0  0  0  0  0  0  0  0  0  0  0  0  # atno 10718 bound_to 10713
  154.7392  135.3064  154.8758 H   0  0  0  0  0  0  0  0  0  0  0  0  # atno 10763 bound_to 10752
  153.9578  135.6756  153.4749 H   0  0  0  0  0  0  0  0  0  0  0  0  # atno 10764 bound_to 10752
  153.0992  135.4920  154.8759 H   0  0  0  0  0  0  0  0  0  0  0  0  # atno 10765 bound_to 10752
  141.1653  133.7327  156.8813 H   0  0  0  0  0  0  0  0  0  0  0  0  # atno 11005 bound_to 11000
  146.1816  140.6488  142.9186 LP  0  0  0  0  0  0  0  0  0  0  0  0  # atno 17320 bound_to 7965
  144.7459  140.5067  143.6836 LP  0  0  0  0  0  0  0  0  0  0  0  0  # atno 17321 bound_to 7965
  140.5081  143.2298  151.8576 LP  0  0  0  0  0  0  0  0  0  0  0  0  # atno 17342 bound_to 10162
  139.4809  144.4981  151.9097 LP  0  0  0  0  0  0  0  0  0  0  0  0  # atno 17343 bound_to 10162
  157.7163  131.0708  150.6314 LP  0  0  0  0  0  0  0  0  0  0  0  0  # atno 17370 bound_to 10713
  156.6385  130.4452  149.5761 LP  0  0  0  0  0  0  0  0  0  0  0  0  # atno 17371 bound_to 10713
  140.1713  134.9098  157.2836 LP  0  0  0  0  0  0  0  0  0  0  0  0  # atno 17394 bound_to 11000
  140.2499  134.3695  155.7446 LP  0  0  0  0  0  0  0  0  0  0  0  0  # atno 17395 bound_to 11000

$$$$
