AV-unprocessed.smi:2571|AV-procd|sdf|10109|dock1
  -GOLD-   2272014123D 1   1.00000     0.00000
 Structure written by MMmdl.
 38 40  0  0  0  0  0  0  0  0  1 V2000
  148.0692  145.4682  160.9275 C   0  0  0  0  0  0  0  0  0  0  0  0
  148.3839  144.3642  160.0919 O   0  0  0  0  0  0  0  0  0  0  0  0
  149.6755  144.2530  159.6244 C   0  0  0  0  0  0  0  0  0  0  0  0
  150.6963  145.2058  159.8673 C   0  0  0  0  0  0  0  0  0  0  0  0
  151.9938  145.0027  159.3599 C   0  0  0  0  0  0  0  0  0  0  0  0
  152.2896  143.8483  158.6123 C   0  0  0  0  0  0  0  0  0  0  0  0
  151.2844  142.8898  158.3637 C   0  0  0  0  0  0  0  0  0  0  0  0
  151.5962  141.6047  157.6071 C   0  0  1  0  0  0  0  0  0  0  0  0
  152.5422  140.7961  158.2778 O   0  0  0  0  0  0  0  0  0  0  0  0
  150.3314  140.7604  157.3436 C   0  0  0  0  0  0  0  0  0  0  0  0
  149.7105  141.0845  156.0671 N   0  0  0  0  0  0  0  0  0  0  0  0
  150.3965  140.8628  154.9162 N   0  0  0  0  0  0  0  0  0  0  0  0
  149.6085  141.2951  153.9341 C   0  0  0  0  0  0  0  0  0  0  0  0
  148.3819  141.8183  154.4267 C   0  0  0  0  0  0  0  0  0  0  0  0
  147.2019  142.4290  153.8224 C   0  0  0  0  0  0  0  0  0  0  0  0
  146.2485  142.8277  154.6051 N   0  0  0  0  0  0  0  0  0  0  0  0
  146.3362  142.6752  155.9934 N   0  0  0  0  0  0  0  0  0  0  0  0
  145.1892  143.1872  156.7396 C   0  0  0  0  0  0  0  0  0  0  0  0
  147.3817  142.0941  156.6545 C   0  0  0  0  0  0  0  0  0  0  0  0
  147.4239  141.9435  157.8751 O   0  0  0  0  0  0  0  0  0  0  0  0
  148.4868  141.6532  155.7686 C   0  0  0  0  0  0  0  0  0  0  0  0
  149.9831  143.1068  158.8643 C   0  0  0  0  0  0  0  0  0  0  0  0
  147.0234  145.4052  161.2278 H   0  0  0  0  0  0  0  0  0  0  0  0
  148.2054  146.4159  160.4047 H   0  0  0  0  0  0  0  0  0  0  0  0
  148.6736  145.4650  161.8357 H   0  0  0  0  0  0  0  0  0  0  0  0
  150.5102  146.0997  160.4428 H   0  0  0  0  0  0  0  0  0  0  0  0
  152.7679  145.7305  159.5541 H   0  0  0  0  0  0  0  0  0  0  0  0
  153.2950  143.6943  158.2484 H   0  0  0  0  0  0  0  0  0  0  0  0
  152.0477  141.8714  156.6503 H   0  0  0  0  0  0  0  0  0  0  0  0
  152.8285  140.1179  157.6855 H   0  0  0  0  0  0  0  0  0  0  0  0
  150.5898  139.7001  157.3297 H   0  0  0  0  0  0  0  0  0  0  0  0
  149.6044  140.8824  158.1458 H   0  0  0  0  0  0  0  0  0  0  0  0
  149.9543  141.2254  152.9134 H   0  0  0  0  0  0  0  0  0  0  0  0
  147.1310  142.5466  152.7411 H   0  0  0  0  0  0  0  0  0  0  0  0
  144.6947  142.3810  157.2836 H   0  0  0  0  0  0  0  0  0  0  0  0
  144.4477  143.6480  156.0848 H   0  0  0  0  0  0  0  0  0  0  0  0
  145.5065  143.9425  157.4602 H   0  0  0  0  0  0  0  0  0  0  0  0
  149.2131  142.3699  158.6866 H   0  0  0  0  0  0  0  0  0  0  0  0
  1  2  1  0  0  0  0
  1 23  1  0  0  0  0
  1 24  1  0  0  0  0
  1 25  1  0  0  0  0
  2  3  1  0  0  0  0
  3 22  1  0  0  0  0
  3  4  2  0  0  0  0
  4  5  1  0  0  0  0
  4 26  1  0  0  0  0
  5  6  2  0  0  0  0
  5 27  1  0  0  0  0
  6  7  1  0  0  0  0
  6 28  1  0  0  0  0
  7  8  1  0  0  0  0
  7 22  2  0  0  0  0
  8  9  1  0  0  0  0
  8 10  1  0  0  0  0
  8 29  1  0  0  0  0
  9 30  1  0  0  0  0
 10 11  1  0  0  0  0
 10 31  1  0  0  0  0
 10 32  1  0  0  0  0
 11 21  1  0  0  0  0
 11 12  1  0  0  0  0
 12 13  2  0  0  0  0
 13 14  1  0  0  0  0
 13 33  1  0  0  0  0
 14 21  2  0  0  0  0
 14 15  1  0  0  0  0
 15 16  2  0  0  0  0
 15 34  1  0  0  0  0
 16 17  1  0  0  0  0
 17 18  1  0  0  0  0
 17 19  1  0  0  0  0
 18 35  1  0  0  0  0
 18 36  1  0  0  0  0
 18 37  1  0  0  0  0
 19 20  2  0  0  0  0
 19 21  1  0  0  0  0
 22 38  1  0  0  0  0
M  END
> <s_m_source_file>
AV-unprocessed.smi

> <i_m_source_file_index>
2571

> <i_lp_mmshare_version>
43012

> <i_f3d_flags>
0

> <s_epik_input>
W0NIM11PYzFbY0hdW2NIXVtjSF1jKFtjSF0xKVtDQEhdKFtPSF0pW0NIMl1uKG5bY0hdMiljKGMyMyljKD1PKW4oW0NIM10pbltjSF0z

> <s_epik_cmdline>
J2VwaWtfcHl0aG9uJywgJy1waCcsICc3LjAnLCAnLXRuJywgJzgnLCAnLW1hJywgJzIwMCcsICctbWV0YWxfYmluZGluZycsICctaW1hZScsICc8aW5maWxlLm1hZT4nLCAnLW9tYWUnLCAnPG91dGZpbGUubWFlPic=

> <r_lp_tautomer_probability>
1

> <r_epik_Ionization_Penalty>
1.38887e-06

> <r_epik_Ionization_Penalty_Charging>
1.65421e-10

> <r_epik_Ionization_Penalty_Neutral>
1.38871e-06

> <r_epik_State_Penalty>
-0

> <r_epik_Charging_Adjusted_Penalty>
1.65421e-10

> <i_epik_Tot_Q>
0

> <i_epik_Tot_abs_Q>
0

> <r_epik_Metal_State_Penalty>
-0

> <b_epik_Metal_Only>
0

> <s_lp_Force_Field>
OPLS_2005

> <r_lp_Energy>
30.2232

> <b_lp_Chiralities_Consistent>
1

> <s_lp_Variant>
AV-unprocessed.smi:2571-2

> <Gold.Version>
5.8.1

> <Gold.Id.Protein>
6NUR|6NUR_protein|mol2

> <Gold.PLP.Fitness>
45.5897

> <Gold.PLP.PLP>
-40.3226

> <Gold.PLP.part.hbond>
-3.3224

> <Gold.PLP.part.metal>
0.0000

> <Gold.PLP.part.buried>
-2.8549

> <Gold.PLP.part.nonpolar>
-34.8417

> <Gold.PLP.part.repulsive>
0.5080

> <Gold.PLP.ligand.clash>
0.0000

> <Gold.PLP.ligand.torsion>
0.5276

> <Gold.PLP.Chemscore.Hbond>
1.0957

> <Gold.PLP.Chemscore.CHOScore>
1.0000

> <Gold.PLP.Chemscore.Metal>
0.0000

> <Gold.Chemscore.Hbonds>
donor molecule, donor type, donor heavy atom, donor atom, acceptor molecule, acceptor atom, score
      P1  H  6933  6944       L1     2  0.03
      L1  C    13    33       P1  7957  1.00

> <Gold.PLP.Chemscore.Internal.Correction>
0.0351

> <Gold.Rescore>
     Score         DG    S(hbond)    S(metal)    S(lipo)     H(rot)  DE(clash)    DE(int)     intcor
     11.94     -12.52       0.37        0.00      98.06       2.21       0.08       0.50       ----

> <Gold.Chemscore.Fitness>
11.9351

> <Gold.Chemscore.DG>
-12.5225

> <Gold.Chemscore.ZeroCoef>
-5.4800

> <Gold.Chemscore.Hbond>
0.3710

> <Gold.Chemscore.Metal>
0.0000

> <Gold.Chemscore.Lipo>
98.0577

> <Gold.Chemscore.Internal_Hbond>
0.0000

> <Gold.Chemscore.DEClash>
0.0823

> <Gold.Chemscore.DEInternal>
0.5050

> <Gold.Chemscore.Rot>
2.2146

> <Gold.Chemscore.Internal.Correction>
   9.000000E+99

> <Gold.Chemscore.Hbond.Weighted>
-1.2390

> <Gold.Chemscore.Metal.Weighted>
-0.0000

> <Gold.Chemscore.Lipo.Weighted>
-11.4727

> <Gold.Chemscore.Internal_Hbond.Weighted>
0.0000

> <Gold.Chemscore.DEClash.Weighted>
0.0823

> <Gold.Chemscore.DEInternal.Weighted>
0.5050

> <Gold.Chemscore.Rot.Weighted>
5.6693

> <Gold.Chemscore.Internal.Correction.Weighted>
   9.000000E+99

> <Gold.Protein.RotatedTorsions>
[ 6907 6896 6895 6894 ] final   13.31 input  -60.11 | X-H torsion
[ 7974 7965 7964 7962 ] final -102.98 input  175.53 | X-H torsion
[ 8008 7997 7996 7995 ] final   61.39 input   59.86 | X-H torsion
[ 10167 10162 10161 10158 ] final   90.09 input  -65.29 | X-H torsion
[ 10718 10713 10712 10709 ] final -159.47 input   66.30 | X-H torsion
[ 10763 10752 10751 10750 ] final   51.15 input  -60.55 | X-H torsion
[ 11005 11000 10999 10996 ] final  -24.70 input  -57.11 | X-H torsion

> <Gold.Protein.ActiveResidues>
 VAL166  LYS551  ARG553  GLY616  TRP617  ASP618  TYR619  PRO620  LYS621  CYS622 
 ASP623  PHE694  ASN695  SER759  ASP760  ASP761  ALA762  ILE779  LEU786  VAL792 
 PHE793  MET794  SER795  GLU796  ALA797  LYS798  CYS799  TRP800  GLU811  SER814 

> <Gold.Protein.RotatedAtoms>
  151.7843  135.0753  160.0377 H   0  0  0  0  0  0  0  0  0  0  0  0  # atno 6907 bound_to 6896
  152.3201  133.5840  159.5747 H   0  0  0  0  0  0  0  0  0  0  0  0  # atno 6908 bound_to 6896
  150.7365  133.9940  159.3658 H   0  0  0  0  0  0  0  0  0  0  0  0  # atno 6909 bound_to 6896
  145.2617  140.9271  143.3037 H   0  0  0  0  0  0  0  0  0  0  0  0  # atno 7974 bound_to 7965
  155.5977  140.3493  155.4584 H   0  0  0  0  0  0  0  0  0  0  0  0  # atno 8008 bound_to 7997
  156.0253  140.1262  157.0340 H   0  0  0  0  0  0  0  0  0  0  0  0  # atno 8009 bound_to 7997
  154.4331  140.1054  156.6007 H   0  0  0  0  0  0  0  0  0  0  0  0  # atno 8010 bound_to 7997
  139.8508  144.6594  150.9172 H   0  0  0  0  0  0  0  0  0  0  0  0  # atno 10167 bound_to 10162
  156.5686  130.8678  151.2831 H   0  0  0  0  0  0  0  0  0  0  0  0  # atno 10718 bound_to 10713
  152.9785  135.5855  154.4369 H   0  0  0  0  0  0  0  0  0  0  0  0  # atno 10763 bound_to 10752
  154.3975  135.2768  155.2119 H   0  0  0  0  0  0  0  0  0  0  0  0  # atno 10764 bound_to 10752
  154.3964  135.6113  153.5926 H   0  0  0  0  0  0  0  0  0  0  0  0  # atno 10765 bound_to 10752
  140.8869  133.7615  156.0372 H   0  0  0  0  0  0  0  0  0  0  0  0  # atno 11005 bound_to 11000
  144.9412  139.4187  143.6448 LP  0  0  0  0  0  0  0  0  0  0  0  0  # atno 17320 bound_to 7965
  146.3273  139.8373  142.8897 LP  0  0  0  0  0  0  0  0  0  0  0  0  # atno 17321 bound_to 7965
  140.7787  143.3829  151.1445 LP  0  0  0  0  0  0  0  0  0  0  0  0  # atno 17342 bound_to 10162
  139.7467  143.8841  152.3065 LP  0  0  0  0  0  0  0  0  0  0  0  0  # atno 17343 bound_to 10162
  157.7353  130.9760  150.2075 LP  0  0  0  0  0  0  0  0  0  0  0  0  # atno 17370 bound_to 10713
  156.2735  130.3724  149.8008 LP  0  0  0  0  0  0  0  0  0  0  0  0  # atno 17371 bound_to 10713
  140.8394  134.3085  157.5319 LP  0  0  0  0  0  0  0  0  0  0  0  0  # atno 17394 bound_to 11000
  139.8725  134.9407  156.3777 LP  0  0  0  0  0  0  0  0  0  0  0  0  # atno 17395 bound_to 11000

$$$$
