AV-unprocessed.smi:2771|AV-procd|sdf|10663|dock10
  -GOLD-   2272015113D 1   1.00000     0.00000
 Structure written by MMmdl.
 43 44  0  0  0  0  0  0  0  0  1 V2000
  151.7615  139.6306  155.5270 C   0  0  0  0  0  0  0  0  0  0  0  0
  150.3797  139.9383  154.9897 C   0  0  0  0  0  0  0  0  0  0  0  0
  149.7893  141.2021  155.1866 C   0  0  0  0  0  0  0  0  0  0  0  0
  148.5032  141.4215  154.6619 C   0  0  0  0  0  0  0  0  0  0  0  0
  147.8652  140.3766  153.9662 C   0  0  0  0  0  0  0  0  0  0  0  0
  148.5286  139.1386  153.8106 C   0  0  0  0  0  0  0  0  0  0  0  0
  147.8042  138.1542  153.0874 N   0  0  0  0  0  0  0  0  0  0  0  0
  146.4827  137.9064  153.1151 C   0  0  0  0  0  0  0  0  0  0  0  0
  145.6504  138.5417  153.7632 O   0  0  0  0  0  0  0  0  0  0  0  0
  146.1709  136.8608  152.3376 N   0  0  0  0  0  0  0  0  0  0  0  0
  144.8279  136.3134  152.1802 C   0  0  0  0  0  0  0  0  0  0  0  0
  144.6105  135.8089  150.7379 C   0  0  1  0  0  0  0  0  0  0  0  0
  145.4774  136.5693  149.9161 O   0  0  0  0  0  0  0  0  0  0  0  0
  144.9378  134.3056  150.5235 C   0  0  0  0  0  0  0  0  0  0  0  0
  143.8200  133.3965  151.0948 C   0  0  0  0  0  0  0  0  0  0  0  0
  144.1198  131.9032  150.8923 C   0  0  0  0  0  0  0  0  0  0  0  0
  145.4671  131.5199  151.5162 C   0  0  0  0  0  0  0  0  0  0  0  0
  146.5929  132.3957  150.9516 C   0  0  0  0  0  0  0  0  0  0  0  0
  146.2939  133.8919  151.1463 C   0  0  0  0  0  0  0  0  0  0  0  0
  149.7686  138.9362  154.3219 N   0  0  0  0  0  0  0  0  0  0  0  0
  152.1842  140.4903  156.0477 H   0  0  0  0  0  0  0  0  0  0  0  0
  152.4342  139.3622  154.7118 H   0  0  0  0  0  0  0  0  0  0  0  0
  151.7191  138.7954  156.2267 H   0  0  0  0  0  0  0  0  0  0  0  0
  150.3054  141.9840  155.7241 H   0  0  0  0  0  0  0  0  0  0  0  0
  148.0130  142.3754  154.7892 H   0  0  0  0  0  0  0  0  0  0  0  0
  146.8776  140.5300  153.5560 H   0  0  0  0  0  0  0  0  0  0  0  0
  148.3606  137.5526  152.4986 H   0  0  0  0  0  0  0  0  0  0  0  0
  146.9137  136.4004  151.8321 H   0  0  0  0  0  0  0  0  0  0  0  0
  144.6423  135.5109  152.8968 H   0  0  0  0  0  0  0  0  0  0  0  0
  144.1388  137.1207  152.4229 H   0  0  0  0  0  0  0  0  0  0  0  0
  143.5809  136.0007  150.4321 H   0  0  0  0  0  0  0  0  0  0  0  0
  145.0837  137.4151  149.7669 H   0  0  0  0  0  0  0  0  0  0  0  0
  144.9995  134.1260  149.4486 H   0  0  0  0  0  0  0  0  0  0  0  0
  143.6916  133.5984  152.1590 H   0  0  0  0  0  0  0  0  0  0  0  0
  142.8625  133.6206  150.6243 H   0  0  0  0  0  0  0  0  0  0  0  0
  143.3229  131.3018  151.3308 H   0  0  0  0  0  0  0  0  0  0  0  0
  144.1296  131.6729  149.8260 H   0  0  0  0  0  0  0  0  0  0  0  0
  145.4171  131.6371  152.5993 H   0  0  0  0  0  0  0  0  0  0  0  0
  145.6805  130.4676  151.3265 H   0  0  0  0  0  0  0  0  0  0  0  0
  147.5373  132.1401  151.4327 H   0  0  0  0  0  0  0  0  0  0  0  0
  146.7214  132.1848  149.8891 H   0  0  0  0  0  0  0  0  0  0  0  0
  147.1130  134.4541  150.7011 H   0  0  0  0  0  0  0  0  0  0  0  0
  146.2977  134.1286  152.2111 H   0  0  0  0  0  0  0  0  0  0  0  0
  1  2  1  0  0  0  0
  1 21  1  0  0  0  0
  1 22  1  0  0  0  0
  1 23  1  0  0  0  0
  2 20  1  0  0  0  0
  2  3  2  0  0  0  0
  3  4  1  0  0  0  0
  3 24  1  0  0  0  0
  4  5  2  0  0  0  0
  4 25  1  0  0  0  0
  5  6  1  0  0  0  0
  5 26  1  0  0  0  0
  6  7  1  0  0  0  0
  6 20  2  0  0  0  0
  7  8  1  0  0  0  0
  7 27  1  0  0  0  0
  8  9  2  0  0  0  0
  8 10  1  0  0  0  0
 10 11  1  0  0  0  0
 10 28  1  0  0  0  0
 11 12  1  0  0  0  0
 11 29  1  0  0  0  0
 11 30  1  0  0  0  0
 12 13  1  0  0  0  0
 12 14  1  0  0  0  0
 12 31  1  0  0  0  0
 13 32  1  0  0  0  0
 14 19  1  0  0  0  0
 14 15  1  0  0  0  0
 14 33  1  0  0  0  0
 15 16  1  0  0  0  0
 15 34  1  0  0  0  0
 15 35  1  0  0  0  0
 16 17  1  0  0  0  0
 16 36  1  0  0  0  0
 16 37  1  0  0  0  0
 17 18  1  0  0  0  0
 17 38  1  0  0  0  0
 17 39  1  0  0  0  0
 18 19  1  0  0  0  0
 18 40  1  0  0  0  0
 18 41  1  0  0  0  0
 19 42  1  0  0  0  0
 19 43  1  0  0  0  0
M  END
> <s_m_source_file>
AV-unprocessed.smi

> <i_m_source_file_index>
2771

> <i_lp_mmshare_version>
43012

> <i_f3d_flags>
0

> <s_epik_input>
W0NIM11jMVtjSF1bY0hdW2NIXWMobjEpW05IXUMoPU8pW05IXVtDSDJdW0NASF0oW09IXSlbQ0hdMltDSDJdW0NIMl1bQ0gyXVtDSDJdW0NIMl0y

> <s_epik_cmdline>
J2VwaWtfcHl0aG9uJywgJy1waCcsICc3LjAnLCAnLXRuJywgJzgnLCAnLW1hJywgJzIwMCcsICctbWV0YWxfYmluZGluZycsICctaW1hZScsICc8aW5maWxlLm1hZT4nLCAnLW9tYWUnLCAnPG91dGZpbGUubWFlPic=

> <r_lp_tautomer_probability>
1

> <r_epik_Ionization_Penalty>
8.92802e-05

> <r_epik_Ionization_Penalty_Charging>
0

> <r_epik_Ionization_Penalty_Neutral>
8.92802e-05

> <r_epik_State_Penalty>
-0

> <r_epik_Charging_Adjusted_Penalty>
0

> <i_epik_Tot_Q>
0

> <i_epik_Tot_abs_Q>
0

> <r_epik_Metal_State_Penalty>
-0

> <b_epik_Metal_Only>
0

> <s_lp_Force_Field>
OPLS_2005

> <r_lp_Energy>
17.4783

> <b_lp_Chiralities_Consistent>
1

> <s_lp_Variant>
AV-unprocessed.smi:2771-2

> <Gold.Version>
5.8.1

> <Gold.Id.Protein>
6NUR|6NUR_protein|mol2

> <Gold.PLP.Fitness>
44.3686

> <Gold.PLP.PLP>
-37.9951

> <Gold.PLP.part.hbond>
-4.3400

> <Gold.PLP.part.metal>
0.0000

> <Gold.PLP.part.buried>
0.2494

> <Gold.PLP.part.nonpolar>
-34.5047

> <Gold.PLP.part.repulsive>
0.9882

> <Gold.PLP.ligand.clash>
0.0000

> <Gold.PLP.ligand.torsion>
1.0690

> <Gold.PLP.Chemscore.Hbond>
2.8320

> <Gold.PLP.Chemscore.CHOScore>
0.0000

> <Gold.PLP.Chemscore.Metal>
0.0000

> <Gold.Chemscore.Hbonds>
donor molecule, donor type, donor heavy atom, donor atom, acceptor molecule, acceptor atom, score
      L1  H     7    27       P1  7948  1.00
      L1  H    10    28       P1  7948  0.82
      L1  H    13    32       P1 10171  1.00

> <Gold.PLP.Chemscore.Internal.Correction>
0.0153

> <Gold.Rescore>
     Score         DG    S(hbond)    S(metal)    S(lipo)     H(rot)  DE(clash)    DE(int)     intcor
     17.37     -20.14       2.85        0.00      86.58       1.95       0.31       2.46       ----

> <Gold.Chemscore.Fitness>
17.3707

> <Gold.Chemscore.DG>
-20.1359

> <Gold.Chemscore.ZeroCoef>
-5.4800

> <Gold.Chemscore.Hbond>
2.8526

> <Gold.Chemscore.Metal>
0.0000

> <Gold.Chemscore.Lipo>
86.5766

> <Gold.Chemscore.Internal_Hbond>
0.0000

> <Gold.Chemscore.DEClash>
0.3084

> <Gold.Chemscore.DEInternal>
2.4568

> <Gold.Chemscore.Rot>
1.9536

> <Gold.Chemscore.Internal.Correction>
   9.000000E+99

> <Gold.Chemscore.Hbonds>
donor molecule, donor type, donor heavy atom, donor atom, acceptor molecule, acceptor atom, score
      L1  H     7    27       P1  7948  0.96
      L1  H    10    28       P1  7948  0.77
      L1  H    13    32       P1 10171  0.99

> <Gold.Chemscore.Hbond.Weighted>
-9.5277

> <Gold.Chemscore.Metal.Weighted>
-0.0000

> <Gold.Chemscore.Lipo.Weighted>
-10.1295

> <Gold.Chemscore.Internal_Hbond.Weighted>
0.0000

> <Gold.Chemscore.DEClash.Weighted>
0.3084

> <Gold.Chemscore.DEInternal.Weighted>
2.4568

> <Gold.Chemscore.Rot.Weighted>
5.0013

> <Gold.Chemscore.Internal.Correction.Weighted>
   9.000000E+99

> <Gold.Protein.RotatedTorsions>
[ 6907 6896 6895 6894 ] final -161.31 input  -60.11 | X-H torsion
[ 7974 7965 7964 7962 ] final   71.75 input  175.53 | X-H torsion
[ 8008 7997 7996 7995 ] final  110.67 input   59.86 | X-H torsion
[ 10167 10162 10161 10158 ] final  -99.56 input  -65.29 | X-H torsion
[ 10718 10713 10712 10709 ] final  -58.62 input   66.30 | X-H torsion
[ 10763 10752 10751 10750 ] final -120.76 input  -60.55 | X-H torsion
[ 11005 11000 10999 10996 ] final  -41.59 input  -57.11 | X-H torsion

> <Gold.Protein.ActiveResidues>
 VAL166  LYS551  ARG553  GLY616  TRP617  ASP618  TYR619  PRO620  LYS621  CYS622 
 ASP623  PHE694  ASN695  SER759  ASP760  ASP761  ALA762  ILE779  LEU786  VAL792 
 PHE793  MET794  SER795  GLU796  ALA797  LYS798  CYS799  TRP800  GLU811  SER814 

> <Gold.Protein.RotatedAtoms>
  151.3627  133.3884  159.2691 H   0  0  0  0  0  0  0  0  0  0  0  0  # atno 6907 bound_to 6896
  150.9713  134.9086  159.7800 H   0  0  0  0  0  0  0  0  0  0  0  0  # atno 6908 bound_to 6896
  152.5185  134.3588  159.9330 H   0  0  0  0  0  0  0  0  0  0  0  0  # atno 6909 bound_to 6896
  145.7620  139.2805  143.1371 H   0  0  0  0  0  0  0  0  0  0  0  0  # atno 7974 bound_to 7965
  156.2069  140.3034  155.9647 H   0  0  0  0  0  0  0  0  0  0  0  0  # atno 8008 bound_to 7997
  155.2819  140.0438  157.3033 H   0  0  0  0  0  0  0  0  0  0  0  0  # atno 8009 bound_to 7997
  154.5646  140.2330  155.8292 H   0  0  0  0  0  0  0  0  0  0  0  0  # atno 8010 bound_to 7997
  140.2612  143.3406  152.0624 H   0  0  0  0  0  0  0  0  0  0  0  0  # atno 10167 bound_to 10162
  156.1122  130.4174  150.0602 H   0  0  0  0  0  0  0  0  0  0  0  0  # atno 10718 bound_to 10713
  154.8652  135.4191  154.2512 H   0  0  0  0  0  0  0  0  0  0  0  0  # atno 10763 bound_to 10752
  153.3458  135.6996  153.6835 H   0  0  0  0  0  0  0  0  0  0  0  0  # atno 10764 bound_to 10752
  153.5795  135.3575  155.2842 H   0  0  0  0  0  0  0  0  0  0  0  0  # atno 10765 bound_to 10752
  141.0256  133.6843  156.2478 H   0  0  0  0  0  0  0  0  0  0  0  0  # atno 11005 bound_to 11000
  146.0255  140.8308  142.9902 LP  0  0  0  0  0  0  0  0  0  0  0  0  # atno 17320 bound_to 7965
  144.6829  140.2691  143.7308 LP  0  0  0  0  0  0  0  0  0  0  0  0  # atno 17321 bound_to 7965
  139.5016  144.6717  151.6226 LP  0  0  0  0  0  0  0  0  0  0  0  0  # atno 17342 bound_to 10162
  140.5964  143.9688  150.6357 LP  0  0  0  0  0  0  0  0  0  0  0  0  # atno 17343 bound_to 10162
  156.8562  130.9476  151.3621 LP  0  0  0  0  0  0  0  0  0  0  0  0  # atno 17370 bound_to 10713
  157.6304  130.8724  149.9263 LP  0  0  0  0  0  0  0  0  0  0  0  0  # atno 17371 bound_to 10713
  140.6497  134.5080  157.5576 LP  0  0  0  0  0  0  0  0  0  0  0  0  # atno 17394 bound_to 11000
  139.9174  134.8218  156.1322 LP  0  0  0  0  0  0  0  0  0  0  0  0  # atno 17395 bound_to 11000

$$$$
