AV-unprocessed.smi:1152|AV-procd|sdf|4898|dock6
  -GOLD-   22720 3473D 1   1.00000     0.00000
 Structure written by MMmdl.
 31 32  0  0  0  0  0  0  0  0  2 V2000
  153.6809  136.9837  162.9714 C   0  0  0  0  0  0  0  0  0  0  0  0
  154.0534  137.7216  161.7732 N   0  0  0  0  0  0  0  0  0  0  0  0
  154.1085  137.2066  160.5375 C   0  0  0  0  0  0  0  0  0  0  0  0
  153.8283  136.0185  160.3665 O   0  0  0  0  0  0  0  0  0  0  0  0
  154.4845  138.1120  159.5980 N   0  5  0  0  0  0  0  0  0  0  0  0
  153.8068  139.2367  159.2751 C   0  0  0  0  0  0  0  0  0  0  0  0
  153.3645  139.5785  158.0508 N   0  0  0  0  0  0  0  0  0  0  0  0
  152.6988  140.7933  158.0194 N   0  0  0  0  0  0  0  0  0  0  0  0
  152.6403  141.3663  159.2235 C   0  0  0  0  0  0  0  0  0  0  0  0
  151.9765  142.6847  159.4723 C   0  0  0  0  0  0  0  0  0  0  0  0
  152.3820  143.7549  158.4403 C   0  0  0  0  0  0  0  0  0  0  0  0
  151.6530  145.0844  158.6955 C   0  0  0  0  0  0  0  0  0  0  0  0
  151.8715  145.5746  160.1361 C   0  0  0  0  0  0  0  0  0  0  0  0
  151.4372  144.5111  161.1576 C   0  0  0  0  0  0  0  0  0  0  0  0
  152.1646  143.1774  160.9204 C   0  0  0  0  0  0  0  0  0  0  0  0
  153.4104  140.4413  160.5005 S   0  0  0  0  0  0  0  0  0  0  0  0
  153.7193  137.6417  163.8393 H   0  0  0  0  0  0  0  0  0  0  0  0
  154.3652  136.1518  163.1429 H   0  0  0  0  0  0  0  0  0  0  0  0
  152.6672  136.5906  162.8852 H   0  0  0  0  0  0  0  0  0  0  0  0
  154.2879  138.6970  161.8855 H   0  0  0  0  0  0  0  0  0  0  0  0
  150.9072  142.5135  159.3388 H   0  0  0  0  0  0  0  0  0  0  0  0
  153.4595  143.9196  158.4828 H   0  0  0  0  0  0  0  0  0  0  0  0
  152.1621  143.4038  157.4315 H   0  0  0  0  0  0  0  0  0  0  0  0
  151.9999  145.8389  157.9890 H   0  0  0  0  0  0  0  0  0  0  0  0
  150.5854  144.9569  158.5116 H   0  0  0  0  0  0  0  0  0  0  0  0
  152.9248  145.8158  160.2846 H   0  0  0  0  0  0  0  0  0  0  0  0
  151.3160  146.4980  160.3023 H   0  0  0  0  0  0  0  0  0  0  0  0
  151.6332  144.8654  162.1699 H   0  0  0  0  0  0  0  0  0  0  0  0
  150.3595  144.3569  161.0878 H   0  0  0  0  0  0  0  0  0  0  0  0
  151.7947  142.4282  161.6213 H   0  0  0  0  0  0  0  0  0  0  0  0
  153.2272  143.3026  161.1329 H   0  0  0  0  0  0  0  0  0  0  0  0
  1  2  1  0  0  0  0
  1 17  1  0  0  0  0
  1 18  1  0  0  0  0
  1 19  1  0  0  0  0
  2  3  1  0  0  0  0
  2 20  1  0  0  0  0
  3  4  2  0  0  0  0
  3  5  1  0  0  0  0
  5  6  1  0  0  0  0
  6 16  1  0  0  0  0
  6  7  2  0  0  0  0
  7  8  1  0  0  0  0
  8  9  2  0  0  0  0
  9 10  1  0  0  0  0
  9 16  1  0  0  0  0
 10 15  1  0  0  0  0
 10 11  1  0  0  0  0
 10 21  1  0  0  0  0
 11 12  1  0  0  0  0
 11 22  1  0  0  0  0
 11 23  1  0  0  0  0
 12 13  1  0  0  0  0
 12 24  1  0  0  0  0
 12 25  1  0  0  0  0
 13 14  1  0  0  0  0
 13 26  1  0  0  0  0
 13 27  1  0  0  0  0
 14 15  1  0  0  0  0
 14 28  1  0  0  0  0
 14 29  1  0  0  0  0
 15 30  1  0  0  0  0
 15 31  1  0  0  0  0
M  CHG  1   5  -1
M  END
> <s_m_source_file>
AV-unprocessed.smi

> <i_m_source_file_index>
1152

> <i_lp_mmshare_version>
43012

> <i_f3d_flags>
0

> <s_epik_input>
W0NIM11bTkhdQyg9TylbTkhdYzFubmMoczEpW0NIXTJbQ0gyXVtDSDJdW0NIMl1bQ0gyXVtDSDJdMg==

> <s_epik_cmdline>
J2VwaWtfcHl0aG9uJywgJy1waCcsICc3LjAnLCAnLXRuJywgJzgnLCAnLW1hJywgJzIwMCcsICctbWV0YWxfYmluZGluZycsICctaW1hZScsICc8aW5maWxlLm1hZT4nLCAnLW9tYWUnLCAnPG91dGZpbGUubWFlPic=

> <r_lp_tautomer_probability>
1

> <r_epik_Ionization_Penalty>
4.62071

> <r_epik_Ionization_Penalty_Charging>
4.36597

> <r_epik_Ionization_Penalty_Neutral>
0.254736

> <r_epik_State_Penalty>
4.3656

> <r_epik_Charging_Adjusted_Penalty>
8.73157

> <i_epik_Tot_Q>
-1

> <i_epik_Tot_abs_Q>
1

> <r_epik_Metal_State_Penalty>
0.756176

> <b_epik_Metal_Only>
1

> <s_lp_Force_Field>
OPLS_2005

> <r_lp_Energy>
5.71757

> <b_lp_Chiralities_Consistent>
1

> <s_lp_Variant>
AV-unprocessed.smi:1152-2

> <Gold.Version>
5.8.1

> <Gold.Id.Protein>
6NUR|6NUR_protein|mol2

> <Gold.PLP.Fitness>
38.7544

> <Gold.PLP.PLP>
-35.4073

> <Gold.PLP.part.hbond>
-2.7492

> <Gold.PLP.part.metal>
0.0000

> <Gold.PLP.part.buried>
-2.1027

> <Gold.PLP.part.nonpolar>
-30.5117

> <Gold.PLP.part.repulsive>
0.0063

> <Gold.PLP.ligand.clash>
0.0000

> <Gold.PLP.ligand.torsion>
1.2823

> <Gold.PLP.Chemscore.Hbond>
1.9500

> <Gold.PLP.Chemscore.CHOScore>
0.0000

> <Gold.PLP.Chemscore.Metal>
0.0000

> <Gold.Chemscore.Hbonds>
donor molecule, donor type, donor heavy atom, donor atom, acceptor molecule, acceptor atom, score
      P1  H  6896  6907       L1     4  1.00
      P1  H  7997  8009       L1     7  0.85

> <Gold.PLP.Chemscore.Internal.Correction>
0.0617

> <Gold.Rescore>
     Score         DG    S(hbond)    S(metal)    S(lipo)     H(rot)  DE(clash)    DE(int)     intcor
     16.62     -17.85       1.04        0.00      98.01       1.00       0.02       1.21       ----

> <Gold.Chemscore.Fitness>
16.6196

> <Gold.Chemscore.DG>
-17.8501

> <Gold.Chemscore.ZeroCoef>
-5.4800

> <Gold.Chemscore.Hbond>
1.0369

> <Gold.Chemscore.Metal>
0.0000

> <Gold.Chemscore.Lipo>
98.0072

> <Gold.Chemscore.Internal_Hbond>
0.0000

> <Gold.Chemscore.DEClash>
0.0224

> <Gold.Chemscore.DEInternal>
1.2081

> <Gold.Chemscore.Rot>
1.0000

> <Gold.Chemscore.Internal.Correction>
   9.000000E+99

> <Gold.Chemscore.Hbonds>
donor molecule, donor type, donor heavy atom, donor atom, acceptor molecule, acceptor atom, score
      P1  H  6896  6907       L1     4  0.99
      P1  H  7997  8009       L1     7  0.10

> <Gold.Chemscore.Hbond.Weighted>
-3.4632

> <Gold.Chemscore.Metal.Weighted>
-0.0000

> <Gold.Chemscore.Lipo.Weighted>
-11.4668

> <Gold.Chemscore.Internal_Hbond.Weighted>
0.0000

> <Gold.Chemscore.DEClash.Weighted>
0.0224

> <Gold.Chemscore.DEInternal.Weighted>
1.2081

> <Gold.Chemscore.Rot.Weighted>
2.5600

> <Gold.Chemscore.Internal.Correction.Weighted>
   9.000000E+99

> <Gold.Protein.RotatedTorsions>
[ 6907 6896 6895 6894 ] final   48.63 input  -60.11 | X-H torsion
[ 7974 7965 7964 7962 ] final   91.15 input  175.53 | X-H torsion
[ 8008 7997 7996 7995 ] final  147.79 input   59.86 | X-H torsion
[ 10167 10162 10161 10158 ] final  -57.87 input  -65.29 | X-H torsion
[ 10718 10713 10712 10709 ] final   42.79 input   66.30 | X-H torsion
[ 10763 10752 10751 10750 ] final  -57.81 input  -60.55 | X-H torsion
[ 11005 11000 10999 10996 ] final  -42.80 input  -57.11 | X-H torsion

> <Gold.Protein.ActiveResidues>
 VAL166  LYS551  ARG553  GLY616  TRP617  ASP618  TYR619  PRO620  LYS621  CYS622 
 ASP623  PHE694  ASN695  SER759  ASP760  ASP761  ALA762  ILE779  LEU786  VAL792 
 PHE793  MET794  SER795  GLU796  ALA797  LYS798  CYS799  TRP800  GLU811  SER814 

> <Gold.Protein.RotatedAtoms>
  152.2817  134.7821  160.0395 H   0  0  0  0  0  0  0  0  0  0  0  0  # atno 6907 bound_to 6896
  151.8398  133.3416  159.3647 H   0  0  0  0  0  0  0  0  0  0  0  0  # atno 6908 bound_to 6896
  150.7192  134.5331  159.5754 H   0  0  0  0  0  0  0  0  0  0  0  0  # atno 6909 bound_to 6896
  145.5094  139.2277  143.2733 H   0  0  0  0  0  0  0  0  0  0  0  0  # atno 7974 bound_to 7965
  156.2813  140.2146  156.5594 H   0  0  0  0  0  0  0  0  0  0  0  0  # atno 8008 bound_to 7997
  154.7225  140.0502  157.0675 H   0  0  0  0  0  0  0  0  0  0  0  0  # atno 8009 bound_to 7997
  155.0459  140.3151  155.4711 H   0  0  0  0  0  0  0  0  0  0  0  0  # atno 8010 bound_to 7997
  140.6231  143.2427  151.5430 H   0  0  0  0  0  0  0  0  0  0  0  0  # atno 10167 bound_to 10162
  157.4088  130.7902  149.7412 H   0  0  0  0  0  0  0  0  0  0  0  0  # atno 10718 bound_to 10713
  154.2283  135.6365  153.5167 H   0  0  0  0  0  0  0  0  0  0  0  0  # atno 10763 bound_to 10752
  152.9954  135.5513  154.6040 H   0  0  0  0  0  0  0  0  0  0  0  0  # atno 10764 bound_to 10752
  154.5517  135.2902  155.0977 H   0  0  0  0  0  0  0  0  0  0  0  0  # atno 10765 bound_to 10752
  141.0340  133.6807  156.2644 H   0  0  0  0  0  0  0  0  0  0  0  0  # atno 11005 bound_to 11000
  146.2176  140.5900  142.9031 LP  0  0  0  0  0  0  0  0  0  0  0  0  # atno 17320 bound_to 7965
  144.7735  140.5690  143.6654 LP  0  0  0  0  0  0  0  0  0  0  0  0  # atno 17321 bound_to 7965
  139.5456  144.2529  152.1436 LP  0  0  0  0  0  0  0  0  0  0  0  0  # atno 17342 bound_to 10162
  140.1754  144.4895  150.6556 LP  0  0  0  0  0  0  0  0  0  0  0  0  # atno 17343 bound_to 10162
  155.9844  130.3991  150.3312 LP  0  0  0  0  0  0  0  0  0  0  0  0  # atno 17370 bound_to 10713
  157.1448  131.0306  151.2912 LP  0  0  0  0  0  0  0  0  0  0  0  0  # atno 17371 bound_to 10713
  140.6355  134.5220  157.5564 LP  0  0  0  0  0  0  0  0  0  0  0  0  # atno 17394 bound_to 11000
  139.9228  134.8115  156.1160 LP  0  0  0  0  0  0  0  0  0  0  0  0  # atno 17395 bound_to 11000

$$$$
