#       Name:                AV-unprocessed.smi:1831
#       Creating user name   scv26
#       Creation time:       Fri Mar 27 09:14:43 2020


#       File generated by GOLD software.
#

@<TRIPOS>MOLECULE
AV-unprocessed.smi:1831
    45    46     1
SMALL
NO_CHARGES


@<TRIPOS>ATOM
      1 ****        -5.8659   5.2123  -1.6146 C.3            1 S1                 0.0000
      2 ****        -4.8042   4.7013  -0.7016 C.2            1 S1                 0.0000
      3 ****        -4.2365   5.4576   0.2466 N.2            1 S1                 0.0000
      4 ****        -3.2742   4.7651   0.9696 N.2            1 S1                 0.0000
      5 ****        -3.1421   3.5051   0.5454 C.2            1 S1                 0.0000
      6 ****        -2.1927   2.6781   1.1964 N.am           1 S1                 0.0000
      7 ****        -1.9042   1.3920   0.9398 C.2            1 S1                 0.0000
      8 ****        -2.4292   0.7050   0.0638 O.2            1 S1                 0.0000
      9 ****        -0.9534   0.9336   1.7672 N.am           1 S1                 0.0000
     10 ****        -0.4248  -0.4274   1.7785 C.3            1 S1                 0.0000
     11 ****         0.8646  -0.5589   0.9444 C.3            1 S1                 0.0000
     12 ****         0.7032  -0.3099  -0.5542 C.3            1 S1                 0.0000
     13 ****         1.9099  -1.0307  -1.1428 C.3            1 S1                 0.0000
     14 ****         2.0576  -2.2591  -0.3313 N.4            1 S1                 1.0000
     15 ****         3.4131  -2.8788  -0.3373 C.3            1 S1                 0.0000
     16 ****         3.9343  -3.0986  -1.7705 C.3            1 S1                 0.0000
     17 ****         3.4126  -4.2219   0.4178 C.3            1 S1                 0.0000
     18 ****         1.5029  -1.9564   1.0135 C.3            1 S1                 0.0000
     19 ****        -4.1966   3.0531  -0.7940 S.3            1 S1                 0.0000
     20 ****        -6.2992   6.1332  -1.2229 H              1 S1                 0.0000
     21 ****        -6.6587   4.4713  -1.7175 H              1 S1                 0.0000
     22 ****        -5.4439   5.4141  -2.5992 H              1 S1                 0.0000
     23 ****        -1.6806   3.1167   1.9477 H              1 S1                 0.0000
     24 ****        -0.5796   1.5701   2.4562 H              1 S1                 0.0000
     25 ****        -0.2132  -0.6879   2.8160 H              1 S1                 0.0000
     26 ****        -1.1788  -1.1384   1.4359 H              1 S1                 0.0000
     27 ****         1.5978   0.1571   1.3201 H              1 S1                 0.0000
     28 ****        -0.2165  -0.7682  -0.9212 H              1 S1                 0.0000
     29 ****         0.6797   0.7500  -0.8100 H              1 S1                 0.0000
     30 ****         1.7781  -1.2553  -2.2018 H              1 S1                 0.0000
     31 ****         2.7978  -0.4054  -1.0336 H              1 S1                 0.0000
     32 ****         4.0992  -2.1987   0.1700 H              1 S1                 0.0000
     33 ****         4.9052  -3.5950  -1.7600 H              1 S1                 0.0000
     34 ****         4.0687  -2.1592  -2.3069 H              1 S1                 0.0000
     35 ****         3.2522  -3.7219  -2.3497 H              1 S1                 0.0000
     36 ****         4.4013  -4.6814   0.3967 H              1 S1                 0.0000
     37 ****         2.7123  -4.9274  -0.0309 H              1 S1                 0.0000
     38 ****         3.1412  -4.1065   1.4668 H              1 S1                 0.0000
     39 ****         2.2678  -1.9727   1.7908 H              1 S1                 0.0000
     40 ****         0.7676  -2.7233   1.2598 H              1 S1                 0.0000
     41 ****         1.4274  -2.9332  -0.7420 H              1 S1                 0.0000
     42 ****        -4.4783   6.4132   0.4150 LP             1 S1                 0.0000
     43 ****        -2.7434   5.1621   1.7184 LP             1 S1                 0.0000
     44 ****        -3.1330   1.1000  -0.5268 LP             1 S1                 0.0000
     45 ****        -2.1520  -0.2481  -0.0574 LP             1 S1                 0.0000
@<TRIPOS>BOND
    1    1    2 1     
    2    1   20 1     
    3    1   21 1     
    4    1   22 1     
    5    2   19 1     
    6    2    3 2     
    7    3    4 1     
    8    4    5 2     
    9    5    6 1     
   10    5   19 1     
   11    6    7 am    
   12    6   23 1     
   13    7    8 2     
   14    7    9 am    
   15    9   10 1     
   16    9   24 1     
   17   10   11 1     
   18   10   25 1     
   19   10   26 1     
   20   11   18 1     
   21   11   12 1     
   22   11   27 1     
   23   12   13 1     
   24   12   28 1     
   25   12   29 1     
   26   13   14 1     
   27   13   30 1     
   28   13   31 1     
   29   14   15 1     
   30   14   18 1     
   31   14   41 1     
   32   15   16 1     
   33   15   17 1     
   34   15   32 1     
   35   16   33 1     
   36   16   34 1     
   37   16   35 1     
   38   17   36 1     
   39   17   37 1     
   40   17   38 1     
   41   18   39 1     
   42   18   40 1     
   43    3   42 1     
   44    4   43 1     
   45    8   44 1     
   46    8   45 1     
@<TRIPOS>SUBSTRUCTURE
      1 S1             1
@<TRIPOS>SET
LONE_PAIRS      STATIC     ATOMS    <user>   **** ""
4 42 43 44 45
DONOR_HYDROGENS      STATIC     ATOMS    <user>   **** ""
3 23 24 41
ATOM$BLUE        STATIC     ATOMS    COLORGROUP SYSTEM
4 42 43 44 45
ATOM$RED        STATIC     ATOMS    COLORGROUP SYSTEM
3 23 24 41
