AV-unprocessed.smi:671|AV-procd|sdf|3282|dock6
  -GOLD-   22720 0243D 1   1.00000     0.00000
 Structure written by MMmdl.
 50 51  0  0  0  0  0  0  0  0  2 V2000
  147.8346  141.4803  153.7951 C   0  0  0  0  0  0  0  0  0  0  0  0
  148.9803  141.2596  154.7248 C   0  0  0  0  0  0  0  0  0  0  0  0
  149.5276  142.2266  155.5091 N   0  3  0  0  0  0  0  0  0  0  0  0
  150.5457  141.7240  156.2225 N   0  0  0  0  0  0  0  0  0  0  0  0
  151.2812  142.6015  157.1333 C   0  0  0  0  0  0  0  0  0  0  0  0
  150.7109  140.4013  155.9399 C   0  0  0  0  0  0  0  0  0  0  0  0
  151.7619  139.5316  156.5494 C   0  0  0  0  0  0  0  0  0  0  0  0
  149.7198  140.1020  154.9962 C   0  0  0  0  0  0  0  0  0  0  0  0
  149.4943  138.7557  154.3676 C   0  0  0  0  0  0  0  0  0  0  0  0
  148.2762  138.0028  154.9502 C   0  0  1  0  0  0  0  0  0  0  0  0
  147.0650  138.9204  155.1786 C   0  0  0  0  0  0  0  0  0  0  0  0
  147.8801  136.9125  154.0556 N   0  0  0  0  0  0  0  0  0  0  0  0
  146.8395  136.0681  154.1807 C   0  0  0  0  0  0  0  0  0  0  0  0
  146.0601  136.1349  155.1286 O   0  0  0  0  0  0  0  0  0  0  0  0
  146.7319  135.1640  153.1929 N   0  0  0  0  0  0  0  0  0  0  0  0
  145.6724  134.1688  153.0620 C   0  0  2  0  0  0  0  0  0  0  0  0
  146.2810  132.7563  152.9808 C   0  0  0  0  0  0  0  0  0  0  0  0
  146.0822  132.2921  151.5383 C   0  0  0  0  0  0  0  0  0  0  0  0
  144.7955  132.9847  151.1033 C   0  0  0  0  0  0  0  0  0  0  0  0
  144.8738  134.3706  151.7527 C   0  0  1  0  0  0  0  0  0  0  0  0
  143.4986  135.0214  151.9577 C   0  0  0  0  0  0  0  0  0  0  0  0
  148.1524  141.3224  152.7642 H   0  0  0  0  0  0  0  0  0  0  0  0
  147.4528  142.4974  153.8891 H   0  0  0  0  0  0  0  0  0  0  0  0
  147.0254  140.7859  154.0201 H   0  0  0  0  0  0  0  0  0  0  0  0
  152.3490  142.5100  156.9323 H   0  0  0  0  0  0  0  0  0  0  0  0
  151.0755  142.2998  158.1606 H   0  0  0  0  0  0  0  0  0  0  0  0
  150.9743  143.6386  156.9896 H   0  0  0  0  0  0  0  0  0  0  0  0
  151.5319  138.4778  156.3977 H   0  0  0  0  0  0  0  0  0  0  0  0
  151.8321  139.7149  157.6217 H   0  0  0  0  0  0  0  0  0  0  0  0
  152.7305  139.7414  156.0956 H   0  0  0  0  0  0  0  0  0  0  0  0
  149.3728  138.8588  153.2886 H   0  0  0  0  0  0  0  0  0  0  0  0
  150.3950  138.1542  154.4946 H   0  0  0  0  0  0  0  0  0  0  0  0
  148.5433  137.5820  155.9207 H   0  0  0  0  0  0  0  0  0  0  0  0
  147.2918  139.7101  155.8947 H   0  0  0  0  0  0  0  0  0  0  0  0
  146.2187  138.3589  155.5759 H   0  0  0  0  0  0  0  0  0  0  0  0
  146.7432  139.3928  154.2502 H   0  0  0  0  0  0  0  0  0  0  0  0
  148.4804  136.7633  153.2570 H   0  0  0  0  0  0  0  0  0  0  0  0
  147.4273  135.1810  152.4620 H   0  0  0  0  0  0  0  0  0  0  0  0
  145.0140  134.2106  153.9319 H   0  0  0  0  0  0  0  0  0  0  0  0
  147.3286  132.7153  153.2834 H   0  0  0  0  0  0  0  0  0  0  0  0
  145.7311  132.0919  153.6488 H   0  0  0  0  0  0  0  0  0  0  0  0
  146.9124  132.6355  150.9203 H   0  0  0  0  0  0  0  0  0  0  0  0
  146.0267  131.2068  151.4502 H   0  0  0  0  0  0  0  0  0  0  0  0
  144.6932  133.0358  150.0189 H   0  0  0  0  0  0  0  0  0  0  0  0
  143.9384  132.4329  151.4921 H   0  0  0  0  0  0  0  0  0  0  0  0
  145.4526  135.0055  151.0788 H   0  0  0  0  0  0  0  0  0  0  0  0
  142.8684  134.4206  152.6141 H   0  0  0  0  0  0  0  0  0  0  0  0
  142.9761  135.1377  151.0079 H   0  0  0  0  0  0  0  0  0  0  0  0
  143.5966  136.0109  152.4041 H   0  0  0  0  0  0  0  0  0  0  0  0
  149.2621  143.2000  155.5898 H   0  0  0  0  0  0  0  0  0  0  0  0
  1  2  1  0  0  0  0
  1 22  1  0  0  0  0
  1 23  1  0  0  0  0
  1 24  1  0  0  0  0
  2  8  1  0  0  0  0
  2  3  2  0  0  0  0
  3  4  1  0  0  0  0
  3 50  1  0  0  0  0
  4  5  1  0  0  0  0
  4  6  1  0  0  0  0
  5 25  1  0  0  0  0
  5 26  1  0  0  0  0
  5 27  1  0  0  0  0
  6  7  1  0  0  0  0
  6  8  2  0  0  0  0
  7 28  1  0  0  0  0
  7 29  1  0  0  0  0
  7 30  1  0  0  0  0
  8  9  1  0  0  0  0
  9 10  1  0  0  0  0
  9 31  1  0  0  0  0
  9 32  1  0  0  0  0
 10 11  1  0  0  0  0
 10 12  1  0  0  0  0
 10 33  1  0  0  0  0
 11 34  1  0  0  0  0
 11 35  1  0  0  0  0
 11 36  1  0  0  0  0
 12 13  1  0  0  0  0
 12 37  1  0  0  0  0
 13 14  2  0  0  0  0
 13 15  1  0  0  0  0
 15 16  1  0  0  0  0
 15 38  1  0  0  0  0
 16 20  1  0  0  0  0
 16 17  1  0  0  0  0
 16 39  1  0  0  0  0
 17 18  1  0  0  0  0
 17 40  1  0  0  0  0
 17 41  1  0  0  0  0
 18 19  1  0  0  0  0
 18 42  1  0  0  0  0
 18 43  1  0  0  0  0
 19 20  1  0  0  0  0
 19 44  1  0  0  0  0
 19 45  1  0  0  0  0
 20 21  1  0  0  0  0
 20 46  1  0  0  0  0
 21 47  1  0  0  0  0
 21 48  1  0  0  0  0
 21 49  1  0  0  0  0
M  CHG  1   3   1
M  END
> <s_m_source_file>
AV-unprocessed.smi

> <i_m_source_file_index>
671

> <i_lp_mmshare_version>
43012

> <i_f3d_flags>
0

> <s_epik_input>
W0NIM11jMW5uKFtDSDNdKWMoW0NIM10pYzFbQ0gyXVtDQEhdKFtDSDNdKVtOSF1DKD1PKVtOSF1bQ0BASF0yW0NIMl1bQ0gyXVtDSDJdW0NASF0yW0NIM10=

> <s_epik_cmdline>
J2VwaWtfcHl0aG9uJywgJy1waCcsICc3LjAnLCAnLXRuJywgJzgnLCAnLW1hJywgJzIwMCcsICctbWV0YWxfYmluZGluZycsICctaW1hZScsICc8aW5maWxlLm1hZT4nLCAnLW9tYWUnLCAnPG91dGZpbGUubWFlPic=

> <r_lp_tautomer_probability>
1

> <r_epik_Ionization_Penalty>
2.28705

> <r_epik_Ionization_Penalty_Charging>
2.28698

> <r_epik_Ionization_Penalty_Neutral>
6.23157e-05

> <r_epik_State_Penalty>
2.43671

> <r_epik_Charging_Adjusted_Penalty>
4.72369

> <i_epik_Tot_Q>
1

> <i_epik_Tot_abs_Q>
1

> <r_epik_Metal_State_Penalty>
2.44911

> <b_epik_Metal_Only>
0

> <s_lp_Force_Field>
OPLS_2005

> <r_lp_Energy>
34.579

> <b_lp_Chiralities_Consistent>
1

> <s_lp_Variant>
AV-unprocessed.smi:671-10

> <Gold.Version>
5.8.1

> <Gold.Id.Protein>
6NUR|6NUR_protein|mol2

> <Gold.PLP.Fitness>
45.5517

> <Gold.PLP.PLP>
-34.8379

> <Gold.PLP.part.hbond>
-2.8966

> <Gold.PLP.part.metal>
0.0000

> <Gold.PLP.part.buried>
-6.0692

> <Gold.PLP.part.nonpolar>
-27.3408

> <Gold.PLP.part.repulsive>
0.2119

> <Gold.PLP.ligand.clash>
0.0000

> <Gold.PLP.ligand.torsion>
0.3985

> <Gold.PLP.Chemscore.Hbond>
3.8233

> <Gold.PLP.Chemscore.CHOScore>
0.0000

> <Gold.PLP.Chemscore.Metal>
0.0000

> <Gold.Chemscore.Hbonds>
donor molecule, donor type, donor heavy atom, donor atom, acceptor molecule, acceptor atom, score
      L1  H     3    50       P1  8028  2.00
      L1  H    12    37       P1  7948  1.00
      L1  H    15    38       P1  7948  0.85

> <Gold.PLP.Chemscore.Internal.Correction>
0.0412

> <Gold.Rescore>
     Score         DG    S(hbond)    S(metal)    S(lipo)     H(rot)  DE(clash)    DE(int)     intcor
     20.01     -20.53       2.83        0.00      80.92       1.51       0.03       0.49       ----

> <Gold.Chemscore.Fitness>
20.0125

> <Gold.Chemscore.DG>
-20.5316

> <Gold.Chemscore.ZeroCoef>
-5.4800

> <Gold.Chemscore.Hbond>
2.8260

> <Gold.Chemscore.Metal>
0.0000

> <Gold.Chemscore.Lipo>
80.9195

> <Gold.Chemscore.Internal_Hbond>
0.0000

> <Gold.Chemscore.DEClash>
0.0285

> <Gold.Chemscore.DEInternal>
0.4906

> <Gold.Chemscore.Rot>
1.5057

> <Gold.Chemscore.Internal.Correction>
   9.000000E+99

> <Gold.Chemscore.Hbonds>
donor molecule, donor type, donor heavy atom, donor atom, acceptor molecule, acceptor atom, score
      L1  H     3    50       P1  8028  0.97
      L1  H    12    37       P1  7948  0.96
      L1  H    15    38       P1  7948  0.83

> <Gold.Chemscore.Hbond.Weighted>
-9.4387

> <Gold.Chemscore.Metal.Weighted>
-0.0000

> <Gold.Chemscore.Lipo.Weighted>
-9.4676

> <Gold.Chemscore.Internal_Hbond.Weighted>
0.0000

> <Gold.Chemscore.DEClash.Weighted>
0.0285

> <Gold.Chemscore.DEInternal.Weighted>
0.4906

> <Gold.Chemscore.Rot.Weighted>
3.8547

> <Gold.Chemscore.Internal.Correction.Weighted>
   9.000000E+99

> <Gold.Protein.RotatedTorsions>
[ 6907 6896 6895 6894 ] final  113.07 input  -60.11 | X-H torsion
[ 7974 7965 7964 7962 ] final  116.97 input  175.53 | X-H torsion
[ 8008 7997 7996 7995 ] final    5.98 input   59.86 | X-H torsion
[ 10167 10162 10161 10158 ] final -171.03 input  -65.29 | X-H torsion
[ 10718 10713 10712 10709 ] final  -77.02 input   66.30 | X-H torsion
[ 10763 10752 10751 10750 ] final  175.91 input  -60.55 | X-H torsion
[ 11005 11000 10999 10996 ] final  155.69 input  -57.11 | X-H torsion

> <Gold.Protein.ActiveResidues>
 VAL166  LYS551  ARG553  GLY616  TRP617  ASP618  TYR619  PRO620  LYS621  CYS622 
 ASP623  PHE694  ASN695  SER759  ASP760  ASP761  ALA762  ILE779  LEU786  VAL792 
 PHE793  MET794  SER795  GLU796  ALA797  LYS798  CYS799  TRP800  GLU811  SER814 

> <Gold.Protein.RotatedAtoms>
  152.4881  133.8427  159.7160 H   0  0  0  0  0  0  0  0  0  0  0  0  # atno 6907 bound_to 6896
  150.8986  133.7139  159.2892 H   0  0  0  0  0  0  0  0  0  0  0  0  # atno 6908 bound_to 6896
  151.4588  135.1040  159.9771 H   0  0  0  0  0  0  0  0  0  0  0  0  # atno 6909 bound_to 6896
  145.1730  139.3091  143.4457 H   0  0  0  0  0  0  0  0  0  0  0  0  # atno 7974 bound_to 7965
  154.7352  140.2738  155.6421 H   0  0  0  0  0  0  0  0  0  0  0  0  # atno 8008 bound_to 7997
  156.2860  140.2708  156.1989 H   0  0  0  0  0  0  0  0  0  0  0  0  # atno 8009 bound_to 7997
  155.0330  140.0371  157.2471 H   0  0  0  0  0  0  0  0  0  0  0  0  # atno 8010 bound_to 7997
  139.5826  144.1388  152.1535 H   0  0  0  0  0  0  0  0  0  0  0  0  # atno 10167 bound_to 10162
  156.0157  130.4480  150.3282 H   0  0  0  0  0  0  0  0  0  0  0  0  # atno 10718 bound_to 10713
  154.4740  135.2772  155.1621 H   0  0  0  0  0  0  0  0  0  0  0  0  # atno 10763 bound_to 10752
  154.3358  135.6180  153.5576 H   0  0  0  0  0  0  0  0  0  0  0  0  # atno 10764 bound_to 10752
  152.9867  135.5776  154.5127 H   0  0  0  0  0  0  0  0  0  0  0  0  # atno 10765 bound_to 10752
  140.1605  134.8613  157.2568 H   0  0  0  0  0  0  0  0  0  0  0  0  # atno 11005 bound_to 11000
  146.3465  140.1883  142.8589 LP  0  0  0  0  0  0  0  0  0  0  0  0  # atno 17320 bound_to 7965
  145.0213  140.8796  143.5165 LP  0  0  0  0  0  0  0  0  0  0  0  0  # atno 17321 bound_to 7965
  140.0945  144.5592  150.7031 LP  0  0  0  0  0  0  0  0  0  0  0  0  # atno 17342 bound_to 10162
  140.7103  143.2499  151.4602 LP  0  0  0  0  0  0  0  0  0  0  0  0  # atno 17343 bound_to 10162
  157.1380  131.0289  151.2940 LP  0  0  0  0  0  0  0  0  0  0  0  0  # atno 17370 bound_to 10713
  157.4495  130.7590  149.7139 LP  0  0  0  0  0  0  0  0  0  0  0  0  # atno 17371 bound_to 10713
  140.2496  134.3699  155.7447 LP  0  0  0  0  0  0  0  0  0  0  0  0  # atno 17394 bound_to 11000
  141.2209  133.7309  156.8915 LP  0  0  0  0  0  0  0  0  0  0  0  0  # atno 17395 bound_to 11000

$$$$
