AV-unprocessed.smi:2631|AV-procd|sdf|10248|dock10
  -GOLD-   2272014263D 1   1.00000     0.00000
 Structure written by MMmdl.
 35 36  0  0  0  0  0  0  0  0  1 V2000
  147.4365  136.1145  162.1340 C   0  0  0  0  0  0  0  0  0  0  0  0
  147.5932  137.0572  161.0889 O   0  0  0  0  0  0  0  0  0  0  0  0
  148.3231  136.5367  159.9900 C   0  0  0  0  0  0  0  0  0  0  0  0
  148.1316  137.4511  158.7685 C   0  0  0  0  0  0  0  0  0  0  0  0
  149.3847  137.9148  158.2069 N   0  0  0  0  0  0  0  0  0  0  0  0
  149.6553  139.2532  157.9097 C   0  0  0  0  0  0  0  0  0  0  0  0
  148.6904  140.2111  158.1708 N   0  0  0  0  0  0  0  0  0  0  0  0
  150.8392  139.6203  157.3540 C   0  0  0  0  0  0  0  0  0  0  0  0
  151.2925  141.2783  156.9035 S   0  0  0  0  0  0  0  0  0  0  0  0
  151.7344  141.9450  158.4749 C   0  0  0  0  0  0  0  0  0  0  0  0
  151.1789  143.1677  158.9023 C   0  0  0  0  0  0  0  0  0  0  0  0
  151.5403  143.7034  160.1538 C   0  0  0  0  0  0  0  0  0  0  0  0
  152.4551  143.0167  160.9769 C   0  0  0  0  0  0  0  0  0  0  0  0
  152.8991  143.6744  162.5089 Cl  0  0  0  0  0  0  0  0  0  0  0  0
  153.0082  141.7933  160.5485 C   0  0  0  0  0  0  0  0  0  0  0  0
  152.6478  141.2564  159.2972 C   0  0  0  0  0  0  0  0  0  0  0  0
  151.8921  138.6515  157.0414 C   0  0  0  0  0  0  0  0  0  0  0  0
  152.9948  138.8953  156.5521 O   0  0  0  0  0  0  0  0  0  0  0  0
  151.5515  137.3346  157.3487 N   0  0  0  0  0  0  0  0  0  0  0  0
  150.3452  136.9156  157.9074 C   0  0  0  0  0  0  0  0  0  0  0  0
  150.1604  135.7154  158.1125 O   0  0  0  0  0  0  0  0  0  0  0  0
  152.2370  136.6220  157.1443 H   0  0  0  0  0  0  0  0  0  0  0  0
  146.8736  136.5651  162.9512 H   0  0  0  0  0  0  0  0  0  0  0  0
  148.4032  135.7955  162.5252 H   0  0  0  0  0  0  0  0  0  0  0  0
  146.8887  135.2351  161.7930 H   0  0  0  0  0  0  0  0  0  0  0  0
  149.3823  136.4895  160.2468 H   0  0  0  0  0  0  0  0  0  0  0  0
  148.0000  135.5193  159.7643 H   0  0  0  0  0  0  0  0  0  0  0  0
  147.5817  136.9473  157.9745 H   0  0  0  0  0  0  0  0  0  0  0  0
  147.5356  138.3322  159.0125 H   0  0  0  0  0  0  0  0  0  0  0  0
  147.7955  139.9677  158.5707 H   0  0  0  0  0  0  0  0  0  0  0  0
  148.8735  141.1969  158.0485 H   0  0  0  0  0  0  0  0  0  0  0  0
  150.4798  143.6985  158.2729 H   0  0  0  0  0  0  0  0  0  0  0  0
  151.1160  144.6416  160.4801 H   0  0  0  0  0  0  0  0  0  0  0  0
  153.7102  141.2663  161.1778 H   0  0  0  0  0  0  0  0  0  0  0  0
  153.0759  140.3205  158.9692 H   0  0  0  0  0  0  0  0  0  0  0  0
  1  2  1  0  0  0  0
  1 23  1  0  0  0  0
  1 24  1  0  0  0  0
  1 25  1  0  0  0  0
  2  3  1  0  0  0  0
  3  4  1  0  0  0  0
  3 26  1  0  0  0  0
  3 27  1  0  0  0  0
  4  5  1  0  0  0  0
  4 28  1  0  0  0  0
  4 29  1  0  0  0  0
  5 20  1  0  0  0  0
  5  6  1  0  0  0  0
  6  7  1  0  0  0  0
  6  8  2  0  0  0  0
  7 30  1  0  0  0  0
  7 31  1  0  0  0  0
  8  9  1  0  0  0  0
  8 17  1  0  0  0  0
  9 10  1  0  0  0  0
 10 16  1  0  0  0  0
 10 11  2  0  0  0  0
 11 12  1  0  0  0  0
 11 32  1  0  0  0  0
 12 13  2  0  0  0  0
 12 33  1  0  0  0  0
 13 14  1  0  0  0  0
 13 15  1  0  0  0  0
 15 16  2  0  0  0  0
 15 34  1  0  0  0  0
 16 35  1  0  0  0  0
 17 18  2  0  0  0  0
 17 19  1  0  0  0  0
 19 22  1  0  0  0  0
 19 20  1  0  0  0  0
 20 21  2  0  0  0  0
M  END
> <s_m_source_file>
AV-unprocessed.smi

> <i_m_source_file_index>
2631

> <i_lp_mmshare_version>
43012

> <i_f3d_flags>
0

> <s_epik_input>
W0NIM11PW0NIMl1bQ0gyXW4xYyhbTkgyXSljKGMoPU8pW25IXWMxPU8pU2MyW2NIXVtjSF1jKENsKVtjSF1bY0hdMg==

> <s_epik_cmdline>
J2VwaWtfcHl0aG9uJywgJy1waCcsICc3LjAnLCAnLXRuJywgJzgnLCAnLW1hJywgJzIwMCcsICctbWV0YWxfYmluZGluZycsICctaW1hZScsICc8aW5maWxlLm1hZT4nLCAnLW9tYWUnLCAnPG91dGZpbGUubWFlPic=

> <r_lp_tautomer_probability>
1

> <r_epik_Ionization_Penalty>
9.0495e-05

> <r_epik_Ionization_Penalty_Charging>
7.40646e-05

> <r_epik_Ionization_Penalty_Neutral>
1.64304e-05

> <r_epik_State_Penalty>
-0

> <r_epik_Charging_Adjusted_Penalty>
7.40646e-05

> <i_epik_Tot_Q>
0

> <i_epik_Tot_abs_Q>
0

> <r_epik_Metal_State_Penalty>
0.0697747

> <b_epik_Metal_Only>
0

> <s_epik_Chemistry_Notes>
This compound has an imine and may undergo hydrolysis.

> <s_lp_Force_Field>
OPLS_2005

> <r_lp_Energy>
18.0154

> <b_lp_Chiralities_Consistent>
1

> <s_lp_Variant>
AV-unprocessed.smi:2631-1

> <Gold.Version>
5.8.1

> <Gold.Id.Protein>
6NUR|6NUR_protein|mol2

> <Gold.PLP.Fitness>
46.1045

> <Gold.PLP.PLP>
-36.8335

> <Gold.PLP.part.hbond>
-4.0000

> <Gold.PLP.part.metal>
0.0000

> <Gold.PLP.part.buried>
-6.0300

> <Gold.PLP.part.nonpolar>
-28.1111

> <Gold.PLP.part.repulsive>
0.3086

> <Gold.PLP.ligand.clash>
0.0000

> <Gold.PLP.ligand.torsion>
0.8380

> <Gold.PLP.Chemscore.Hbond>
3.6400

> <Gold.PLP.Chemscore.CHOScore>
0.0000

> <Gold.PLP.Chemscore.Metal>
0.0000

> <Gold.Chemscore.Hbonds>
donor molecule, donor type, donor heavy atom, donor atom, acceptor molecule, acceptor atom, score
      P1  H  6896  6909       L1    21  0.85
      P1  H  6931  6943       L1     2  0.89
      P1  H  6934  6947       L1     2  0.94
      P1  H  7997  8008       L1    18  1.00

> <Gold.PLP.Chemscore.Internal.Correction>
0.0269

> <Gold.Rescore>
     Score         DG    S(hbond)    S(metal)    S(lipo)     H(rot)  DE(clash)    DE(int)     intcor
     18.93     -21.11       2.71        0.00     101.47       2.07       0.27       1.90       ----

> <Gold.Chemscore.Fitness>
18.9302

> <Gold.Chemscore.DG>
-21.1086

> <Gold.Chemscore.ZeroCoef>
-5.4800

> <Gold.Chemscore.Hbond>
2.7097

> <Gold.Chemscore.Metal>
0.0000

> <Gold.Chemscore.Lipo>
101.4734

> <Gold.Chemscore.Internal_Hbond>
0.0000

> <Gold.Chemscore.DEClash>
0.2746

> <Gold.Chemscore.DEInternal>
1.9038

> <Gold.Chemscore.Rot>
2.0680

> <Gold.Chemscore.Internal.Correction>
   9.000000E+99

> <Gold.Chemscore.Hbonds>
donor molecule, donor type, donor heavy atom, donor atom, acceptor molecule, acceptor atom, score
      P1  H  6896  6909       L1    21  0.83
      P1  H  6931  6943       L1     2  0.05
      P1  H  6934  6947       L1     2  0.76
      P1  H  7997  8008       L1    18  1.00

> <Gold.Chemscore.Hbond.Weighted>
-9.0503

> <Gold.Chemscore.Metal.Weighted>
-0.0000

> <Gold.Chemscore.Lipo.Weighted>
-11.8724

> <Gold.Chemscore.Internal_Hbond.Weighted>
0.0000

> <Gold.Chemscore.DEClash.Weighted>
0.2746

> <Gold.Chemscore.DEInternal.Weighted>
1.9038

> <Gold.Chemscore.Rot.Weighted>
5.2941

> <Gold.Chemscore.Internal.Correction.Weighted>
   9.000000E+99

> <Gold.Protein.RotatedTorsions>
[ 6907 6896 6895 6894 ] final   61.55 input  -60.11 | X-H torsion
[ 7974 7965 7964 7962 ] final  -37.48 input  175.53 | X-H torsion
[ 8008 7997 7996 7995 ] final  -51.51 input   59.86 | X-H torsion
[ 10167 10162 10161 10158 ] final  -97.57 input  -65.29 | X-H torsion
[ 10718 10713 10712 10709 ] final  104.18 input   66.30 | X-H torsion
[ 10763 10752 10751 10750 ] final  -92.28 input  -60.55 | X-H torsion
[ 11005 11000 10999 10996 ] final  176.11 input  -57.11 | X-H torsion

> <Gold.Protein.ActiveResidues>
 VAL166  LYS551  ARG553  GLY616  TRP617  ASP618  TYR619  PRO620  LYS621  CYS622 
 ASP623  PHE694  ASN695  SER759  ASP760  ASP761  ALA762  ILE779  LEU786  VAL792 
 PHE793  MET794  SER795  GLU796  ALA797  LYS798  CYS799  TRP800  GLU811  SER814 

> <Gold.Protein.RotatedAtoms>
  152.4098  134.6144  160.0034 H   0  0  0  0  0  0  0  0  0  0  0  0  # atno 6907 bound_to 6896
  151.6325  133.3325  159.3120 H   0  0  0  0  0  0  0  0  0  0  0  0  # atno 6908 bound_to 6896
  150.7989  134.7110  159.6648 H   0  0  0  0  0  0  0  0  0  0  0  0  # atno 6909 bound_to 6896
  146.0571  140.6401  142.9014 H   0  0  0  0  0  0  0  0  0  0  0  0  # atno 7974 bound_to 7965
  154.4084  140.1246  156.4840 H   0  0  0  0  0  0  0  0  0  0  0  0  # atno 8008 bound_to 7997
  155.7057  140.3494  155.4932 H   0  0  0  0  0  0  0  0  0  0  0  0  # atno 8009 bound_to 7997
  155.9346  140.1076  157.1095 H   0  0  0  0  0  0  0  0  0  0  0  0  # atno 8010 bound_to 7997
  140.2820  143.3276  152.0432 H   0  0  0  0  0  0  0  0  0  0  0  0  # atno 10167 bound_to 10162
  157.6749  131.0797  150.5667 H   0  0  0  0  0  0  0  0  0  0  0  0  # atno 10718 bound_to 10713
  154.6845  135.5237  153.8308 H   0  0  0  0  0  0  0  0  0  0  0  0  # atno 10763 bound_to 10752
  153.0588  135.6560  154.0522 H   0  0  0  0  0  0  0  0  0  0  0  0  # atno 10764 bound_to 10752
  154.0405  135.2977  155.3335 H   0  0  0  0  0  0  0  0  0  0  0  0  # atno 10765 bound_to 10752
  140.3695  134.7042  157.4383 H   0  0  0  0  0  0  0  0  0  0  0  0  # atno 11005 bound_to 11000
  144.7154  140.4190  143.7048 LP  0  0  0  0  0  0  0  0  0  0  0  0  # atno 17320 bound_to 7965
  145.6625  139.1584  143.2800 LP  0  0  0  0  0  0  0  0  0  0  0  0  # atno 17321 bound_to 7965
  139.4960  144.6585  151.6518 LP  0  0  0  0  0  0  0  0  0  0  0  0  # atno 17342 bound_to 10162
  140.5804  143.9956  150.6265 LP  0  0  0  0  0  0  0  0  0  0  0  0  # atno 17343 bound_to 10162
  156.5969  130.4344  149.5913 LP  0  0  0  0  0  0  0  0  0  0  0  0  # atno 17370 bound_to 10713
  156.2538  130.6922  151.1669 LP  0  0  0  0  0  0  0  0  0  0  0  0  # atno 17371 bound_to 10713
  140.0563  134.6059  155.8801 LP  0  0  0  0  0  0  0  0  0  0  0  0  # atno 17394 bound_to 11000
  141.1959  133.6589  156.5665 LP  0  0  0  0  0  0  0  0  0  0  0  0  # atno 17395 bound_to 11000

$$$$
