AV-unprocessed.smi:2591|AV-procd|sdf|10156|dock1
  -GOLD-   2272014163D 1   1.00000     0.00000
 Structure written by MMmdl.
 35 36  0  0  0  0  0  0  0  0  2 V2000
  145.8272  142.5719  154.1386 C   0  0  0  0  0  0  0  0  0  0  0  0
  146.8937  141.5480  154.1517 N   0  3  2  0  0  0  0  0  0  0  0  0
  146.3908  140.2030  154.5105 C   0  0  0  0  0  0  0  0  0  0  0  0
  147.5349  139.1779  154.4612 C   0  0  0  0  0  0  0  0  0  0  0  0
  148.5837  139.5904  155.3291 O   0  0  0  0  0  0  0  0  0  0  0  0
  149.1436  140.8468  154.9533 C   0  0  2  0  0  0  0  0  0  0  0  0
  150.3271  141.1420  155.8855 C   0  0  0  0  0  0  0  0  0  0  0  0
  151.2748  140.3580  155.9522 O   0  0  0  0  0  0  0  0  0  0  0  0
  150.2257  142.2760  156.6050 N   0  0  0  0  0  0  0  0  0  0  0  0
  151.1509  142.8126  157.5394 C   0  0  0  0  0  0  0  0  0  0  0  0
  151.9590  141.8579  158.1960 C   0  0  0  0  0  0  0  0  0  0  0  0
  152.9125  142.2833  159.1464 C   0  0  0  0  0  0  0  0  0  0  0  0
  153.8081  141.2807  159.8578 C   0  0  0  0  0  0  0  0  0  0  0  0
  153.5014  140.0334  159.4995 F   0  0  0  0  0  0  0  0  0  0  0  0
  155.0909  141.4971  159.5645 F   0  0  0  0  0  0  0  0  0  0  0  0
  153.6424  141.4031  161.1741 F   0  0  0  0  0  0  0  0  0  0  0  0
  153.0283  143.6643  159.4037 C   0  0  0  0  0  0  0  0  0  0  0  0
  152.1834  144.5472  158.7074 C   0  0  0  0  0  0  0  0  0  0  0  0
  151.2707  144.1370  157.8026 N   0  0  0  0  0  0  0  0  0  0  0  0
  148.0392  141.9288  155.0093 C   0  0  0  0  0  0  0  0  0  0  0  0
  145.3989  142.7048  155.1329 H   0  0  0  0  0  0  0  0  0  0  0  0
  145.0265  142.2850  153.4563 H   0  0  0  0  0  0  0  0  0  0  0  0
  146.2212  143.5324  153.8048 H   0  0  0  0  0  0  0  0  0  0  0  0
  145.9550  140.2286  155.5106 H   0  0  0  0  0  0  0  0  0  0  0  0
  145.5981  139.9086  153.8215 H   0  0  0  0  0  0  0  0  0  0  0  0
  147.1767  138.1996  154.7820 H   0  0  0  0  0  0  0  0  0  0  0  0
  147.9122  139.0613  153.4441 H   0  0  0  0  0  0  0  0  0  0  0  0
  149.5358  140.7756  153.9369 H   0  0  0  0  0  0  0  0  0  0  0  0
  149.3867  142.8196  156.4653 H   0  0  0  0  0  0  0  0  0  0  0  0
  151.8529  140.8067  157.9695 H   0  0  0  0  0  0  0  0  0  0  0  0
  153.7476  144.0430  160.1146 H   0  0  0  0  0  0  0  0  0  0  0  0
  152.2428  145.6118  158.8791 H   0  0  0  0  0  0  0  0  0  0  0  0
  148.4352  142.8883  154.6728 H   0  0  0  0  0  0  0  0  0  0  0  0
  147.6897  142.0656  156.0347 H   0  0  0  0  0  0  0  0  0  0  0  0
  147.2456  141.4841  153.2070 H   0  0  0  0  0  0  0  0  0  0  0  0
  1  2  1  0  0  0  0
  1 21  1  0  0  0  0
  1 22  1  0  0  0  0
  1 23  1  0  0  0  0
  2 20  1  0  0  0  0
  2  3  1  0  0  0  0
  2 35  1  0  0  0  0
  3  4  1  0  0  0  0
  3 24  1  0  0  0  0
  3 25  1  0  0  0  0
  4  5  1  0  0  0  0
  4 26  1  0  0  0  0
  4 27  1  0  0  0  0
  5  6  1  0  0  0  0
  6  7  1  0  0  0  0
  6 20  1  0  0  0  0
  6 28  1  0  0  0  0
  7  8  2  0  0  0  0
  7  9  1  0  0  0  0
  9 10  1  0  0  0  0
  9 29  1  0  0  0  0
 10 19  1  0  0  0  0
 10 11  2  0  0  0  0
 11 12  1  0  0  0  0
 11 30  1  0  0  0  0
 12 13  1  0  0  0  0
 12 17  2  0  0  0  0
 13 14  1  0  0  0  0
 13 15  1  0  0  0  0
 13 16  1  0  0  0  0
 17 18  1  0  0  0  0
 17 31  1  0  0  0  0
 18 19  2  0  0  0  0
 18 32  1  0  0  0  0
 20 33  1  0  0  0  0
 20 34  1  0  0  0  0
M  CHG  1   2   1
M  END
> <s_m_source_file>
AV-unprocessed.smi

> <i_m_source_file_index>
2591

> <i_lp_mmshare_version>
43012

> <i_f3d_flags>
0

> <s_epik_input>
W0NIM11OMVtDSDJdW0NIMl1PW0NASF0oW0NIMl0xKUMoPU8pW05IXWMyW2NIXWMoQyhGKShGKUYpW2NIXVtjSF1uMg==

> <s_epik_cmdline>
J2VwaWtfcHl0aG9uJywgJy1waCcsICc3LjAnLCAnLXRuJywgJzgnLCAnLW1hJywgJzIwMCcsICctbWV0YWxfYmluZGluZycsICctaW1hZScsICc8aW5maWxlLm1hZT4nLCAnLW9tYWUnLCAnPG91dGZpbGUubWFlPic=

> <r_epik_Ionization_Penalty>
0.314028

> <r_epik_Ionization_Penalty_Charging>
0.314023

> <r_epik_Ionization_Penalty_Neutral>
5.2303e-06

> <r_epik_State_Penalty>
0.308208

> <r_epik_Charging_Adjusted_Penalty>
0.62223

> <i_epik_Tot_Q>
1

> <i_epik_Tot_abs_Q>
1

> <r_epik_Metal_State_Penalty>
0.308209

> <b_epik_Metal_Only>
0

> <s_lp_Force_Field>
OPLS_2005

> <r_lp_Energy>
17.9232

> <b_lp_Chiralities_Consistent>
1

> <s_lp_Variant>
AV-unprocessed.smi:2591-4

> <Gold.Version>
5.8.1

> <Gold.Id.Protein>
6NUR|6NUR_protein|mol2

> <Gold.PLP.Fitness>
43.6702

> <Gold.PLP.PLP>
-41.8127

> <Gold.PLP.part.hbond>
-1.0000

> <Gold.PLP.part.metal>
0.0000

> <Gold.PLP.part.buried>
-4.8232

> <Gold.PLP.part.nonpolar>
-35.4169

> <Gold.PLP.part.repulsive>
0.3522

> <Gold.PLP.ligand.clash>
1.7885

> <Gold.PLP.ligand.torsion>
0.1886

> <Gold.PLP.Chemscore.Hbond>
1.0000

> <Gold.PLP.Chemscore.CHOScore>
0.0000

> <Gold.PLP.Chemscore.Metal>
0.0000

> <Gold.Chemscore.Hbonds>
donor molecule, donor type, donor heavy atom, donor atom, acceptor molecule, acceptor atom, score
      L1  H     9    29       P1  8028  0.56

> <Gold.PLP.Chemscore.Internal.Correction>
1.0232

> <Gold.Rescore>
     Score         DG    S(hbond)    S(metal)    S(lipo)     H(rot)  DE(clash)    DE(int)     intcor
     14.05     -15.91       0.93        0.00      84.45       1.00       0.26       1.59       ----

> <Gold.Chemscore.Fitness>
14.0497

> <Gold.Chemscore.DG>
-15.9057

> <Gold.Chemscore.ZeroCoef>
-5.4800

> <Gold.Chemscore.Hbond>
0.9297

> <Gold.Chemscore.Metal>
0.0000

> <Gold.Chemscore.Lipo>
84.4495

> <Gold.Chemscore.Internal_Hbond>
0.0000

> <Gold.Chemscore.DEClash>
0.2627

> <Gold.Chemscore.DEInternal>
1.5933

> <Gold.Chemscore.Rot>
1.0000

> <Gold.Chemscore.Internal.Correction>
   9.000000E+99

> <Gold.Chemscore.Hbonds>
donor molecule, donor type, donor heavy atom, donor atom, acceptor molecule, acceptor atom, score
      L1  H     9    29       P1  8028  0.57

> <Gold.Chemscore.Hbond.Weighted>
-3.1051

> <Gold.Chemscore.Metal.Weighted>
-0.0000

> <Gold.Chemscore.Lipo.Weighted>
-9.8806

> <Gold.Chemscore.Internal_Hbond.Weighted>
0.0000

> <Gold.Chemscore.DEClash.Weighted>
0.2627

> <Gold.Chemscore.DEInternal.Weighted>
1.5933

> <Gold.Chemscore.Rot.Weighted>
2.5600

> <Gold.Chemscore.Internal.Correction.Weighted>
   9.000000E+99

> <Gold.Protein.RotatedTorsions>
[ 6907 6896 6895 6894 ] final  -31.38 input  -60.11 | X-H torsion
[ 7974 7965 7964 7962 ] final   48.69 input  175.53 | X-H torsion
[ 8008 7997 7996 7995 ] final  -52.87 input   59.86 | X-H torsion
[ 10167 10162 10161 10158 ] final -150.18 input  -65.29 | X-H torsion
[ 10718 10713 10712 10709 ] final   71.80 input   66.30 | X-H torsion
[ 10763 10752 10751 10750 ] final  -10.31 input  -60.55 | X-H torsion
[ 11005 11000 10999 10996 ] final -120.65 input  -57.11 | X-H torsion

> <Gold.Protein.ActiveResidues>
 VAL166  LYS551  ARG553  GLY616  TRP617  ASP618  TYR619  PRO620  LYS621  CYS622 
 ASP623  PHE694  ASN695  SER759  ASP760  ASP761  ALA762  ILE779  LEU786  VAL792 
 PHE793  MET794  SER795  GLU796  ALA797  LYS798  CYS799  TRP800  GLU811  SER814 

> <Gold.Protein.RotatedAtoms>
  151.0929  134.9927  159.8411 H   0  0  0  0  0  0  0  0  0  0  0  0  # atno 6907 bound_to 6896
  152.5430  134.2044  159.8735 H   0  0  0  0  0  0  0  0  0  0  0  0  # atno 6908 bound_to 6896
  151.2081  133.4528  159.2631 H   0  0  0  0  0  0  0  0  0  0  0  0  # atno 6909 bound_to 6896
  146.0180  139.4618  142.9915 H   0  0  0  0  0  0  0  0  0  0  0  0  # atno 7974 bound_to 7965
  154.4118  140.1213  156.5062 H   0  0  0  0  0  0  0  0  0  0  0  0  # atno 8008 bound_to 7997
  155.6845  140.3496  155.4849 H   0  0  0  0  0  0  0  0  0  0  0  0  # atno 8009 bound_to 7997
  155.9523  140.1107  157.0956 H   0  0  0  0  0  0  0  0  0  0  0  0  # atno 8010 bound_to 7997
  139.7377  143.8710  152.2553 H   0  0  0  0  0  0  0  0  0  0  0  0  # atno 10167 bound_to 10162
  157.6469  130.9546  150.0839 H   0  0  0  0  0  0  0  0  0  0  0  0  # atno 10718 bound_to 10713
  153.4673  135.7016  153.6014 H   0  0  0  0  0  0  0  0  0  0  0  0  # atno 10763 bound_to 10752
  153.4283  135.3809  155.2155 H   0  0  0  0  0  0  0  0  0  0  0  0  # atno 10764 bound_to 10752
  154.8726  135.3944  154.4106 H   0  0  0  0  0  0  0  0  0  0  0  0  # atno 10765 bound_to 10752
  141.0128  134.0240  157.3391 H   0  0  0  0  0  0  0  0  0  0  0  0  # atno 11005 bound_to 11000
  145.7238  141.0066  143.1388 LP  0  0  0  0  0  0  0  0  0  0  0  0  # atno 17320 bound_to 7965
  144.6978  139.8903  143.7452 LP  0  0  0  0  0  0  0  0  0  0  0  0  # atno 17321 bound_to 7965
  139.8652  144.7097  150.9053 LP  0  0  0  0  0  0  0  0  0  0  0  0  # atno 17342 bound_to 10162
  140.7781  143.3784  151.1521 LP  0  0  0  0  0  0  0  0  0  0  0  0  # atno 17343 bound_to 10162
  156.1807  130.3650  149.9039 LP  0  0  0  0  0  0  0  0  0  0  0  0  # atno 17370 bound_to 10713
  156.6992  130.8926  151.3597 LP  0  0  0  0  0  0  0  0  0  0  0  0  # atno 17371 bound_to 10713
  139.9099  135.0188  156.7648 LP  0  0  0  0  0  0  0  0  0  0  0  0  # atno 17394 bound_to 11000
  140.6705  133.9563  155.7854 LP  0  0  0  0  0  0  0  0  0  0  0  0  # atno 17395 bound_to 11000

$$$$
