AV-unprocessed.smi:34|AV-procd|sdf|236|dock6
  -GOLD-   2262015573D 1   1.00000     0.00000
 Structure written by MMmdl.
 54 58  0  0  0  0  0  0  0  0  2 V2000
  153.6048  140.3825  160.2156 O   0  0  0  0  0  0  0  0  0  0  0  0
  152.5291  140.8616  159.8506 C   0  0  0  0  0  0  0  0  0  0  0  0
  151.5846  140.2856  159.0647 N   0  5  0  0  0  0  0  0  0  0  0  0
  151.8498  139.1294  158.4369 C   0  0  0  0  0  0  0  0  0  0  0  0
  153.1070  138.8577  158.0027 N   0  0  0  0  0  0  0  0  0  0  0  0
  153.3707  137.7079  157.3709 C   0  0  0  0  0  0  0  0  0  0  0  0
  152.5396  136.7066  157.0671 N   0  0  0  0  0  0  0  0  0  0  0  0
  151.2689  136.9700  157.4905 C   0  0  0  0  0  0  0  0  0  0  0  0
  150.8524  138.1502  158.1739 C   0  0  0  0  0  0  0  0  0  0  0  0
  149.4967  138.1002  158.4618 N   0  0  0  0  0  0  0  0  0  0  0  0
  149.1578  136.9172  157.9553 C   0  0  0  0  0  0  0  0  0  0  0  0
  150.1295  136.1883  157.3714 N   0  0  0  0  0  0  0  0  0  0  0  0
  149.9849  134.8385  156.7410 C   0  0  1  0  0  0  0  0  0  0  0  0
  148.6993  134.3500  156.9739 O   0  0  0  0  0  0  0  0  0  0  0  0
  148.1858  133.7029  155.8095 C   0  0  1  0  0  0  0  0  0  0  0  0
  146.9378  134.4636  155.3396 C   0  0  0  0  0  0  0  0  0  0  0  0
  146.5984  134.0460  154.0270 O   0  0  0  0  0  0  0  0  0  0  0  0
  145.3438  134.2173  153.5669 C   0  0  0  0  0  0  0  0  0  0  0  0
  144.4644  134.8171  154.1887 O   0  0  0  0  0  0  0  0  0  0  0  0
  145.1291  133.6031  152.2248 C   0  0  0  0  0  0  0  0  0  0  0  0
  146.2223  133.0087  151.5519 C   0  0  0  0  0  0  0  0  0  0  0  0
  146.0504  132.4202  150.2839 C   0  0  0  0  0  0  0  0  0  0  0  0
  144.7834  132.4201  149.6725 C   0  0  0  0  0  0  0  0  0  0  0  0
  143.6879  133.0084  150.3309 C   0  0  0  0  0  0  0  0  0  0  0  0
  143.8575  133.5963  151.5998 C   0  0  0  0  0  0  0  0  0  0  0  0
  149.3227  133.7053  154.7793 C   0  0  2  0  0  0  0  0  0  0  0  0
  150.0020  132.5602  154.8669 F   0  0  0  0  0  0  0  0  0  0  0  0
  150.2147  134.8484  155.2234 C   0  0  1  0  0  0  0  0  0  0  0  0
  149.8624  136.0614  154.5839 O   0  0  0  0  0  0  0  0  0  0  0  0
  152.1962  142.2774  160.2398 C   0  0  0  0  0  0  0  0  0  0  0  0
  152.0681  142.6161  161.6062 C   0  0  0  0  0  0  0  0  0  0  0  0
  151.7334  143.9293  161.9905 C   0  0  0  0  0  0  0  0  0  0  0  0
  151.5131  144.9162  161.0115 C   0  0  0  0  0  0  0  0  0  0  0  0
  151.6241  144.5878  159.6476 C   0  0  0  0  0  0  0  0  0  0  0  0
  151.9591  143.2749  159.2625 C   0  0  0  0  0  0  0  0  0  0  0  0
  154.3968  137.5708  157.0635 H   0  0  0  0  0  0  0  0  0  0  0  0
  148.1413  136.5570  158.0147 H   0  0  0  0  0  0  0  0  0  0  0  0
  150.7005  134.2031  157.2651 H   0  0  0  0  0  0  0  0  0  0  0  0
  147.9038  132.6829  156.0741 H   0  0  0  0  0  0  0  0  0  0  0  0
  146.1024  134.2467  156.0068 H   0  0  0  0  0  0  0  0  0  0  0  0
  147.1066  135.5407  155.3663 H   0  0  0  0  0  0  0  0  0  0  0  0
  147.2050  132.9981  152.0010 H   0  0  0  0  0  0  0  0  0  0  0  0
  146.8924  131.9687  149.7801 H   0  0  0  0  0  0  0  0  0  0  0  0
  144.6519  131.9690  148.7000 H   0  0  0  0  0  0  0  0  0  0  0  0
  142.7148  133.0092  149.8624 H   0  0  0  0  0  0  0  0  0  0  0  0
  142.9954  134.0379  152.0778 H   0  0  0  0  0  0  0  0  0  0  0  0
  148.9822  133.7896  153.7462 H   0  0  0  0  0  0  0  0  0  0  0  0
  151.2672  134.6539  155.0137 H   0  0  0  0  0  0  0  0  0  0  0  0
  149.7391  135.8911  153.6624 H   0  0  0  0  0  0  0  0  0  0  0  0
  152.2321  141.8698  162.3701 H   0  0  0  0  0  0  0  0  0  0  0  0
  151.6445  144.1783  163.0374 H   0  0  0  0  0  0  0  0  0  0  0  0
  151.2554  145.9227  161.3061 H   0  0  0  0  0  0  0  0  0  0  0  0
  151.4492  145.3420  158.8948 H   0  0  0  0  0  0  0  0  0  0  0  0
  152.0285  143.0411  158.2099 H   0  0  0  0  0  0  0  0  0  0  0  0
  1  2  2  0  0  0  0
  2  3  1  0  0  0  0
  2 30  1  0  0  0  0
  3  4  1  0  0  0  0
  4  9  1  0  0  0  0
  4  5  2  0  0  0  0
  5  6  1  0  0  0  0
  6  7  2  0  0  0  0
  6 36  1  0  0  0  0
  7  8  1  0  0  0  0
  8 12  1  0  0  0  0
  8  9  2  0  0  0  0
  9 10  1  0  0  0  0
 10 11  2  0  0  0  0
 11 12  1  0  0  0  0
 11 37  1  0  0  0  0
 12 13  1  0  0  0  0
 13 28  1  0  0  0  0
 13 14  1  0  0  0  0
 13 38  1  0  0  0  0
 14 15  1  0  0  0  0
 15 16  1  0  0  0  0
 15 26  1  0  0  0  0
 15 39  1  0  0  0  0
 16 17  1  0  0  0  0
 16 40  1  0  0  0  0
 16 41  1  0  0  0  0
 17 18  1  0  0  0  0
 18 19  2  0  0  0  0
 18 20  1  0  0  0  0
 20 25  1  0  0  0  0
 20 21  2  0  0  0  0
 21 22  1  0  0  0  0
 21 42  1  0  0  0  0
 22 23  2  0  0  0  0
 22 43  1  0  0  0  0
 23 24  1  0  0  0  0
 23 44  1  0  0  0  0
 24 25  2  0  0  0  0
 24 45  1  0  0  0  0
 25 46  1  0  0  0  0
 26 27  1  0  0  0  0
 26 28  1  0  0  0  0
 26 47  1  0  0  0  0
 28 29  1  0  0  0  0
 28 48  1  0  0  0  0
 29 49  1  0  0  0  0
 30 35  1  0  0  0  0
 30 31  2  0  0  0  0
 31 32  1  0  0  0  0
 31 50  1  0  0  0  0
 32 33  2  0  0  0  0
 32 51  1  0  0  0  0
 33 34  1  0  0  0  0
 33 52  1  0  0  0  0
 34 35  2  0  0  0  0
 34 53  1  0  0  0  0
 35 54  1  0  0  0  0
M  CHG  1   3  -1
M  END
> <s_m_source_file>
AV-unprocessed.smi

> <i_m_source_file_index>
34

> <i_lp_mmshare_version>
43012

> <i_f3d_flags>
0

> <s_epik_input>
W2NIXTFbY0hdW2NIXVtjSF1bY0hdYzFDKD1PKVtOSF1jKG5bY0hdbjIpYyhjMjMpbltjSF1uM1tDQEBIXTRPW0NASF0oW0NAQEhdKEYpW0NASF00W09IXSlbQ0gyXU9DKD1PKWM1W2NIXVtjSF1bY0hdW2NIXVtjSF01

> <s_epik_cmdline>
J2VwaWtfcHl0aG9uJywgJy1waCcsICc3LjAnLCAnLXRuJywgJzgnLCAnLW1hJywgJzIwMCcsICctbWV0YWxfYmluZGluZycsICctaW1hZScsICc8aW5maWxlLm1hZT4nLCAnLW9tYWUnLCAnPG91dGZpbGUubWFlPic=

> <r_lp_tautomer_probability>
1

> <r_epik_Ionization_Penalty>
4.33227

> <r_epik_Ionization_Penalty_Charging>
3.41027

> <r_epik_Ionization_Penalty_Neutral>
0.922001

> <r_epik_State_Penalty>
3.41358

> <r_epik_Charging_Adjusted_Penalty>
6.82385

> <i_epik_Tot_Q>
-1

> <i_epik_Tot_abs_Q>
1

> <r_epik_Metal_State_Penalty>
0.496292

> <b_epik_Metal_Only>
1

> <s_epik_Chemistry_Notes>
This compound has an ester and may undergo hydrolysis at high or low pH. This compound contains an acetal/aminal-like group ( X-CH(R)-Y where X, Y are N, S, or O) that may be acid/base labile, releasing an aldehyde.

> <s_lp_Force_Field>
OPLS_2005

> <r_lp_Energy>
54.5703

> <b_lp_Chiralities_Consistent>
1

> <s_lp_Variant>
AV-unprocessed.smi:34-22

> <Gold.Version>
5.8.1

> <Gold.Id.Protein>
6NUR|6NUR_protein|mol2

> <Gold.PLP.Fitness>
64.6441

> <Gold.PLP.PLP>
-59.6544

> <Gold.PLP.part.hbond>
-3.6424

> <Gold.PLP.part.metal>
0.0000

> <Gold.PLP.part.buried>
-8.6499

> <Gold.PLP.part.nonpolar>
-47.4672

> <Gold.PLP.part.repulsive>
0.1541

> <Gold.PLP.ligand.clash>
0.0000

> <Gold.PLP.ligand.torsion>
1.6784

> <Gold.PLP.Chemscore.Hbond>
2.6448

> <Gold.PLP.Chemscore.CHOScore>
0.0000

> <Gold.PLP.Chemscore.Metal>
0.0000

> <Gold.Chemscore.Hbonds>
donor molecule, donor type, donor heavy atom, donor atom, acceptor molecule, acceptor atom, score
      L1  H    29    49       P1  7948  0.90
      P1  H  7997  8008       L1     5  0.50
      P1  H 10752 10765       L1     7  0.15

> <Gold.PLP.Chemscore.Internal.Correction>
0.4122

> <Gold.Rescore>
     Score         DG    S(hbond)    S(metal)    S(lipo)     H(rot)  DE(clash)    DE(int)     intcor
     17.03     -20.14       1.59        0.00     138.74       2.69       0.16       2.95       ----

> <Gold.Chemscore.Fitness>
17.0334

> <Gold.Chemscore.DG>
-20.1422

> <Gold.Chemscore.ZeroCoef>
-5.4800

> <Gold.Chemscore.Hbond>
1.5949

> <Gold.Chemscore.Metal>
0.0000

> <Gold.Chemscore.Lipo>
138.7426

> <Gold.Chemscore.Internal_Hbond>
0.0000

> <Gold.Chemscore.DEClash>
0.1578

> <Gold.Chemscore.DEInternal>
2.9510

> <Gold.Chemscore.Rot>
2.6944

> <Gold.Chemscore.Internal.Correction>
   9.000000E+99

> <Gold.Chemscore.Hbonds>
donor molecule, donor type, donor heavy atom, donor atom, acceptor molecule, acceptor atom, score
      L1  H    29    49       P1  7948  0.17
      P1  H  7997  8008       L1     5  0.06
      P1  H 10752 10765       L1     7  0.12

> <Gold.Chemscore.Hbond.Weighted>
-5.3269

> <Gold.Chemscore.Metal.Weighted>
-0.0000

> <Gold.Chemscore.Lipo.Weighted>
-16.2329

> <Gold.Chemscore.Internal_Hbond.Weighted>
0.0000

> <Gold.Chemscore.DEClash.Weighted>
0.1578

> <Gold.Chemscore.DEInternal.Weighted>
2.9510

> <Gold.Chemscore.Rot.Weighted>
6.8975

> <Gold.Chemscore.Internal.Correction.Weighted>
   9.000000E+99

> <Gold.Protein.RotatedTorsions>
[ 6907 6896 6895 6894 ] final -131.36 input  -60.11 | X-H torsion
[ 7974 7965 7964 7962 ] final   22.54 input  175.53 | X-H torsion
[ 8008 7997 7996 7995 ] final  -68.06 input   59.86 | X-H torsion
[ 10167 10162 10161 10158 ] final  -53.89 input  -65.29 | X-H torsion
[ 10718 10713 10712 10709 ] final  162.67 input   66.30 | X-H torsion
[ 10763 10752 10751 10750 ] final -131.18 input  -60.55 | X-H torsion
[ 11005 11000 10999 10996 ] final   71.71 input  -57.11 | X-H torsion

> <Gold.Protein.ActiveResidues>
 VAL166  LYS551  ARG553  GLY616  TRP617  ASP618  TYR619  PRO620  LYS621  CYS622 
 ASP623  PHE694  ASN695  SER759  ASP760  ASP761  ALA762  ILE779  LEU786  VAL792 
 PHE793  MET794  SER795  GLU796  ALA797  LYS798  CYS799  TRP800  GLU811  SER814 

> <Gold.Protein.RotatedAtoms>
  150.9501  133.6559  159.2773 H   0  0  0  0  0  0  0  0  0  0  0  0  # atno 6907 bound_to 6896
  151.3918  135.0956  159.9538 H   0  0  0  0  0  0  0  0  0  0  0  0  # atno 6908 bound_to 6896
  152.5106  133.9014  159.7497 H   0  0  0  0  0  0  0  0  0  0  0  0  # atno 6909 bound_to 6896
  146.2024  139.7870  142.8751 H   0  0  0  0  0  0  0  0  0  0  0  0  # atno 7974 bound_to 7965
  154.4842  140.0880  156.7447 H   0  0  0  0  0  0  0  0  0  0  0  0  # atno 8008 bound_to 7997
  155.4393  140.3453  155.4270 H   0  0  0  0  0  0  0  0  0  0  0  0  # atno 8009 bound_to 7997
  156.1236  140.1481  156.9156 H   0  0  0  0  0  0  0  0  0  0  0  0  # atno 8010 bound_to 7997
  140.6460  143.2536  151.4857 H   0  0  0  0  0  0  0  0  0  0  0  0  # atno 10167 bound_to 10162
  157.1193  131.0488  151.2422 H   0  0  0  0  0  0  0  0  0  0  0  0  # atno 10718 bound_to 10713
  154.8752  135.3838  154.4205 H   0  0  0  0  0  0  0  0  0  0  0  0  # atno 10763 bound_to 10752
  153.4909  135.7030  153.5890 H   0  0  0  0  0  0  0  0  0  0  0  0  # atno 10764 bound_to 10752
  153.4264  135.3889  155.2110 H   0  0  0  0  0  0  0  0  0  0  0  0  # atno 10765 bound_to 10752
  139.9529  134.7196  156.0821 H   0  0  0  0  0  0  0  0  0  0  0  0  # atno 11005 bound_to 11000
  145.3438  141.0293  143.3377 LP  0  0  0  0  0  0  0  0  0  0  0  0  # atno 17320 bound_to 7965
  144.8714  139.5033  143.6766 LP  0  0  0  0  0  0  0  0  0  0  0  0  # atno 17321 bound_to 7965
  139.5671  144.2016  152.1781 LP  0  0  0  0  0  0  0  0  0  0  0  0  # atno 17342 bound_to 10162
  140.1301  144.5296  150.6808 LP  0  0  0  0  0  0  0  0  0  0  0  0  # atno 17343 bound_to 10162
  157.4490  130.7587  149.7135 LP  0  0  0  0  0  0  0  0  0  0  0  0  # atno 17370 bound_to 10713
  155.9832  130.4002  150.3375 LP  0  0  0  0  0  0  0  0  0  0  0  0  # atno 17371 bound_to 10713
  141.1195  133.6617  156.3178 LP  0  0  0  0  0  0  0  0  0  0  0  0  # atno 17394 bound_to 11000
  140.5677  134.5871  157.5450 LP  0  0  0  0  0  0  0  0  0  0  0  0  # atno 17395 bound_to 11000

$$$$
