AV-unprocessed.smi:290|AV-procd|sdf|2230|dock4
  -GOLD-   2262022 93D 1   1.00000     0.00000
 Structure written by MMmdl.
 59 62  0  0  0  0  0  0  0  0  2 V2000
  152.6481  141.6926  159.3814 C   0  0  0  0  0  0  0  0  0  0  0  0
  151.5968  142.8120  159.3334 C   0  0  1  0  0  0  0  0  0  0  0  0
  152.2022  143.9292  159.9860 O   0  0  0  0  0  0  0  0  0  0  0  0
  151.8788  145.1275  159.3028 C   0  0  0  0  0  0  0  0  0  0  0  0
  151.8390  144.6876  157.8476 C   0  0  0  0  0  0  0  0  0  0  0  0
  151.1642  143.3238  157.9271 C   0  0  2  0  0  0  0  0  0  0  0  0
  149.7665  143.5584  157.9604 O   0  0  0  0  0  0  0  0  0  0  0  0
  151.4794  142.4473  156.6818 C   0  0  0  0  0  0  0  0  0  0  0  0
  150.6739  141.2392  156.5278 N   0  0  0  0  0  0  0  0  0  0  0  0
  150.5788  140.1681  157.3908 C   0  0  0  0  0  0  0  0  0  0  0  0
  149.7604  139.2218  157.0202 N   0  0  0  0  0  0  0  0  0  0  0  0
  149.2258  139.6815  155.8236 C   0  0  0  0  0  0  0  0  0  0  0  0
  148.2759  139.1630  154.8967 C   0  0  0  0  0  0  0  0  0  0  0  0
  147.6794  137.9509  155.0496 N   0  0  0  0  0  0  0  0  0  0  0  0
  148.2584  137.0525  156.0466 C   0  0  0  0  0  0  0  0  0  0  0  0
  148.1350  135.6339  155.4808 C   0  0  0  0  0  0  0  0  0  0  0  0
  146.9954  135.7686  154.4653 C   0  0  2  0  0  0  0  0  0  0  0  0
  146.9110  134.6946  153.4342 N   0  3  2  0  0  0  0  0  0  0  0  0
  145.7194  134.8514  152.5669 C   0  0  0  0  0  0  0  0  0  0  0  0
  147.0737  133.3028  153.9375 C   0  0  0  0  0  0  0  0  0  0  0  0
  147.0752  132.2777  152.7922 C   0  0  0  0  0  0  0  0  0  0  0  0
  148.0472  132.6296  151.8298 O   0  0  0  0  0  0  0  0  0  0  0  0
  147.2013  137.1813  153.9009 C   0  0  1  0  0  0  0  0  0  0  0  0
  145.9214  137.7721  153.2829 C   0  0  0  0  0  0  0  0  0  0  0  0
  147.9752  139.9344  153.8184 N   0  0  0  0  0  0  0  0  0  0  0  0
  148.5608  141.1233  153.6509 C   0  0  0  0  0  0  0  0  0  0  0  0
  149.4647  141.7233  154.4262 N   0  0  0  0  0  0  0  0  0  0  0  0
  149.7730  140.9585  155.5126 C   0  0  0  0  0  0  0  0  0  0  0  0
  146.0561  135.7792  155.0229 H   0  0  0  0  0  0  0  0  0  0  0  0
  147.9872  137.1733  153.1469 H   0  0  0  0  0  0  0  0  0  0  0  0
  152.2318  140.7368  159.0702 H   0  0  0  0  0  0  0  0  0  0  0  0
  153.0135  141.5542  160.3991 H   0  0  0  0  0  0  0  0  0  0  0  0
  153.5084  141.9202  158.7518 H   0  0  0  0  0  0  0  0  0  0  0  0
  150.7282  142.4999  159.9163 H   0  0  0  0  0  0  0  0  0  0  0  0
  150.9029  145.4863  159.6332 H   0  0  0  0  0  0  0  0  0  0  0  0
  152.6160  145.9086  159.4895 H   0  0  0  0  0  0  0  0  0  0  0  0
  151.3241  145.3981  157.1994 H   0  0  0  0  0  0  0  0  0  0  0  0
  152.8611  144.5835  157.4803 H   0  0  0  0  0  0  0  0  0  0  0  0
  149.5273  144.0559  157.1933 H   0  0  0  0  0  0  0  0  0  0  0  0
  151.3598  143.0397  155.7737 H   0  0  0  0  0  0  0  0  0  0  0  0
  152.5298  142.1558  156.7025 H   0  0  0  0  0  0  0  0  0  0  0  0
  151.1327  140.0996  158.3147 H   0  0  0  0  0  0  0  0  0  0  0  0
  149.2984  137.2939  156.2726 H   0  0  0  0  0  0  0  0  0  0  0  0
  147.6844  137.1439  156.9693 H   0  0  0  0  0  0  0  0  0  0  0  0
  149.0754  135.3659  154.9994 H   0  0  0  0  0  0  0  0  0  0  0  0
  147.9319  134.8917  156.2531 H   0  0  0  0  0  0  0  0  0  0  0  0
  144.7997  134.7144  153.1371 H   0  0  0  0  0  0  0  0  0  0  0  0
  145.7236  134.1280  151.7523 H   0  0  0  0  0  0  0  0  0  0  0  0
  145.6956  135.8442  152.1163 H   0  0  0  0  0  0  0  0  0  0  0  0
  147.9984  133.1831  154.5001 H   0  0  0  0  0  0  0  0  0  0  0  0
  146.2703  133.0767  154.6402 H   0  0  0  0  0  0  0  0  0  0  0  0
  147.3193  131.2874  153.1778 H   0  0  0  0  0  0  0  0  0  0  0  0
  146.0989  132.1998  152.3146 H   0  0  0  0  0  0  0  0  0  0  0  0
  148.2441  131.8688  151.3038 H   0  0  0  0  0  0  0  0  0  0  0  0
  145.5686  137.1553  152.4560 H   0  0  0  0  0  0  0  0  0  0  0  0
  146.0871  138.7752  152.8907 H   0  0  0  0  0  0  0  0  0  0  0  0
  145.1182  137.8341  154.0178 H   0  0  0  0  0  0  0  0  0  0  0  0
  148.2653  141.6709  152.7680 H   0  0  0  0  0  0  0  0  0  0  0  0
  147.7074  134.8552  152.8332 H   0  0  0  0  0  0  0  0  0  0  0  0
  1  2  1  0  0  0  0
  1 31  1  0  0  0  0
  1 32  1  0  0  0  0
  1 33  1  0  0  0  0
  2  6  1  0  0  0  0
  2  3  1  0  0  0  0
  2 34  1  0  0  0  0
  3  4  1  0  0  0  0
  4  5  1  0  0  0  0
  4 35  1  0  0  0  0
  4 36  1  0  0  0  0
  5  6  1  0  0  0  0
  5 37  1  0  0  0  0
  5 38  1  0  0  0  0
  6  7  1  0  0  0  0
  6  8  1  0  0  0  0
  7 39  1  0  0  0  0
  8  9  1  0  0  0  0
  8 40  1  0  0  0  0
  8 41  1  0  0  0  0
  9 28  1  0  0  0  0
  9 10  1  0  0  0  0
 10 11  2  0  0  0  0
 10 42  1  0  0  0  0
 11 12  1  0  0  0  0
 12 28  2  0  0  0  0
 12 13  1  0  0  0  0
 13 14  1  0  0  0  0
 13 25  2  0  0  0  0
 14 23  1  0  0  0  0
 14 15  1  0  0  0  0
 15 16  1  0  0  0  0
 15 43  1  0  0  0  0
 15 44  1  0  0  0  0
 16 17  1  0  0  0  0
 16 45  1  0  0  0  0
 16 46  1  0  0  0  0
 17 29  1  0  0  0  0
 17 18  1  0  0  0  0
 17 23  1  0  0  0  0
 18 19  1  0  0  0  0
 18 20  1  0  0  0  0
 18 59  1  0  0  0  0
 19 47  1  0  0  0  0
 19 48  1  0  0  0  0
 19 49  1  0  0  0  0
 20 21  1  0  0  0  0
 20 50  1  0  0  0  0
 20 51  1  0  0  0  0
 21 22  1  0  0  0  0
 21 52  1  0  0  0  0
 21 53  1  0  0  0  0
 22 54  1  0  0  0  0
 23 30  1  0  0  0  0
 23 24  1  0  0  0  0
 24 55  1  0  0  0  0
 24 56  1  0  0  0  0
 24 57  1  0  0  0  0
 25 26  1  0  0  0  0
 26 27  2  0  0  0  0
 26 58  1  0  0  0  0
 27 28  1  0  0  0  0
M  CHG  1  18   1
M  END
> <s_m_source_file>
AV-unprocessed.smi

> <i_m_source_file_index>
290

> <i_lp_mmshare_version>
43012

> <i_f3d_flags>
0

> <s_epik_input>
W0NIMl0xW0NIMl1PW0NAQEhdKFtDSDNdKVtDQEBdMShbT0hdKVtDSDJdbihbY0hdbjIpYyhjMjMpbltjSF1uYzNONFtDSDJdW0NIMl1bQ0BIXShbQ0BIXTRbQ0gzXSlOKFtDSDNdKVtDSDJdW0NIMl1bT0hd

> <s_epik_cmdline>
J2VwaWtfcHl0aG9uJywgJy1waCcsICc3LjAnLCAnLXRuJywgJzgnLCAnLW1hJywgJzIwMCcsICctbWV0YWxfYmluZGluZycsICctaW1hZScsICc8aW5maWxlLm1hZT4nLCAnLW9tYWUnLCAnPG91dGZpbGUubWFlPic=

> <r_lp_tautomer_probability>
1

> <r_epik_Ionization_Penalty>
0.0036983

> <r_epik_Ionization_Penalty_Charging>
0.0032725

> <r_epik_Ionization_Penalty_Neutral>
0.000425798

> <r_epik_State_Penalty>
-0

> <r_epik_Charging_Adjusted_Penalty>
0.0032725

> <i_epik_Tot_Q>
1

> <i_epik_Tot_abs_Q>
1

> <r_epik_Metal_State_Penalty>
-0

> <b_epik_Metal_Only>
0

> <s_lp_Force_Field>
OPLS_2005

> <r_lp_Energy>
62.8721

> <b_lp_Chiralities_Consistent>
1

> <s_lp_Variant>
AV-unprocessed.smi:290-16

> <Gold.Version>
5.8.1

> <Gold.Id.Protein>
6NUR|6NUR_protein|mol2

> <Gold.PLP.Fitness>
47.3463

> <Gold.PLP.PLP>
-35.9148

> <Gold.PLP.part.hbond>
-5.4156

> <Gold.PLP.part.metal>
0.0000

> <Gold.PLP.part.buried>
-0.6914

> <Gold.PLP.part.nonpolar>
-29.6246

> <Gold.PLP.part.repulsive>
0.4356

> <Gold.PLP.ligand.clash>
0.0000

> <Gold.PLP.ligand.torsion>
0.7853

> <Gold.PLP.Chemscore.Hbond>
4.0000

> <Gold.PLP.Chemscore.CHOScore>
0.1454

> <Gold.PLP.Chemscore.Metal>
0.0000

> <Gold.Chemscore.Hbonds>
donor molecule, donor type, donor heavy atom, donor atom, acceptor molecule, acceptor atom, score
      L1  H     7    39       P1  8028  1.00
      L1  H    18    59       P1  7948  1.81
      L1  H    22    54       P1 10747  1.00
      L1  C    26    58       P1  7957  0.20

> <Gold.PLP.Chemscore.Internal.Correction>
0.5659

> <Gold.Rescore>
     Score         DG    S(hbond)    S(metal)    S(lipo)     H(rot)  DE(clash)    DE(int)     intcor
     10.15     -15.43       2.59        0.00      91.43       3.67       2.00       3.28       ----

> <Gold.Chemscore.Fitness>
10.1531

> <Gold.Chemscore.DG>
-15.4345

> <Gold.Chemscore.ZeroCoef>
-5.4800

> <Gold.Chemscore.Hbond>
2.5873

> <Gold.Chemscore.Metal>
0.0000

> <Gold.Chemscore.Lipo>
91.4314

> <Gold.Chemscore.Internal_Hbond>
0.0000

> <Gold.Chemscore.DEClash>
2.0008

> <Gold.Chemscore.DEInternal>
3.2807

> <Gold.Chemscore.Rot>
3.6658

> <Gold.Chemscore.Internal.Correction>
   9.000000E+99

> <Gold.Chemscore.Hbonds>
donor molecule, donor type, donor heavy atom, donor atom, acceptor molecule, acceptor atom, score
      L1  H     7    39       P1  8028  0.45
      L1  H    18    59       P1  7948  0.80
      L1  H    22    54       P1 10747  0.99

> <Gold.Chemscore.Hbond.Weighted>
-8.6415

> <Gold.Chemscore.Metal.Weighted>
-0.0000

> <Gold.Chemscore.Lipo.Weighted>
-10.6975

> <Gold.Chemscore.Internal_Hbond.Weighted>
0.0000

> <Gold.Chemscore.DEClash.Weighted>
2.0008

> <Gold.Chemscore.DEInternal.Weighted>
3.2807

> <Gold.Chemscore.Rot.Weighted>
9.3844

> <Gold.Chemscore.Internal.Correction.Weighted>
   9.000000E+99

> <Gold.Protein.RotatedTorsions>
[ 6907 6896 6895 6894 ] final   62.20 input  -60.11 | X-H torsion
[ 7974 7965 7964 7962 ] final  -66.32 input  175.53 | X-H torsion
[ 8008 7997 7996 7995 ] final  174.42 input   59.86 | X-H torsion
[ 10167 10162 10161 10158 ] final    3.22 input  -65.29 | X-H torsion
[ 10718 10713 10712 10709 ] final  126.48 input   66.30 | X-H torsion
[ 10763 10752 10751 10750 ] final  111.39 input  -60.55 | X-H torsion
[ 11005 11000 10999 10996 ] final  143.66 input  -57.11 | X-H torsion

> <Gold.Protein.ActiveResidues>
 VAL166  LYS551  ARG553  GLY616  TRP617  ASP618  TYR619  PRO620  LYS621  CYS622 
 ASP623  PHE694  ASN695  SER759  ASP760  ASP761  ALA762  ILE779  LEU786  VAL792 
 PHE793  MET794  SER795  GLU796  ALA797  LYS798  CYS799  TRP800  GLU811  SER814 

> <Gold.Protein.RotatedAtoms>
  152.4152  134.6054  160.0011 H   0  0  0  0  0  0  0  0  0  0  0  0  # atno 6907 bound_to 6896
  151.6219  133.3333  159.3098 H   0  0  0  0  0  0  0  0  0  0  0  0  # atno 6908 bound_to 6896
  150.8041  134.7194  159.6694 H   0  0  0  0  0  0  0  0  0  0  0  0  # atno 6909 bound_to 6896
  145.7432  140.8943  143.0519 H   0  0  0  0  0  0  0  0  0  0  0  0  # atno 7974 bound_to 7965
  156.0975  140.1435  156.9511 H   0  0  0  0  0  0  0  0  0  0  0  0  # atno 8008 bound_to 7997
  154.4681  140.0919  156.7119 H   0  0  0  0  0  0  0  0  0  0  0  0  # atno 8009 bound_to 7997
  155.4815  140.3445  155.4343 H   0  0  0  0  0  0  0  0  0  0  0  0  # atno 8010 bound_to 7997
  140.6597  143.7337  150.7716 H   0  0  0  0  0  0  0  0  0  0  0  0  # atno 10167 bound_to 10162
  157.5416  131.1096  150.8850 H   0  0  0  0  0  0  0  0  0  0  0  0  # atno 10718 bound_to 10713
  153.4626  135.3719  155.2346 H   0  0  0  0  0  0  0  0  0  0  0  0  # atno 10763 bound_to 10752
  154.8757  135.3912  154.3907 H   0  0  0  0  0  0  0  0  0  0  0  0  # atno 10764 bound_to 10752
  153.4483  135.7085  153.6189 H   0  0  0  0  0  0  0  0  0  0  0  0  # atno 10765 bound_to 10752
  140.0571  134.9224  157.1120 H   0  0  0  0  0  0  0  0  0  0  0  0  # atno 11005 bound_to 11000
  144.6866  139.9489  143.7477 LP  0  0  0  0  0  0  0  0  0  0  0  0  # atno 17320 bound_to 7965
  146.0428  139.3437  143.0687 LP  0  0  0  0  0  0  0  0  0  0  0  0  # atno 17321 bound_to 7965
  140.1003  143.4794  152.2429 LP  0  0  0  0  0  0  0  0  0  0  0  0  # atno 17342 bound_to 10162
  139.5827  144.7518  151.3598 LP  0  0  0  0  0  0  0  0  0  0  0  0  # atno 17343 bound_to 10162
  156.9401  130.5381  149.5280 LP  0  0  0  0  0  0  0  0  0  0  0  0  # atno 17370 bound_to 10713
  156.0501  130.5572  150.8970 LP  0  0  0  0  0  0  0  0  0  0  0  0  # atno 17371 bound_to 10713
  140.3827  134.2270  155.7170 LP  0  0  0  0  0  0  0  0  0  0  0  0  # atno 17394 bound_to 11000
  141.1957  133.8100  157.0704 LP  0  0  0  0  0  0  0  0  0  0  0  0  # atno 17395 bound_to 11000

$$$$
