#       Name:                AV-unprocessed.smi:1933
#       Creating user name   scv26
#       Creation time:       Fri Mar 27 09:56:28 2020


#       File generated by GOLD software.
#

@<TRIPOS>MOLECULE
AV-unprocessed.smi:1933
    55    57     1
SMALL
NO_CHARGES


@<TRIPOS>ATOM
      1 ****        -2.5715   0.2826  -0.8337 O.2            1 S1                 0.0000
      2 ****        -2.0501   1.0343  -0.0098 C.2            1 S1                 0.0000
      3 ****        -1.1067   0.6422   0.8594 N.am           1 S1                 0.0000
      4 ****        -0.5605  -0.7068   0.9764 C.3            1 S1                 0.0000
      5 ****         0.9673  -0.7736   0.6987 C.3            1 S1                 0.0000
      6 ****         1.3674  -0.4222  -0.7639 C.3            1 S1                 0.0000
      7 ****         2.8434  -0.6352  -1.0719 C.3            1 S1                 0.0000
      8 ****         3.0417   0.2250  -2.3099 C.3            1 S1                 0.0000
      9 ****         2.2854   1.3894  -2.0265 O.3            1 S1                 0.0000
     10 ****         1.1919   1.0503  -1.1782 C.3            1 S1                 0.0000
     11 ****         1.5370  -2.1044   1.0706 N.4            1 S1                 1.0000
     12 ****         1.7530  -2.2900   2.5262 C.3            1 S1                 0.0000
     13 ****         2.5272  -3.5948   2.7814 C.3            1 S1                 0.0000
     14 ****         1.8249  -4.6916   2.2082 O.3            1 S1                 0.0000
     15 ****         1.6791  -4.5593   0.7989 C.3            1 S1                 0.0000
     16 ****         0.8659  -3.2928   0.4844 C.3            1 S1                 0.0000
     17 ****        -2.3285   2.3413   0.1377 N.am           1 S1                 0.0000
     18 ****        -3.2138   3.1431  -0.6303 C.ar           1 S1                 0.0000
     19 ****        -3.3091   4.4911  -0.2169 C.ar           1 S1                 0.0000
     20 ****        -4.1559   5.3721  -0.9171 C.ar           1 S1                 0.0000
     21 ****        -4.8854   4.8816  -2.0147 C.ar           1 S1                 0.0000
     22 ****        -4.7317   3.5266  -2.3611 C.ar           1 S1                 0.0000
     23 ****        -3.9209   2.6803  -1.6912 N.ar           1 S1                 0.0000
     24 ****        -0.7396   1.3341   1.4966 H              1 S1                 0.0000
     25 ****        -0.7752  -1.0375   1.9921 H              1 S1                 0.0000
     26 ****        -1.0937  -1.3936   0.3179 H              1 S1                 0.0000
     27 ****         1.4552  -0.0376   1.3399 H              1 S1                 0.0000
     28 ****         0.7888  -1.0348  -1.4570 H              1 S1                 0.0000
     29 ****         3.4649  -0.2601  -0.2572 H              1 S1                 0.0000
     30 ****         3.1002  -1.6804  -1.2468 H              1 S1                 0.0000
     31 ****         4.0889   0.4610  -2.4998 H              1 S1                 0.0000
     32 ****         2.6315  -0.2669  -3.1932 H              1 S1                 0.0000
     33 ****         0.2531   1.2069  -1.7089 H              1 S1                 0.0000
     34 ****         1.2111   1.7201  -0.3181 H              1 S1                 0.0000
     35 ****         2.3152  -1.4486   2.9329 H              1 S1                 0.0000
     36 ****         0.7966  -2.3212   3.0490 H              1 S1                 0.0000
     37 ****         3.5346  -3.5371   2.3658 H              1 S1                 0.0000
     38 ****         2.6345  -3.7643   3.8529 H              1 S1                 0.0000
     39 ****         2.6589  -4.5239   0.3198 H              1 S1                 0.0000
     40 ****         1.1669  -5.4407   0.4123 H              1 S1                 0.0000
     41 ****        -0.1383  -3.4034   0.8955 H              1 S1                 0.0000
     42 ****         0.7644  -3.1826  -0.5948 H              1 S1                 0.0000
     43 ****        -1.8344   2.8262   0.8720 H              1 S1                 0.0000
     44 ****        -2.7407   4.8517   0.6283 H              1 S1                 0.0000
     45 ****        -4.2428   6.4058  -0.6164 H              1 S1                 0.0000
     46 ****        -5.5446   5.5265  -2.5766 H              1 S1                 0.0000
     47 ****        -5.2724   3.1105  -3.1983 H              1 S1                 0.0000
     48 ****         2.4661  -2.0987   0.6739 H              1 S1                 0.0000
     49 ****        -2.2956  -0.6775  -0.8794 LP             1 S1                 0.0000
     50 ****        -3.2708   0.6321  -1.4571 LP             1 S1                 0.0000
     51 ****         1.9373   1.7768  -2.8801 LP             1 S1                 0.0000
     52 ****         2.8670   2.0614  -1.5681 LP             1 S1                 0.0000
     53 ****         0.9162  -4.7440   2.6225 LP             1 S1                 0.0000
     54 ****         2.3287  -5.5334   2.4022 LP             1 S1                 0.0000
     55 ****        -3.8427   1.7242  -1.9735 LP             1 S1                 0.0000
@<TRIPOS>BOND
    1    1    2 2     
    2    2    3 am    
    3    2   17 am    
    4    3    4 1     
    5    3   24 1     
    6    4    5 1     
    7    4   25 1     
    8    4   26 1     
    9    5    6 1     
   10    5   11 1     
   11    5   27 1     
   12    6   10 1     
   13    6    7 1     
   14    6   28 1     
   15    7    8 1     
   16    7   29 1     
   17    7   30 1     
   18    8    9 1     
   19    8   31 1     
   20    8   32 1     
   21    9   10 1     
   22   10   33 1     
   23   10   34 1     
   24   11   16 1     
   25   11   12 1     
   26   11   48 1     
   27   12   13 1     
   28   12   35 1     
   29   12   36 1     
   30   13   14 1     
   31   13   37 1     
   32   13   38 1     
   33   14   15 1     
   34   15   16 1     
   35   15   39 1     
   36   15   40 1     
   37   16   41 1     
   38   16   42 1     
   39   17   18 1     
   40   17   43 1     
   41   18   23 ar    
   42   18   19 ar    
   43   19   20 ar    
   44   19   44 1     
   45   20   21 ar    
   46   20   45 1     
   47   21   22 ar    
   48   21   46 1     
   49   22   23 ar    
   50   22   47 1     
   51    1   49 1     
   52    1   50 1     
   53    9   51 1     
   54    9   52 1     
   55   14   53 1     
   56   14   54 1     
   57   23   55 1     
@<TRIPOS>SUBSTRUCTURE
      1 S1             1
@<TRIPOS>SET
LONE_PAIRS      STATIC     ATOMS    <user>   **** ""
7 49 50 51 52 53 54 55
DONOR_HYDROGENS      STATIC     ATOMS    <user>   **** ""
3 24 48 43
ATOM$BLUE        STATIC     ATOMS    COLORGROUP SYSTEM
7 49 50 51 52 53 54 55
ATOM$RED        STATIC     ATOMS    COLORGROUP SYSTEM
3 24 48 43
