AV-unprocessed.smi:2160|AV-procd|sdf|8800|dock4
  -GOLD-   2272011583D 1   1.00000     0.00000
 Structure written by MMmdl.
 44 46  0  0  0  0  0  0  0  0  2 V2000
  152.6440  140.6166  158.0918 C   0  0  0  0  0  0  0  0  0  0  0  0
  152.4435  140.1309  156.7725 O   0  0  0  0  0  0  0  0  0  0  0  0
  151.2052  140.3145  156.1954 C   0  0  0  0  0  0  0  0  0  0  0  0
  150.2045  141.1739  156.7141 C   0  0  0  0  0  0  0  0  0  0  0  0
  148.9647  141.3023  156.0584 C   0  0  0  0  0  0  0  0  0  0  0  0
  148.7032  140.5818  154.8760 C   0  0  0  0  0  0  0  0  0  0  0  0
  147.3518  140.7235  154.1984 C   0  0  0  0  0  0  0  0  0  0  0  0
  146.7523  139.4733  153.8951 O   0  0  0  0  0  0  0  0  0  0  0  0
  147.1284  138.9805  152.6196 C   0  0  0  0  0  0  0  0  0  0  0  0
  146.0115  138.0745  152.0776 C   0  0  1  0  0  0  0  0  0  0  0  0
  146.0601  138.1005  150.6643 O   0  0  0  0  0  0  0  0  0  0  0  0
  146.1640  136.6196  152.5650 C   0  0  0  0  0  0  0  0  0  0  0  0
  145.2064  135.7032  151.9281 N   0  0  0  0  0  0  0  0  0  0  0  0
  143.9992  135.9714  151.3606 C   0  0  0  0  0  0  0  0  0  0  0  0
  143.4895  134.7957  150.9004 N   0  3  0  0  0  0  0  0  0  0  0  0
  144.3839  133.7597  151.1763 C   0  0  0  0  0  0  0  0  0  0  0  0
  144.3103  132.3974  150.9029 C   0  0  0  0  0  0  0  0  0  0  0  0
  145.4027  131.6085  151.3185 C   0  0  0  0  0  0  0  0  0  0  0  0
  146.5113  132.1785  151.9773 C   0  0  0  0  0  0  0  0  0  0  0  0
  146.5751  133.5609  152.2498 C   0  0  0  0  0  0  0  0  0  0  0  0
  145.4906  134.3348  151.8370 C   0  0  0  0  0  0  0  0  0  0  0  0
  149.6927  139.7187  154.3605 C   0  0  0  0  0  0  0  0  0  0  0  0
  150.9327  139.5921  155.0158 C   0  0  0  0  0  0  0  0  0  0  0  0
  153.6643  140.3964  158.4057 H   0  0  0  0  0  0  0  0  0  0  0  0
  151.9699  140.1342  158.8009 H   0  0  0  0  0  0  0  0  0  0  0  0
  152.5101  141.6980  158.1435 H   0  0  0  0  0  0  0  0  0  0  0  0
  150.3619  141.7457  157.6159 H   0  0  0  0  0  0  0  0  0  0  0  0
  148.2111  141.9585  156.4686 H   0  0  0  0  0  0  0  0  0  0  0  0
  146.6980  141.2962  154.8578 H   0  0  0  0  0  0  0  0  0  0  0  0
  147.4780  141.3013  153.2812 H   0  0  0  0  0  0  0  0  0  0  0  0
  147.3469  139.7926  151.9237 H   0  0  0  0  0  0  0  0  0  0  0  0
  148.0464  138.4028  152.7381 H   0  0  0  0  0  0  0  0  0  0  0  0
  145.0415  138.4538  152.4026 H   0  0  0  0  0  0  0  0  0  0  0  0
  145.1755  138.1128  150.3332 H   0  0  0  0  0  0  0  0  0  0  0  0
  147.1788  136.2532  152.4098 H   0  0  0  0  0  0  0  0  0  0  0  0
  145.9845  136.5688  153.6396 H   0  0  0  0  0  0  0  0  0  0  0  0
  143.5317  136.9427  151.2856 H   0  0  0  0  0  0  0  0  0  0  0  0
  143.4630  131.9589  150.3963 H   0  0  0  0  0  0  0  0  0  0  0  0
  145.3909  130.5452  151.1273 H   0  0  0  0  0  0  0  0  0  0  0  0
  147.3309  131.5426  152.2791 H   0  0  0  0  0  0  0  0  0  0  0  0
  147.4323  133.9839  152.7515 H   0  0  0  0  0  0  0  0  0  0  0  0
  149.5103  139.1473  153.4621 H   0  0  0  0  0  0  0  0  0  0  0  0
  151.6828  138.9299  154.6088 H   0  0  0  0  0  0  0  0  0  0  0  0
  142.5972  134.7100  150.4308 H   0  0  0  0  0  0  0  0  0  0  0  0
  1  2  1  0  0  0  0
  1 24  1  0  0  0  0
  1 25  1  0  0  0  0
  1 26  1  0  0  0  0
  2  3  1  0  0  0  0
  3 23  1  0  0  0  0
  3  4  2  0  0  0  0
  4  5  1  0  0  0  0
  4 27  1  0  0  0  0
  5  6  2  0  0  0  0
  5 28  1  0  0  0  0
  6  7  1  0  0  0  0
  6 22  1  0  0  0  0
  7  8  1  0  0  0  0
  7 29  1  0  0  0  0
  7 30  1  0  0  0  0
  8  9  1  0  0  0  0
  9 10  1  0  0  0  0
  9 31  1  0  0  0  0
  9 32  1  0  0  0  0
 10 11  1  0  0  0  0
 10 12  1  0  0  0  0
 10 33  1  0  0  0  0
 11 34  1  0  0  0  0
 12 13  1  0  0  0  0
 12 35  1  0  0  0  0
 12 36  1  0  0  0  0
 13 21  1  0  0  0  0
 13 14  1  0  0  0  0
 14 15  2  0  0  0  0
 14 37  1  0  0  0  0
 15 16  1  0  0  0  0
 15 44  1  0  0  0  0
 16 21  2  0  0  0  0
 16 17  1  0  0  0  0
 17 18  2  0  0  0  0
 17 38  1  0  0  0  0
 18 19  1  0  0  0  0
 18 39  1  0  0  0  0
 19 20  2  0  0  0  0
 19 40  1  0  0  0  0
 20 21  1  0  0  0  0
 20 41  1  0  0  0  0
 22 23  2  0  0  0  0
 22 42  1  0  0  0  0
 23 43  1  0  0  0  0
M  CHG  1  15   1
M  END
> <s_m_source_file>
AV-unprocessed.smi

> <i_m_source_file_index>
2160

> <i_lp_mmshare_version>
43012

> <i_f3d_flags>
0

> <s_epik_input>
W0NIM11PYzFbY0hdW2NIXWMoW2NIXVtjSF0xKVtDSDJdT1tDSDJdW0NASF0oW09IXSlbQ0gyXW4oW2NIXW4yKWMoYzIzKVtjSF1bY0hdW2NIXVtjSF0z

> <s_epik_cmdline>
J2VwaWtfcHl0aG9uJywgJy1waCcsICc3LjAnLCAnLXRuJywgJzgnLCAnLW1hJywgJzIwMCcsICctbWV0YWxfYmluZGluZycsICctaW1hZScsICc8aW5maWxlLm1hZT4nLCAnLW9tYWUnLCAnPG91dGZpbGUubWFlPic=

> <r_lp_tautomer_probability>
1

> <r_epik_Ionization_Penalty>
1.28975

> <r_epik_Ionization_Penalty_Charging>
1.28975

> <r_epik_Ionization_Penalty_Neutral>
9.74819e-07

> <r_epik_State_Penalty>
1.36276

> <r_epik_Charging_Adjusted_Penalty>
2.65251

> <i_epik_Tot_Q>
1

> <i_epik_Tot_abs_Q>
1

> <r_epik_Metal_State_Penalty>
5.39298

> <b_epik_Metal_Only>
0

> <s_lp_Force_Field>
OPLS_2005

> <r_lp_Energy>
25.2455

> <b_lp_Chiralities_Consistent>
1

> <s_lp_Variant>
AV-unprocessed.smi:2160-4

> <Gold.Version>
5.8.1

> <Gold.Id.Protein>
6NUR|6NUR_protein|mol2

> <Gold.PLP.Fitness>
55.3399

> <Gold.PLP.PLP>
-39.8751

> <Gold.PLP.part.hbond>
-4.1167

> <Gold.PLP.part.metal>
0.0000

> <Gold.PLP.part.buried>
2.7561

> <Gold.PLP.part.nonpolar>
-38.3752

> <Gold.PLP.part.repulsive>
0.1914

> <Gold.PLP.ligand.clash>
0.0000

> <Gold.PLP.ligand.torsion>
1.2713

> <Gold.PLP.Chemscore.Hbond>
4.9440

> <Gold.PLP.Chemscore.CHOScore>
1.0000

> <Gold.PLP.Chemscore.Metal>
0.0000

> <Gold.Chemscore.Hbonds>
donor molecule, donor type, donor heavy atom, donor atom, acceptor molecule, acceptor atom, score
      L1  H    11    34       P1 10171  0.86
      L1  H    15    44       P1 10186  1.90
      P1  H  7954  7966       L1    11  0.41
      P1  H  7997  8008       L1     2  0.50
      L1  C    14    37       P1 10171  1.00

> <Gold.PLP.Chemscore.Internal.Correction>
0.1753

> <Gold.Rescore>
     Score         DG    S(hbond)    S(metal)    S(lipo)     H(rot)  DE(clash)    DE(int)     intcor
     17.29     -20.27       2.73        0.00     108.51       2.74       1.76       1.22       ----

> <Gold.Chemscore.Fitness>
17.2946

> <Gold.Chemscore.DG>
-20.2725

> <Gold.Chemscore.ZeroCoef>
-5.4800

> <Gold.Chemscore.Hbond>
2.7271

> <Gold.Chemscore.Metal>
0.0000

> <Gold.Chemscore.Lipo>
108.5108

> <Gold.Chemscore.Internal_Hbond>
0.0000

> <Gold.Chemscore.DEClash>
1.7601

> <Gold.Chemscore.DEInternal>
1.2178

> <Gold.Chemscore.Rot>
2.7390

> <Gold.Chemscore.Internal.Correction>
   9.000000E+99

> <Gold.Chemscore.Hbonds>
donor molecule, donor type, donor heavy atom, donor atom, acceptor molecule, acceptor atom, score
      L1  H    11    34       P1 10171  0.84
      L1  H    15    44       P1 10186  0.22
      P1  H  7954  7966       L1    11  0.34
      P1  H  7997  8008       L1     2  0.02

> <Gold.Chemscore.Hbond.Weighted>
-9.1085

> <Gold.Chemscore.Metal.Weighted>
-0.0000

> <Gold.Chemscore.Lipo.Weighted>
-12.6958

> <Gold.Chemscore.Internal_Hbond.Weighted>
0.0000

> <Gold.Chemscore.DEClash.Weighted>
1.7601

> <Gold.Chemscore.DEInternal.Weighted>
1.2178

> <Gold.Chemscore.Rot.Weighted>
7.0118

> <Gold.Chemscore.Internal.Correction.Weighted>
   9.000000E+99

> <Gold.Protein.RotatedTorsions>
[ 6907 6896 6895 6894 ] final  -22.60 input  -60.11 | X-H torsion
[ 7974 7965 7964 7962 ] final -129.65 input  175.53 | X-H torsion
[ 8008 7997 7996 7995 ] final  -50.16 input   59.86 | X-H torsion
[ 10167 10162 10161 10158 ] final  174.33 input  -65.29 | X-H torsion
[ 10718 10713 10712 10709 ] final   37.50 input   66.30 | X-H torsion
[ 10763 10752 10751 10750 ] final  143.86 input  -60.55 | X-H torsion
[ 11005 11000 10999 10996 ] final -119.77 input  -57.11 | X-H torsion

> <Gold.Protein.ActiveResidues>
 VAL166  LYS551  ARG553  GLY616  TRP617  ASP618  TYR619  PRO620  LYS621  CYS622 
 ASP623  PHE694  ASN695  SER759  ASP760  ASP761  ALA762  ILE779  LEU786  VAL792 
 PHE793  MET794  SER795  GLU796  ALA797  LYS798  CYS799  TRP800  GLU811  SER814 

> <Gold.Protein.RotatedAtoms>
  151.2162  135.0500  159.8930 H   0  0  0  0  0  0  0  0  0  0  0  0  # atno 6907 bound_to 6896
  152.5420  134.0691  159.8196 H   0  0  0  0  0  0  0  0  0  0  0  0  # atno 6908 bound_to 6896
  151.0851  133.5312  159.2650 H   0  0  0  0  0  0  0  0  0  0  0  0  # atno 6909 bound_to 6896
  144.9551  140.7387  143.4763 H   0  0  0  0  0  0  0  0  0  0  0  0  # atno 7974 bound_to 7965
  154.4057  140.1279  156.4621 H   0  0  0  0  0  0  0  0  0  0  0  0  # atno 8008 bound_to 7997
  155.7263  140.3492  155.5019 H   0  0  0  0  0  0  0  0  0  0  0  0  # atno 8009 bound_to 7997
  155.9169  140.1045  157.1227 H   0  0  0  0  0  0  0  0  0  0  0  0  # atno 8010 bound_to 7997
  139.5138  144.3159  152.0248 H   0  0  0  0  0  0  0  0  0  0  0  0  # atno 10167 bound_to 10162
  157.3477  130.7581  149.6956 H   0  0  0  0  0  0  0  0  0  0  0  0  # atno 10718 bound_to 10713
  153.9793  135.2943  155.3421 H   0  0  0  0  0  0  0  0  0  0  0  0  # atno 10763 bound_to 10752
  154.7278  135.5081  153.8917 H   0  0  0  0  0  0  0  0  0  0  0  0  # atno 10764 bound_to 10752
  153.0862  135.6694  154.0058 H   0  0  0  0  0  0  0  0  0  0  0  0  # atno 10765 bound_to 10752
  141.0192  134.0150  157.3307 H   0  0  0  0  0  0  0  0  0  0  0  0  # atno 11005 bound_to 11000
  145.2784  139.1927  143.4804 LP  0  0  0  0  0  0  0  0  0  0  0  0  # atno 17320 bound_to 7965
  146.3334  140.2742  142.8607 LP  0  0  0  0  0  0  0  0  0  0  0  0  # atno 17321 bound_to 7965
  140.2602  144.4075  150.6188 LP  0  0  0  0  0  0  0  0  0  0  0  0  # atno 17342 bound_to 10162
  140.6162  143.2172  151.6786 LP  0  0  0  0  0  0  0  0  0  0  0  0  # atno 17343 bound_to 10162
  155.9717  130.4149  150.4157 LP  0  0  0  0  0  0  0  0  0  0  0  0  # atno 17370 bound_to 10713
  157.2215  131.0483  151.2544 LP  0  0  0  0  0  0  0  0  0  0  0  0  # atno 17371 bound_to 10713
  139.9135  135.0194  156.7789 LP  0  0  0  0  0  0  0  0  0  0  0  0  # atno 17394 bound_to 11000
  140.6603  133.9651  155.7801 LP  0  0  0  0  0  0  0  0  0  0  0  0  # atno 17395 bound_to 11000

$$$$
