AV-unprocessed.smi:2780|AV-procd|sdf|10716|dock8
  -GOLD-   2272015153D 1   1.00000     0.00000
 Structure written by MMmdl.
 47 49  0  0  0  0  0  0  0  0  2 V2000
  147.2998  142.0354  154.4001 C   0  0  0  0  0  0  0  0  0  0  0  0
  148.2988  140.8999  154.5453 C   0  0  0  0  0  0  0  0  0  0  0  0
  148.1146  139.7227  153.9159 C   0  0  0  0  0  0  0  0  0  0  0  0
  149.0802  138.5535  153.9715 C   0  0  0  0  0  0  0  0  0  0  0  0
  150.2020  138.7525  155.0028 C   0  0  0  0  0  0  0  0  0  0  0  0
  150.6890  140.2125  155.0326 C   0  0  2  0  0  0  0  0  0  0  0  0
  151.9723  140.3669  155.8665 C   0  0  0  0  0  0  0  0  0  0  0  0
  149.5321  141.1897  155.4056 C   0  0  2  0  0  0  0  0  0  0  0  0
  149.1441  141.1890  156.9066 C   0  0  0  0  0  0  0  0  0  0  0  0
  148.2118  142.2824  157.2470 N   0  3  0  0  0  0  0  0  0  0  0  0
  148.2866  142.7231  158.6526 C   0  0  0  0  0  0  0  0  0  0  0  0
  146.9930  143.4327  159.0741 C   0  0  0  0  0  0  0  0  0  0  0  0
  147.2356  144.4126  160.1168 N   0  0  0  0  0  0  0  0  0  0  0  0
  147.9733  145.5318  160.0543 C   0  0  0  0  0  0  0  0  0  0  0  0
  147.9960  146.2549  161.1728 N   0  0  0  0  0  0  0  0  0  0  0  0
  147.2026  145.5520  162.0573 N   0  0  0  0  0  0  0  0  0  0  0  0
  146.7925  144.4670  161.3901 C   0  0  0  0  0  0  0  0  0  0  0  0
  145.8770  143.4356  161.9704 C   0  0  0  0  0  0  0  0  0  0  0  0
  144.5584  143.1014  161.3083 C   0  0  0  0  0  0  0  0  0  0  0  0
  144.5715  143.8257  162.6287 C   0  0  0  0  0  0  0  0  0  0  0  0
  147.7905  142.9212  153.9960 H   0  0  0  0  0  0  0  0  0  0  0  0
  146.8533  142.2979  155.3584 H   0  0  0  0  0  0  0  0  0  0  0  0
  146.4893  141.7654  153.7222 H   0  0  0  0  0  0  0  0  0  0  0  0
  147.2395  139.5777  153.2990 H   0  0  0  0  0  0  0  0  0  0  0  0
  148.5300  137.6370  154.1869 H   0  0  0  0  0  0  0  0  0  0  0  0
  149.5100  138.4366  152.9762 H   0  0  0  0  0  0  0  0  0  0  0  0
  149.8474  138.4585  155.9908 H   0  0  0  0  0  0  0  0  0  0  0  0
  151.0272  138.0789  154.7685 H   0  0  0  0  0  0  0  0  0  0  0  0
  150.9789  140.4606  154.0098 H   0  0  0  0  0  0  0  0  0  0  0  0
  151.8347  140.0198  156.8907 H   0  0  0  0  0  0  0  0  0  0  0  0
  152.3034  141.4052  155.8958 H   0  0  0  0  0  0  0  0  0  0  0  0
  152.7845  139.7802  155.4363 H   0  0  0  0  0  0  0  0  0  0  0  0
  149.8585  142.1969  155.1409 H   0  0  0  0  0  0  0  0  0  0  0  0
  148.6477  140.2580  157.1776 H   0  0  0  0  0  0  0  0  0  0  0  0
  150.0339  141.2521  157.5329 H   0  0  0  0  0  0  0  0  0  0  0  0
  148.4240  143.0729  156.6551 H   0  0  0  0  0  0  0  0  0  0  0  0
  148.4682  141.8597  159.2939 H   0  0  0  0  0  0  0  0  0  0  0  0
  149.1378  143.3952  158.7673 H   0  0  0  0  0  0  0  0  0  0  0  0
  146.5316  143.9320  158.2222 H   0  0  0  0  0  0  0  0  0  0  0  0
  146.2661  142.7074  159.4423 H   0  0  0  0  0  0  0  0  0  0  0  0
  148.5029  145.8321  159.1621 H   0  0  0  0  0  0  0  0  0  0  0  0
  146.4460  142.6162  162.4049 H   0  0  0  0  0  0  0  0  0  0  0  0
  144.2716  143.6726  160.4272 H   0  0  0  0  0  0  0  0  0  0  0  0
  144.2467  142.0590  161.3097 H   0  0  0  0  0  0  0  0  0  0  0  0
  144.2700  143.2680  163.5129 H   0  0  0  0  0  0  0  0  0  0  0  0
  144.2909  144.8773  162.6217 H   0  0  0  0  0  0  0  0  0  0  0  0
  147.2697  141.9758  157.0503 H   0  0  0  0  0  0  0  0  0  0  0  0
  1  2  1  0  0  0  0
  1 21  1  0  0  0  0
  1 22  1  0  0  0  0
  1 23  1  0  0  0  0
  2  8  1  0  0  0  0
  2  3  2  0  0  0  0
  3  4  1  0  0  0  0
  3 24  1  0  0  0  0
  4  5  1  0  0  0  0
  4 25  1  0  0  0  0
  4 26  1  0  0  0  0
  5  6  1  0  0  0  0
  5 27  1  0  0  0  0
  5 28  1  0  0  0  0
  6  7  1  0  0  0  0
  6  8  1  0  0  0  0
  6 29  1  0  0  0  0
  7 30  1  0  0  0  0
  7 31  1  0  0  0  0
  7 32  1  0  0  0  0
  8  9  1  0  0  0  0
  8 33  1  0  0  0  0
  9 10  1  0  0  0  0
  9 34  1  0  0  0  0
  9 35  1  0  0  0  0
 10 11  1  0  0  0  0
 10 36  1  0  0  0  0
 10 47  1  0  0  0  0
 11 12  1  0  0  0  0
 11 37  1  0  0  0  0
 11 38  1  0  0  0  0
 12 13  1  0  0  0  0
 12 39  1  0  0  0  0
 12 40  1  0  0  0  0
 13 17  1  0  0  0  0
 13 14  1  0  0  0  0
 14 15  2  0  0  0  0
 14 41  1  0  0  0  0
 15 16  1  0  0  0  0
 16 17  2  0  0  0  0
 17 18  1  0  0  0  0
 18 20  1  0  0  0  0
 18 19  1  0  0  0  0
 18 42  1  0  0  0  0
 19 20  1  0  0  0  0
 19 43  1  0  0  0  0
 19 44  1  0  0  0  0
 20 45  1  0  0  0  0
 20 46  1  0  0  0  0
M  CHG  1  10   1
M  END
> <s_m_source_file>
AV-unprocessed.smi

> <i_m_source_file_index>
2780

> <i_lp_mmshare_version>
43012

> <i_f3d_flags>
0

> <s_epik_input>
W0NIM11DMT1bQ0hdW0NIMl1bQ0gyXVtDQEBIXShbQ0gzXSlbQ0BIXTFbQ0gyXVtOSF1bQ0gyXVtDSDJdbjJbY0hdbm5jMltDSF0zW0NIMl1bQ0gyXTM=

> <s_epik_cmdline>
J2VwaWtfcHl0aG9uJywgJy1waCcsICc3LjAnLCAnLXRuJywgJzgnLCAnLW1hJywgJzIwMCcsICctbWV0YWxfYmluZGluZycsICctaW1hZScsICc8aW5maWxlLm1hZT4nLCAnLW9tYWUnLCAnPG91dGZpbGUubWFlPic=

> <r_lp_tautomer_probability>
1

> <r_epik_Ionization_Penalty>
0.00176214

> <r_epik_Ionization_Penalty_Charging>
0.00175191

> <r_epik_Ionization_Penalty_Neutral>
1.02377e-05

> <r_epik_State_Penalty>
-0

> <r_epik_Charging_Adjusted_Penalty>
0.00175191

> <i_epik_Tot_Q>
1

> <i_epik_Tot_abs_Q>
1

> <r_epik_Metal_State_Penalty>
-0

> <b_epik_Metal_Only>
0

> <s_lp_Force_Field>
OPLS_2005

> <r_lp_Energy>
23.8201

> <b_lp_Chiralities_Consistent>
1

> <s_lp_Variant>
AV-unprocessed.smi:2780-4

> <Gold.Version>
5.8.1

> <Gold.Id.Protein>
6NUR|6NUR_protein|mol2

> <Gold.PLP.Fitness>
45.5608

> <Gold.PLP.PLP>
-37.4982

> <Gold.PLP.part.hbond>
-4.8823

> <Gold.PLP.part.metal>
0.0000

> <Gold.PLP.part.buried>
2.3001

> <Gold.PLP.part.nonpolar>
-35.5085

> <Gold.PLP.part.repulsive>
0.5480

> <Gold.PLP.ligand.clash>
0.0130

> <Gold.PLP.ligand.torsion>
0.5517

> <Gold.PLP.Chemscore.Hbond>
2.0000

> <Gold.PLP.Chemscore.CHOScore>
0.9832

> <Gold.PLP.Chemscore.Metal>
0.0000

> <Gold.Chemscore.Hbonds>
donor molecule, donor type, donor heavy atom, donor atom, acceptor molecule, acceptor atom, score
      L1  H    10    36       P1  8028  2.00
      L1  C    14    41       P1  8029  0.86

> <Gold.PLP.Chemscore.Internal.Correction>
0.2293

> <Gold.Rescore>
     Score         DG    S(hbond)    S(metal)    S(lipo)     H(rot)  DE(clash)    DE(int)     intcor
      7.80     -12.05       0.81        0.00      76.49       1.98       3.09       1.16       ----

> <Gold.Chemscore.Fitness>
7.8016

> <Gold.Chemscore.DG>
-12.0527

> <Gold.Chemscore.ZeroCoef>
-5.4800

> <Gold.Chemscore.Hbond>
0.8059

> <Gold.Chemscore.Metal>
0.0000

> <Gold.Chemscore.Lipo>
76.4908

> <Gold.Chemscore.Internal_Hbond>
0.0000

> <Gold.Chemscore.DEClash>
3.0930

> <Gold.Chemscore.DEInternal>
1.1581

> <Gold.Chemscore.Rot>
1.9799

> <Gold.Chemscore.Internal.Correction>
   9.000000E+99

> <Gold.Chemscore.Hbonds>
donor molecule, donor type, donor heavy atom, donor atom, acceptor molecule, acceptor atom, score
      L1  H    10    36       P1  8028  0.59

> <Gold.Chemscore.Hbond.Weighted>
-2.6918

> <Gold.Chemscore.Metal.Weighted>
-0.0000

> <Gold.Chemscore.Lipo.Weighted>
-8.9494

> <Gold.Chemscore.Internal_Hbond.Weighted>
0.0000

> <Gold.Chemscore.DEClash.Weighted>
3.0930

> <Gold.Chemscore.DEInternal.Weighted>
1.1581

> <Gold.Chemscore.Rot.Weighted>
5.0685

> <Gold.Chemscore.Internal.Correction.Weighted>
   9.000000E+99

> <Gold.Protein.RotatedTorsions>
[ 6907 6896 6895 6894 ] final  112.58 input  -60.11 | X-H torsion
[ 7974 7965 7964 7962 ] final -152.43 input  175.53 | X-H torsion
[ 8008 7997 7996 7995 ] final   31.80 input   59.86 | X-H torsion
[ 10167 10162 10161 10158 ] final  157.88 input  -65.29 | X-H torsion
[ 10718 10713 10712 10709 ] final   73.96 input   66.30 | X-H torsion
[ 10763 10752 10751 10750 ] final  -15.22 input  -60.55 | X-H torsion
[ 11005 11000 10999 10996 ] final  111.81 input  -57.11 | X-H torsion

> <Gold.Protein.ActiveResidues>
 VAL166  LYS551  ARG553  GLY616  TRP617  ASP618  TYR619  PRO620  LYS621  CYS622 
 ASP623  PHE694  ASN695  SER759  ASP760  ASP761  ALA762  ILE779  LEU786  VAL792 
 PHE793  MET794  SER795  GLU796  ALA797  LYS798  CYS799  TRP800  GLU811  SER814 

> <Gold.Protein.RotatedAtoms>
  152.4908  133.8496  159.7194 H   0  0  0  0  0  0  0  0  0  0  0  0  # atno 6907 bound_to 6896
  150.9036  133.7077  159.2879 H   0  0  0  0  0  0  0  0  0  0  0  0  # atno 6908 bound_to 6896
  151.4510  135.1034  159.9750 H   0  0  0  0  0  0  0  0  0  0  0  0  # atno 6909 bound_to 6896
  144.7795  140.4663  143.5850 H   0  0  0  0  0  0  0  0  0  0  0  0  # atno 7974 bound_to 7965
  155.1122  140.3240  155.4519 H   0  0  0  0  0  0  0  0  0  0  0  0  # atno 8008 bound_to 7997
  156.2687  140.2042  156.6194 H   0  0  0  0  0  0  0  0  0  0  0  0  # atno 8009 bound_to 7997
  154.6747  140.0532  157.0190 H   0  0  0  0  0  0  0  0  0  0  0  0  # atno 8010 bound_to 7997
  139.4824  144.4876  151.8354 H   0  0  0  0  0  0  0  0  0  0  0  0  # atno 10167 bound_to 10162
  157.6571  130.9654  150.1143 H   0  0  0  0  0  0  0  0  0  0  0  0  # atno 10718 bound_to 10713
  153.5401  135.7013  153.5641 H   0  0  0  0  0  0  0  0  0  0  0  0  # atno 10763 bound_to 10752
  153.3611  135.3969  155.1718 H   0  0  0  0  0  0  0  0  0  0  0  0  # atno 10764 bound_to 10752
  154.8674  135.3789  154.4904 H   0  0  0  0  0  0  0  0  0  0  0  0  # atno 10765 bound_to 10752
  139.8912  134.9516  156.6490 H   0  0  0  0  0  0  0  0  0  0  0  0  # atno 11005 bound_to 11000
  145.6091  139.1511  143.3086 LP  0  0  0  0  0  0  0  0  0  0  0  0  # atno 17320 bound_to 7965
  146.1994  140.6208  142.9109 LP  0  0  0  0  0  0  0  0  0  0  0  0  # atno 17321 bound_to 7965
  140.4358  144.2054  150.5889 LP  0  0  0  0  0  0  0  0  0  0  0  0  # atno 17342 bound_to 10162
  140.4734  143.2405  151.9057 LP  0  0  0  0  0  0  0  0  0  0  0  0  # atno 17343 bound_to 10162
  156.2031  130.3661  149.8763 LP  0  0  0  0  0  0  0  0  0  0  0  0  # atno 17370 bound_to 10713
  156.6662  130.8802  151.3555 LP  0  0  0  0  0  0  0  0  0  0  0  0  # atno 17371 bound_to 10713
  140.7535  133.8877  155.8365 LP  0  0  0  0  0  0  0  0  0  0  0  0  # atno 17394 bound_to 11000
  140.9981  134.1188  157.4344 LP  0  0  0  0  0  0  0  0  0  0  0  0  # atno 17395 bound_to 11000

$$$$
