AV-unprocessed.smi:1221|AV-procd|sdf|5119|dock3
  -GOLD-   22720 4173D 1   1.00000     0.00000
 Structure written by MMmdl.
 39 40  0  0  0  0  0  0  0  0  2 V2000
  144.1497  135.4049  162.9549 C   0  0  0  0  0  0  0  0  0  0  0  0
  145.3442  135.8969  162.2115 C   0  0  0  0  0  0  0  0  0  0  0  0
  146.6336  135.4532  162.1290 C   0  0  0  0  0  0  0  0  0  0  0  0
  147.2423  136.3854  161.2446 C   0  0  0  0  0  0  0  0  0  0  0  0
  148.5275  136.3873  160.8590 N   0  5  0  0  0  0  0  0  0  0  0  0
  148.8478  136.3523  159.5446 C   0  0  0  0  0  0  0  0  0  0  0  0
  148.8773  135.3517  158.8244 O   0  0  0  0  0  0  0  0  0  0  0  0
  149.1562  137.5531  159.0346 N   0  0  0  0  0  0  0  0  0  0  0  0
  149.5460  137.8236  157.6557 C   0  0  0  0  0  0  0  0  0  0  0  0
  150.6080  138.9356  157.5776 C   0  0  0  0  0  0  0  0  0  0  0  0
  150.4252  139.7657  156.3815 N   0  0  0  0  0  0  0  0  0  0  0  0
  150.9862  139.2283  155.1315 C   0  0  0  0  0  0  0  0  0  0  0  0
  149.9184  138.7866  154.1040 C   0  0  0  0  0  0  0  0  0  0  0  0
  148.5769  139.5452  154.1447 C   0  0  0  0  0  0  0  0  0  0  0  0
  148.6921  141.0826  154.0806 C   0  0  0  0  0  0  0  0  0  0  0  0
  149.6192  141.7498  155.1245 C   0  0  0  0  0  0  0  0  0  0  0  0
  149.7780  140.9558  156.4315 C   0  0  0  0  0  0  0  0  0  0  0  0
  149.3141  141.4263  157.4705 O   0  0  0  0  0  0  0  0  0  0  0  0
  146.4003  137.3211  160.8392 N   0  0  0  0  0  0  0  0  0  0  0  0
  145.1793  137.0119  161.4504 O   0  0  0  0  0  0  0  0  0  0  0  0
  144.2355  135.6364  164.0164 H   0  0  0  0  0  0  0  0  0  0  0  0
  144.0476  134.3248  162.8508 H   0  0  0  0  0  0  0  0  0  0  0  0
  143.2360  135.8674  162.5806 H   0  0  0  0  0  0  0  0  0  0  0  0
  147.0725  134.5978  162.6201 H   0  0  0  0  0  0  0  0  0  0  0  0
  149.1168  138.3439  159.6606 H   0  0  0  0  0  0  0  0  0  0  0  0
  149.8993  136.9101  157.1746 H   0  0  0  0  0  0  0  0  0  0  0  0
  148.6491  138.1299  157.1169 H   0  0  0  0  0  0  0  0  0  0  0  0
  150.5618  139.5575  158.4729 H   0  0  0  0  0  0  0  0  0  0  0  0
  151.6093  138.5010  157.5854 H   0  0  0  0  0  0  0  0  0  0  0  0
  151.6395  139.9774  154.6839 H   0  0  0  0  0  0  0  0  0  0  0  0
  151.6544  138.3902  155.3337 H   0  0  0  0  0  0  0  0  0  0  0  0
  150.3460  138.8528  153.1030 H   0  0  0  0  0  0  0  0  0  0  0  0
  149.7048  137.7289  154.2616 H   0  0  0  0  0  0  0  0  0  0  0  0
  147.9556  139.2042  153.3162 H   0  0  0  0  0  0  0  0  0  0  0  0
  148.0285  139.2591  155.0434 H   0  0  0  0  0  0  0  0  0  0  0  0
  149.0289  141.3706  153.0842 H   0  0  0  0  0  0  0  0  0  0  0  0
  147.6912  141.5037  154.1824 H   0  0  0  0  0  0  0  0  0  0  0  0
  150.6054  141.9217  154.6942 H   0  0  0  0  0  0  0  0  0  0  0  0
  149.2400  142.7463  155.3547 H   0  0  0  0  0  0  0  0  0  0  0  0
  1  2  1  0  0  0  0
  1 21  1  0  0  0  0
  1 22  1  0  0  0  0
  1 23  1  0  0  0  0
  2 20  1  0  0  0  0
  2  3  2  0  0  0  0
  3  4  1  0  0  0  0
  3 24  1  0  0  0  0
  4  5  1  0  0  0  0
  4 19  2  0  0  0  0
  5  6  1  0  0  0  0
  6  7  2  0  0  0  0
  6  8  1  0  0  0  0
  8  9  1  0  0  0  0
  8 25  1  0  0  0  0
  9 10  1  0  0  0  0
  9 26  1  0  0  0  0
  9 27  1  0  0  0  0
 10 11  1  0  0  0  0
 10 28  1  0  0  0  0
 10 29  1  0  0  0  0
 11 17  1  0  0  0  0
 11 12  1  0  0  0  0
 12 13  1  0  0  0  0
 12 30  1  0  0  0  0
 12 31  1  0  0  0  0
 13 14  1  0  0  0  0
 13 32  1  0  0  0  0
 13 33  1  0  0  0  0
 14 15  1  0  0  0  0
 14 34  1  0  0  0  0
 14 35  1  0  0  0  0
 15 16  1  0  0  0  0
 15 36  1  0  0  0  0
 15 37  1  0  0  0  0
 16 17  1  0  0  0  0
 16 38  1  0  0  0  0
 16 39  1  0  0  0  0
 17 18  2  0  0  0  0
 19 20  1  0  0  0  0
M  CHG  1   5  -1
M  END
> <s_m_source_file>
AV-unprocessed.smi

> <i_m_source_file_index>
1221

> <i_lp_mmshare_version>
43012

> <i_f3d_flags>
0

> <s_epik_input>
W0NIM11jMVtjSF1jKG5vMSlbTkhdQyg9TylbTkhdW0NIMl1bQ0gyXU4yW0NIMl1bQ0gyXVtDSDJdW0NIMl1bQ0gyXUMyPU8=

> <s_epik_cmdline>
J2VwaWtfcHl0aG9uJywgJy1waCcsICc3LjAnLCAnLXRuJywgJzgnLCAnLW1hJywgJzIwMCcsICctbWV0YWxfYmluZGluZycsICctaW1hZScsICc8aW5maWxlLm1hZT4nLCAnLW9tYWUnLCAnPG91dGZpbGUubWFlPic=

> <r_lp_tautomer_probability>
1

> <r_epik_Ionization_Penalty>
6.46803

> <r_epik_Ionization_Penalty_Charging>
6.46791

> <r_epik_Ionization_Penalty_Neutral>
0.00012322

> <r_epik_State_Penalty>
6.4679

> <r_epik_Charging_Adjusted_Penalty>
12.9358

> <i_epik_Tot_Q>
-1

> <i_epik_Tot_abs_Q>
1

> <r_epik_Metal_State_Penalty>
2.39627

> <b_epik_Metal_Only>
1

> <s_lp_Force_Field>
OPLS_2005

> <r_lp_Energy>
15.4009

> <b_lp_Chiralities_Consistent>
1

> <s_lp_Variant>
AV-unprocessed.smi:1221-2

> <Gold.Version>
5.8.1

> <Gold.Id.Protein>
6NUR|6NUR_protein|mol2

> <Gold.PLP.Fitness>
39.5935

> <Gold.PLP.PLP>
-31.5205

> <Gold.PLP.part.hbond>
-3.0000

> <Gold.PLP.part.metal>
0.0000

> <Gold.PLP.part.buried>
-1.8526

> <Gold.PLP.part.nonpolar>
-27.4211

> <Gold.PLP.part.repulsive>
0.4783

> <Gold.PLP.ligand.clash>
0.0000

> <Gold.PLP.ligand.torsion>
1.9729

> <Gold.PLP.Chemscore.Hbond>
4.0000

> <Gold.PLP.Chemscore.CHOScore>
0.0000

> <Gold.PLP.Chemscore.Metal>
0.0000

> <Gold.Chemscore.Hbonds>
donor molecule, donor type, donor heavy atom, donor atom, acceptor molecule, acceptor atom, score
      P1  H  6896  6908       L1     7  0.81
      P1  H  6931  6943       L1     5  0.96
      P1  H  6934  6947       L1    19  1.00

> <Gold.PLP.Chemscore.Internal.Correction>
0.0189

> <Gold.Rescore>
     Score         DG    S(hbond)    S(metal)    S(lipo)     H(rot)  DE(clash)    DE(int)     intcor
     13.42     -15.74       2.07        0.00      63.53       1.60       0.27       2.05       ----

> <Gold.Chemscore.Fitness>
13.4221

> <Gold.Chemscore.DG>
-15.7400

> <Gold.Chemscore.ZeroCoef>
-5.4800

> <Gold.Chemscore.Hbond>
2.0711

> <Gold.Chemscore.Metal>
0.0000

> <Gold.Chemscore.Lipo>
63.5292

> <Gold.Chemscore.Internal_Hbond>
0.0000

> <Gold.Chemscore.DEClash>
0.2677

> <Gold.Chemscore.DEInternal>
2.0502

> <Gold.Chemscore.Rot>
1.5978

> <Gold.Chemscore.Internal.Correction>
   9.000000E+99

> <Gold.Chemscore.Hbonds>
donor molecule, donor type, donor heavy atom, donor atom, acceptor molecule, acceptor atom, score
      P1  H  6896  6908       L1     7  0.32
      P1  H  6931  6943       L1     5  0.06
      P1  H  6934  6947       L1    19  0.81

> <Gold.Chemscore.Hbond.Weighted>
-6.9174

> <Gold.Chemscore.Metal.Weighted>
-0.0000

> <Gold.Chemscore.Lipo.Weighted>
-7.4329

> <Gold.Chemscore.Internal_Hbond.Weighted>
0.0000

> <Gold.Chemscore.DEClash.Weighted>
0.2677

> <Gold.Chemscore.DEInternal.Weighted>
2.0502

> <Gold.Chemscore.Rot.Weighted>
4.0902

> <Gold.Chemscore.Internal.Correction.Weighted>
   9.000000E+99

> <Gold.Protein.RotatedTorsions>
[ 6907 6896 6895 6894 ] final  155.54 input  -60.11 | X-H torsion
[ 7974 7965 7964 7962 ] final  -79.20 input  175.53 | X-H torsion
[ 8008 7997 7996 7995 ] final  -51.48 input   59.86 | X-H torsion
[ 10167 10162 10161 10158 ] final -127.38 input  -65.29 | X-H torsion
[ 10718 10713 10712 10709 ] final  105.31 input   66.30 | X-H torsion
[ 10763 10752 10751 10750 ] final  128.29 input  -60.55 | X-H torsion
[ 11005 11000 10999 10996 ] final -143.32 input  -57.11 | X-H torsion

> <Gold.Protein.ActiveResidues>
 VAL166  LYS551  ARG553  GLY616  TRP617  ASP618  TYR619  PRO620  LYS621  CYS622 
 ASP623  PHE694  ASN695  SER759  ASP760  ASP761  ALA762  ILE779  LEU786  VAL792 
 PHE793  MET794  SER795  GLU796  ALA797  LYS798  CYS799  TRP800  GLU811  SER814 

> <Gold.Protein.RotatedAtoms>
  152.0427  133.3984  159.4343 H   0  0  0  0  0  0  0  0  0  0  0  0  # atno 6907 bound_to 6896
  150.6874  134.3396  159.4871 H   0  0  0  0  0  0  0  0  0  0  0  0  # atno 6908 bound_to 6896
  152.1197  134.9214  160.0614 H   0  0  0  0  0  0  0  0  0  0  0  0  # atno 6909 bound_to 6896
  145.5764  140.9457  143.1368 H   0  0  0  0  0  0  0  0  0  0  0  0  # atno 7974 bound_to 7965
  154.4084  140.1247  156.4836 H   0  0  0  0  0  0  0  0  0  0  0  0  # atno 8008 bound_to 7997
  155.7060  140.3494  155.4934 H   0  0  0  0  0  0  0  0  0  0  0  0  # atno 8009 bound_to 7997
  155.9342  140.1075  157.1097 H   0  0  0  0  0  0  0  0  0  0  0  0  # atno 8010 bound_to 7997
  139.9615  143.5945  152.2443 H   0  0  0  0  0  0  0  0  0  0  0  0  # atno 10167 bound_to 10162
  157.6710  131.0825  150.5838 H   0  0  0  0  0  0  0  0  0  0  0  0  # atno 10718 bound_to 10713
  153.7231  135.3250  155.3271 H   0  0  0  0  0  0  0  0  0  0  0  0  # atno 10763 bound_to 10752
  154.8349  135.4504  154.1197 H   0  0  0  0  0  0  0  0  0  0  0  0  # atno 10764 bound_to 10752
  153.2323  135.6961  153.7956 H   0  0  0  0  0  0  0  0  0  0  0  0  # atno 10765 bound_to 10752
  140.8137  134.2714  157.4930 H   0  0  0  0  0  0  0  0  0  0  0  0  # atno 11005 bound_to 11000
  144.7414  139.7438  143.7309 LP  0  0  0  0  0  0  0  0  0  0  0  0  # atno 17320 bound_to 7965
  146.1748  139.4913  142.9904 LP  0  0  0  0  0  0  0  0  0  0  0  0  # atno 17321 bound_to 7965
  139.6551  144.7662  151.2072 LP  0  0  0  0  0  0  0  0  0  0  0  0  # atno 17342 bound_to 10162
  140.7552  143.6099  150.8616 LP  0  0  0  0  0  0  0  0  0  0  0  0  # atno 17343 bound_to 10162
  156.6138  130.4387  149.5848 LP  0  0  0  0  0  0  0  0  0  0  0  0  # atno 17370 bound_to 10713
  156.2409  130.6851  151.1555 LP  0  0  0  0  0  0  0  0  0  0  0  0  # atno 17371 bound_to 10713
  139.8712  134.9497  156.4034 LP  0  0  0  0  0  0  0  0  0  0  0  0  # atno 17394 bound_to 11000
  140.9171  133.7671  155.9862 LP  0  0  0  0  0  0  0  0  0  0  0  0  # atno 17395 bound_to 11000

$$$$
