#       Name:                AV-unprocessed.smi:2932
#       Creating user name   scv26
#       Creation time:       Fri Mar 27 16:14:28 2020


#       File generated by GOLD software.
#

@<TRIPOS>MOLECULE
AV-unprocessed.smi:2932
    37    37     1
SMALL
NO_CHARGES


@<TRIPOS>ATOM
      1 ****        -2.6125   3.7045   2.0743 C.3            1 S1                 0.0000
      2 ****        -2.0875   2.5984   1.2061 C.2            1 S1                 0.0000
      3 ****        -1.7797   1.4273   1.7421 N.2            1 S1                 0.0000
      4 ****        -1.3374   0.6615   0.7118 N.pl3          1 S1                 0.0000
      5 ****        -0.9197  -0.7067   0.9817 C.3            1 S1                 0.0000
      6 ****         0.5993  -0.8603   0.8782 C.2            1 S1                 0.0000
      7 ****         1.3354  -0.2761   1.6732 O.2            1 S1                 0.0000
      8 ****         1.0501  -1.6401  -0.1170 N.am           1 S1                 0.0000
      9 ****         2.4527  -1.9342  -0.4014 C.3            1 S1                 0.0000
     10 ****         2.5750  -2.2898  -1.8929 C.3            1 S1                 0.0000
     11 ****         2.9197  -3.1430   0.4244 C.2            1 S1                 0.0000
     12 ****         3.9833  -3.0113   1.0683 O.co2          1 S1                 0.0000
     13 ****         2.2146  -4.1772   0.3952 O.co2          1 S1                -1.0000
     14 ****        -1.3692   1.3432  -0.4960 C.2            1 S1                 0.0000
     15 ****        -0.9427   0.7423  -1.7967 C.3            1 S1                 0.0000
     16 ****        -1.8435   2.5847  -0.1917 C.2            1 S1                 0.0000
     17 ****        -2.0981   3.8881  -1.2948 Cl             1 S1                 0.0000
     18 ****         3.0771  -1.0662  -0.1806 H              1 S1                 0.0000
     19 ****        -2.9758   4.5405   1.4767 H              1 S1                 0.0000
     20 ****        -1.8343   4.0839   2.7366 H              1 S1                 0.0000
     21 ****        -3.4399   3.3590   2.6944 H              1 S1                 0.0000
     22 ****        -1.2403  -0.9974   1.9834 H              1 S1                 0.0000
     23 ****        -1.4271  -1.3725   0.2822 H              1 S1                 0.0000
     24 ****         0.3690  -2.0926  -0.7084 H              1 S1                 0.0000
     25 ****         3.6049  -2.5317  -2.1585 H              1 S1                 0.0000
     26 ****         2.2678  -1.4502  -2.5171 H              1 S1                 0.0000
     27 ****         1.9518  -3.1441  -2.1621 H              1 S1                 0.0000
     28 ****        -1.2431   1.3694  -2.6359 H              1 S1                 0.0000
     29 ****        -1.3898  -0.2413  -1.9400 H              1 S1                 0.0000
     30 ****         0.1411   0.6322  -1.8343 H              1 S1                 0.0000
     31 ****        -1.8568   1.1626   2.7033 LP             1 S1                 0.0000
     32 ****         0.9410   0.3005   2.3887 LP             1 S1                 0.0000
     33 ****         2.3277  -0.3781   1.6034 LP             1 S1                 0.0000
     34 ****         4.3328  -3.7707   1.6170 LP             1 S1                 0.0000
     35 ****         4.4844  -2.1466   1.0345 LP             1 S1                 0.0000
     36 ****         2.4903  -4.9852   0.9158 LP             1 S1                 0.0000
     37 ****         1.3756  -4.1952  -0.1488 LP             1 S1                 0.0000
@<TRIPOS>BOND
    1    1    2 1     
    2    1   19 1     
    3    1   20 1     
    4    1   21 1     
    5    2   16 1     
    6    2    3 2     
    7    3    4 1     
    8    4    5 1     
    9    4   14 1     
   10    5    6 1     
   11    5   22 1     
   12    5   23 1     
   13    6    7 2     
   14    6    8 am    
   15    8    9 1     
   16    8   24 1     
   17    9   18 1     
   18    9   10 1     
   19    9   11 1     
   20   10   25 1     
   21   10   26 1     
   22   10   27 1     
   23   11   12 ar    
   24   11   13 ar    
   25   14   15 1     
   26   14   16 2     
   27   15   28 1     
   28   15   29 1     
   29   15   30 1     
   30   16   17 1     
   31    3   31 1     
   32    7   32 1     
   33    7   33 1     
   34   12   34 1     
   35   12   35 1     
   36   13   36 1     
   37   13   37 1     
@<TRIPOS>SUBSTRUCTURE
      1 S1             1
@<TRIPOS>SET
LONE_PAIRS      STATIC     ATOMS    <user>   **** ""
7 31 32 33 34 35 36 37
DONOR_HYDROGENS      STATIC     ATOMS    <user>   **** ""
1 24
ATOM$BLUE        STATIC     ATOMS    COLORGROUP SYSTEM
7 31 32 33 34 35 36 37
ATOM$RED        STATIC     ATOMS    COLORGROUP SYSTEM
1 24
