AV-unprocessed.smi:55|AV-procd|sdf|565|dock1
  -GOLD-   2262016473D 1   1.00000     0.00000
 Structure written by MMmdl.
 31 32  0  0  0  0  0  0  0  0  1 V2000
  152.9320  143.5202  160.5736 C   0  0  0  0  0  0  0  0  0  0  0  0
  152.1870  142.9400  159.3829 C   0  0  0  0  0  0  0  0  0  0  0  0
  152.1963  141.6134  159.0950 C   0  0  0  0  0  0  0  0  0  0  0  0
  151.5261  141.0529  158.0167 N   0  0  0  0  0  0  0  0  0  0  0  0
  151.5806  139.5652  157.7516 C   0  0  2  0  0  0  0  0  0  0  0  0
  151.0560  138.7752  158.9552 C   0  0  0  0  0  0  0  0  0  0  0  0
  152.0113  137.5994  159.0080 C   0  0  1  0  0  0  0  0  0  0  0  0
  151.5537  136.5476  158.1786 O   0  0  0  0  0  0  0  0  0  0  0  0
  153.3177  138.2224  158.4952 C   0  0  1  0  0  0  0  0  0  0  0  0
  154.3625  137.2612  157.9023 C   0  0  0  0  0  0  0  0  0  0  0  0
  153.9101  136.7457  156.6682 O   0  0  0  0  0  0  0  0  0  0  0  0
  152.9100  139.1912  157.5319 O   0  0  0  0  0  0  0  0  0  0  0  0
  150.7674  141.8852  157.1673 C   0  0  0  0  0  0  0  0  0  0  0  0
  150.1232  141.4602  156.2091 O   0  0  0  0  0  0  0  0  0  0  0  0
  150.7603  143.2481  157.4598 N   0  0  0  0  0  0  0  0  0  0  0  0
  151.4307  143.8555  158.5244 C   0  0  0  0  0  0  0  0  0  0  0  0
  151.3497  145.0731  158.6780 O   0  0  0  0  0  0  0  0  0  0  0  0
  151.0310  139.3626  156.8313 H   0  0  0  0  0  0  0  0  0  0  0  0
  152.1206  137.2127  160.0216 H   0  0  0  0  0  0  0  0  0  0  0  0
  153.7763  138.7733  159.3177 H   0  0  0  0  0  0  0  0  0  0  0  0
  150.2212  143.8479  156.8522 H   0  0  0  0  0  0  0  0  0  0  0  0
  153.4581  142.7487  161.1365 H   0  0  0  0  0  0  0  0  0  0  0  0
  152.2371  144.0148  161.2532 H   0  0  0  0  0  0  0  0  0  0  0  0
  153.6684  144.2533  160.2425 H   0  0  0  0  0  0  0  0  0  0  0  0
  152.7546  140.9595  159.7476 H   0  0  0  0  0  0  0  0  0  0  0  0
  151.1563  139.3751  159.8610 H   0  0  0  0  0  0  0  0  0  0  0  0
  150.0074  138.5031  158.8289 H   0  0  0  0  0  0  0  0  0  0  0  0
  152.1418  136.4696  157.4426 H   0  0  0  0  0  0  0  0  0  0  0  0
  155.3277  137.7497  157.7673 H   0  0  0  0  0  0  0  0  0  0  0  0
  154.5239  136.4247  158.5826 H   0  0  0  0  0  0  0  0  0  0  0  0
  153.3620  137.3951  156.2544 H   0  0  0  0  0  0  0  0  0  0  0  0
  1  2  1  0  0  0  0
  1 22  1  0  0  0  0
  1 23  1  0  0  0  0
  1 24  1  0  0  0  0
  2 16  1  0  0  0  0
  2  3  2  0  0  0  0
  3  4  1  0  0  0  0
  3 25  1  0  0  0  0
  4  5  1  0  0  0  0
  4 13  1  0  0  0  0
  5 18  1  0  0  0  0
  5 12  1  0  0  0  0
  5  6  1  0  0  0  0
  6  7  1  0  0  0  0
  6 26  1  0  0  0  0
  6 27  1  0  0  0  0
  7 19  1  0  0  0  0
  7  8  1  0  0  0  0
  7  9  1  0  0  0  0
  8 28  1  0  0  0  0
  9 20  1  0  0  0  0
  9 10  1  0  0  0  0
  9 12  1  0  0  0  0
 10 11  1  0  0  0  0
 10 29  1  0  0  0  0
 10 30  1  0  0  0  0
 11 31  1  0  0  0  0
 13 14  2  0  0  0  0
 13 15  1  0  0  0  0
 15 21  1  0  0  0  0
 15 16  1  0  0  0  0
 16 17  2  0  0  0  0
M  END
> <s_m_source_file>
AV-unprocessed.smi

> <i_m_source_file_index>
55

> <i_lp_mmshare_version>
43012

> <i_f3d_flags>
0

> <s_epik_input>
Tz1jMVtuSF1jKD1PKW4oW2NIXWMxW0NIM10pW0NAQEhdMltDSDJdW0NAQEhdKFtPSF0pW0NAQEhdKE8yKVtDSDJdW09IXQ==

> <s_epik_cmdline>
J2VwaWtfcHl0aG9uJywgJy1waCcsICc3LjAnLCAnLXRuJywgJzgnLCAnLW1hJywgJzIwMCcsICctbWV0YWxfYmluZGluZycsICctaW1hZScsICc8aW5maWxlLm1hZT4nLCAnLW9tYWUnLCAnPG91dGZpbGUubWFlPic=

> <r_lp_tautomer_probability>
0.999537

> <r_epik_Ionization_Penalty>
0.00121888

> <r_epik_Ionization_Penalty_Charging>
0.00121876

> <r_epik_Ionization_Penalty_Neutral>
1.19946e-07

> <r_epik_State_Penalty>
0.000805124

> <r_epik_Charging_Adjusted_Penalty>
0.00202389

> <i_epik_Tot_Q>
0

> <i_epik_Tot_abs_Q>
0

> <r_epik_Metal_State_Penalty>
0.662472

> <b_epik_Metal_Only>
0

> <s_epik_Chemistry_Notes>
This compound contains an acetal/aminal-like group ( X-CH(R)-Y where X, Y are N, S, or O) that may be acid/base labile, releasing an aldehyde.

> <s_lp_Force_Field>
OPLS_2005

> <r_lp_Energy>
27.6975

> <b_lp_Chiralities_Consistent>
1

> <s_lp_Variant>
AV-unprocessed.smi:55-5

> <Gold.Version>
5.8.1

> <Gold.Id.Protein>
6NUR|6NUR_protein|mol2

> <Gold.PLP.Fitness>
36.5913

> <Gold.PLP.PLP>
-27.6787

> <Gold.PLP.part.hbond>
-4.0000

> <Gold.PLP.part.metal>
0.0000

> <Gold.PLP.part.buried>
-6.0987

> <Gold.PLP.part.nonpolar>
-18.5370

> <Gold.PLP.part.repulsive>
0.2010

> <Gold.PLP.ligand.clash>
0.0000

> <Gold.PLP.ligand.torsion>
0.0502

> <Gold.PLP.Chemscore.Hbond>
3.0036

> <Gold.PLP.Chemscore.CHOScore>
0.0000

> <Gold.PLP.Chemscore.Metal>
0.0000

> <Gold.Chemscore.Hbonds>
donor molecule, donor type, donor heavy atom, donor atom, acceptor molecule, acceptor atom, score
      L1  H    15    21       P1  8028  1.00
      P1  H  6896  6908       L1     8  0.19
      P1  H  7997  8009       L1    12  1.00
      P1  H 10752 10765       L1    11  0.78

> <Gold.PLP.Chemscore.Internal.Correction>
0.0022

> <Gold.Rescore>
     Score         DG    S(hbond)    S(metal)    S(lipo)     H(rot)  DE(clash)    DE(int)     intcor
     12.43     -12.68       2.46        0.00      50.94       2.73       0.15       0.11       ----

> <Gold.Chemscore.Fitness>
12.4264

> <Gold.Chemscore.DG>
-12.6838

> <Gold.Chemscore.ZeroCoef>
-5.4800

> <Gold.Chemscore.Hbond>
2.4613

> <Gold.Chemscore.Metal>
0.0000

> <Gold.Chemscore.Lipo>
50.9381

> <Gold.Chemscore.Internal_Hbond>
0.0000

> <Gold.Chemscore.DEClash>
0.1483

> <Gold.Chemscore.DEInternal>
0.1091

> <Gold.Chemscore.Rot>
2.7253

> <Gold.Chemscore.Internal.Correction>
   9.000000E+99

> <Gold.Chemscore.Hbonds>
donor molecule, donor type, donor heavy atom, donor atom, acceptor molecule, acceptor atom, score
      L1  H    15    21       P1  8028  0.97
      P1  H  6896  6908       L1     8  0.04
      P1  H  7997  8009       L1    12  0.34
      P1  H 10752 10765       L1    11  0.36

> <Gold.Chemscore.Hbond.Weighted>
-8.2209

> <Gold.Chemscore.Metal.Weighted>
-0.0000

> <Gold.Chemscore.Lipo.Weighted>
-5.9598

> <Gold.Chemscore.Internal_Hbond.Weighted>
0.0000

> <Gold.Chemscore.DEClash.Weighted>
0.1483

> <Gold.Chemscore.DEInternal.Weighted>
0.1091

> <Gold.Chemscore.Rot.Weighted>
6.9769

> <Gold.Chemscore.Internal.Correction.Weighted>
   9.000000E+99

> <Gold.Protein.RotatedTorsions>
[ 6907 6896 6895 6894 ] final -155.58 input  -60.11 | X-H torsion
[ 7974 7965 7964 7962 ] final -134.51 input  175.53 | X-H torsion
[ 8008 7997 7996 7995 ] final  152.67 input   59.86 | X-H torsion
[ 10167 10162 10161 10158 ] final   82.65 input  -65.29 | X-H torsion
[ 10718 10713 10712 10709 ] final    0.16 input   66.30 | X-H torsion
[ 10763 10752 10751 10750 ] final  -94.56 input  -60.55 | X-H torsion
[ 11005 11000 10999 10996 ] final -176.69 input  -57.11 | X-H torsion

> <Gold.Protein.ActiveResidues>
 VAL166  LYS551  ARG553  GLY616  TRP617  ASP618  TYR619  PRO620  LYS621  CYS622 
 ASP623  PHE694  ASN695  SER759  ASP760  ASP761  ALA762  ILE779  LEU786  VAL792 
 PHE793  MET794  SER795  GLU796  ALA797  LYS798  CYS799  TRP800  GLU811  SER814 

> <Gold.Protein.RotatedAtoms>
  151.2746  133.4238  159.2623 H   0  0  0  0  0  0  0  0  0  0  0  0  # atno 6907 bound_to 6896
  151.0414  134.9610  159.8174 H   0  0  0  0  0  0  0  0  0  0  0  0  # atno 6908 bound_to 6896
  152.5366  134.2704  159.9022 H   0  0  0  0  0  0  0  0  0  0  0  0  # atno 6909 bound_to 6896
  144.9096  140.6878  143.5033 H   0  0  0  0  0  0  0  0  0  0  0  0  # atno 7974 bound_to 7965
  156.2618  140.2014  156.6369 H   0  0  0  0  0  0  0  0  0  0  0  0  # atno 8008 bound_to 7997
  154.6639  140.0557  157.0117 H   0  0  0  0  0  0  0  0  0  0  0  0  # atno 8009 bound_to 7997
  155.1235  140.3227  155.4494 H   0  0  0  0  0  0  0  0  0  0  0  0  # atno 8010 bound_to 7997
  139.9265  144.6179  150.8387 H   0  0  0  0  0  0  0  0  0  0  0  0  # atno 10167 bound_to 10162
  156.8293  130.5483  149.5688 H   0  0  0  0  0  0  0  0  0  0  0  0  # atno 10718 bound_to 10713
  154.7066  135.5153  153.8604 H   0  0  0  0  0  0  0  0  0  0  0  0  # atno 10763 bound_to 10752
  153.0746  135.6612  154.0182 H   0  0  0  0  0  0  0  0  0  0  0  0  # atno 10764 bound_to 10752
  154.0032  135.3009  155.3380 H   0  0  0  0  0  0  0  0  0  0  0  0  # atno 10765 bound_to 10752
  140.4493  134.6358  157.4794 H   0  0  0  0  0  0  0  0  0  0  0  0  # atno 11005 bound_to 11000
  145.3476  139.1715  143.4452 LP  0  0  0  0  0  0  0  0  0  0  0  0  # atno 17320 bound_to 7965
  146.3152  140.3524  142.8657 LP  0  0  0  0  0  0  0  0  0  0  0  0  # atno 17321 bound_to 7965
  140.7648  143.3260  151.2515 LP  0  0  0  0  0  0  0  0  0  0  0  0  # atno 17342 bound_to 10162
  139.6817  143.9842  152.2812 LP  0  0  0  0  0  0  0  0  0  0  0  0  # atno 17343 bound_to 10162
  156.0943  130.5920  150.9787 LP  0  0  0  0  0  0  0  0  0  0  0  0  # atno 17370 bound_to 10713
  157.6415  131.0909  150.8241 LP  0  0  0  0  0  0  0  0  0  0  0  0  # atno 17371 bound_to 10713
  140.0017  134.6826  155.9519 LP  0  0  0  0  0  0  0  0  0  0  0  0  # atno 17394 bound_to 11000
  141.1671  133.6537  156.4518 LP  0  0  0  0  0  0  0  0  0  0  0  0  # atno 17395 bound_to 11000

$$$$
