AV-unprocessed.smi:3116|AV-procd|sdf|11875|dock3
  -GOLD-   2272017263D 1   1.00000     0.00000
 Structure written by MMmdl.
 33 33  0  0  0  0  0  0  0  0  1 V2000
  148.3980  141.3348  154.5273 C   0  0  0  0  0  0  0  0  0  0  0  0
  149.4962  140.3436  154.9418 C   0  0  1  0  0  0  0  0  0  0  0  0
  149.7355  140.4467  156.3925 N   0  0  0  0  0  0  0  0  0  0  0  0
  150.1849  141.7605  156.8583 C   0  0  2  0  0  0  0  0  0  0  0  0
  151.2917  142.2078  155.8880 C   0  0  0  0  0  0  0  0  0  0  0  0
  150.6716  141.6536  158.3303 C   0  0  1  0  0  0  0  0  0  0  0  0
  151.7051  140.5303  158.5442 C   0  0  0  0  0  0  0  0  0  0  0  0
  151.2069  142.9223  158.8135 N   0  0  0  0  0  0  0  0  0  0  0  0
  151.1989  144.1462  158.1762 C   0  0  0  0  0  0  0  0  0  0  0  0
  151.8390  145.0361  158.9900 C   0  0  0  0  0  0  0  0  0  0  0  0
  152.2109  144.2543  160.1187 C   0  0  0  0  0  0  0  0  0  0  0  0
  151.8348  142.9906  160.0102 N   0  0  0  0  0  0  0  0  0  0  0  0
  149.1328  138.9170  154.4983 C   0  0  0  0  0  0  0  0  0  0  0  0
  148.9581  138.7112  153.1906 N   0  0  0  0  0  0  0  0  0  0  0  0
  149.0287  138.0101  155.3221 O   0  0  0  0  0  0  0  0  0  0  0  0
  148.2018  141.2839  153.4555 H   0  0  0  0  0  0  0  0  0  0  0  0
  148.6934  142.3596  154.7546 H   0  0  0  0  0  0  0  0  0  0  0  0
  147.4595  141.1383  155.0477 H   0  0  0  0  0  0  0  0  0  0  0  0
  150.4060  140.6451  154.4217 H   0  0  0  0  0  0  0  0  0  0  0  0
  148.9315  140.1545  156.9287 H   0  0  0  0  0  0  0  0  0  0  0  0
  149.3814  142.4958  156.8061 H   0  0  0  0  0  0  0  0  0  0  0  0
  151.6257  143.2230  156.1003 H   0  0  0  0  0  0  0  0  0  0  0  0
  150.9348  142.2030  154.8573 H   0  0  0  0  0  0  0  0  0  0  0  0
  152.1606  141.5511  155.9418 H   0  0  0  0  0  0  0  0  0  0  0  0
  149.8095  141.4175  158.9564 H   0  0  0  0  0  0  0  0  0  0  0  0
  151.2721  139.5463  158.3666 H   0  0  0  0  0  0  0  0  0  0  0  0
  152.0775  140.5328  159.5692 H   0  0  0  0  0  0  0  0  0  0  0  0
  152.5623  140.6417  157.8795 H   0  0  0  0  0  0  0  0  0  0  0  0
  150.7476  144.2799  157.2040 H   0  0  0  0  0  0  0  0  0  0  0  0
  152.0164  146.0851  158.8056 H   0  0  0  0  0  0  0  0  0  0  0  0
  152.7419  144.5648  161.0064 H   0  0  0  0  0  0  0  0  0  0  0  0
  148.7134  137.7915  152.8533 H   0  0  0  0  0  0  0  0  0  0  0  0
  149.0668  139.4794  152.5446 H   0  0  0  0  0  0  0  0  0  0  0  0
  1  2  1  0  0  0  0
  1 16  1  0  0  0  0
  1 17  1  0  0  0  0
  1 18  1  0  0  0  0
  2  3  1  0  0  0  0
  2 13  1  0  0  0  0
  2 19  1  0  0  0  0
  3  4  1  0  0  0  0
  3 20  1  0  0  0  0
  4  5  1  0  0  0  0
  4  6  1  0  0  0  0
  4 21  1  0  0  0  0
  5 22  1  0  0  0  0
  5 23  1  0  0  0  0
  5 24  1  0  0  0  0
  6  7  1  0  0  0  0
  6  8  1  0  0  0  0
  6 25  1  0  0  0  0
  7 26  1  0  0  0  0
  7 27  1  0  0  0  0
  7 28  1  0  0  0  0
  8 12  1  0  0  0  0
  8  9  1  0  0  0  0
  9 10  2  0  0  0  0
  9 29  1  0  0  0  0
 10 11  1  0  0  0  0
 10 30  1  0  0  0  0
 11 12  2  0  0  0  0
 11 31  1  0  0  0  0
 13 14  1  0  0  0  0
 13 15  2  0  0  0  0
 14 32  1  0  0  0  0
 14 33  1  0  0  0  0
M  END
> <s_m_source_file>
AV-unprocessed.smi

> <i_m_source_file_index>
3116

> <i_lp_mmshare_version>
43012

> <i_f3d_flags>
0

> <s_epik_input>
W05IMl1DKD1PKVtDQEhdKFtDSDNdKVtOSF1bQ0BIXShbQ0gzXSlbQ0BIXShbQ0gzXSluMVtjSF1bY0hdW2NIXW4x

> <s_epik_cmdline>
J2VwaWtfcHl0aG9uJywgJy1waCcsICc3LjAnLCAnLXRuJywgJzgnLCAnLW1hJywgJzIwMCcsICctbWV0YWxfYmluZGluZycsICctaW1hZScsICc8aW5maWxlLm1hZT4nLCAnLW9tYWUnLCAnPG91dGZpbGUubWFlPic=

> <r_lp_tautomer_probability>
1

> <r_epik_Ionization_Penalty>
0.865977

> <r_epik_Ionization_Penalty_Charging>
0

> <r_epik_Ionization_Penalty_Neutral>
0.865977

> <r_epik_State_Penalty>
0.901888

> <r_epik_Charging_Adjusted_Penalty>
0.901888

> <i_epik_Tot_Q>
0

> <i_epik_Tot_abs_Q>
0

> <r_epik_Metal_State_Penalty>
0.901181

> <b_epik_Metal_Only>
0

> <s_lp_Force_Field>
OPLS_2005

> <r_lp_Energy>
8.89759

> <b_lp_Chiralities_Consistent>
1

> <s_lp_Variant>
AV-unprocessed.smi:3116-14

> <Gold.Version>
5.8.1

> <Gold.Id.Protein>
6NUR|6NUR_protein|mol2

> <Gold.PLP.Fitness>
36.4777

> <Gold.PLP.PLP>
-28.0403

> <Gold.PLP.part.hbond>
-1.9045

> <Gold.PLP.part.metal>
0.0000

> <Gold.PLP.part.buried>
-5.4750

> <Gold.PLP.part.nonpolar>
-20.7681

> <Gold.PLP.part.repulsive>
0.1785

> <Gold.PLP.ligand.clash>
0.0000

> <Gold.PLP.ligand.torsion>
0.3446

> <Gold.PLP.Chemscore.Hbond>
2.0000

> <Gold.PLP.Chemscore.CHOScore>
0.9998

> <Gold.PLP.Chemscore.Metal>
0.0000

> <Gold.Chemscore.Hbonds>
donor molecule, donor type, donor heavy atom, donor atom, acceptor molecule, acceptor atom, score
      L1  H    14    32       P1  7948  1.00
      L1  H    14    33       P1  7957  0.98
      L1  C     9    29       P1  8028  1.00

> <Gold.PLP.Chemscore.Internal.Correction>
0.1273

> <Gold.Rescore>
     Score         DG    S(hbond)    S(metal)    S(lipo)     H(rot)  DE(clash)    DE(int)     intcor
     13.31     -14.24       1.97        0.00      70.81       2.38       0.48       0.45       ----

> <Gold.Chemscore.Fitness>
13.3071

> <Gold.Chemscore.DG>
-14.2409

> <Gold.Chemscore.ZeroCoef>
-5.4800

> <Gold.Chemscore.Hbond>
1.9696

> <Gold.Chemscore.Metal>
0.0000

> <Gold.Chemscore.Lipo>
70.8073

> <Gold.Chemscore.Internal_Hbond>
0.0000

> <Gold.Chemscore.DEClash>
0.4809

> <Gold.Chemscore.DEInternal>
0.4529

> <Gold.Chemscore.Rot>
2.3836

> <Gold.Chemscore.Internal.Correction>
   9.000000E+99

> <Gold.Chemscore.Hbonds>
donor molecule, donor type, donor heavy atom, donor atom, acceptor molecule, acceptor atom, score
      L1  H    14    32       P1  7948  0.98
      L1  H    14    33       P1  7957  0.91

> <Gold.Chemscore.Hbond.Weighted>
-6.5784

> <Gold.Chemscore.Metal.Weighted>
-0.0000

> <Gold.Chemscore.Lipo.Weighted>
-8.2845

> <Gold.Chemscore.Internal_Hbond.Weighted>
0.0000

> <Gold.Chemscore.DEClash.Weighted>
0.4809

> <Gold.Chemscore.DEInternal.Weighted>
0.4529

> <Gold.Chemscore.Rot.Weighted>
6.1020

> <Gold.Chemscore.Internal.Correction.Weighted>
   9.000000E+99

> <Gold.Protein.RotatedTorsions>
[ 6907 6896 6895 6894 ] final  -37.72 input  -60.11 | X-H torsion
[ 7974 7965 7964 7962 ] final  -62.35 input  175.53 | X-H torsion
[ 8008 7997 7996 7995 ] final -128.71 input   59.86 | X-H torsion
[ 10167 10162 10161 10158 ] final -154.08 input  -65.29 | X-H torsion
[ 10718 10713 10712 10709 ] final   -7.56 input   66.30 | X-H torsion
[ 10763 10752 10751 10750 ] final    9.59 input  -60.55 | X-H torsion
[ 11005 11000 10999 10996 ] final  137.17 input  -57.11 | X-H torsion

> <Gold.Protein.ActiveResidues>
 VAL166  LYS551  ARG553  GLY616  TRP617  ASP618  TYR619  PRO620  LYS621  CYS622 
 ASP623  PHE694  ASN695  SER759  ASP760  ASP761  ALA762  ILE779  LEU786  VAL792 
 PHE793  MET794  SER795  GLU796  ALA797  LYS798  CYS799  TRP800  GLU811  SER814 

> <Gold.Protein.RotatedAtoms>
  151.0112  134.9398  159.8007 H   0  0  0  0  0  0  0  0  0  0  0  0  # atno 6907 bound_to 6896
  152.5303  134.3026  159.9094 H   0  0  0  0  0  0  0  0  0  0  0  0  # atno 6908 bound_to 6896
  151.3032  133.4071  159.2675 H   0  0  0  0  0  0  0  0  0  0  0  0  # atno 6909 bound_to 6896
  145.7923  140.8702  143.0274 H   0  0  0  0  0  0  0  0  0  0  0  0  # atno 7974 bound_to 7965
  155.2671  140.0438  157.3003 H   0  0  0  0  0  0  0  0  0  0  0  0  # atno 8008 bound_to 7997
  154.5675  140.2364  155.8210 H   0  0  0  0  0  0  0  0  0  0  0  0  # atno 8009 bound_to 7997
  156.2097  140.3002  155.9712 H   0  0  0  0  0  0  0  0  0  0  0  0  # atno 8010 bound_to 7997
  139.7043  143.9211  152.2442 H   0  0  0  0  0  0  0  0  0  0  0  0  # atno 10167 bound_to 10162
  156.7155  130.5135  149.5881 H   0  0  0  0  0  0  0  0  0  0  0  0  # atno 10718 bound_to 10713
  153.2123  135.6870  153.8098 H   0  0  0  0  0  0  0  0  0  0  0  0  # atno 10763 bound_to 10752
  153.7327  135.3250  155.3290 H   0  0  0  0  0  0  0  0  0  0  0  0  # atno 10764 bound_to 10752
  154.8228  135.4639  154.0936 H   0  0  0  0  0  0  0  0  0  0  0  0  # atno 10765 bound_to 10752
  140.0096  134.9445  157.0248 H   0  0  0  0  0  0  0  0  0  0  0  0  # atno 11005 bound_to 11000
  144.6780  140.0141  143.7484 LP  0  0  0  0  0  0  0  0  0  0  0  0  # atno 17320 bound_to 7965
  145.9964  139.3055  143.0954 LP  0  0  0  0  0  0  0  0  0  0  0  0  # atno 17321 bound_to 7965
  139.9063  144.6883  150.8611 LP  0  0  0  0  0  0  0  0  0  0  0  0  # atno 17342 bound_to 10162
  140.7718  143.3476  151.2078 LP  0  0  0  0  0  0  0  0  0  0  0  0  # atno 17343 bound_to 10162
  156.1631  130.6387  151.0744 LP  0  0  0  0  0  0  0  0  0  0  0  0  # atno 17370 bound_to 10713
  157.6919  131.0807  150.7082 LP  0  0  0  0  0  0  0  0  0  0  0  0  # atno 17371 bound_to 10713
  140.4579  134.1514  155.7188 LP  0  0  0  0  0  0  0  0  0  0  0  0  # atno 17394 bound_to 11000
  141.1701  133.8625  157.1596 LP  0  0  0  0  0  0  0  0  0  0  0  0  # atno 17395 bound_to 11000

$$$$
