#       Name:                AV-unprocessed.smi:3332
#       Creating user name   scv26
#       Creation time:       Fri Mar 27 19:20:55 2020


#       File generated by GOLD software.
#

@<TRIPOS>MOLECULE
AV-unprocessed.smi:3332
    44    45     1
SMALL
NO_CHARGES


@<TRIPOS>ATOM
      1 ****        -5.5351  -2.6725  -0.0805 C.3            1 S1                 0.0000
      2 ****        -5.3336  -2.1241   1.3363 C.3            1 S1                 0.0000
      3 ****        -4.3304  -1.0091   1.3757 C.2            1 S1                 0.0000
      4 ****        -2.9660  -1.3147   1.3903 N.2            1 S1                 0.0000
      5 ****        -2.1946  -0.2265   1.4262 C.2            1 S1                 0.0000
      6 ****        -0.7038  -0.2710   1.4151 C.3            1 S1                 0.0000
      7 ****        -0.1305  -0.3044  -0.0101 C.3            1 S1                 0.0000
      8 ****         1.3266  -0.3554   0.0002 N.am           1 S1                 0.0000
      9 ****         2.1325   0.7070   0.1493 C.2            1 S1                 0.0000
     10 ****         1.7148   1.8554   0.2986 O.2            1 S1                 0.0000
     11 ****         3.6401   0.4294   0.1343 C.3            1 S1                 0.0000
     12 ****         4.4418   1.3962  -0.7650 C.3            1 S1                 0.0000
     13 ****         4.0552   1.3283  -2.2229 C.2            1 S1                 0.0000
     14 ****         5.0985   1.1186  -3.0224 C.2            1 S1                 0.0000
     15 ****         6.3912   1.0031  -2.2640 C.3            1 S1                 0.0000
     16 ****         5.9624   1.0938  -0.7824 C.3            1 S1                 0.0000
     17 ****        -3.1126   1.2723   1.4129 S.3            1 S1                 0.0000
     18 ****        -4.5886   0.3421   1.3812 C.2            1 S1                 0.0000
     19 ****        -5.9182   1.0201   1.3582 C.3            1 S1                 0.0000
     20 ****        -6.2685  -3.4790  -0.0848 H              1 S1                 0.0000
     21 ****        -4.6033  -3.0672  -0.4866 H              1 S1                 0.0000
     22 ****        -5.8917  -1.8936  -0.7551 H              1 S1                 0.0000
     23 ****        -6.2924  -1.7859   1.7301 H              1 S1                 0.0000
     24 ****        -5.0150  -2.9354   1.9919 H              1 S1                 0.0000
     25 ****        -0.3314   0.6010   1.9540 H              1 S1                 0.0000
     26 ****        -0.3743  -1.1478   1.9742 H              1 S1                 0.0000
     27 ****        -0.4969  -1.1858  -0.5374 H              1 S1                 0.0000
     28 ****        -0.4717   0.5620  -0.5798 H              1 S1                 0.0000
     29 ****         1.7531  -1.2635  -0.1150 H              1 S1                 0.0000
     30 ****         4.0029   0.4996   1.1604 H              1 S1                 0.0000
     31 ****         3.8179  -0.5992  -0.1841 H              1 S1                 0.0000
     32 ****         4.2856   2.4239  -0.4332 H              1 S1                 0.0000
     33 ****         3.0361   1.4555  -2.5575 H              1 S1                 0.0000
     34 ****         5.0538   1.0473  -4.0991 H              1 S1                 0.0000
     35 ****         6.8841   0.0563  -2.4864 H              1 S1                 0.0000
     36 ****         7.0590   1.8189  -2.5421 H              1 S1                 0.0000
     37 ****         6.5235   1.8668  -0.2561 H              1 S1                 0.0000
     38 ****         6.1785   0.1496  -0.2809 H              1 S1                 0.0000
     39 ****        -6.5327   0.6393   0.5423 H              1 S1                 0.0000
     40 ****        -5.8114   2.0965   1.2222 H              1 S1                 0.0000
     41 ****        -6.4532   0.8505   2.2925 H              1 S1                 0.0000
     42 ****        -2.6071  -2.2479   1.3754 LP             1 S1                 0.0000
     43 ****         0.7305   2.0316   0.3130 LP             1 S1                 0.0000
     44 ****         2.3597   2.6121   0.4054 LP             1 S1                 0.0000
@<TRIPOS>BOND
    1    1    2 1     
    2    1   20 1     
    3    1   21 1     
    4    1   22 1     
    5    2    3 1     
    6    2   23 1     
    7    2   24 1     
    8    3   18 2     
    9    3    4 1     
   10    4    5 2     
   11    5    6 1     
   12    5   17 1     
   13    6    7 1     
   14    6   25 1     
   15    6   26 1     
   16    7    8 1     
   17    7   27 1     
   18    7   28 1     
   19    8    9 am    
   20    8   29 1     
   21    9   10 2     
   22    9   11 1     
   23   11   12 1     
   24   11   30 1     
   25   11   31 1     
   26   12   16 1     
   27   12   13 1     
   28   12   32 1     
   29   13   14 2     
   30   13   33 1     
   31   14   15 1     
   32   14   34 1     
   33   15   16 1     
   34   15   35 1     
   35   15   36 1     
   36   16   37 1     
   37   16   38 1     
   38   17   18 1     
   39   18   19 1     
   40   19   39 1     
   41   19   40 1     
   42   19   41 1     
   43    4   42 1     
   44   10   43 1     
   45   10   44 1     
@<TRIPOS>SUBSTRUCTURE
      1 S1             1
@<TRIPOS>SET
LONE_PAIRS      STATIC     ATOMS    <user>   **** ""
3 42 43 44
DONOR_HYDROGENS      STATIC     ATOMS    <user>   **** ""
1 29
ATOM$BLUE        STATIC     ATOMS    COLORGROUP SYSTEM
3 42 43 44
ATOM$RED        STATIC     ATOMS    COLORGROUP SYSTEM
1 29
