AV-unprocessed.smi:2527|AV-procd|sdf|9942|dock4
  -GOLD-   2272013583D 1   1.00000     0.00000
 Structure written by MMmdl.
 36 38  0  0  0  0  0  0  0  0  1 V2000
  153.8782  137.0583  160.6976 C   0  0  0  0  0  0  0  0  0  0  0  0
  152.7679  136.7198  159.8860 O   0  0  0  0  0  0  0  0  0  0  0  0
  152.0771  137.8603  159.4023 C   0  0  0  0  0  0  0  0  0  0  0  0
  153.0406  138.7436  158.5968 C   0  0  0  0  0  0  0  0  0  0  0  0
  152.3776  139.9194  158.0516 N   0  0  0  0  0  0  0  0  0  0  0  0
  151.5948  139.9982  156.9466 C   0  0  0  0  0  0  0  0  0  0  0  0
  151.2573  138.5701  155.9559 S   0  0  0  0  0  0  0  0  0  0  0  0
  150.4860  139.3498  154.5072 C   0  0  0  0  0  0  0  0  0  0  0  0
  149.2870  140.2098  154.8411 C   0  0  0  0  0  0  0  0  0  0  0  0
  148.6045  140.7830  153.7981 N   0  0  0  0  0  0  0  0  0  0  0  0
  147.6104  141.4736  154.3426 C   0  0  0  0  0  0  0  0  0  0  0  0
  146.7546  142.1418  153.7672 O   0  0  0  0  0  0  0  0  0  0  0  0
  147.7503  141.2773  155.6593 N   0  0  0  0  0  0  0  0  0  0  0  0
  148.7976  140.4851  155.9990 N   0  0  0  0  0  0  0  0  0  0  0  0
  151.1056  141.2112  156.6795 N   0  0  0  0  0  0  0  0  0  0  0  0
  151.6148  141.9846  157.7036 C   0  0  0  0  0  0  0  0  0  0  0  0
  151.4550  143.3607  157.9825 C   0  0  0  0  0  0  0  0  0  0  0  0
  152.0793  143.9379  159.1079 C   0  0  0  0  0  0  0  0  0  0  0  0
  151.8727  145.6190  159.4351 Cl  0  0  0  0  0  0  0  0  0  0  0  0
  152.8698  143.1478  159.9679 C   0  0  0  0  0  0  0  0  0  0  0  0
  153.0416  141.7748  159.7074 C   0  0  0  0  0  0  0  0  0  0  0  0
  152.4169  141.2049  158.5820 C   0  0  0  0  0  0  0  0  0  0  0  0
  147.1620  141.6558  156.3877 H   0  0  0  0  0  0  0  0  0  0  0  0
  148.8246  140.6900  152.8172 H   0  0  0  0  0  0  0  0  0  0  0  0
  154.3705  136.1486  161.0412 H   0  0  0  0  0  0  0  0  0  0  0  0
  153.5663  137.6249  161.5761 H   0  0  0  0  0  0  0  0  0  0  0  0
  154.6084  137.6472  160.1412 H   0  0  0  0  0  0  0  0  0  0  0  0
  151.2440  137.5512  158.7695 H   0  0  0  0  0  0  0  0  0  0  0  0
  151.6597  138.4261  160.2368 H   0  0  0  0  0  0  0  0  0  0  0  0
  153.8633  139.0716  159.2328 H   0  0  0  0  0  0  0  0  0  0  0  0
  153.4946  138.1749  157.7853 H   0  0  0  0  0  0  0  0  0  0  0  0
  151.2357  139.9543  153.9953 H   0  0  0  0  0  0  0  0  0  0  0  0
  150.1704  138.5738  153.8092 H   0  0  0  0  0  0  0  0  0  0  0  0
  150.8498  143.9722  157.3299 H   0  0  0  0  0  0  0  0  0  0  0  0
  153.3438  143.5949  160.8294 H   0  0  0  0  0  0  0  0  0  0  0  0
  153.6424  141.1668  160.3672 H   0  0  0  0  0  0  0  0  0  0  0  0
  1  2  1  0  0  0  0
  1 25  1  0  0  0  0
  1 26  1  0  0  0  0
  1 27  1  0  0  0  0
  2  3  1  0  0  0  0
  3  4  1  0  0  0  0
  3 28  1  0  0  0  0
  3 29  1  0  0  0  0
  4  5  1  0  0  0  0
  4 30  1  0  0  0  0
  4 31  1  0  0  0  0
  5 22  1  0  0  0  0
  5  6  1  0  0  0  0
  6  7  1  0  0  0  0
  6 15  2  0  0  0  0
  7  8  1  0  0  0  0
  8 32  1  0  0  0  0
  8 33  1  0  0  0  0
  8  9  1  0  0  0  0
  9 14  2  0  0  0  0
  9 10  1  0  0  0  0
 10 11  1  0  0  0  0
 10 24  1  0  0  0  0
 11 13  1  0  0  0  0
 11 12  2  0  0  0  0
 13 14  1  0  0  0  0
 13 23  1  0  0  0  0
 15 16  1  0  0  0  0
 16 22  2  0  0  0  0
 16 17  1  0  0  0  0
 17 18  2  0  0  0  0
 17 34  1  0  0  0  0
 18 19  1  0  0  0  0
 18 20  1  0  0  0  0
 20 21  2  0  0  0  0
 20 35  1  0  0  0  0
 21 22  1  0  0  0  0
 21 36  1  0  0  0  0
M  END
> <s_m_source_file>
AV-unprocessed.smi

> <i_m_source_file_index>
2527

> <i_lp_mmshare_version>
43012

> <i_f3d_flags>
0

> <s_epik_input>
W2NIXTFjKENsKVtjSF1bY0hdYyhjMTIpbihbQ0gyXVtDSDJdT1tDSDNdKWMobjIpU1tDSDJdYzNuYyg9TylbbkhdW25IXTM=

> <s_epik_cmdline>
J2VwaWtfcHl0aG9uJywgJy1waCcsICc3LjAnLCAnLXRuJywgJzgnLCAnLW1hJywgJzIwMCcsICctbWV0YWxfYmluZGluZycsICctaW1hZScsICc8aW5maWxlLm1hZT4nLCAnLW9tYWUnLCAnPG91dGZpbGUubWFlPic=

> <r_lp_tautomer_probability>
0.999897

> <r_epik_Ionization_Penalty>
0.0426825

> <r_epik_Ionization_Penalty_Charging>
0.0333494

> <r_epik_Ionization_Penalty_Neutral>
0.00933306

> <r_epik_State_Penalty>
0.0341975

> <r_epik_Charging_Adjusted_Penalty>
0.0675469

> <i_epik_Tot_Q>
0

> <i_epik_Tot_abs_Q>
0

> <r_epik_Metal_State_Penalty>
0.388349

> <b_epik_Metal_Only>
0

> <s_lp_Force_Field>
OPLS_2005

> <r_lp_Energy>
27.9539

> <b_lp_Chiralities_Consistent>
1

> <s_lp_Variant>
AV-unprocessed.smi:2527-1

> <Gold.Version>
5.8.1

> <Gold.Id.Protein>
6NUR|6NUR_protein|mol2

> <Gold.PLP.Fitness>
48.1740

> <Gold.PLP.PLP>
-42.9153

> <Gold.PLP.part.hbond>
-2.0000

> <Gold.PLP.part.metal>
0.0000

> <Gold.PLP.part.buried>
-4.2915

> <Gold.PLP.part.nonpolar>
-36.2922

> <Gold.PLP.part.repulsive>
0.4640

> <Gold.PLP.ligand.clash>
0.0000

> <Gold.PLP.ligand.torsion>
0.4050

> <Gold.PLP.Chemscore.Hbond>
1.9920

> <Gold.PLP.Chemscore.CHOScore>
0.0000

> <Gold.PLP.Chemscore.Metal>
0.0000

> <Gold.Chemscore.Hbonds>
donor molecule, donor type, donor heavy atom, donor atom, acceptor molecule, acceptor atom, score
      L1  H    10    24       P1  7957  1.00
      P1  H  6896  6909       L1     2  1.00

> <Gold.PLP.Chemscore.Internal.Correction>
0.0927

> <Gold.Rescore>
     Score         DG    S(hbond)    S(metal)    S(lipo)     H(rot)  DE(clash)    DE(int)     intcor
     16.64     -17.09       1.98        0.00     105.29       2.86       0.00       0.45       ----

> <Gold.Chemscore.Fitness>
16.6362

> <Gold.Chemscore.DG>
-17.0938

> <Gold.Chemscore.ZeroCoef>
-5.4800

> <Gold.Chemscore.Hbond>
1.9819

> <Gold.Chemscore.Metal>
0.0000

> <Gold.Chemscore.Lipo>
105.2922

> <Gold.Chemscore.Internal_Hbond>
0.0000

> <Gold.Chemscore.DEClash>
0.0038

> <Gold.Chemscore.DEInternal>
0.4539

> <Gold.Chemscore.Rot>
2.8613

> <Gold.Chemscore.Internal.Correction>
   9.000000E+99

> <Gold.Chemscore.Hbonds>
donor molecule, donor type, donor heavy atom, donor atom, acceptor molecule, acceptor atom, score
      L1  H    10    24       P1  7957  0.99
      P1  H  6896  6909       L1     2  0.83

> <Gold.Chemscore.Hbond.Weighted>
-6.6195

> <Gold.Chemscore.Metal.Weighted>
-0.0000

> <Gold.Chemscore.Lipo.Weighted>
-12.3192

> <Gold.Chemscore.Internal_Hbond.Weighted>
0.0000

> <Gold.Chemscore.DEClash.Weighted>
0.0038

> <Gold.Chemscore.DEInternal.Weighted>
0.4539

> <Gold.Chemscore.Rot.Weighted>
7.3249

> <Gold.Chemscore.Internal.Correction.Weighted>
   9.000000E+99

> <Gold.Protein.RotatedTorsions>
[ 6907 6896 6895 6894 ] final  124.63 input  -60.11 | X-H torsion
[ 7974 7965 7964 7962 ] final   54.30 input  175.53 | X-H torsion
[ 8008 7997 7996 7995 ] final  143.76 input   59.86 | X-H torsion
[ 10167 10162 10161 10158 ] final   43.76 input  -65.29 | X-H torsion
[ 10718 10713 10712 10709 ] final   34.19 input   66.30 | X-H torsion
[ 10763 10752 10751 10750 ] final -133.46 input  -60.55 | X-H torsion
[ 11005 11000 10999 10996 ] final -117.73 input  -57.11 | X-H torsion

> <Gold.Protein.ActiveResidues>
 VAL166  LYS551  ARG553  GLY616  TRP617  ASP618  TYR619  PRO620  LYS621  CYS622 
 ASP623  PHE694  ASN695  SER759  ASP760  ASP761  ALA762  ILE779  LEU786  VAL792 
 PHE793  MET794  SER795  GLU796  ALA797  LYS798  CYS799  TRP800  GLU811  SER814 

> <Gold.Protein.RotatedAtoms>
  152.4061  133.6891  159.6357 H   0  0  0  0  0  0  0  0  0  0  0  0  # atno 6907 bound_to 6896
  150.7946  133.8706  159.3266 H   0  0  0  0  0  0  0  0  0  0  0  0  # atno 6908 bound_to 6896
  151.6460  135.1009  160.0202 H   0  0  0  0  0  0  0  0  0  0  0  0  # atno 6909 bound_to 6896
  145.9622  139.4070  143.0241 H   0  0  0  0  0  0  0  0  0  0  0  0  # atno 7974 bound_to 7965
  156.2923  140.2253  156.4944 H   0  0  0  0  0  0  0  0  0  0  0  0  # atno 8008 bound_to 7997
  154.7743  140.0464  157.1098 H   0  0  0  0  0  0  0  0  0  0  0  0  # atno 8009 bound_to 7997
  154.9835  140.3081  155.4939 H   0  0  0  0  0  0  0  0  0  0  0  0  # atno 8010 bound_to 7997
  140.3411  144.2469  150.6155 H   0  0  0  0  0  0  0  0  0  0  0  0  # atno 10167 bound_to 10162
  157.3072  130.7380  149.6702 H   0  0  0  0  0  0  0  0  0  0  0  0  # atno 10718 bound_to 10713
  154.8732  135.3765  154.4575 H   0  0  0  0  0  0  0  0  0  0  0  0  # atno 10763 bound_to 10752
  153.5246  135.7028  153.5719 H   0  0  0  0  0  0  0  0  0  0  0  0  # atno 10764 bound_to 10752
  153.3950  135.3962  155.1915 H   0  0  0  0  0  0  0  0  0  0  0  0  # atno 10765 bound_to 10752
  141.0335  133.9945  157.3107 H   0  0  0  0  0  0  0  0  0  0  0  0  # atno 11005 bound_to 11000
  145.8023  140.9765  143.0992 LP  0  0  0  0  0  0  0  0  0  0  0  0  # atno 17320 bound_to 7965
  144.6817  139.9817  143.7483 LP  0  0  0  0  0  0  0  0  0  0  0  0  # atno 17321 bound_to 7965
  140.5308  143.2244  151.8241 LP  0  0  0  0  0  0  0  0  0  0  0  0  # atno 17342 bound_to 10162
  139.4840  144.4722  151.9410 LP  0  0  0  0  0  0  0  0  0  0  0  0  # atno 17343 bound_to 10162
  155.9675  130.4262  150.4689 LP  0  0  0  0  0  0  0  0  0  0  0  0  # atno 17370 bound_to 10713
  157.2681  131.0581  151.2278 LP  0  0  0  0  0  0  0  0  0  0  0  0  # atno 17371 bound_to 10713
  139.9224  135.0201  156.8113 LP  0  0  0  0  0  0  0  0  0  0  0  0  # atno 17394 bound_to 11000
  140.6364  133.9858  155.7686 LP  0  0  0  0  0  0  0  0  0  0  0  0  # atno 17395 bound_to 11000

$$$$
