AV-unprocessed.smi:90|AV-procd|sdf|830|dock1
  -GOLD-   2262017253D 1   1.00000     0.00000
 Structure written by MMmdl.
 64 67  0  0  0  0  0  0  0  0  2 V2000
  150.5445  142.3502  156.1251 C   0  0  0  0  0  0  0  0  0  0  0  0
  151.0429  141.2015  156.8767 N   0  0  0  0  0  0  0  0  0  0  0  0
  150.5956  141.0650  158.2616 C   0  0  0  0  0  0  0  0  0  0  0  0
  151.7558  140.7709  159.2325 C   0  0  0  0  0  0  0  0  0  0  0  0
  152.7721  141.9360  159.3613 C   0  0  1  0  0  0  0  0  0  0  0  0
  152.1197  143.3358  159.2851 C   0  0  0  0  0  0  0  0  0  0  0  0
  151.3028  143.6596  160.5459 C   0  0  0  0  0  0  0  0  0  0  0  0
  152.1786  143.5034  161.7965 C   0  0  0  0  0  0  0  0  0  0  0  0
  152.8475  142.1193  161.8447 C   0  0  0  0  0  0  0  0  0  0  0  0
  153.6084  141.8558  160.5963 N   0  3  1  0  0  0  0  0  0  0  0  0
  154.4681  140.6532  160.6853 C   0  0  0  0  0  0  0  0  0  0  0  0
  151.2937  140.0529  156.1914 C   0  0  0  0  0  0  0  0  0  0  0  0
  151.8058  140.1291  154.9333 N   0  0  0  0  0  0  0  0  0  0  0  0
  152.0378  139.0205  154.2257 C   0  0  0  0  0  0  0  0  0  0  0  0
  151.8393  137.7506  154.5791 N   0  0  0  0  0  0  0  0  0  0  0  0
  151.3428  137.6597  155.8451 C   0  0  0  0  0  0  0  0  0  0  0  0
  151.0380  138.7495  156.7111 C   0  0  0  0  0  0  0  0  0  0  0  0
  150.5503  138.2627  157.9186 N   0  0  0  0  0  0  0  0  0  0  0  0
  150.5566  136.9668  157.7711 C   0  0  0  0  0  0  0  0  0  0  0  0
  151.0339  136.5154  156.5615 N   0  0  0  0  0  0  0  0  0  0  0  0
  151.1513  135.1269  156.1355 C   0  0  0  0  0  0  0  0  0  0  0  0
  149.8661  134.5244  155.4916 C   0  0  0  0  0  0  0  0  0  0  0  0
  148.6320  134.7553  156.4097 C   0  0  0  0  0  0  0  0  0  0  0  0
  148.8124  134.2024  157.6980 O   0  0  0  0  0  0  0  0  0  0  0  0
  149.6099  135.1765  154.1085 C   0  0  0  0  0  0  0  0  0  0  0  0
  148.5659  134.4204  153.2650 C   0  0  0  0  0  0  0  0  0  0  0  0
  148.9456  133.0589  153.1166 O   0  0  0  0  0  0  0  0  0  0  0  0
  149.0242  132.3713  154.3581 C   0  0  0  0  0  0  0  0  0  0  0  0
  150.1083  133.0143  155.2404 C   0  0  0  0  0  0  0  0  0  0  0  0
  151.1615  142.5355  155.2448 H   0  0  0  0  0  0  0  0  0  0  0  0
  150.5681  143.2495  156.7410 H   0  0  0  0  0  0  0  0  0  0  0  0
  149.5158  142.1889  155.8008 H   0  0  0  0  0  0  0  0  0  0  0  0
  150.0518  141.9497  158.5859 H   0  0  0  0  0  0  0  0  0  0  0  0
  149.8712  140.2518  158.2930 H   0  0  0  0  0  0  0  0  0  0  0  0
  151.3507  140.5023  160.2075 H   0  0  0  0  0  0  0  0  0  0  0  0
  152.2711  139.8827  158.8695 H   0  0  0  0  0  0  0  0  0  0  0  0
  153.4584  141.8578  158.5168 H   0  0  0  0  0  0  0  0  0  0  0  0
  152.9047  144.0852  159.1748 H   0  0  0  0  0  0  0  0  0  0  0  0
  151.4967  143.4353  158.3971 H   0  0  0  0  0  0  0  0  0  0  0  0
  150.9136  144.6765  160.4879 H   0  0  0  0  0  0  0  0  0  0  0  0
  150.4356  143.0023  160.6128 H   0  0  0  0  0  0  0  0  0  0  0  0
  152.9476  144.2769  161.7984 H   0  0  0  0  0  0  0  0  0  0  0  0
  151.5803  143.6618  162.6942 H   0  0  0  0  0  0  0  0  0  0  0  0
  153.5266  142.0811  162.6972 H   0  0  0  0  0  0  0  0  0  0  0  0
  152.1037  141.3385  162.0066 H   0  0  0  0  0  0  0  0  0  0  0  0
  153.8895  139.7570  160.9102 H   0  0  0  0  0  0  0  0  0  0  0  0
  155.2063  140.7777  161.4780 H   0  0  0  0  0  0  0  0  0  0  0  0
  155.0100  140.4922  159.7529 H   0  0  0  0  0  0  0  0  0  0  0  0
  152.4388  139.1724  153.2344 H   0  0  0  0  0  0  0  0  0  0  0  0
  150.2181  136.2992  158.5502 H   0  0  0  0  0  0  0  0  0  0  0  0
  151.9822  135.0724  155.4308 H   0  0  0  0  0  0  0  0  0  0  0  0
  151.4610  134.5317  156.9953 H   0  0  0  0  0  0  0  0  0  0  0  0
  148.4204  135.8194  156.5157 H   0  0  0  0  0  0  0  0  0  0  0  0
  147.7294  134.3131  155.9917 H   0  0  0  0  0  0  0  0  0  0  0  0
  148.0150  133.7634  157.9513 H   0  0  0  0  0  0  0  0  0  0  0  0
  149.2927  136.2132  154.2242 H   0  0  0  0  0  0  0  0  0  0  0  0
  150.5431  135.2047  153.5441 H   0  0  0  0  0  0  0  0  0  0  0  0
  147.5693  134.4872  153.7022 H   0  0  0  0  0  0  0  0  0  0  0  0
  148.4982  134.8697  152.2742 H   0  0  0  0  0  0  0  0  0  0  0  0
  148.0525  132.3666  154.8530 H   0  0  0  0  0  0  0  0  0  0  0  0
  149.2780  131.3297  154.1613 H   0  0  0  0  0  0  0  0  0  0  0  0
  151.0682  132.8800  154.7398 H   0  0  0  0  0  0  0  0  0  0  0  0
  150.1901  132.4713  156.1823 H   0  0  0  0  0  0  0  0  0  0  0  0
  154.2551  142.6276  160.5164 H   0  0  0  0  0  0  0  0  0  0  0  0
  1  2  1  0  0  0  0
  1 30  1  0  0  0  0
  1 31  1  0  0  0  0
  1 32  1  0  0  0  0
  2  3  1  0  0  0  0
  2 12  1  0  0  0  0
  3  4  1  0  0  0  0
  3 33  1  0  0  0  0
  3 34  1  0  0  0  0
  4  5  1  0  0  0  0
  4 35  1  0  0  0  0
  4 36  1  0  0  0  0
  5 10  1  0  0  0  0
  5  6  1  0  0  0  0
  5 37  1  0  0  0  0
  6  7  1  0  0  0  0
  6 38  1  0  0  0  0
  6 39  1  0  0  0  0
  7  8  1  0  0  0  0
  7 40  1  0  0  0  0
  7 41  1  0  0  0  0
  8  9  1  0  0  0  0
  8 42  1  0  0  0  0
  8 43  1  0  0  0  0
  9 10  1  0  0  0  0
  9 44  1  0  0  0  0
  9 45  1  0  0  0  0
 10 11  1  0  0  0  0
 10 64  1  0  0  0  0
 11 46  1  0  0  0  0
 11 47  1  0  0  0  0
 11 48  1  0  0  0  0
 12 17  1  0  0  0  0
 12 13  2  0  0  0  0
 13 14  1  0  0  0  0
 14 15  2  0  0  0  0
 14 49  1  0  0  0  0
 15 16  1  0  0  0  0
 16 20  1  0  0  0  0
 16 17  2  0  0  0  0
 17 18  1  0  0  0  0
 18 19  2  0  0  0  0
 19 20  1  0  0  0  0
 19 50  1  0  0  0  0
 20 21  1  0  0  0  0
 21 22  1  0  0  0  0
 21 51  1  0  0  0  0
 21 52  1  0  0  0  0
 22 29  1  0  0  0  0
 22 23  1  0  0  0  0
 22 25  1  0  0  0  0
 23 24  1  0  0  0  0
 23 53  1  0  0  0  0
 23 54  1  0  0  0  0
 24 55  1  0  0  0  0
 25 26  1  0  0  0  0
 25 56  1  0  0  0  0
 25 57  1  0  0  0  0
 26 27  1  0  0  0  0
 26 58  1  0  0  0  0
 26 59  1  0  0  0  0
 27 28  1  0  0  0  0
 28 29  1  0  0  0  0
 28 60  1  0  0  0  0
 28 61  1  0  0  0  0
 29 62  1  0  0  0  0
 29 63  1  0  0  0  0
M  CHG  1  10   1
M  END
> <s_m_source_file>
AV-unprocessed.smi

> <i_m_source_file_index>
90

> <i_lp_mmshare_version>
43012

> <i_f3d_flags>
0

> <s_epik_input>
W0NIM11OMVtDSDJdW0NIMl1bQ0gyXVtDSDJdW0NASF0xW0NIMl1bQ0gyXU4oW0NIM10pYyhuW2NIXW4yKWMoYzIzKW5bY0hdbjNbQ0gyXUM0KFtDSDJdW09IXSlbQ0gyXVtDSDJdT1tDSDJdW0NIMl00

> <s_epik_cmdline>
J2VwaWtfcHl0aG9uJywgJy1waCcsICc3LjAnLCAnLXRuJywgJzgnLCAnLW1hJywgJzIwMCcsICctbWV0YWxfYmluZGluZycsICctaW1hZScsICc8aW5maWxlLm1hZT4nLCAnLW9tYWUnLCAnPG91dGZpbGUubWFlPic=

> <r_lp_tautomer_probability>
1

> <r_epik_Ionization_Penalty>
0.00234895

> <r_epik_Ionization_Penalty_Charging>
0.00106647

> <r_epik_Ionization_Penalty_Neutral>
0.00128248

> <r_epik_State_Penalty>
-0

> <r_epik_Charging_Adjusted_Penalty>
0.00106647

> <i_epik_Tot_Q>
1

> <i_epik_Tot_abs_Q>
1

> <r_epik_Metal_State_Penalty>
-0

> <b_epik_Metal_Only>
0

> <s_lp_Force_Field>
OPLS_2005

> <r_lp_Energy>
42.9862

> <b_lp_Chiralities_Consistent>
1

> <s_lp_Variant>
AV-unprocessed.smi:90-2

> <Gold.Version>
5.8.1

> <Gold.Id.Protein>
6NUR|6NUR_protein|mol2

> <Gold.PLP.Fitness>
59.0334

> <Gold.PLP.PLP>
-52.3711

> <Gold.PLP.part.hbond>
-3.0000

> <Gold.PLP.part.metal>
0.0000

> <Gold.PLP.part.buried>
-7.2823

> <Gold.PLP.part.nonpolar>
-42.5798

> <Gold.PLP.part.repulsive>
0.2471

> <Gold.PLP.ligand.clash>
0.0000

> <Gold.PLP.ligand.torsion>
1.1286

> <Gold.PLP.Chemscore.Hbond>
2.5840

> <Gold.PLP.Chemscore.CHOScore>
0.0000

> <Gold.PLP.Chemscore.Metal>
0.0000

> <Gold.Chemscore.Hbonds>
donor molecule, donor type, donor heavy atom, donor atom, acceptor molecule, acceptor atom, score
      P1  H  7989  7998       L1    13  0.27
      P1  H 10752 10765       L1    15  0.11

> <Gold.PLP.Chemscore.Internal.Correction>
1.1676

> <Gold.Rescore>
     Score         DG    S(hbond)    S(metal)    S(lipo)     H(rot)  DE(clash)    DE(int)     intcor
     19.08     -21.74       2.76        0.00     120.00       2.73       0.25       2.41       ----

> <Gold.Chemscore.Fitness>
19.0805

> <Gold.Chemscore.DG>
-21.7383

> <Gold.Chemscore.ZeroCoef>
-5.4800

> <Gold.Chemscore.Hbond>
2.7601

> <Gold.Chemscore.Metal>
0.0000

> <Gold.Chemscore.Lipo>
120.0028

> <Gold.Chemscore.Internal_Hbond>
0.0000

> <Gold.Chemscore.DEClash>
0.2485

> <Gold.Chemscore.DEInternal>
2.4093

> <Gold.Chemscore.Rot>
2.7347

> <Gold.Chemscore.Internal.Correction>
   9.000000E+99

> <Gold.Chemscore.Hbonds>
donor molecule, donor type, donor heavy atom, donor atom, acceptor molecule, acceptor atom, score
      P1  H  6896  6909       L1    24  0.02
      P1  H 10752 10765       L1    15  0.07

> <Gold.Chemscore.Hbond.Weighted>
-9.2189

> <Gold.Chemscore.Metal.Weighted>
-0.0000

> <Gold.Chemscore.Lipo.Weighted>
-14.0403

> <Gold.Chemscore.Internal_Hbond.Weighted>
0.0000

> <Gold.Chemscore.DEClash.Weighted>
0.2485

> <Gold.Chemscore.DEInternal.Weighted>
2.4093

> <Gold.Chemscore.Rot.Weighted>
7.0009

> <Gold.Chemscore.Internal.Correction.Weighted>
   9.000000E+99

> <Gold.Protein.RotatedTorsions>
[ 6907 6896 6895 6894 ] final   25.24 input  -60.11 | X-H torsion
[ 7974 7965 7964 7962 ] final -104.39 input  175.53 | X-H torsion
[ 8008 7997 7996 7995 ] final  -39.69 input   59.86 | X-H torsion
[ 10167 10162 10161 10158 ] final   88.42 input  -65.29 | X-H torsion
[ 10718 10713 10712 10709 ] final  -46.50 input   66.30 | X-H torsion
[ 10763 10752 10751 10750 ] final  156.55 input  -60.55 | X-H torsion
[ 11005 11000 10999 10996 ] final  -67.33 input  -57.11 | X-H torsion

> <Gold.Protein.ActiveResidues>
 VAL166  LYS551  ARG553  GLY616  TRP617  ASP618  TYR619  PRO620  LYS621  CYS622 
 ASP623  PHE694  ASN695  SER759  ASP760  ASP761  ALA762  ILE779  LEU786  VAL792 
 PHE793  MET794  SER795  GLU796  ALA797  LYS798  CYS799  TRP800  GLU811  SER814 

> <Gold.Protein.RotatedAtoms>
  151.9695  135.0084  160.0551 H   0  0  0  0  0  0  0  0  0  0  0  0  # atno 6907 bound_to 6896
  152.1796  133.4693  159.4959 H   0  0  0  0  0  0  0  0  0  0  0  0  # atno 6908 bound_to 6896
  150.6915  134.1768  159.4276 H   0  0  0  0  0  0  0  0  0  0  0  0  # atno 6909 bound_to 6896
  145.2437  140.9214  143.3135 H   0  0  0  0  0  0  0  0  0  0  0  0  # atno 7974 bound_to 7965
  154.4020  140.1545  156.2905 H   0  0  0  0  0  0  0  0  0  0  0  0  # atno 8008 bound_to 7997
  155.8790  140.3445  155.5852 H   0  0  0  0  0  0  0  0  0  0  0  0  # atno 8009 bound_to 7997
  155.7689  140.0827  157.2108 H   0  0  0  0  0  0  0  0  0  0  0  0  # atno 8010 bound_to 7997
  139.8674  144.6511  150.8988 H   0  0  0  0  0  0  0  0  0  0  0  0  # atno 10167 bound_to 10162
  156.2177  130.4164  149.9032 H   0  0  0  0  0  0  0  0  0  0  0  0  # atno 10718 bound_to 10713
  154.1861  135.2797  155.3037 H   0  0  0  0  0  0  0  0  0  0  0  0  # atno 10763 bound_to 10752
  154.5965  135.5543  153.7334 H   0  0  0  0  0  0  0  0  0  0  0  0  # atno 10764 bound_to 10752
  153.0125  135.6381  154.1999 H   0  0  0  0  0  0  0  0  0  0  0  0  # atno 10765 bound_to 10752
  141.1505  133.6717  156.6276 H   0  0  0  0  0  0  0  0  0  0  0  0  # atno 11005 bound_to 11000
  144.9566  139.4025  143.6376 LP  0  0  0  0  0  0  0  0  0  0  0  0  # atno 17320 bound_to 7965
  146.3321  139.8599  142.8858 LP  0  0  0  0  0  0  0  0  0  0  0  0  # atno 17321 bound_to 7965
  140.7766  143.3692  151.1680 LP  0  0  0  0  0  0  0  0  0  0  0  0  # atno 17342 bound_to 10162
  139.7316  143.9064  152.3021 LP  0  0  0  0  0  0  0  0  0  0  0  0  # atno 17343 bound_to 10162
  156.6689  130.8812  151.3559 LP  0  0  0  0  0  0  0  0  0  0  0  0  # atno 17370 bound_to 10713
  157.7072  130.9398  150.0968 LP  0  0  0  0  0  0  0  0  0  0  0  0  # atno 17371 bound_to 10713
  140.3492  134.7783  157.4454 LP  0  0  0  0  0  0  0  0  0  0  0  0  # atno 17394 bound_to 11000
  140.0875  134.5647  155.8478 LP  0  0  0  0  0  0  0  0  0  0  0  0  # atno 17395 bound_to 11000

$$$$
