AV-unprocessed.smi:1670|AV-procd|sdf|6695|dock2
  -GOLD-   22720 7423D 1   1.00000     0.00000
 Structure written by MMmdl.
 41 42  0  0  0  0  0  0  0  0  1 V2000
  146.4049  139.9734  154.5347 C   0  0  0  0  0  0  0  0  0  0  0  0
  147.6755  139.1167  154.6194 C   0  0  2  0  0  0  0  0  0  0  0  0
  148.9238  139.9159  154.1859 C   0  0  0  0  0  0  0  0  0  0  0  0
  150.1625  139.3141  154.6501 N   0  0  0  0  0  0  0  0  0  0  0  0
  150.5344  137.9867  154.6170 C   0  0  0  0  0  0  0  0  0  0  0  0
  151.7931  137.9045  155.1400 C   0  0  0  0  0  0  0  0  0  0  0  0
  152.1100  139.2514  155.4720 C   0  0  0  0  0  0  0  0  0  0  0  0
  151.1304  140.0922  155.1827 N   0  0  0  0  0  0  0  0  0  0  0  0
  147.5053  137.9270  153.7858 N   0  0  0  0  0  0  0  0  0  0  0  0
  146.4306  137.1247  153.7865 C   0  0  0  0  0  0  0  0  0  0  0  0
  145.4132  137.3306  154.4490 O   0  0  0  0  0  0  0  0  0  0  0  0
  146.6117  136.0519  153.0043 N   0  0  0  0  0  0  0  0  0  0  0  0
  145.6624  134.9534  152.8555 C   0  0  2  0  0  0  0  0  0  0  0  0
  146.2265  133.8712  151.9108 C   0  0  0  0  0  0  0  0  0  0  0  0
  145.2143  132.7344  151.6861 C   0  0  0  0  0  0  0  0  0  0  0  0
  143.8524  133.2540  151.1882 C   0  0  2  0  0  0  0  0  0  0  0  0
  143.9692  133.7288  149.8614 O   0  0  0  0  0  0  0  0  0  0  0  0
  143.3030  134.3671  152.1005 C   0  0  0  0  0  0  0  0  0  0  0  0
  144.3243  135.4967  152.3221 C   0  0  0  0  0  0  0  0  0  0  0  0
  146.4857  140.8577  155.1676 H   0  0  0  0  0  0  0  0  0  0  0  0
  145.5299  139.4127  154.8651 H   0  0  0  0  0  0  0  0  0  0  0  0
  146.2195  140.3109  153.5144 H   0  0  0  0  0  0  0  0  0  0  0  0
  147.7965  138.8229  155.6637 H   0  0  0  0  0  0  0  0  0  0  0  0
  148.9578  140.0153  153.0993 H   0  0  0  0  0  0  0  0  0  0  0  0
  148.8764  140.9287  154.5878 H   0  0  0  0  0  0  0  0  0  0  0  0
  149.8831  137.2220  154.2202 H   0  0  0  0  0  0  0  0  0  0  0  0
  152.3972  137.0180  155.2631 H   0  0  0  0  0  0  0  0  0  0  0  0
  153.0164  139.6403  155.9120 H   0  0  0  0  0  0  0  0  0  0  0  0
  148.2889  137.6657  153.2055 H   0  0  0  0  0  0  0  0  0  0  0  0
  147.4844  135.9695  152.5037 H   0  0  0  0  0  0  0  0  0  0  0  0
  145.4825  134.5087  153.8363 H   0  0  0  0  0  0  0  0  0  0  0  0
  146.4924  134.3189  150.9523 H   0  0  0  0  0  0  0  0  0  0  0  0
  147.1492  133.4561  152.3185 H   0  0  0  0  0  0  0  0  0  0  0  0
  145.6207  132.0031  150.9865 H   0  0  0  0  0  0  0  0  0  0  0  0
  145.0681  132.2036  152.6276 H   0  0  0  0  0  0  0  0  0  0  0  0
  143.1412  132.4276  151.1679 H   0  0  0  0  0  0  0  0  0  0  0  0
  143.1069  133.7574  149.4759 H   0  0  0  0  0  0  0  0  0  0  0  0
  142.3787  134.7731  151.6880 H   0  0  0  0  0  0  0  0  0  0  0  0
  143.0399  133.9355  153.0670 H   0  0  0  0  0  0  0  0  0  0  0  0
  143.9134  136.2276  153.0194 H   0  0  0  0  0  0  0  0  0  0  0  0
  144.4883  136.0272  151.3830 H   0  0  0  0  0  0  0  0  0  0  0  0
  1  2  1  0  0  0  0
  1 20  1  0  0  0  0
  1 21  1  0  0  0  0
  1 22  1  0  0  0  0
  2  3  1  0  0  0  0
  2  9  1  0  0  0  0
  2 23  1  0  0  0  0
  3  4  1  0  0  0  0
  3 24  1  0  0  0  0
  3 25  1  0  0  0  0
  4  8  1  0  0  0  0
  4  5  1  0  0  0  0
  5  6  2  0  0  0  0
  5 26  1  0  0  0  0
  6  7  1  0  0  0  0
  6 27  1  0  0  0  0
  7  8  2  0  0  0  0
  7 28  1  0  0  0  0
  9 10  1  0  0  0  0
  9 29  1  0  0  0  0
 10 11  2  0  0  0  0
 10 12  1  0  0  0  0
 12 13  1  0  0  0  0
 12 30  1  0  0  0  0
 13 19  1  0  0  0  0
 13 14  1  0  0  0  0
 13 31  1  0  0  0  0
 14 15  1  0  0  0  0
 14 32  1  0  0  0  0
 14 33  1  0  0  0  0
 15 16  1  0  0  0  0
 15 34  1  0  0  0  0
 15 35  1  0  0  0  0
 16 17  1  0  0  0  0
 16 18  1  0  0  0  0
 16 36  1  0  0  0  0
 17 37  1  0  0  0  0
 18 19  1  0  0  0  0
 18 38  1  0  0  0  0
 18 39  1  0  0  0  0
 19 40  1  0  0  0  0
 19 41  1  0  0  0  0
M  END
> <s_m_source_file>
AV-unprocessed.smi

> <i_m_source_file_index>
1670

> <i_lp_mmshare_version>
43012

> <i_f3d_flags>
0

> <s_epik_input>
bjFbY0hdW2NIXVtjSF1uMVtDSDJdW0NAQEhdKFtDSDNdKVtOSF1DKD1PKVtOSF1bQ0BASF0yW0NIMl1bQ0gyXVtDQEBIXShbT0hdKVtDSDJdW0NIMl0y

> <s_epik_cmdline>
J2VwaWtfcHl0aG9uJywgJy1waCcsICc3LjAnLCAnLXRuJywgJzgnLCAnLW1hJywgJzIwMCcsICctbWV0YWxfYmluZGluZycsICctaW1hZScsICc8aW5maWxlLm1hZT4nLCAnLW9tYWUnLCAnPG91dGZpbGUubWFlPic=

> <r_lp_tautomer_probability>
1

> <r_epik_Ionization_Penalty>
7.33369e-05

> <r_epik_Ionization_Penalty_Charging>
0

> <r_epik_Ionization_Penalty_Neutral>
7.33369e-05

> <r_epik_State_Penalty>
-0

> <r_epik_Charging_Adjusted_Penalty>
0

> <i_epik_Tot_Q>
0

> <i_epik_Tot_abs_Q>
0

> <r_epik_Metal_State_Penalty>
-0

> <b_epik_Metal_Only>
0

> <s_lp_Force_Field>
OPLS_2005

> <r_lp_Energy>
7.35879

> <b_lp_Chiralities_Consistent>
1

> <s_lp_Variant>
AV-unprocessed.smi:1670-3

> <Gold.Version>
5.8.1

> <Gold.Id.Protein>
6NUR|6NUR_protein|mol2

> <Gold.PLP.Fitness>
45.7051

> <Gold.PLP.PLP>
-32.0026

> <Gold.PLP.part.hbond>
-4.0000

> <Gold.PLP.part.metal>
0.0000

> <Gold.PLP.part.buried>
-3.4709

> <Gold.PLP.part.nonpolar>
-25.3928

> <Gold.PLP.part.repulsive>
0.1346

> <Gold.PLP.ligand.clash>
0.0000

> <Gold.PLP.ligand.torsion>
0.4627

> <Gold.PLP.Chemscore.Hbond>
3.8640

> <Gold.PLP.Chemscore.CHOScore>
1.0000

> <Gold.PLP.Chemscore.Metal>
0.0000

> <Gold.Chemscore.Hbonds>
donor molecule, donor type, donor heavy atom, donor atom, acceptor molecule, acceptor atom, score
      L1  H     9    29       P1  7948  0.80
      L1  H    12    30       P1  7948  1.00
      L1  H    17    37       P1 10186  0.57
      P1  H  7989  7998       L1     8  0.75
      L1  C     5    26       P1  7948  0.60

> <Gold.PLP.Chemscore.Internal.Correction>
0.0358

> <Gold.Rescore>
     Score         DG    S(hbond)    S(metal)    S(lipo)     H(rot)  DE(clash)    DE(int)     intcor
     17.34     -20.57       3.83        0.00      68.31       2.22       1.40       1.83       ----

> <Gold.Chemscore.Fitness>
17.3356

> <Gold.Chemscore.DG>
-20.5681

> <Gold.Chemscore.ZeroCoef>
-5.4800

> <Gold.Chemscore.Hbond>
3.8281

> <Gold.Chemscore.Metal>
0.0000

> <Gold.Chemscore.Lipo>
68.3051

> <Gold.Chemscore.Internal_Hbond>
0.0000

> <Gold.Chemscore.DEClash>
1.4037

> <Gold.Chemscore.DEInternal>
1.8288

> <Gold.Chemscore.Rot>
2.2224

> <Gold.Chemscore.Internal.Correction>
   9.000000E+99

> <Gold.Chemscore.Hbonds>
donor molecule, donor type, donor heavy atom, donor atom, acceptor molecule, acceptor atom, score
      L1  H     9    29       P1  7948  0.77
      L1  H    12    30       P1  7948  0.99
      L1  H    17    37       P1 10186  0.55
      P1  H  7989  7998       L1     8  0.05

> <Gold.Chemscore.Hbond.Weighted>
-12.7857

> <Gold.Chemscore.Metal.Weighted>
-0.0000

> <Gold.Chemscore.Lipo.Weighted>
-7.9917

> <Gold.Chemscore.Internal_Hbond.Weighted>
0.0000

> <Gold.Chemscore.DEClash.Weighted>
1.4037

> <Gold.Chemscore.DEInternal.Weighted>
1.8288

> <Gold.Chemscore.Rot.Weighted>
5.6893

> <Gold.Chemscore.Internal.Correction.Weighted>
   9.000000E+99

> <Gold.Protein.RotatedTorsions>
[ 6907 6896 6895 6894 ] final -163.70 input  -60.11 | X-H torsion
[ 7974 7965 7964 7962 ] final  -56.87 input  175.53 | X-H torsion
[ 8008 7997 7996 7995 ] final   54.23 input   59.86 | X-H torsion
[ 10167 10162 10161 10158 ] final   16.29 input  -65.29 | X-H torsion
[ 10718 10713 10712 10709 ] final   55.08 input   66.30 | X-H torsion
[ 10763 10752 10751 10750 ] final   83.82 input  -60.55 | X-H torsion
[ 11005 11000 10999 10996 ] final  -60.79 input  -57.11 | X-H torsion

> <Gold.Protein.ActiveResidues>
 VAL166  LYS551  ARG553  GLY616  TRP617  ASP618  TYR619  PRO620  LYS621  CYS622 
 ASP623  PHE694  ASN695  SER759  ASP760  ASP761  ALA762  ILE779  LEU786  VAL792 
 PHE793  MET794  SER795  GLU796  ALA797  LYS798  CYS799  TRP800  GLU811  SER814 

> <Gold.Protein.RotatedAtoms>
  151.4001  133.3760  159.2730 H   0  0  0  0  0  0  0  0  0  0  0  0  # atno 6907 bound_to 6896
  150.9440  134.8848  159.7641 H   0  0  0  0  0  0  0  0  0  0  0  0  # atno 6908 bound_to 6896
  152.5083  134.3953  159.9450 H   0  0  0  0  0  0  0  0  0  0  0  0  # atno 6909 bound_to 6896
  145.8576  140.8308  142.9953 H   0  0  0  0  0  0  0  0  0  0  0  0  # atno 7974 bound_to 7965
  155.4813  140.3468  155.4340 H   0  0  0  0  0  0  0  0  0  0  0  0  # atno 8008 bound_to 7997
  156.1037  140.1442  156.9461 H   0  0  0  0  0  0  0  0  0  0  0  0  # atno 8009 bound_to 7997
  154.4710  140.0901  156.7123 H   0  0  0  0  0  0  0  0  0  0  0  0  # atno 8010 bound_to 7997
  140.5808  143.8985  150.6788 H   0  0  0  0  0  0  0  0  0  0  0  0  # atno 10167 bound_to 10162
  157.5313  130.8632  149.8692 H   0  0  0  0  0  0  0  0  0  0  0  0  # atno 10718 bound_to 10713
  153.1326  135.4677  154.9372 H   0  0  0  0  0  0  0  0  0  0  0  0  # atno 10763 bound_to 10752
  154.7677  135.3149  154.8255 H   0  0  0  0  0  0  0  0  0  0  0  0  # atno 10764 bound_to 10752
  153.8794  135.6896  153.4822 H   0  0  0  0  0  0  0  0  0  0  0  0  # atno 10765 bound_to 10752
  141.1300  133.6625  156.5276 H   0  0  0  0  0  0  0  0  0  0  0  0  # atno 11005 bound_to 11000
  144.6727  140.1047  143.7458 LP  0  0  0  0  0  0  0  0  0  0  0  0  # atno 17320 bound_to 7965
  145.9285  139.2591  143.1339 LP  0  0  0  0  0  0  0  0  0  0  0  0  # atno 17321 bound_to 7965
  140.2483  143.3612  152.1427 LP  0  0  0  0  0  0  0  0  0  0  0  0  # atno 17342 bound_to 10162
  139.5169  144.6983  151.5566 LP  0  0  0  0  0  0  0  0  0  0  0  0  # atno 17343 bound_to 10162
  156.0425  130.3735  150.1400 LP  0  0  0  0  0  0  0  0  0  0  0  0  # atno 17370 bound_to 10713
  156.9584  130.9797  151.3484 LP  0  0  0  0  0  0  0  0  0  0  0  0  # atno 17371 bound_to 10713
  140.4241  134.7160  157.4906 LP  0  0  0  0  0  0  0  0  0  0  0  0  # atno 17394 bound_to 11000
  140.0339  134.6366  155.9069 LP  0  0  0  0  0  0  0  0  0  0  0  0  # atno 17395 bound_to 11000

$$$$
