AV-unprocessed.smi:1578|AV-procd|sdf|6350|dock1
  -GOLD-   22720 6563D 1   1.00000     0.00000
 Structure written by MMmdl.
 44 45  0  0  0  0  0  0  0  0  1 V2000
  147.5123  138.6661  153.8156 C   0  0  0  0  0  0  0  0  0  0  0  0
  148.1499  138.4614  155.1997 C   0  0  2  0  0  0  0  0  0  0  0  0
  147.0945  138.5656  156.3227 C   0  0  0  0  0  0  0  0  0  0  0  0
  147.3161  137.7050  157.4871 N   0  0  0  0  0  0  0  0  0  0  0  0
  148.5641  138.0037  158.1876 C   0  0  0  0  0  0  0  0  0  0  0  0
  148.7564  137.1247  159.4351 C   0  0  0  0  0  0  0  0  0  0  0  0
  147.6368  137.2693  160.3020 O   0  0  0  0  0  0  0  0  0  0  0  0
  146.4090  136.9266  159.6688 C   0  0  0  0  0  0  0  0  0  0  0  0
  146.2070  137.8152  158.4295 C   0  0  0  0  0  0  0  0  0  0  0  0
  149.1847  139.4695  155.4082 N   0  0  0  0  0  0  0  0  0  0  0  0
  148.9845  140.7921  155.5381 C   0  0  0  0  0  0  0  0  0  0  0  0
  147.8638  141.2990  155.5545 O   0  0  0  0  0  0  0  0  0  0  0  0
  150.2205  141.7011  155.6515 C   0  0  0  0  0  0  0  0  0  0  0  0
  150.8563  141.7102  156.9821 N   0  0  0  0  0  0  0  0  0  0  0  0
  150.9078  142.9442  157.6602 C   0  0  0  0  0  0  0  0  0  0  0  0
  151.4306  143.0812  158.8938 C   0  0  0  0  0  0  0  0  0  0  0  0
  151.5139  144.4355  159.5804 C   0  0  0  0  0  0  0  0  0  0  0  0
  150.3006  144.9558  159.7663 F   0  0  0  0  0  0  0  0  0  0  0  0
  152.1142  144.3371  160.7672 F   0  0  0  0  0  0  0  0  0  0  0  0
  152.2178  145.2807  158.8287 F   0  0  0  0  0  0  0  0  0  0  0  0
  151.9843  141.8846  159.4965 C   0  0  0  0  0  0  0  0  0  0  0  0
  151.9505  140.6983  158.8586 C   0  0  0  0  0  0  0  0  0  0  0  0
  151.3549  140.5602  157.5279 C   0  0  0  0  0  0  0  0  0  0  0  0
  151.2997  139.4775  156.9446 O   0  0  0  0  0  0  0  0  0  0  0  0
  146.7445  137.9164  153.6228 H   0  0  0  0  0  0  0  0  0  0  0  0
  148.2536  138.5823  153.0202 H   0  0  0  0  0  0  0  0  0  0  0  0
  147.0462  139.6487  153.7344 H   0  0  0  0  0  0  0  0  0  0  0  0
  148.5928  137.4636  155.2235 H   0  0  0  0  0  0  0  0  0  0  0  0
  146.9781  139.6045  156.6362 H   0  0  0  0  0  0  0  0  0  0  0  0
  146.1324  138.2877  155.8900 H   0  0  0  0  0  0  0  0  0  0  0  0
  149.4147  137.8432  157.5269 H   0  0  0  0  0  0  0  0  0  0  0  0
  148.5832  139.0550  158.4793 H   0  0  0  0  0  0  0  0  0  0  0  0
  148.8749  136.0770  159.1542 H   0  0  0  0  0  0  0  0  0  0  0  0
  149.6612  137.4179  159.9678 H   0  0  0  0  0  0  0  0  0  0  0  0
  146.4145  135.8709  159.3926 H   0  0  0  0  0  0  0  0  0  0  0  0
  145.5914  137.0693  160.3755 H   0  0  0  0  0  0  0  0  0  0  0  0
  146.0943  138.8528  158.7477 H   0  0  0  0  0  0  0  0  0  0  0  0
  145.2740  137.5374  157.9376 H   0  0  0  0  0  0  0  0  0  0  0  0
  150.1385  139.1386  155.4106 H   0  0  0  0  0  0  0  0  0  0  0  0
  150.9430  141.4023  154.8899 H   0  0  0  0  0  0  0  0  0  0  0  0
  149.9205  142.7114  155.3703 H   0  0  0  0  0  0  0  0  0  0  0  0
  150.4865  143.7751  157.1128 H   0  0  0  0  0  0  0  0  0  0  0  0
  152.4304  141.9383  160.4786 H   0  0  0  0  0  0  0  0  0  0  0  0
  152.3702  139.8266  159.3390 H   0  0  0  0  0  0  0  0  0  0  0  0
  1  2  1  0  0  0  0
  1 25  1  0  0  0  0
  1 26  1  0  0  0  0
  1 27  1  0  0  0  0
  2  3  1  0  0  0  0
  2 10  1  0  0  0  0
  2 28  1  0  0  0  0
  3  4  1  0  0  0  0
  3 29  1  0  0  0  0
  3 30  1  0  0  0  0
  4  9  1  0  0  0  0
  4  5  1  0  0  0  0
  5  6  1  0  0  0  0
  5 31  1  0  0  0  0
  5 32  1  0  0  0  0
  6  7  1  0  0  0  0
  6 33  1  0  0  0  0
  6 34  1  0  0  0  0
  7  8  1  0  0  0  0
  8  9  1  0  0  0  0
  8 35  1  0  0  0  0
  8 36  1  0  0  0  0
  9 37  1  0  0  0  0
  9 38  1  0  0  0  0
 10 11  1  0  0  0  0
 10 39  1  0  0  0  0
 11 12  2  0  0  0  0
 11 13  1  0  0  0  0
 13 14  1  0  0  0  0
 13 40  1  0  0  0  0
 13 41  1  0  0  0  0
 14 23  1  0  0  0  0
 14 15  1  0  0  0  0
 15 16  2  0  0  0  0
 15 42  1  0  0  0  0
 16 17  1  0  0  0  0
 16 21  1  0  0  0  0
 17 18  1  0  0  0  0
 17 19  1  0  0  0  0
 17 20  1  0  0  0  0
 21 22  2  0  0  0  0
 21 43  1  0  0  0  0
 22 23  1  0  0  0  0
 22 44  1  0  0  0  0
 23 24  2  0  0  0  0
M  END
> <s_m_source_file>
AV-unprocessed.smi

> <i_m_source_file_index>
1578

> <i_lp_mmshare_version>
43012

> <i_f3d_flags>
0

> <s_epik_input>
W0NIMl0xW0NIMl1PW0NIMl1bQ0gyXU4xW0NIMl1bQ0BASF0oW0NIM10pW05IXUMoPU8pW0NIMl1uMltjSF1jKEMoRikoRilGKVtjSF1bY0hdYzI9Tw==

> <s_epik_cmdline>
J2VwaWtfcHl0aG9uJywgJy1waCcsICc3LjAnLCAnLXRuJywgJzgnLCAnLW1hJywgJzIwMCcsICctbWV0YWxfYmluZGluZycsICctaW1hZScsICc8aW5maWxlLm1hZT4nLCAnLW9tYWUnLCAnPG91dGZpbGUubWFlPic=

> <r_lp_tautomer_probability>
1

> <r_epik_Ionization_Penalty>
0.237382

> <r_epik_Ionization_Penalty_Charging>
1.80451e-08

> <r_epik_Ionization_Penalty_Neutral>
0.237382

> <r_epik_State_Penalty>
0.228245

> <r_epik_Charging_Adjusted_Penalty>
0.228245

> <i_epik_Tot_Q>
0

> <i_epik_Tot_abs_Q>
0

> <r_epik_Metal_State_Penalty>
0.228219

> <b_epik_Metal_Only>
0

> <s_lp_Force_Field>
OPLS_2005

> <r_lp_Energy>
37.3685

> <b_lp_Chiralities_Consistent>
1

> <s_lp_Variant>
AV-unprocessed.smi:1578-1

> <Gold.Version>
5.8.1

> <Gold.Id.Protein>
6NUR|6NUR_protein|mol2

> <Gold.PLP.Fitness>
43.1067

> <Gold.PLP.PLP>
-38.3889

> <Gold.PLP.part.hbond>
-1.7032

> <Gold.PLP.part.metal>
0.0000

> <Gold.PLP.part.buried>
-7.2629

> <Gold.PLP.part.nonpolar>
-31.0571

> <Gold.PLP.part.repulsive>
0.1124

> <Gold.PLP.ligand.clash>
0.0000

> <Gold.PLP.ligand.torsion>
0.7285

> <Gold.PLP.Chemscore.Hbond>
0.9968

> <Gold.PLP.Chemscore.CHOScore>
1.0000

> <Gold.PLP.Chemscore.Metal>
0.0000

> <Gold.Chemscore.Hbonds>
donor molecule, donor type, donor heavy atom, donor atom, acceptor molecule, acceptor atom, score
      P1  H  6931  6943       L1     7  0.07
      P1  H  6934  6947       L1     7  0.88
      L1  C    15    42       P1  8028  1.00

> <Gold.PLP.Chemscore.Internal.Correction>
0.1844

> <Gold.Rescore>
     Score         DG    S(hbond)    S(metal)    S(lipo)     H(rot)  DE(clash)    DE(int)     intcor
      6.82     -10.13       0.75        0.00      64.03       2.09       0.02       3.29       ----

> <Gold.Chemscore.Fitness>
6.8220

> <Gold.Chemscore.DG>
-10.1318

> <Gold.Chemscore.ZeroCoef>
-5.4800

> <Gold.Chemscore.Hbond>
0.7536

> <Gold.Chemscore.Metal>
0.0000

> <Gold.Chemscore.Lipo>
64.0288

> <Gold.Chemscore.Internal_Hbond>
0.0000

> <Gold.Chemscore.DEClash>
0.0154

> <Gold.Chemscore.DEInternal>
3.2944

> <Gold.Chemscore.Rot>
2.0924

> <Gold.Chemscore.Internal.Correction>
   9.000000E+99

> <Gold.Chemscore.Hbonds>
donor molecule, donor type, donor heavy atom, donor atom, acceptor molecule, acceptor atom, score
      P1  H  6934  6947       L1     7  0.18

> <Gold.Chemscore.Hbond.Weighted>
-2.5171

> <Gold.Chemscore.Metal.Weighted>
-0.0000

> <Gold.Chemscore.Lipo.Weighted>
-7.4914

> <Gold.Chemscore.Internal_Hbond.Weighted>
0.0000

> <Gold.Chemscore.DEClash.Weighted>
0.0154

> <Gold.Chemscore.DEInternal.Weighted>
3.2944

> <Gold.Chemscore.Rot.Weighted>
5.3566

> <Gold.Chemscore.Internal.Correction.Weighted>
   9.000000E+99

> <Gold.Protein.RotatedTorsions>
[ 6907 6896 6895 6894 ] final  141.39 input  -60.11 | X-H torsion
[ 7974 7965 7964 7962 ] final   75.62 input  175.53 | X-H torsion
[ 8008 7997 7996 7995 ] final   75.06 input   59.86 | X-H torsion
[ 10167 10162 10161 10158 ] final -138.46 input  -65.29 | X-H torsion
[ 10718 10713 10712 10709 ] final -112.13 input   66.30 | X-H torsion
[ 10763 10752 10751 10750 ] final -121.05 input  -60.55 | X-H torsion
[ 11005 11000 10999 10996 ] final   91.73 input  -57.11 | X-H torsion

> <Gold.Protein.ActiveResidues>
 VAL166  LYS551  ARG553  GLY616  TRP617  ASP618  TYR619  PRO620  LYS621  CYS622 
 ASP623  PHE694  ASN695  SER759  ASP760  ASP761  ALA762  ILE779  LEU786  VAL792 
 PHE793  MET794  SER795  GLU796  ALA797  LYS798  CYS799  TRP800  GLU811  SER814 

> <Gold.Protein.RotatedAtoms>
  152.2315  133.5062  159.5218 H   0  0  0  0  0  0  0  0  0  0  0  0  # atno 6907 bound_to 6896
  150.7039  134.1209  159.4043 H   0  0  0  0  0  0  0  0  0  0  0  0  # atno 6908 bound_to 6896
  151.9131  135.0330  160.0567 H   0  0  0  0  0  0  0  0  0  0  0  0  # atno 6909 bound_to 6896
  145.7132  139.2622  143.1638 H   0  0  0  0  0  0  0  0  0  0  0  0  # atno 7974 bound_to 7965
  155.8074  140.3474  155.5437 H   0  0  0  0  0  0  0  0  0  0  0  0  # atno 8008 bound_to 7997
  155.8476  140.0951  157.1715 H   0  0  0  0  0  0  0  0  0  0  0  0  # atno 8009 bound_to 7997
  154.4007  140.1382  156.3792 H   0  0  0  0  0  0  0  0  0  0  0  0  # atno 8010 bound_to 7997
  139.8476  143.7240  152.2660 H   0  0  0  0  0  0  0  0  0  0  0  0  # atno 10167 bound_to 10162
  156.0688  130.5904  150.8467 H   0  0  0  0  0  0  0  0  0  0  0  0  # atno 10718 bound_to 10713
  154.8659  135.4181  154.2558 H   0  0  0  0  0  0  0  0  0  0  0  0  # atno 10763 bound_to 10752
  153.3495  135.6998  153.6806 H   0  0  0  0  0  0  0  0  0  0  0  0  # atno 10764 bound_to 10752
  153.5751  135.3583  155.2826 H   0  0  0  0  0  0  0  0  0  0  0  0  # atno 10765 bound_to 10752
  139.8834  134.8691  156.3470 H   0  0  0  0  0  0  0  0  0  0  0  0  # atno 11005 bound_to 11000
  146.0693  140.7886  142.9696 LP  0  0  0  0  0  0  0  0  0  0  0  0  # atno 17320 bound_to 7965
  144.6936  140.3317  143.7215 LP  0  0  0  0  0  0  0  0  0  0  0  0  # atno 17321 bound_to 7965
  139.7497  144.7537  151.0525 LP  0  0  0  0  0  0  0  0  0  0  0  0  # atno 17342 bound_to 10162
  140.7791  143.4875  150.9937 LP  0  0  0  0  0  0  0  0  0  0  0  0  # atno 17343 bound_to 10162
  157.5746  131.0946  150.9366 LP  0  0  0  0  0  0  0  0  0  0  0  0  # atno 17370 bound_to 10713
  156.9575  130.5442  149.5284 LP  0  0  0  0  0  0  0  0  0  0  0  0  # atno 17371 bound_to 10713
  140.9620  133.7382  156.0415 LP  0  0  0  0  0  0  0  0  0  0  0  0  # atno 17394 bound_to 11000
  140.7977  134.3544  157.5448 LP  0  0  0  0  0  0  0  0  0  0  0  0  # atno 17395 bound_to 11000

$$$$
