AV-unprocessed.smi:1457|AV-procd|sdf|5919|dock7
  -GOLD-   22720 6 03D 1   1.00000     0.00000
 Structure written by MMmdl.
 36 37  0  0  0  0  0  0  0  0  2 V2000
  147.4402  129.0208  152.9209 C   0  0  0  0  0  0  0  0  0  0  0  0
  147.8843  130.4308  152.9550 N   0  3  2  0  0  0  0  0  0  0  0  0
  148.6447  130.7539  154.1881 C   0  0  0  0  0  0  0  0  0  0  0  0
  149.2010  132.1866  154.1346 C   0  0  0  0  0  0  0  0  0  0  0  0
  148.0770  133.2092  153.9007 C   0  0  1  0  0  0  0  0  0  0  0  0
  148.6444  134.5468  153.7506 N   0  0  0  0  0  0  0  0  0  0  0  0
  149.2073  135.2729  154.7273 C   0  0  0  0  0  0  0  0  0  0  0  0
  149.3022  134.8910  155.8935 O   0  0  0  0  0  0  0  0  0  0  0  0
  149.6255  136.4633  154.2648 N   0  0  0  0  0  0  0  0  0  0  0  0
  150.3112  137.4904  154.9673 C   0  0  0  0  0  0  0  0  0  0  0  0
  150.9207  137.3168  156.2336 C   0  0  0  0  0  0  0  0  0  0  0  0
  151.5927  138.4068  156.8195 C   0  0  0  0  0  0  0  0  0  0  0  0
  151.6367  139.6264  156.1167 C   0  0  0  0  0  0  0  0  0  0  0  0
  151.0725  139.8021  154.9032 N   0  0  0  0  0  0  0  0  0  0  0  0
  150.4313  138.7522  154.3470 C   0  0  0  0  0  0  0  0  0  0  0  0
  147.2805  132.8286  152.6412 C   0  0  0  0  0  0  0  0  0  0  0  0
  146.7674  131.3810  152.7250 C   0  0  0  0  0  0  0  0  0  0  0  0
  146.7389  128.8110  153.7296 H   0  0  0  0  0  0  0  0  0  0  0  0
  148.2913  128.3465  153.0221 H   0  0  0  0  0  0  0  0  0  0  0  0
  146.9489  128.7948  151.9740 H   0  0  0  0  0  0  0  0  0  0  0  0
  147.9978  130.6345  155.0590 H   0  0  0  0  0  0  0  0  0  0  0  0
  149.4685  130.0487  154.3058 H   0  0  0  0  0  0  0  0  0  0  0  0
  149.7254  132.4137  155.0638 H   0  0  0  0  0  0  0  0  0  0  0  0
  149.9412  132.2576  153.3360 H   0  0  0  0  0  0  0  0  0  0  0  0
  147.4023  133.1736  154.7580 H   0  0  0  0  0  0  0  0  0  0  0  0
  148.6088  134.9519  152.8266 H   0  0  0  0  0  0  0  0  0  0  0  0
  149.3897  136.6779  153.3068 H   0  0  0  0  0  0  0  0  0  0  0  0
  150.8999  136.3731  156.7561 H   0  0  0  0  0  0  0  0  0  0  0  0
  152.0677  138.3080  157.7843 H   0  0  0  0  0  0  0  0  0  0  0  0
  152.1432  140.4819  156.5384 H   0  0  0  0  0  0  0  0  0  0  0  0
  149.9956  138.9279  153.3742 H   0  0  0  0  0  0  0  0  0  0  0  0
  146.4399  133.5111  152.5095 H   0  0  0  0  0  0  0  0  0  0  0  0
  147.9093  132.9386  151.7561 H   0  0  0  0  0  0  0  0  0  0  0  0
  146.2536  131.1237  151.7979 H   0  0  0  0  0  0  0  0  0  0  0  0
  146.0359  131.2878  153.5294 H   0  0  0  0  0  0  0  0  0  0  0  0
  148.5253  130.5470  152.1827 H   0  0  0  0  0  0  0  0  0  0  0  0
  1  2  1  0  0  0  0
  1 18  1  0  0  0  0
  1 19  1  0  0  0  0
  1 20  1  0  0  0  0
  2 17  1  0  0  0  0
  2  3  1  0  0  0  0
  2 36  1  0  0  0  0
  3  4  1  0  0  0  0
  3 21  1  0  0  0  0
  3 22  1  0  0  0  0
  4  5  1  0  0  0  0
  4 23  1  0  0  0  0
  4 24  1  0  0  0  0
  5  6  1  0  0  0  0
  5 16  1  0  0  0  0
  5 25  1  0  0  0  0
  6  7  1  0  0  0  0
  6 26  1  0  0  0  0
  7  8  2  0  0  0  0
  7  9  1  0  0  0  0
  9 10  1  0  0  0  0
  9 27  1  0  0  0  0
 10 15  1  0  0  0  0
 10 11  2  0  0  0  0
 11 12  1  0  0  0  0
 11 28  1  0  0  0  0
 12 13  2  0  0  0  0
 12 29  1  0  0  0  0
 13 14  1  0  0  0  0
 13 30  1  0  0  0  0
 14 15  2  0  0  0  0
 15 31  1  0  0  0  0
 16 17  1  0  0  0  0
 16 32  1  0  0  0  0
 16 33  1  0  0  0  0
 17 34  1  0  0  0  0
 17 35  1  0  0  0  0
M  CHG  1   2   1
M  END
> <s_m_source_file>
AV-unprocessed.smi

> <i_m_source_file_index>
1457

> <i_lp_mmshare_version>
43012

> <i_f3d_flags>
0

> <s_epik_input>
W0NIM11OMVtDSDJdW0NIMl1bQ0hdKFtDSDJdW0NIMl0xKVtOSF1DKD1PKVtOSF1jMltjSF1bY0hdW2NIXW5bY0hdMg==

> <s_epik_cmdline>
J2VwaWtfcHl0aG9uJywgJy1waCcsICc3LjAnLCAnLXRuJywgJzgnLCAnLW1hJywgJzIwMCcsICctbWV0YWxfYmluZGluZycsICctaW1hZScsICc8aW5maWxlLm1hZT4nLCAnLW9tYWUnLCAnPG91dGZpbGUubWFlPic=

> <r_lp_tautomer_probability>
1

> <r_epik_Ionization_Penalty>
0.00766642

> <r_epik_Ionization_Penalty_Charging>
0.00366825

> <r_epik_Ionization_Penalty_Neutral>
0.00399817

> <r_epik_State_Penalty>
-0

> <r_epik_Charging_Adjusted_Penalty>
0.00366825

> <i_epik_Tot_Q>
1

> <i_epik_Tot_abs_Q>
1

> <r_epik_Metal_State_Penalty>
-0

> <b_epik_Metal_Only>
0

> <s_lp_Force_Field>
OPLS_2005

> <r_lp_Energy>
19.7358

> <b_lp_Chiralities_Consistent>
1

> <s_lp_Variant>
AV-unprocessed.smi:1457-1

> <Gold.Version>
5.8.1

> <Gold.Id.Protein>
6NUR|6NUR_protein|mol2

> <Gold.PLP.Fitness>
42.7141

> <Gold.PLP.PLP>
-28.0274

> <Gold.PLP.part.hbond>
-5.0000

> <Gold.PLP.part.metal>
0.0000

> <Gold.PLP.part.buried>
-1.6725

> <Gold.PLP.part.nonpolar>
-20.8938

> <Gold.PLP.part.repulsive>
0.1779

> <Gold.PLP.ligand.clash>
0.0000

> <Gold.PLP.ligand.torsion>
0.1452

> <Gold.PLP.Chemscore.Hbond>
3.9920

> <Gold.PLP.Chemscore.CHOScore>
1.0000

> <Gold.PLP.Chemscore.Metal>
0.0000

> <Gold.Chemscore.Hbonds>
donor molecule, donor type, donor heavy atom, donor atom, acceptor molecule, acceptor atom, score
      L1  H     2    36       P1 10747  1.00
      L1  H     6    26       P1  7948  0.98
      L1  H     9    27       P1  7948  1.00
      P1  H  7989  7998       L1    14  1.00
      L1  C    15    31       P1  7957  1.00

> <Gold.PLP.Chemscore.Internal.Correction>
0.0012

> <Gold.Rescore>
     Score         DG    S(hbond)    S(metal)    S(lipo)     H(rot)  DE(clash)    DE(int)     intcor
     19.38     -20.83       3.07        0.00      65.54       1.00       0.06       1.40       ----

> <Gold.Chemscore.Fitness>
19.3775

> <Gold.Chemscore.DG>
-20.8326

> <Gold.Chemscore.ZeroCoef>
-5.4800

> <Gold.Chemscore.Hbond>
3.0673

> <Gold.Chemscore.Metal>
0.0000

> <Gold.Chemscore.Lipo>
65.5375

> <Gold.Chemscore.Internal_Hbond>
0.0000

> <Gold.Chemscore.DEClash>
0.0563

> <Gold.Chemscore.DEInternal>
1.3988

> <Gold.Chemscore.Rot>
1.0000

> <Gold.Chemscore.Internal.Correction>
   9.000000E+99

> <Gold.Chemscore.Hbonds>
donor molecule, donor type, donor heavy atom, donor atom, acceptor molecule, acceptor atom, score
      L1  H     2    36       P1 10747  0.79
      L1  H     6    26       P1  7948  0.37
      L1  H     9    27       P1  7948  0.77
      P1  H  7989  7998       L1    14  0.55

> <Gold.Chemscore.Hbond.Weighted>
-10.2447

> <Gold.Chemscore.Metal.Weighted>
-0.0000

> <Gold.Chemscore.Lipo.Weighted>
-7.6679

> <Gold.Chemscore.Internal_Hbond.Weighted>
0.0000

> <Gold.Chemscore.DEClash.Weighted>
0.0563

> <Gold.Chemscore.DEInternal.Weighted>
1.3988

> <Gold.Chemscore.Rot.Weighted>
2.5600

> <Gold.Chemscore.Internal.Correction.Weighted>
   9.000000E+99

> <Gold.Protein.RotatedTorsions>
[ 6907 6896 6895 6894 ] final    4.53 input  -60.11 | X-H torsion
[ 7974 7965 7964 7962 ] final -145.19 input  175.53 | X-H torsion
[ 8008 7997 7996 7995 ] final  -61.20 input   59.86 | X-H torsion
[ 10167 10162 10161 10158 ] final  105.34 input  -65.29 | X-H torsion
[ 10718 10713 10712 10709 ] final -157.36 input   66.30 | X-H torsion
[ 10763 10752 10751 10750 ] final -146.50 input  -60.55 | X-H torsion
[ 11005 11000 10999 10996 ] final  -28.98 input  -57.11 | X-H torsion

> <Gold.Protein.ActiveResidues>
 VAL166  LYS551  ARG553  GLY616  TRP617  ASP618  TYR619  PRO620  LYS621  CYS622 
 ASP623  PHE694  ASN695  SER759  ASP760  ASP761  ALA762  ILE779  LEU786  VAL792 
 PHE793  MET794  SER795  GLU796  ALA797  LYS798  CYS799  TRP800  GLU811  SER814 

> <Gold.Protein.RotatedAtoms>
  151.6428  135.1011  160.0144 H   0  0  0  0  0  0  0  0  0  0  0  0  # atno 6907 bound_to 6896
  152.4044  133.6863  159.6352 H   0  0  0  0  0  0  0  0  0  0  0  0  # atno 6908 bound_to 6896
  150.7940  133.8651  159.3284 H   0  0  0  0  0  0  0  0  0  0  0  0  # atno 6909 bound_to 6896
  144.8245  140.5615  143.5556 H   0  0  0  0  0  0  0  0  0  0  0  0  # atno 7974 bound_to 7965
  154.4436  140.1023  156.6393 H   0  0  0  0  0  0  0  0  0  0  0  0  # atno 8008 bound_to 7997
  155.5519  140.3486  155.4452 H   0  0  0  0  0  0  0  0  0  0  0  0  # atno 8009 bound_to 7997
  156.0523  140.1307  157.0026 H   0  0  0  0  0  0  0  0  0  0  0  0  # atno 8010 bound_to 7997
  139.7101  144.7079  151.1041 H   0  0  0  0  0  0  0  0  0  0  0  0  # atno 10167 bound_to 10162
  156.5392  130.8555  151.2743 H   0  0  0  0  0  0  0  0  0  0  0  0  # atno 10718 bound_to 10713
  154.8333  135.3385  154.6672 H   0  0  0  0  0  0  0  0  0  0  0  0  # atno 10763 bound_to 10752
  153.7289  135.6953  153.4998 H   0  0  0  0  0  0  0  0  0  0  0  0  # atno 10764 bound_to 10752
  153.2326  135.4411  155.0564 H   0  0  0  0  0  0  0  0  0  0  0  0  # atno 10765 bound_to 10752
  140.9256  133.7370  156.0863 H   0  0  0  0  0  0  0  0  0  0  0  0  # atno 11005 bound_to 11000
  145.5031  139.1482  143.3646 LP  0  0  0  0  0  0  0  0  0  0  0  0  # atno 17320 bound_to 7965
  146.2550  140.5171  142.8877 LP  0  0  0  0  0  0  0  0  0  0  0  0  # atno 17321 bound_to 7965
  140.7731  143.5305  150.9429 LP  0  0  0  0  0  0  0  0  0  0  0  0  # atno 17342 bound_to 10162
  139.8989  143.6860  152.3134 LP  0  0  0  0  0  0  0  0  0  0  0  0  # atno 17343 bound_to 10162
  157.7408  130.9858  150.2403 LP  0  0  0  0  0  0  0  0  0  0  0  0  # atno 17370 bound_to 10713
  156.2987  130.3755  149.7771 LP  0  0  0  0  0  0  0  0  0  0  0  0  # atno 17371 bound_to 10713
  140.7930  134.3596  157.5459 LP  0  0  0  0  0  0  0  0  0  0  0  0  # atno 17394 bound_to 11000
  139.8785  134.9152  156.3124 LP  0  0  0  0  0  0  0  0  0  0  0  0  # atno 17395 bound_to 11000

$$$$
