AV-unprocessed.smi:746|AV-procd|sdf|3579|dock2
  -GOLD-   22720 0573D 1   1.00000     0.00000
 Structure written by MMmdl.
 48 50  0  0  0  0  0  0  0  0  1 V2000
  145.4619  136.2732  151.5265 C   0  0  0  0  0  0  0  0  0  0  0  0
  145.6977  137.3653  152.3980 O   0  0  0  0  0  0  0  0  0  0  0  0
  146.4413  138.4020  151.7799 C   0  0  0  0  0  0  0  0  0  0  0  0
  146.7428  139.4863  152.8179 C   0  0  0  0  0  0  0  0  0  0  0  0
  147.6403  138.9555  153.7826 O   0  0  0  0  0  0  0  0  0  0  0  0
  148.4527  139.8352  154.4636 C   0  0  0  0  0  0  0  0  0  0  0  0
  148.4554  141.2396  154.2741 C   0  0  0  0  0  0  0  0  0  0  0  0
  149.3398  142.0259  155.0376 C   0  0  0  0  0  0  0  0  0  0  0  0
  150.2020  141.3882  155.9601 C   0  0  0  0  0  0  0  0  0  0  0  0
  151.1283  142.0659  156.7979 N   0  0  0  0  0  0  0  0  0  0  0  0
  151.5432  141.7391  158.0378 C   0  0  0  0  0  0  0  0  0  0  0  0
  151.3055  140.6581  158.5738 O   0  0  0  0  0  0  0  0  0  0  0  0
  152.3526  142.6821  158.5797 N   0  0  0  0  0  0  0  0  0  0  0  0
  152.1234  144.1207  158.3282 C   0  0  0  0  0  0  0  0  0  0  0  0
  151.2990  144.7371  159.4850 C   0  0  0  0  0  0  0  0  0  0  0  0
  151.9544  144.4914  160.8617 C   0  0  0  0  0  0  0  0  0  0  0  0
  152.3126  143.0043  161.0204 C   0  0  2  0  0  0  0  0  0  0  0  0
  153.1917  142.6205  162.2158 C   0  0  0  0  0  0  0  0  0  0  0  0
  153.9969  141.3856  161.7553 C   0  0  0  0  0  0  0  0  0  0  0  0
  153.6673  141.1663  160.2675 C   0  0  0  0  0  0  0  0  0  0  0  0
  153.1323  142.5357  159.8239 C   0  0  1  0  0  0  0  0  0  0  0  0
  150.1089  139.9874  156.0824 C   0  0  0  0  0  0  0  0  0  0  0  0
  149.2648  139.2272  155.3546 N   0  0  0  0  0  0  0  0  0  0  0  0
  144.8833  135.5090  152.0451 H   0  0  0  0  0  0  0  0  0  0  0  0
  146.3986  135.8212  151.1984 H   0  0  0  0  0  0  0  0  0  0  0  0
  144.8963  136.5848  150.6475 H   0  0  0  0  0  0  0  0  0  0  0  0
  147.3730  138.0054  151.3732 H   0  0  0  0  0  0  0  0  0  0  0  0
  145.8732  138.8272  150.9509 H   0  0  0  0  0  0  0  0  0  0  0  0
  147.1869  140.3528  152.3251 H   0  0  0  0  0  0  0  0  0  0  0  0
  145.8152  139.8034  153.2971 H   0  0  0  0  0  0  0  0  0  0  0  0
  147.8002  141.7270  153.5684 H   0  0  0  0  0  0  0  0  0  0  0  0
  149.3265  143.0965  154.9077 H   0  0  0  0  0  0  0  0  0  0  0  0
  151.4094  142.9804  156.4755 H   0  0  0  0  0  0  0  0  0  0  0  0
  153.0841  144.6303  158.2422 H   0  0  0  0  0  0  0  0  0  0  0  0
  151.6110  144.3145  157.3853 H   0  0  0  0  0  0  0  0  0  0  0  0
  151.1693  145.8074  159.3223 H   0  0  0  0  0  0  0  0  0  0  0  0
  150.2980  144.3036  159.4817 H   0  0  0  0  0  0  0  0  0  0  0  0
  152.8576  145.0977  160.9409 H   0  0  0  0  0  0  0  0  0  0  0  0
  151.2901  144.8129  161.6642 H   0  0  0  0  0  0  0  0  0  0  0  0
  151.3917  142.4195  161.0681 H   0  0  0  0  0  0  0  0  0  0  0  0
  153.8780  143.4326  162.4598 H   0  0  0  0  0  0  0  0  0  0  0  0
  152.5961  142.4169  163.1061 H   0  0  0  0  0  0  0  0  0  0  0  0
  155.0637  141.5705  161.8858 H   0  0  0  0  0  0  0  0  0  0  0  0
  153.7474  140.5020  162.3437 H   0  0  0  0  0  0  0  0  0  0  0  0
  154.5367  140.8513  159.6897 H   0  0  0  0  0  0  0  0  0  0  0  0
  152.9229  140.3762  160.2020 H   0  0  0  0  0  0  0  0  0  0  0  0
  154.0097  143.1802  159.7313 H   0  0  0  0  0  0  0  0  0  0  0  0
  150.7365  139.4557  156.7829 H   0  0  0  0  0  0  0  0  0  0  0  0
  1  2  1  0  0  0  0
  1 24  1  0  0  0  0
  1 25  1  0  0  0  0
  1 26  1  0  0  0  0
  2  3  1  0  0  0  0
  3  4  1  0  0  0  0
  3 27  1  0  0  0  0
  3 28  1  0  0  0  0
  4  5  1  0  0  0  0
  4 29  1  0  0  0  0
  4 30  1  0  0  0  0
  5  6  1  0  0  0  0
  6 23  1  0  0  0  0
  6  7  2  0  0  0  0
  7  8  1  0  0  0  0
  7 31  1  0  0  0  0
  8  9  2  0  0  0  0
  8 32  1  0  0  0  0
  9 10  1  0  0  0  0
  9 22  1  0  0  0  0
 10 11  1  0  0  0  0
 10 33  1  0  0  0  0
 11 12  2  0  0  0  0
 11 13  1  0  0  0  0
 13 21  1  0  0  0  0
 13 14  1  0  0  0  0
 14 15  1  0  0  0  0
 14 34  1  0  0  0  0
 14 35  1  0  0  0  0
 15 16  1  0  0  0  0
 15 36  1  0  0  0  0
 15 37  1  0  0  0  0
 16 17  1  0  0  0  0
 16 38  1  0  0  0  0
 16 39  1  0  0  0  0
 17 21  1  0  0  0  0
 17 18  1  0  0  0  0
 17 40  1  0  0  0  0
 18 19  1  0  0  0  0
 18 41  1  0  0  0  0
 18 42  1  0  0  0  0
 19 20  1  0  0  0  0
 19 43  1  0  0  0  0
 19 44  1  0  0  0  0
 20 21  1  0  0  0  0
 20 45  1  0  0  0  0
 20 46  1  0  0  0  0
 21 47  1  0  0  0  0
 22 23  2  0  0  0  0
 22 48  1  0  0  0  0
M  END
> <s_m_source_file>
AV-unprocessed.smi

> <i_m_source_file_index>
746

> <i_lp_mmshare_version>
43012

> <i_f3d_flags>
0

> <s_epik_input>
W0NIM11PW0NIMl1bQ0gyXU9jMVtjSF1bY0hdYyhbY0hdbjEpW05IXUMoPU8pTihbQ0gyXVtDSDJdW0NIMl0yKVtDQEhdKFtDQEBIXTIzKVtDSDJdW0NIMl1bQ0gyXTM=

> <s_epik_cmdline>
J2VwaWtfcHl0aG9uJywgJy1waCcsICc3LjAnLCAnLXRuJywgJzgnLCAnLW1hJywgJzIwMCcsICctbWV0YWxfYmluZGluZycsICctaW1hZScsICc8aW5maWxlLm1hZT4nLCAnLW9tYWUnLCAnPG91dGZpbGUubWFlPic=

> <r_lp_tautomer_probability>
1

> <r_epik_Ionization_Penalty>
8.29966e-05

> <r_epik_Ionization_Penalty_Charging>
0

> <r_epik_Ionization_Penalty_Neutral>
8.29966e-05

> <r_epik_State_Penalty>
-0

> <r_epik_Charging_Adjusted_Penalty>
0

> <i_epik_Tot_Q>
0

> <i_epik_Tot_abs_Q>
0

> <r_epik_Metal_State_Penalty>
-0

> <b_epik_Metal_Only>
0

> <s_lp_Force_Field>
OPLS_2005

> <r_lp_Energy>
62.5595

> <b_lp_Chiralities_Consistent>
1

> <s_lp_Variant>
AV-unprocessed.smi:746-4

> <Gold.Version>
5.8.1

> <Gold.Id.Protein>
6NUR|6NUR_protein|mol2

> <Gold.PLP.Fitness>
53.7160

> <Gold.PLP.PLP>
-54.4182

> <Gold.PLP.part.hbond>
0.0000

> <Gold.PLP.part.metal>
0.0000

> <Gold.PLP.part.buried>
-1.9336

> <Gold.PLP.part.nonpolar>
-54.1817

> <Gold.PLP.part.repulsive>
0.5829

> <Gold.PLP.ligand.clash>
0.0532

> <Gold.PLP.ligand.torsion>
0.6111

> <Gold.PLP.Chemscore.Hbond>
0.0000

> <Gold.PLP.Chemscore.CHOScore>
0.0000

> <Gold.PLP.Chemscore.Metal>
0.0000

> <Gold.PLP.Chemscore.Internal.Correction>
0.5733

> <Gold.Rescore>
     Score         DG    S(hbond)    S(metal)    S(lipo)     H(rot)  DE(clash)    DE(int)     intcor
     15.00     -18.36       0.00        0.00     143.30       1.52       0.29       3.07       ----

> <Gold.Chemscore.Fitness>
15.0009

> <Gold.Chemscore.DG>
-18.3615

> <Gold.Chemscore.ZeroCoef>
-5.4800

> <Gold.Chemscore.Hbond>
0.0000

> <Gold.Chemscore.Metal>
0.0000

> <Gold.Chemscore.Lipo>
143.2958

> <Gold.Chemscore.Internal_Hbond>
0.0000

> <Gold.Chemscore.DEClash>
0.2910

> <Gold.Chemscore.DEInternal>
3.0696

> <Gold.Chemscore.Rot>
1.5172

> <Gold.Chemscore.Internal.Correction>
   9.000000E+99

> <Gold.Chemscore.Hbond.Weighted>
-0.0000

> <Gold.Chemscore.Metal.Weighted>
-0.0000

> <Gold.Chemscore.Lipo.Weighted>
-16.7656

> <Gold.Chemscore.Internal_Hbond.Weighted>
0.0000

> <Gold.Chemscore.DEClash.Weighted>
0.2910

> <Gold.Chemscore.DEInternal.Weighted>
3.0696

> <Gold.Chemscore.Rot.Weighted>
3.8841

> <Gold.Chemscore.Internal.Correction.Weighted>
   9.000000E+99

> <Gold.Protein.RotatedTorsions>
[ 6907 6896 6895 6894 ] final  -27.22 input  -60.11 | X-H torsion
[ 7974 7965 7964 7962 ] final   80.60 input  175.53 | X-H torsion
[ 8008 7997 7996 7995 ] final   45.27 input   59.86 | X-H torsion
[ 10167 10162 10161 10158 ] final   86.27 input  -65.29 | X-H torsion
[ 10718 10713 10712 10709 ] final  147.60 input   66.30 | X-H torsion
[ 10763 10752 10751 10750 ] final -104.60 input  -60.55 | X-H torsion
[ 11005 11000 10999 10996 ] final   38.73 input  -57.11 | X-H torsion

> <Gold.Protein.ActiveResidues>
 VAL166  LYS551  ARG553  GLY616  TRP617  ASP618  TYR619  PRO620  LYS621  CYS622 
 ASP623  PHE694  ASN695  SER759  ASP760  ASP761  ALA762  ILE779  LEU786  VAL792 
 PHE793  MET794  SER795  GLU796  ALA797  LYS798  CYS799  TRP800  GLU811  SER814 

> <Gold.Protein.RotatedAtoms>
  151.1499  135.0222  159.8663 H   0  0  0  0  0  0  0  0  0  0  0  0  # atno 6907 bound_to 6896
  152.5453  134.1401  159.8485 H   0  0  0  0  0  0  0  0  0  0  0  0  # atno 6908 bound_to 6896
  151.1485  133.4878  159.2628 H   0  0  0  0  0  0  0  0  0  0  0  0  # atno 6909 bound_to 6896
  145.6491  139.2443  143.1987 H   0  0  0  0  0  0  0  0  0  0  0  0  # atno 7974 bound_to 7965
  155.3331  140.3403  155.4239 H   0  0  0  0  0  0  0  0  0  0  0  0  # atno 8008 bound_to 7997
  156.1852  140.1678  156.8236 H   0  0  0  0  0  0  0  0  0  0  0  0  # atno 8009 bound_to 7997
  154.5378  140.0731  156.8440 H   0  0  0  0  0  0  0  0  0  0  0  0  # atno 8010 bound_to 7997
  139.8892  144.6395  150.8757 H   0  0  0  0  0  0  0  0  0  0  0  0  # atno 10167 bound_to 10162
  157.3189  131.0901  151.1256 H   0  0  0  0  0  0  0  0  0  0  0  0  # atno 10718 bound_to 10713
  154.7889  135.4780  154.0008 H   0  0  0  0  0  0  0  0  0  0  0  0  # atno 10763 bound_to 10752
  153.1601  135.6807  153.8761 H   0  0  0  0  0  0  0  0  0  0  0  0  # atno 10764 bound_to 10752
  153.8378  135.3183  155.3402 H   0  0  0  0  0  0  0  0  0  0  0  0  # atno 10765 bound_to 10752
  140.2098  134.3769  155.8055 H   0  0  0  0  0  0  0  0  0  0  0  0  # atno 11005 bound_to 11000
  146.1218  140.7299  142.9454 LP  0  0  0  0  0  0  0  0  0  0  0  0  # atno 17320 bound_to 7965
  144.7129  140.4105  143.7066 LP  0  0  0  0  0  0  0  0  0  0  0  0  # atno 17321 bound_to 7965
  140.7730  143.3523  151.1989 LP  0  0  0  0  0  0  0  0  0  0  0  0  # atno 17342 bound_to 10162
  139.7125  143.9354  152.2953 LP  0  0  0  0  0  0  0  0  0  0  0  0  # atno 17343 bound_to 10162
  157.2549  130.6631  149.5948 LP  0  0  0  0  0  0  0  0  0  0  0  0  # atno 17370 bound_to 10713
  155.9684  130.4527  150.5783 LP  0  0  0  0  0  0  0  0  0  0  0  0  # atno 17371 bound_to 10713
  141.2226  133.7137  156.8398 LP  0  0  0  0  0  0  0  0  0  0  0  0  # atno 17394 bound_to 11000
  140.1963  134.8929  157.3119 LP  0  0  0  0  0  0  0  0  0  0  0  0  # atno 17395 bound_to 11000

$$$$
