AV-unprocessed.smi:2991|AV-procd|sdf|11398|dock8
  -GOLD-   2272016323D 1   1.00000     0.00000
 Structure written by MMmdl.
 37 38  0  0  0  0  0  0  0  0  1 V2000
  147.6478  130.1425  152.9593 C   0  0  0  0  0  0  0  0  0  0  0  0
  148.6100  131.0526  153.6992 C   0  0  0  0  0  0  0  0  0  0  0  0
  149.4745  130.4349  154.5335 N   0  0  0  0  0  0  0  0  0  0  0  0
  150.3564  131.1973  155.2113 C   0  0  0  0  0  0  0  0  0  0  0  0
  150.4166  132.5994  155.0980 C   0  0  0  0  0  0  0  0  0  0  0  0
  149.5027  133.2519  154.2359 C   0  0  0  0  0  0  0  0  0  0  0  0
  149.4883  134.6595  154.0270 N   0  0  0  0  0  0  0  0  0  0  0  0
  149.9575  135.6366  154.8212 C   0  0  0  0  0  0  0  0  0  0  0  0
  150.4903  135.4722  155.9187 O   0  0  0  0  0  0  0  0  0  0  0  0
  149.7568  136.8419  154.2691 N   0  0  0  0  0  0  0  0  0  0  0  0
  150.1126  138.1295  154.8673 C   0  0  1  0  0  0  0  0  0  0  0  0
  149.2408  138.3938  156.1155 C   0  0  0  0  0  0  0  0  0  0  0  0
  149.1268  139.8787  156.4951 C   0  0  0  0  0  0  0  0  0  0  0  0
  150.4517  140.5466  156.8919 C   0  0  0  0  0  0  0  0  0  0  0  0
  151.4689  140.6344  155.7411 C   0  0  0  0  0  0  0  0  0  0  0  0
  152.1667  139.3752  155.5127 N   0  0  0  0  0  0  0  0  0  0  0  0
  151.6290  138.2077  155.1278 C   0  0  0  0  0  0  0  0  0  0  0  0
  152.3368  137.2098  154.9920 O   0  0  0  0  0  0  0  0  0  0  0  0
  148.5861  132.4545  153.5105 C   0  0  0  0  0  0  0  0  0  0  0  0
  147.4536  133.1785  152.4177 Cl  0  0  0  0  0  0  0  0  0  0  0  0
  146.6177  130.3988  153.2074 H   0  0  0  0  0  0  0  0  0  0  0  0
  147.8056  129.0948  153.2188 H   0  0  0  0  0  0  0  0  0  0  0  0
  147.7804  130.2456  151.8821 H   0  0  0  0  0  0  0  0  0  0  0  0
  151.0417  130.6724  155.8605 H   0  0  0  0  0  0  0  0  0  0  0  0
  151.1645  133.1375  155.6592 H   0  0  0  0  0  0  0  0  0  0  0  0
  149.0033  134.9628  153.1951 H   0  0  0  0  0  0  0  0  0  0  0  0
  149.3003  136.8811  153.3691 H   0  0  0  0  0  0  0  0  0  0  0  0
  149.8917  138.8961  154.1221 H   0  0  0  0  0  0  0  0  0  0  0  0
  148.2285  138.0279  155.9382 H   0  0  0  0  0  0  0  0  0  0  0  0
  149.6157  137.8185  156.9632 H   0  0  0  0  0  0  0  0  0  0  0  0
  148.6725  140.4304  155.6711 H   0  0  0  0  0  0  0  0  0  0  0  0
  148.4312  139.9679  157.3299 H   0  0  0  0  0  0  0  0  0  0  0  0
  150.2287  141.5596  157.2284 H   0  0  0  0  0  0  0  0  0  0  0  0
  150.8920  140.0376  157.7503 H   0  0  0  0  0  0  0  0  0  0  0  0
  150.9964  140.9807  154.8209 H   0  0  0  0  0  0  0  0  0  0  0  0
  152.2272  141.3762  155.9924 H   0  0  0  0  0  0  0  0  0  0  0  0
  153.1635  139.3862  155.6739 H   0  0  0  0  0  0  0  0  0  0  0  0
  1  2  1  0  0  0  0
  1 21  1  0  0  0  0
  1 22  1  0  0  0  0
  1 23  1  0  0  0  0
  2 19  1  0  0  0  0
  2  3  2  0  0  0  0
  3  4  1  0  0  0  0
  4  5  2  0  0  0  0
  4 24  1  0  0  0  0
  5  6  1  0  0  0  0
  5 25  1  0  0  0  0
  6  7  1  0  0  0  0
  6 19  2  0  0  0  0
  7  8  1  0  0  0  0
  7 26  1  0  0  0  0
  8  9  2  0  0  0  0
  8 10  1  0  0  0  0
 10 11  1  0  0  0  0
 10 27  1  0  0  0  0
 11 17  1  0  0  0  0
 11 12  1  0  0  0  0
 11 28  1  0  0  0  0
 12 13  1  0  0  0  0
 12 29  1  0  0  0  0
 12 30  1  0  0  0  0
 13 14  1  0  0  0  0
 13 31  1  0  0  0  0
 13 32  1  0  0  0  0
 14 15  1  0  0  0  0
 14 33  1  0  0  0  0
 14 34  1  0  0  0  0
 15 16  1  0  0  0  0
 15 35  1  0  0  0  0
 15 36  1  0  0  0  0
 16 17  1  0  0  0  0
 16 37  1  0  0  0  0
 17 18  2  0  0  0  0
 19 20  1  0  0  0  0
M  END
> <s_m_source_file>
AV-unprocessed.smi

> <i_m_source_file_index>
2991

> <i_lp_mmshare_version>
43012

> <i_f3d_flags>
0

> <s_epik_input>
W0NIM11jMW5bY0hdW2NIXWMoYzFDbClbTkhdQyg9TylbTkhdW0NAQEhdMltDSDJdW0NIMl1bQ0gyXVtDSDJdW05IXUMyPU8=

> <s_epik_cmdline>
J2VwaWtfcHl0aG9uJywgJy1waCcsICc3LjAnLCAnLXRuJywgJzgnLCAnLW1hJywgJzIwMCcsICctbWV0YWxfYmluZGluZycsICctaW1hZScsICc8aW5maWxlLm1hZT4nLCAnLW9tYWUnLCAnPG91dGZpbGUubWFlPic=

> <r_epik_Ionization_Penalty>
0.00809016

> <r_epik_Ionization_Penalty_Charging>
0

> <r_epik_Ionization_Penalty_Neutral>
0.00809016

> <r_epik_State_Penalty>
0.00605324

> <r_epik_Charging_Adjusted_Penalty>
0.00605324

> <i_epik_Tot_Q>
0

> <i_epik_Tot_abs_Q>
0

> <r_epik_Metal_State_Penalty>
0.00597181

> <b_epik_Metal_Only>
0

> <s_lp_Force_Field>
OPLS_2005

> <r_lp_Energy>
16.2223

> <b_lp_Chiralities_Consistent>
1

> <s_lp_Variant>
AV-unprocessed.smi:2991-2

> <Gold.Version>
5.8.1

> <Gold.Id.Protein>
6NUR|6NUR_protein|mol2

> <Gold.PLP.Fitness>
37.3431

> <Gold.PLP.PLP>
-29.9646

> <Gold.PLP.part.hbond>
-3.0041

> <Gold.PLP.part.metal>
0.0000

> <Gold.PLP.part.buried>
-4.2876

> <Gold.PLP.part.nonpolar>
-23.0028

> <Gold.PLP.part.repulsive>
0.3796

> <Gold.PLP.ligand.clash>
0.0000

> <Gold.PLP.ligand.torsion>
0.1282

> <Gold.PLP.Chemscore.Hbond>
2.5360

> <Gold.PLP.Chemscore.CHOScore>
0.0000

> <Gold.PLP.Chemscore.Metal>
0.0000

> <Gold.Chemscore.Hbonds>
donor molecule, donor type, donor heavy atom, donor atom, acceptor molecule, acceptor atom, score
      L1  H     7    26       P1  7948  0.81
      L1  H    10    27       P1  7948  1.00
      P1  H 10752 10764       L1    18  0.66

> <Gold.PLP.Chemscore.Internal.Correction>
0.0270

> <Gold.Rescore>
     Score         DG    S(hbond)    S(metal)    S(lipo)     H(rot)  DE(clash)    DE(int)     intcor
     12.60     -16.43       2.01        0.00      57.99       1.00       0.00       3.84       ----

> <Gold.Chemscore.Fitness>
12.5955

> <Gold.Chemscore.DG>
-16.4330

> <Gold.Chemscore.ZeroCoef>
-5.4800

> <Gold.Chemscore.Hbond>
2.0144

> <Gold.Chemscore.Metal>
0.0000

> <Gold.Chemscore.Lipo>
57.9903

> <Gold.Chemscore.Internal_Hbond>
0.0000

> <Gold.Chemscore.DEClash>
0.0000

> <Gold.Chemscore.DEInternal>
3.8376

> <Gold.Chemscore.Rot>
1.0000

> <Gold.Chemscore.Internal.Correction>
   9.000000E+99

> <Gold.Chemscore.Hbonds>
donor molecule, donor type, donor heavy atom, donor atom, acceptor molecule, acceptor atom, score
      L1  H     7    26       P1  7948  0.16
      L1  H    10    27       P1  7948  0.91
      P1  H 10752 10764       L1    18  0.64

> <Gold.Chemscore.Hbond.Weighted>
-6.7282

> <Gold.Chemscore.Metal.Weighted>
-0.0000

> <Gold.Chemscore.Lipo.Weighted>
-6.7849

> <Gold.Chemscore.Internal_Hbond.Weighted>
0.0000

> <Gold.Chemscore.DEClash.Weighted>
0.0000

> <Gold.Chemscore.DEInternal.Weighted>
3.8376

> <Gold.Chemscore.Rot.Weighted>
2.5600

> <Gold.Chemscore.Internal.Correction.Weighted>
   9.000000E+99

> <Gold.Protein.RotatedTorsions>
[ 6907 6896 6895 6894 ] final  100.33 input  -60.11 | X-H torsion
[ 7974 7965 7964 7962 ] final  169.54 input  175.53 | X-H torsion
[ 8008 7997 7996 7995 ] final  177.81 input   59.86 | X-H torsion
[ 10167 10162 10161 10158 ] final  133.49 input  -65.29 | X-H torsion
[ 10718 10713 10712 10709 ] final -142.99 input   66.30 | X-H torsion
[ 10763 10752 10751 10750 ] final  -45.12 input  -60.55 | X-H torsion
[ 11005 11000 10999 10996 ] final  133.98 input  -57.11 | X-H torsion

> <Gold.Protein.ActiveResidues>
 VAL166  LYS551  ARG553  GLY616  TRP617  ASP618  TYR619  PRO620  LYS621  CYS622 
 ASP623  PHE694  ASN695  SER759  ASP760  ASP761  ALA762  ILE779  LEU786  VAL792 
 PHE793  MET794  SER795  GLU796  ALA797  LYS798  CYS799  TRP800  GLU811  SER814 

> <Gold.Protein.RotatedAtoms>
  152.5374  134.0294  159.8017 H   0  0  0  0  0  0  0  0  0  0  0  0  # atno 6907 bound_to 6896
  151.0467  133.5651  159.2653 H   0  0  0  0  0  0  0  0  0  0  0  0  # atno 6908 bound_to 6896
  151.2601  135.0658  159.9148 H   0  0  0  0  0  0  0  0  0  0  0  0  # atno 6909 bound_to 6896
  144.7352  139.9070  143.6413 H   0  0  0  0  0  0  0  0  0  0  0  0  # atno 7974 bound_to 7965
  156.0616  140.1349  156.9934 H   0  0  0  0  0  0  0  0  0  0  0  0  # atno 8008 bound_to 7997
  154.4485  140.0990  156.6597 H   0  0  0  0  0  0  0  0  0  0  0  0  # atno 8009 bound_to 7997
  155.5368  140.3460  155.4440 H   0  0  0  0  0  0  0  0  0  0  0  0  # atno 8010 bound_to 7997
  139.5295  144.6613  151.5004 H   0  0  0  0  0  0  0  0  0  0  0  0  # atno 10167 bound_to 10162
  156.3525  130.7695  151.1850 H   0  0  0  0  0  0  0  0  0  0  0  0  # atno 10718 bound_to 10713
  154.0233  135.6666  153.4774 H   0  0  0  0  0  0  0  0  0  0  0  0  # atno 10763 bound_to 10752
  153.0571  135.5050  154.8002 H   0  0  0  0  0  0  0  0  0  0  0  0  # atno 10764 bound_to 10752
  154.6924  135.3063  154.9425 H   0  0  0  0  0  0  0  0  0  0  0  0  # atno 10765 bound_to 10752
  139.9886  134.9523  156.9802 H   0  0  0  0  0  0  0  0  0  0  0  0  # atno 11005 bound_to 11000
  146.1029  139.4026  143.0335 LP  0  0  0  0  0  0  0  0  0  0  0  0  # atno 17320 bound_to 7965
  145.7553  140.9957  143.1229 LP  0  0  0  0  0  0  0  0  0  0  0  0  # atno 17321 bound_to 7965
  140.6463  143.8788  150.6740 LP  0  0  0  0  0  0  0  0  0  0  0  0  # atno 17342 bound_to 10162
  140.2139  143.3862  152.1696 LP  0  0  0  0  0  0  0  0  0  0  0  0  # atno 17343 bound_to 10162
  157.7463  131.0423  150.4690 LP  0  0  0  0  0  0  0  0  0  0  0  0  # atno 17370 bound_to 10713
  156.4887  130.4090  149.6419 LP  0  0  0  0  0  0  0  0  0  0  0  0  # atno 17371 bound_to 10713
  140.4953  134.1152  155.7240 LP  0  0  0  0  0  0  0  0  0  0  0  0  # atno 17394 bound_to 11000
  141.1546  133.8906  157.2010 LP  0  0  0  0  0  0  0  0  0  0  0  0  # atno 17395 bound_to 11000

$$$$
