AV-unprocessed.smi:2360|AV-procd|sdf|9409|dock1
  -GOLD-   2272013 43D 1   1.00000     0.00000
 Structure written by MMmdl.
 34 35  0  0  0  0  0  0  0  0  1 V2000
  148.7582  138.5551  153.4569 C   0  0  0  0  0  0  0  0  0  0  0  0
  149.5364  139.5629  154.2843 C   0  0  0  0  0  0  0  0  0  0  0  0
  148.8265  140.7034  154.6708 N   0  0  0  0  0  0  0  0  0  0  0  0
  149.4096  141.6186  155.3738 C   0  0  0  0  0  0  0  0  0  0  0  0
  150.7530  141.5033  155.7663 N   0  0  0  0  0  0  0  0  0  0  0  0
  151.2982  142.6157  156.5628 C   0  0  0  0  0  0  0  0  0  0  0  0
  150.6771  142.6860  157.9755 C   0  0  2  0  0  0  0  0  0  0  0  0
  150.1211  143.9728  158.1627 O   0  0  0  0  0  0  0  0  0  0  0  0
  151.7154  142.3716  159.0419 C   0  0  0  0  0  0  0  0  0  0  0  0
  151.9077  143.2623  160.1199 C   0  0  0  0  0  0  0  0  0  0  0  0
  152.8599  142.9752  161.1173 C   0  0  0  0  0  0  0  0  0  0  0  0
  153.6238  141.7946  161.0444 C   0  0  0  0  0  0  0  0  0  0  0  0
  154.5385  141.5202  162.0043 F   0  0  0  0  0  0  0  0  0  0  0  0
  153.4334  140.8994  159.9736 C   0  0  0  0  0  0  0  0  0  0  0  0
  154.1644  139.7616  159.9023 F   0  0  0  0  0  0  0  0  0  0  0  0
  152.4811  141.1862  158.9762 C   0  0  0  0  0  0  0  0  0  0  0  0
  151.5148  140.4188  155.4411 C   0  0  0  0  0  0  0  0  0  0  0  0
  152.6887  140.3207  155.8043 O   0  0  0  0  0  0  0  0  0  0  0  0
  150.8391  139.3875  154.6373 C   0  0  0  0  0  0  0  0  0  0  0  0
  151.6625  138.1668  154.2452 C   0  0  0  0  0  0  0  0  0  0  0  0
  149.2317  138.4125  152.4852 H   0  0  0  0  0  0  0  0  0  0  0  0
  147.7346  138.8895  153.2824 H   0  0  0  0  0  0  0  0  0  0  0  0
  148.7133  137.5935  153.9687 H   0  0  0  0  0  0  0  0  0  0  0  0
  148.8991  142.5247  155.7046 H   0  0  0  0  0  0  0  0  0  0  0  0
  152.3758  142.4643  156.6532 H   0  0  0  0  0  0  0  0  0  0  0  0
  151.2050  143.5779  156.0544 H   0  0  0  0  0  0  0  0  0  0  0  0
  149.8660  141.9625  158.0679 H   0  0  0  0  0  0  0  0  0  0  0  0
  149.7172  144.2448  157.3526 H   0  0  0  0  0  0  0  0  0  0  0  0
  151.3238  144.1687  160.1875 H   0  0  0  0  0  0  0  0  0  0  0  0
  153.0029  143.6608  161.9394 H   0  0  0  0  0  0  0  0  0  0  0  0
  152.3386  140.4917  158.1613 H   0  0  0  0  0  0  0  0  0  0  0  0
  152.0166  137.6498  155.1375 H   0  0  0  0  0  0  0  0  0  0  0  0
  152.5324  138.4720  153.6628 H   0  0  0  0  0  0  0  0  0  0  0  0
  151.1057  137.4462  153.6484 H   0  0  0  0  0  0  0  0  0  0  0  0
  1  2  1  0  0  0  0
  1 21  1  0  0  0  0
  1 22  1  0  0  0  0
  1 23  1  0  0  0  0
  2 19  2  0  0  0  0
  2  3  1  0  0  0  0
  3  4  2  0  0  0  0
  4  5  1  0  0  0  0
  4 24  1  0  0  0  0
  5  6  1  0  0  0  0
  5 17  1  0  0  0  0
  6  7  1  0  0  0  0
  6 25  1  0  0  0  0
  6 26  1  0  0  0  0
  7  8  1  0  0  0  0
  7  9  1  0  0  0  0
  7 27  1  0  0  0  0
  8 28  1  0  0  0  0
  9 16  1  0  0  0  0
  9 10  2  0  0  0  0
 10 11  1  0  0  0  0
 10 29  1  0  0  0  0
 11 12  2  0  0  0  0
 11 30  1  0  0  0  0
 12 13  1  0  0  0  0
 12 14  1  0  0  0  0
 14 15  1  0  0  0  0
 14 16  2  0  0  0  0
 16 31  1  0  0  0  0
 17 18  2  0  0  0  0
 17 19  1  0  0  0  0
 19 20  1  0  0  0  0
 20 32  1  0  0  0  0
 20 33  1  0  0  0  0
 20 34  1  0  0  0  0
M  END
> <s_m_source_file>
AV-unprocessed.smi

> <i_m_source_file_index>
2360

> <i_lp_mmshare_version>
43012

> <i_f3d_flags>
0

> <s_epik_input>
W0NIM11jMW5bY0hdbihjKD1PKWMxW0NIM10pW0NIMl1bQ0BIXShbT0hdKWMyW2NIXVtjSF1jKEYpYyhGKVtjSF0y

> <s_epik_cmdline>
J2VwaWtfcHl0aG9uJywgJy1waCcsICc3LjAnLCAnLXRuJywgJzgnLCAnLW1hJywgJzIwMCcsICctbWV0YWxfYmluZGluZycsICctaW1hZScsICc8aW5maWxlLm1hZT4nLCAnLW9tYWUnLCAnPG91dGZpbGUubWFlPic=

> <r_lp_tautomer_probability>
1

> <r_epik_Ionization_Penalty>
5.07449e-05

> <r_epik_Ionization_Penalty_Charging>
7.56727e-08

> <r_epik_Ionization_Penalty_Neutral>
5.06692e-05

> <r_epik_State_Penalty>
-0

> <r_epik_Charging_Adjusted_Penalty>
7.56727e-08

> <i_epik_Tot_Q>
0

> <i_epik_Tot_abs_Q>
0

> <r_epik_Metal_State_Penalty>
-0

> <b_epik_Metal_Only>
0

> <s_lp_Force_Field>
OPLS_2005

> <r_lp_Energy>
18.6732

> <b_lp_Chiralities_Consistent>
1

> <s_lp_Variant>
AV-unprocessed.smi:2360-1

> <Gold.Version>
5.8.1

> <Gold.Id.Protein>
6NUR|6NUR_protein|mol2

> <Gold.PLP.Fitness>
49.2372

> <Gold.PLP.PLP>
-42.2047

> <Gold.PLP.part.hbond>
-2.7094

> <Gold.PLP.part.metal>
0.0000

> <Gold.PLP.part.buried>
1.3212

> <Gold.PLP.part.nonpolar>
-39.4760

> <Gold.PLP.part.repulsive>
0.1118

> <Gold.PLP.ligand.clash>
0.2331

> <Gold.PLP.ligand.torsion>
0.8964

> <Gold.PLP.Chemscore.Hbond>
2.0000

> <Gold.PLP.Chemscore.CHOScore>
1.0000

> <Gold.PLP.Chemscore.Metal>
0.0000

> <Gold.Chemscore.Hbonds>
donor molecule, donor type, donor heavy atom, donor atom, acceptor molecule, acceptor atom, score
      L1  H     8    28       P1  8028  1.00
      P1  H  7997  8010       L1    18  1.00
      L1  C     4    24       P1  8028  1.00

> <Gold.PLP.Chemscore.Internal.Correction>
0.0582

> <Gold.Rescore>
     Score         DG    S(hbond)    S(metal)    S(lipo)     H(rot)  DE(clash)    DE(int)     intcor
     15.16     -18.23       1.92        0.00     100.19       2.11       2.32       0.75       ----

> <Gold.Chemscore.Fitness>
15.1636

> <Gold.Chemscore.DG>
-18.2304

> <Gold.Chemscore.ZeroCoef>
-5.4800

> <Gold.Chemscore.Hbond>
1.9249

> <Gold.Chemscore.Metal>
0.0000

> <Gold.Chemscore.Lipo>
100.1893

> <Gold.Chemscore.Internal_Hbond>
0.0000

> <Gold.Chemscore.DEClash>
2.3207

> <Gold.Chemscore.DEInternal>
0.7461

> <Gold.Chemscore.Rot>
2.1097

> <Gold.Chemscore.Internal.Correction>
   9.000000E+99

> <Gold.Chemscore.Hbonds>
donor molecule, donor type, donor heavy atom, donor atom, acceptor molecule, acceptor atom, score
      L1  H     8    28       P1  8028  0.35
      P1  H  7997  8010       L1    18  0.98

> <Gold.Chemscore.Hbond.Weighted>
-6.4292

> <Gold.Chemscore.Metal.Weighted>
-0.0000

> <Gold.Chemscore.Lipo.Weighted>
-11.7222

> <Gold.Chemscore.Internal_Hbond.Weighted>
0.0000

> <Gold.Chemscore.DEClash.Weighted>
2.3207

> <Gold.Chemscore.DEInternal.Weighted>
0.7461

> <Gold.Chemscore.Rot.Weighted>
5.4009

> <Gold.Chemscore.Internal.Correction.Weighted>
   9.000000E+99

> <Gold.Protein.RotatedTorsions>
[ 6907 6896 6895 6894 ] final -137.11 input  -60.11 | X-H torsion
[ 7974 7965 7964 7962 ] final -118.29 input  175.53 | X-H torsion
[ 8008 7997 7996 7995 ] final   85.23 input   59.86 | X-H torsion
[ 10167 10162 10161 10158 ] final   86.49 input  -65.29 | X-H torsion
[ 10718 10713 10712 10709 ] final  142.18 input   66.30 | X-H torsion
[ 10763 10752 10751 10750 ] final  -81.12 input  -60.55 | X-H torsion
[ 11005 11000 10999 10996 ] final  -39.13 input  -57.11 | X-H torsion

> <Gold.Protein.ActiveResidues>
 VAL166  LYS551  ARG553  GLY616  TRP617  ASP618  TYR619  PRO620  LYS621  CYS622 
 ASP623  PHE694  ASN695  SER759  ASP760  ASP761  ALA762  ILE779  LEU786  VAL792 
 PHE793  MET794  SER795  GLU796  ALA797  LYS798  CYS799  TRP800  GLU811  SER814 

> <Gold.Protein.RotatedAtoms>
  151.0183  133.5900  159.2674 H   0  0  0  0  0  0  0  0  0  0  0  0  # atno 6907 bound_to 6896
  151.3026  135.0772  159.9254 H   0  0  0  0  0  0  0  0  0  0  0  0  # atno 6908 bound_to 6896
  152.5317  133.9862  159.7884 H   0  0  0  0  0  0  0  0  0  0  0  0  # atno 6909 bound_to 6896
  145.0755  140.8389  143.4070 H   0  0  0  0  0  0  0  0  0  0  0  0  # atno 7974 bound_to 7965
  155.9473  140.3403  155.6378 H   0  0  0  0  0  0  0  0  0  0  0  0  # atno 8008 bound_to 7997
  155.6964  140.0755  157.2446 H   0  0  0  0  0  0  0  0  0  0  0  0  # atno 8009 bound_to 7997
  154.4114  140.1648  156.2130 H   0  0  0  0  0  0  0  0  0  0  0  0  # atno 8010 bound_to 7997
  139.8870  144.6407  150.8780 H   0  0  0  0  0  0  0  0  0  0  0  0  # atno 10167 bound_to 10162
  157.3836  131.0995  151.0715 H   0  0  0  0  0  0  0  0  0  0  0  0  # atno 10718 bound_to 10713
  154.5597  135.5637  153.6996 H   0  0  0  0  0  0  0  0  0  0  0  0  # atno 10763 bound_to 10752
  153.0014  135.6271  154.2262 H   0  0  0  0  0  0  0  0  0  0  0  0  # atno 10764 bound_to 10752
  154.2199  135.2870  155.2908 H   0  0  0  0  0  0  0  0  0  0  0  0  # atno 10765 bound_to 10752
  141.0079  133.6922  156.2146 H   0  0  0  0  0  0  0  0  0  0  0  0  # atno 11005 bound_to 11000
  145.1241  139.2674  143.5573 LP  0  0  0  0  0  0  0  0  0  0  0  0  # atno 17320 bound_to 7965
  146.3530  140.0873  142.8614 LP  0  0  0  0  0  0  0  0  0  0  0  0  # atno 17321 bound_to 7965
  140.7734  143.3540  151.1957 LP  0  0  0  0  0  0  0  0  0  0  0  0  # atno 17342 bound_to 10162
  139.7144  143.9324  152.2961 LP  0  0  0  0  0  0  0  0  0  0  0  0  # atno 17343 bound_to 10162
  157.1775  130.6294  149.5661 LP  0  0  0  0  0  0  0  0  0  0  0  0  # atno 17370 bound_to 10713
  155.9781  130.4764  150.6637 LP  0  0  0  0  0  0  0  0  0  0  0  0  # atno 17371 bound_to 10713
  140.6782  134.4796  157.5588 LP  0  0  0  0  0  0  0  0  0  0  0  0  # atno 17394 bound_to 11000
  139.9074  134.8420  156.1656 LP  0  0  0  0  0  0  0  0  0  0  0  0  # atno 17395 bound_to 11000

$$$$
