AV-unprocessed.smi:3206|AV-procd|sdf|12256|dock4
  -GOLD-   2272018 93D 1   1.00000     0.00000
 Structure written by MMmdl.
 42 43  0  0  0  0  0  0  0  0  2 V2000
  152.7130  143.7114  162.4943 C   0  0  0  0  0  0  0  0  0  0  0  0
  152.6188  143.5083  160.9752 C   0  0  2  0  0  0  0  0  0  0  0  0
  151.3397  144.1427  160.3982 C   0  0  0  0  0  0  0  0  0  0  0  0
  151.2405  143.9333  158.8783 C   0  0  0  0  0  0  0  0  0  0  0  0
  151.3015  142.4398  158.5020 C   0  0  1  0  0  0  0  0  0  0  0  0
  151.2002  142.2527  156.9769 C   0  0  0  0  0  0  0  0  0  0  0  0
  149.8189  142.4512  156.4957 N   0  3  0  0  0  0  0  0  0  0  0  0
  148.7874  141.8164  157.3409 C   0  0  0  0  0  0  0  0  0  0  0  0
  147.3797  141.9988  156.7529 C   0  0  0  0  0  0  0  0  0  0  0  0
  147.2415  141.4467  155.3664 C   0  0  0  0  0  0  0  0  0  0  0  0
  147.7650  140.2923  154.9665 N   0  0  0  0  0  0  0  0  0  0  0  0
  147.3336  140.2632  153.6718 C   0  0  0  0  0  0  0  0  0  0  0  0
  146.5903  141.2970  153.2858 N   0  0  0  0  0  0  0  0  0  0  0  0
  146.5382  142.0577  154.4033 N   0  0  0  0  0  0  0  0  0  0  0  0
  145.8006  143.3065  154.4108 C   0  0  0  0  0  0  0  0  0  0  0  0
  152.5863  141.8086  159.0800 C   0  0  0  0  0  0  0  0  0  0  0  0
  152.6889  142.0164  160.5999 C   0  0  0  0  0  0  0  0  0  0  0  0
  151.8809  143.2322  163.0111 H   0  0  0  0  0  0  0  0  0  0  0  0
  152.6985  144.7711  162.7510 H   0  0  0  0  0  0  0  0  0  0  0  0
  153.6374  143.2904  162.8900 H   0  0  0  0  0  0  0  0  0  0  0  0
  153.4762  144.0100  160.5236 H   0  0  0  0  0  0  0  0  0  0  0  0
  150.4626  143.7108  160.8823 H   0  0  0  0  0  0  0  0  0  0  0  0
  151.3198  145.2102  160.6212 H   0  0  0  0  0  0  0  0  0  0  0  0
  150.3115  144.3730  158.5133 H   0  0  0  0  0  0  0  0  0  0  0  0
  152.0504  144.4720  158.3842 H   0  0  0  0  0  0  0  0  0  0  0  0
  150.4410  141.9492  158.9604 H   0  0  0  0  0  0  0  0  0  0  0  0
  151.8443  142.9741  156.4720 H   0  0  0  0  0  0  0  0  0  0  0  0
  151.5500  141.2591  156.6928 H   0  0  0  0  0  0  0  0  0  0  0  0
  149.6334  143.4432  156.4530 H   0  0  0  0  0  0  0  0  0  0  0  0
  149.0095  140.7541  157.4531 H   0  0  0  0  0  0  0  0  0  0  0  0
  148.8272  142.2589  158.3368 H   0  0  0  0  0  0  0  0  0  0  0  0
  146.6450  141.5227  157.4028 H   0  0  0  0  0  0  0  0  0  0  0  0
  147.1197  143.0580  156.7333 H   0  0  0  0  0  0  0  0  0  0  0  0
  147.5692  139.4536  152.9970 H   0  0  0  0  0  0  0  0  0  0  0  0
  145.0886  143.3092  155.2363 H   0  0  0  0  0  0  0  0  0  0  0  0
  145.2543  143.4357  153.4753 H   0  0  0  0  0  0  0  0  0  0  0  0
  146.4928  144.1398  154.5326 H   0  0  0  0  0  0  0  0  0  0  0  0
  152.6147  140.7402  158.8642 H   0  0  0  0  0  0  0  0  0  0  0  0
  153.4618  142.2435  158.5957 H   0  0  0  0  0  0  0  0  0  0  0  0
  153.6213  141.5842  160.9648 H   0  0  0  0  0  0  0  0  0  0  0  0
  151.8833  141.4725  161.0955 H   0  0  0  0  0  0  0  0  0  0  0  0
  149.7464  142.0716  155.5620 H   0  0  0  0  0  0  0  0  0  0  0  0
  1  2  1  0  0  0  0
  1 18  1  0  0  0  0
  1 19  1  0  0  0  0
  1 20  1  0  0  0  0
  2 17  1  0  0  0  0
  2  3  1  0  0  0  0
  2 21  1  0  0  0  0
  3  4  1  0  0  0  0
  3 22  1  0  0  0  0
  3 23  1  0  0  0  0
  4  5  1  0  0  0  0
  4 24  1  0  0  0  0
  4 25  1  0  0  0  0
  5  6  1  0  0  0  0
  5 16  1  0  0  0  0
  5 26  1  0  0  0  0
  6  7  1  0  0  0  0
  6 27  1  0  0  0  0
  6 28  1  0  0  0  0
  7  8  1  0  0  0  0
  7 29  1  0  0  0  0
  7 42  1  0  0  0  0
  8  9  1  0  0  0  0
  8 30  1  0  0  0  0
  8 31  1  0  0  0  0
  9 10  1  0  0  0  0
  9 32  1  0  0  0  0
  9 33  1  0  0  0  0
 10 14  1  0  0  0  0
 10 11  2  0  0  0  0
 11 12  1  0  0  0  0
 12 13  2  0  0  0  0
 12 34  1  0  0  0  0
 13 14  1  0  0  0  0
 14 15  1  0  0  0  0
 15 35  1  0  0  0  0
 15 36  1  0  0  0  0
 15 37  1  0  0  0  0
 16 17  1  0  0  0  0
 16 38  1  0  0  0  0
 16 39  1  0  0  0  0
 17 40  1  0  0  0  0
 17 41  1  0  0  0  0
M  CHG  1   7   1
M  END
> <s_m_source_file>
AV-unprocessed.smi

> <i_m_source_file_index>
3206

> <i_lp_mmshare_version>
43012

> <i_f3d_flags>
0

> <s_epik_input>
W0NIM11bQ0BASF0xW0NIMl1bQ0gyXVtDQEhdKFtDSDJdW0NIMl0xKVtDSDJdW05IXVtDSDJdW0NIMl1jMm5bY0hdbm4yW0NIM10=

> <s_epik_cmdline>
J2VwaWtfcHl0aG9uJywgJy1waCcsICc3LjAnLCAnLXRuJywgJzgnLCAnLW1hJywgJzIwMCcsICctbWV0YWxfYmluZGluZycsICctaW1hZScsICc8aW5maWxlLm1hZT4nLCAnLW9tYWUnLCAnPG91dGZpbGUubWFlPic=

> <r_lp_tautomer_probability>
1

> <r_epik_Ionization_Penalty>
0.00114491

> <r_epik_Ionization_Penalty_Charging>
0.00114083

> <r_epik_Ionization_Penalty_Neutral>
4.0852e-06

> <r_epik_State_Penalty>
-0

> <r_epik_Charging_Adjusted_Penalty>
0.00114083

> <i_epik_Tot_Q>
1

> <i_epik_Tot_abs_Q>
1

> <r_epik_Metal_State_Penalty>
-0

> <b_epik_Metal_Only>
0

> <s_lp_Force_Field>
OPLS_2005

> <r_lp_Energy>
13.9676

> <b_lp_Chiralities_Consistent>
1

> <s_lp_Variant>
AV-unprocessed.smi:3206-1

> <Gold.Version>
5.8.1

> <Gold.Id.Protein>
6NUR|6NUR_protein|mol2

> <Gold.PLP.Fitness>
42.7821

> <Gold.PLP.PLP>
-35.5848

> <Gold.PLP.part.hbond>
-1.0000

> <Gold.PLP.part.metal>
0.0000

> <Gold.PLP.part.buried>
-2.8883

> <Gold.PLP.part.nonpolar>
-31.7751

> <Gold.PLP.part.repulsive>
0.3479

> <Gold.PLP.ligand.clash>
0.0000

> <Gold.PLP.ligand.torsion>
0.4832

> <Gold.PLP.Chemscore.Hbond>
2.0000

> <Gold.PLP.Chemscore.CHOScore>
0.7103

> <Gold.PLP.Chemscore.Metal>
0.0000

> <Gold.Chemscore.Hbonds>
donor molecule, donor type, donor heavy atom, donor atom, acceptor molecule, acceptor atom, score
      L1  H     7    29       P1  8028  1.95
      L1  C    12    34       P1  7957  0.24

> <Gold.PLP.Chemscore.Internal.Correction>
0.0330

> <Gold.Rescore>
     Score         DG    S(hbond)    S(metal)    S(lipo)     H(rot)  DE(clash)    DE(int)     intcor
     14.48     -15.02       0.99        0.00      98.03       2.05       0.14       0.40       ----

> <Gold.Chemscore.Fitness>
14.4834

> <Gold.Chemscore.DG>
-15.0155

> <Gold.Chemscore.ZeroCoef>
-5.4800

> <Gold.Chemscore.Hbond>
0.9944

> <Gold.Chemscore.Metal>
0.0000

> <Gold.Chemscore.Lipo>
98.0277

> <Gold.Chemscore.Internal_Hbond>
0.0000

> <Gold.Chemscore.DEClash>
0.1368

> <Gold.Chemscore.DEInternal>
0.3953

> <Gold.Chemscore.Rot>
2.0528

> <Gold.Chemscore.Internal.Correction>
   9.000000E+99

> <Gold.Chemscore.Hbonds>
donor molecule, donor type, donor heavy atom, donor atom, acceptor molecule, acceptor atom, score
      L1  H     7    29       P1  8028  0.93

> <Gold.Chemscore.Hbond.Weighted>
-3.3213

> <Gold.Chemscore.Metal.Weighted>
-0.0000

> <Gold.Chemscore.Lipo.Weighted>
-11.4692

> <Gold.Chemscore.Internal_Hbond.Weighted>
0.0000

> <Gold.Chemscore.DEClash.Weighted>
0.1368

> <Gold.Chemscore.DEInternal.Weighted>
0.3953

> <Gold.Chemscore.Rot.Weighted>
5.2551

> <Gold.Chemscore.Internal.Correction.Weighted>
   9.000000E+99

> <Gold.Protein.RotatedTorsions>
[ 6907 6896 6895 6894 ] final  106.49 input  -60.11 | X-H torsion
[ 7974 7965 7964 7962 ] final -111.82 input  175.53 | X-H torsion
[ 8008 7997 7996 7995 ] final  162.68 input   59.86 | X-H torsion
[ 10167 10162 10161 10158 ] final -179.59 input  -65.29 | X-H torsion
[ 10718 10713 10712 10709 ] final  103.31 input   66.30 | X-H torsion
[ 10763 10752 10751 10750 ] final  -41.35 input  -60.55 | X-H torsion
[ 11005 11000 10999 10996 ] final   12.75 input  -57.11 | X-H torsion

> <Gold.Protein.ActiveResidues>
 VAL166  LYS551  ARG553  GLY616  TRP617  ASP618  TYR619  PRO620  LYS621  CYS622 
 ASP623  PHE694  ASN695  SER759  ASP760  ASP761  ALA762  ILE779  LEU786  VAL792 
 PHE793  MET794  SER795  GLU796  ALA797  LYS798  CYS799  TRP800  GLU811  SER814 

> <Gold.Protein.RotatedAtoms>
  152.5192  133.9374  159.7609 H   0  0  0  0  0  0  0  0  0  0  0  0  # atno 6907 bound_to 6896
  150.9711  133.6334  159.2745 H   0  0  0  0  0  0  0  0  0  0  0  0  # atno 6908 bound_to 6896
  151.3545  135.0897  159.9467 H   0  0  0  0  0  0  0  0  0  0  0  0  # atno 6909 bound_to 6896
  145.1514  140.8831  143.3644 H   0  0  0  0  0  0  0  0  0  0  0  0  # atno 7974 bound_to 7965
  156.2013  140.1744  156.7893 H   0  0  0  0  0  0  0  0  0  0  0  0  # atno 8008 bound_to 7997
  154.5596  140.0702  156.8828 H   0  0  0  0  0  0  0  0  0  0  0  0  # atno 8009 bound_to 7997
  155.2874  140.3353  155.4257 H   0  0  0  0  0  0  0  0  0  0  0  0  # atno 8010 bound_to 7997
  139.5379  144.2445  152.0834 H   0  0  0  0  0  0  0  0  0  0  0  0  # atno 10167 bound_to 10162
  157.6776  131.0775  150.5536 H   0  0  0  0  0  0  0  0  0  0  0  0  # atno 10718 bound_to 10713
  153.9611  135.6739  153.4745 H   0  0  0  0  0  0  0  0  0  0  0  0  # atno 10763 bound_to 10752
  153.0838  135.4909  154.8552 H   0  0  0  0  0  0  0  0  0  0  0  0  # atno 10764 bound_to 10752
  154.7272  135.3130  154.8911 H   0  0  0  0  0  0  0  0  0  0  0  0  # atno 10765 bound_to 10752
  140.4885  134.0864  155.7766 H   0  0  0  0  0  0  0  0  0  0  0  0  # atno 11005 bound_to 11000
  145.0427  139.3247  143.5968 LP  0  0  0  0  0  0  0  0  0  0  0  0  # atno 17320 bound_to 7965
  146.3494  139.9806  142.8696 LP  0  0  0  0  0  0  0  0  0  0  0  0  # atno 17321 bound_to 7965
  140.1918  144.4744  150.6475 LP  0  0  0  0  0  0  0  0  0  0  0  0  # atno 17342 bound_to 10162
  140.6595  143.2248  151.5889 LP  0  0  0  0  0  0  0  0  0  0  0  0  # atno 17343 bound_to 10162
  156.5840  130.4312  149.5965 LP  0  0  0  0  0  0  0  0  0  0  0  0  # atno 17370 bound_to 10713
  156.2638  130.6977  151.1754 LP  0  0  0  0  0  0  0  0  0  0  0  0  # atno 17371 bound_to 10713
  141.1496  133.8993  157.2131 LP  0  0  0  0  0  0  0  0  0  0  0  0  # atno 17394 bound_to 11000
  139.9783  135.0106  156.9687 LP  0  0  0  0  0  0  0  0  0  0  0  0  # atno 17395 bound_to 11000

$$$$
