AV-unprocessed.smi:1131|AV-procd|sdf|4850|dock5
  -GOLD-   22720 3423D 1   1.00000     0.00000
 Structure written by MMmdl.
 33 34  0  0  0  0  0  0  0  0  1 V2000
  149.8635  140.6348  157.7192 O   0  0  0  0  0  0  0  0  0  0  0  0
  150.6040  141.3587  157.0520 C   0  0  0  0  0  0  0  0  0  0  0  0
  151.0701  140.9327  155.6522 C   0  0  0  0  0  0  0  0  0  0  0  0
  149.9581  140.5997  154.7498 N   0  0  0  0  0  0  0  0  0  0  0  0
  148.9446  141.5191  154.5186 C   0  0  0  0  0  0  0  0  0  0  0  0
  147.8856  141.2744  153.7107 C   0  0  0  0  0  0  0  0  0  0  0  0
  147.7590  139.9918  153.0271 C   0  0  0  0  0  0  0  0  0  0  0  0
  146.8391  139.6763  152.2757 O   0  0  0  0  0  0  0  0  0  0  0  0
  148.7965  139.0925  153.2874 N   0  0  0  0  0  0  0  0  0  0  0  0
  149.8900  139.3379  154.1194 C   0  0  0  0  0  0  0  0  0  0  0  0
  150.7487  138.4720  154.2832 O   0  0  0  0  0  0  0  0  0  0  0  0
  151.0335  142.5567  157.4761 N   0  0  0  0  0  0  0  0  0  0  0  0
  150.7036  143.1587  158.7635 C   0  0  0  0  0  0  0  0  0  0  0  0
  151.9390  143.2947  159.6740 C   0  0  2  0  0  0  0  0  0  0  0  0
  152.5822  141.9816  160.0747 C   0  0  0  0  0  0  0  0  0  0  0  0
  153.3999  142.3936  161.2946 C   0  0  0  0  0  0  0  0  0  0  0  0
  152.6749  143.4557  161.9080 O   0  0  0  0  0  0  0  0  0  0  0  0
  151.6367  143.9054  161.0419 C   0  0  0  0  0  0  0  0  0  0  0  0
  148.7499  138.1894  152.8383 H   0  0  0  0  0  0  0  0  0  0  0  0
  151.6673  141.7437  155.2321 H   0  0  0  0  0  0  0  0  0  0  0  0
  151.7538  140.0852  155.7345 H   0  0  0  0  0  0  0  0  0  0  0  0
  148.9944  142.4814  155.0079 H   0  0  0  0  0  0  0  0  0  0  0  0
  147.1271  142.0312  153.5709 H   0  0  0  0  0  0  0  0  0  0  0  0
  151.6351  143.0890  156.8643 H   0  0  0  0  0  0  0  0  0  0  0  0
  150.2386  144.1340  158.6088 H   0  0  0  0  0  0  0  0  0  0  0  0
  149.9508  142.5330  159.2439 H   0  0  0  0  0  0  0  0  0  0  0  0
  152.6915  143.9139  159.1825 H   0  0  0  0  0  0  0  0  0  0  0  0
  151.8203  141.2559  160.3624 H   0  0  0  0  0  0  0  0  0  0  0  0
  153.1931  141.5426  159.2856 H   0  0  0  0  0  0  0  0  0  0  0  0
  153.5604  141.5674  161.9874 H   0  0  0  0  0  0  0  0  0  0  0  0
  154.3754  142.7724  160.9876 H   0  0  0  0  0  0  0  0  0  0  0  0
  151.5888  144.9941  161.0109 H   0  0  0  0  0  0  0  0  0  0  0  0
  150.6856  143.5376  161.4293 H   0  0  0  0  0  0  0  0  0  0  0  0
  1  2  2  0  0  0  0
  2  3  1  0  0  0  0
  2 12  1  0  0  0  0
  3  4  1  0  0  0  0
  3 20  1  0  0  0  0
  3 21  1  0  0  0  0
  4 10  1  0  0  0  0
  4  5  1  0  0  0  0
  5  6  2  0  0  0  0
  5 22  1  0  0  0  0
  6  7  1  0  0  0  0
  6 23  1  0  0  0  0
  7  8  2  0  0  0  0
  7  9  1  0  0  0  0
  9 19  1  0  0  0  0
  9 10  1  0  0  0  0
 10 11  2  0  0  0  0
 12 13  1  0  0  0  0
 12 24  1  0  0  0  0
 13 14  1  0  0  0  0
 13 25  1  0  0  0  0
 13 26  1  0  0  0  0
 14 18  1  0  0  0  0
 14 15  1  0  0  0  0
 14 27  1  0  0  0  0
 15 16  1  0  0  0  0
 15 28  1  0  0  0  0
 15 29  1  0  0  0  0
 16 17  1  0  0  0  0
 16 30  1  0  0  0  0
 16 31  1  0  0  0  0
 17 18  1  0  0  0  0
 18 32  1  0  0  0  0
 18 33  1  0  0  0  0
M  END
> <s_m_source_file>
AV-unprocessed.smi

> <i_m_source_file_index>
1131

> <i_lp_mmshare_version>
43012

> <i_f3d_flags>
0

> <s_epik_input>
W0NIMl0xT1tDSDJdW0NIMl1bQ0BIXTFbQ0gyXVtOSF1DKD1PKVtDSDJdbjJbY0hdW2NIXWMoPU8pW25IXWMyPU8=

> <s_epik_cmdline>
J2VwaWtfcHl0aG9uJywgJy1waCcsICc3LjAnLCAnLXRuJywgJzgnLCAnLW1hJywgJzIwMCcsICctbWV0YWxfYmluZGluZycsICctaW1hZScsICc8aW5maWxlLm1hZT4nLCAnLW9tYWUnLCAnPG91dGZpbGUubWFlPic=

> <r_lp_tautomer_probability>
0.999537

> <r_epik_Ionization_Penalty>
0.00329016

> <r_epik_Ionization_Penalty_Charging>
0.00329014

> <r_epik_Ionization_Penalty_Neutral>
1.87063e-08

> <r_epik_State_Penalty>
0.00232461

> <r_epik_Charging_Adjusted_Penalty>
0.00561475

> <i_epik_Tot_Q>
0

> <i_epik_Tot_abs_Q>
0

> <r_epik_Metal_State_Penalty>
0.365289

> <b_epik_Metal_Only>
0

> <s_lp_Force_Field>
OPLS_2005

> <r_lp_Energy>
17.5195

> <b_lp_Chiralities_Consistent>
1

> <s_lp_Variant>
AV-unprocessed.smi:1131-1

> <Gold.Version>
5.8.1

> <Gold.Id.Protein>
6NUR|6NUR_protein|mol2

> <Gold.PLP.Fitness>
41.4713

> <Gold.PLP.PLP>
-35.7153

> <Gold.PLP.part.hbond>
-2.0000

> <Gold.PLP.part.metal>
0.0000

> <Gold.PLP.part.buried>
-1.3189

> <Gold.PLP.part.nonpolar>
-33.2433

> <Gold.PLP.part.repulsive>
0.8652

> <Gold.PLP.ligand.clash>
0.0000

> <Gold.PLP.ligand.torsion>
0.0649

> <Gold.PLP.Chemscore.Hbond>
0.9588

> <Gold.PLP.Chemscore.CHOScore>
1.0000

> <Gold.PLP.Chemscore.Metal>
0.0000

> <Gold.Chemscore.Hbonds>
donor molecule, donor type, donor heavy atom, donor atom, acceptor molecule, acceptor atom, score
      L1  H     9    19       P1  7948  0.65
      L1  C     5    22       P1  8028  1.00

> <Gold.PLP.Chemscore.Internal.Correction>
0.0096

> <Gold.Rescore>
     Score         DG    S(hbond)    S(metal)    S(lipo)     H(rot)  DE(clash)    DE(int)     intcor
     11.47     -11.77       1.00        0.00      71.06       2.09       0.14       0.16       ----

> <Gold.Chemscore.Fitness>
11.4742

> <Gold.Chemscore.DG>
-11.7686

> <Gold.Chemscore.ZeroCoef>
-5.4800

> <Gold.Chemscore.Hbond>
0.9968

> <Gold.Chemscore.Metal>
0.0000

> <Gold.Chemscore.Lipo>
71.0636

> <Gold.Chemscore.Internal_Hbond>
0.0000

> <Gold.Chemscore.DEClash>
0.1365

> <Gold.Chemscore.DEInternal>
0.1578

> <Gold.Chemscore.Rot>
2.0919

> <Gold.Chemscore.Internal.Correction>
   9.000000E+99

> <Gold.Chemscore.Hbonds>
donor molecule, donor type, donor heavy atom, donor atom, acceptor molecule, acceptor atom, score
      L1  H     9    19       P1  7948  0.65

> <Gold.Chemscore.Hbond.Weighted>
-3.3294

> <Gold.Chemscore.Metal.Weighted>
-0.0000

> <Gold.Chemscore.Lipo.Weighted>
-8.3144

> <Gold.Chemscore.Internal_Hbond.Weighted>
0.0000

> <Gold.Chemscore.DEClash.Weighted>
0.1365

> <Gold.Chemscore.DEInternal.Weighted>
0.1578

> <Gold.Chemscore.Rot.Weighted>
5.3552

> <Gold.Chemscore.Internal.Correction.Weighted>
   9.000000E+99

> <Gold.Protein.RotatedTorsions>
[ 6907 6896 6895 6894 ] final -141.09 input  -60.11 | X-H torsion
[ 7974 7965 7964 7962 ] final  110.20 input  175.53 | X-H torsion
[ 8008 7997 7996 7995 ] final   77.80 input   59.86 | X-H torsion
[ 10167 10162 10161 10158 ] final   58.86 input  -65.29 | X-H torsion
[ 10718 10713 10712 10709 ] final  -75.75 input   66.30 | X-H torsion
[ 10763 10752 10751 10750 ] final -109.25 input  -60.55 | X-H torsion
[ 11005 11000 10999 10996 ] final -175.62 input  -57.11 | X-H torsion

> <Gold.Protein.ActiveResidues>
 VAL166  LYS551  ARG553  GLY616  TRP617  ASP618  TYR619  PRO620  LYS621  CYS622 
 ASP623  PHE694  ASN695  SER759  ASP760  ASP761  ALA762  ILE779  LEU786  VAL792 
 PHE793  MET794  SER795  GLU796  ALA797  LYS798  CYS799  TRP800  GLU811  SER814 

> <Gold.Protein.RotatedAtoms>
  151.0692  133.5480  159.2628 H   0  0  0  0  0  0  0  0  0  0  0  0  # atno 6907 bound_to 6896
  151.2426  135.0593  159.9041 H   0  0  0  0  0  0  0  0  0  0  0  0  # atno 6908 bound_to 6896
  152.5409  134.0464  159.8144 H   0  0  0  0  0  0  0  0  0  0  0  0  # atno 6909 bound_to 6896
  145.2580  139.2713  143.4032 H   0  0  0  0  0  0  0  0  0  0  0  0  # atno 7974 bound_to 7965
  155.8468  140.3460  155.5667 H   0  0  0  0  0  0  0  0  0  0  0  0  # atno 8008 bound_to 7997
  155.8081  140.0895  157.1939 H   0  0  0  0  0  0  0  0  0  0  0  0  # atno 8009 bound_to 7997
  154.4006  140.1453  156.3342 H   0  0  0  0  0  0  0  0  0  0  0  0  # atno 8010 bound_to 7997
  140.1827  144.4166  150.6608 H   0  0  0  0  0  0  0  0  0  0  0  0  # atno 10167 bound_to 10162
  156.0197  130.4448  150.3090 H   0  0  0  0  0  0  0  0  0  0  0  0  # atno 10718 bound_to 10713
  154.8182  135.4608  154.0704 H   0  0  0  0  0  0  0  0  0  0  0  0  # atno 10763 bound_to 10752
  153.2079  135.6878  153.8156 H   0  0  0  0  0  0  0  0  0  0  0  0  # atno 10764 bound_to 10752
  153.7618  135.3283  155.3315 H   0  0  0  0  0  0  0  0  0  0  0  0  # atno 10765 bound_to 10752
  140.4613  134.6252  157.4843 H   0  0  0  0  0  0  0  0  0  0  0  0  # atno 11005 bound_to 11000
  146.3283  140.2989  142.8619 LP  0  0  0  0  0  0  0  0  0  0  0  0  # atno 17320 bound_to 7965
  144.9444  140.8112  143.5610 LP  0  0  0  0  0  0  0  0  0  0  0  0  # atno 17321 bound_to 7965
  140.6509  143.2225  151.6080 LP  0  0  0  0  0  0  0  0  0  0  0  0  # atno 17342 bound_to 10162
  139.5289  144.2975  152.1101 LP  0  0  0  0  0  0  0  0  0  0  0  0  # atno 17343 bound_to 10162
  157.1192  131.0242  151.3016 LP  0  0  0  0  0  0  0  0  0  0  0  0  # atno 17370 bound_to 10713
  157.4642  130.7671  149.7263 LP  0  0  0  0  0  0  0  0  0  0  0  0  # atno 17371 bound_to 10713
  139.9944  134.6935  155.9635 LP  0  0  0  0  0  0  0  0  0  0  0  0  # atno 17394 bound_to 11000
  141.1620  133.6538  156.4351 LP  0  0  0  0  0  0  0  0  0  0  0  0  # atno 17395 bound_to 11000

$$$$
