#       Name:                AV-unprocessed.smi:189
#       Creating user name   scv26
#       Creation time:       Thu Mar 26 19:30:55 2020


#       File generated by GOLD software.
#

@<TRIPOS>MOLECULE
AV-unprocessed.smi:189
    61    65     1
SMALL
NO_CHARGES


@<TRIPOS>ATOM
      1 ****        -2.3725   0.4483  -2.3388 C.3            1 S1                 0.0000
      2 ****        -3.0734   0.3183  -0.9723 C.3            1 S1                 0.0000
      3 ****        -3.7316   1.6013  -0.4507 C.3            1 S1                 0.0000
      4 ****        -3.9475   1.2983   1.0393 C.3            1 S1                 0.0000
      5 ****        -3.6459   2.4684   1.9920 C.3            1 S1                 0.0000
      6 ****        -3.7718   2.0546   3.4746 C.3            1 S1                 0.0000
      7 ****        -3.2883   0.6153   3.7682 C.3            1 S1                 0.0000
      8 ****        -2.3351   0.0868   2.6865 C.3            1 S1                 0.0000
      9 ****        -3.0613   0.0625   1.3173 C.3            1 S1                 0.0000
     10 ****        -2.2387  -0.1708   0.1262 N.3            1 S1                 0.0000
     11 ****        -0.9474   0.2455   0.1596 C.ar           1 S1                 0.0000
     12 ****        -0.6354   1.5666   0.2437 N.ar           1 S1                 0.0000
     13 ****         0.6439   1.9514   0.2713 C.ar           1 S1                 0.0000
     14 ****         1.7439   1.1969   0.2206 N.ar           1 S1                 0.0000
     15 ****         1.4320  -0.1283   0.1335 C.ar           1 S1                 0.0000
     16 ****         0.1229  -0.6839   0.1057 C.ar           1 S1                 0.0000
     17 ****         0.1915  -2.0684   0.0249 N.2            1 S1                 0.0000
     18 ****         1.4722  -2.3185  -0.0006 C.2            1 S1                 0.0000
     19 ****         2.2897  -1.2109   0.0449 N.pl3          1 S1                 0.0000
     20 ****         3.7437  -1.2005   0.0101 C.3            1 S1                 0.0000
     21 ****         4.3203  -1.0771  -1.4201 C.3            1 S1                 0.0000
     22 ****         3.9640   0.1865  -1.9536 O.3            1 S1                 0.0000
     23 ****         3.8403  -2.1590  -2.3842 C.3            1 S1                 0.0000
     24 ****         5.0349  -2.3451  -3.3088 C.3            1 S1                 0.0000
     25 ****         6.1308  -2.2481  -2.4156 O.3            1 S1                 0.0000
     26 ****         5.8550  -1.2145  -1.4754 C.3            1 S1                 0.0000
     27 ****        -3.0926   0.7020  -3.1168 H              1 S1                 0.0000
     28 ****        -1.8955  -0.4896  -2.6248 H              1 S1                 0.0000
     29 ****        -1.6092   1.2267  -2.3391 H              1 S1                 0.0000
     30 ****        -3.8587  -0.4295  -1.0953 H              1 S1                 0.0000
     31 ****        -3.0649   2.4543  -0.5804 H              1 S1                 0.0000
     32 ****        -4.6626   1.8307  -0.9696 H              1 S1                 0.0000
     33 ****        -4.9876   1.0029   1.1855 H              1 S1                 0.0000
     34 ****        -2.6312   2.8245   1.8105 H              1 S1                 0.0000
     35 ****        -4.3033   3.3123   1.7814 H              1 S1                 0.0000
     36 ****        -3.2078   2.7630   4.0822 H              1 S1                 0.0000
     37 ****        -4.8100   2.1475   3.7953 H              1 S1                 0.0000
     38 ****        -2.8120   0.5758   4.7483 H              1 S1                 0.0000
     39 ****        -4.1514  -0.0494   3.8256 H              1 S1                 0.0000
     40 ****        -1.4564   0.7312   2.6753 H              1 S1                 0.0000
     41 ****        -1.9818  -0.9129   2.9399 H              1 S1                 0.0000
     42 ****        -3.7344  -0.7956   1.3546 H              1 S1                 0.0000
     43 ****         0.8098   3.0162   0.3412 H              1 S1                 0.0000
     44 ****         1.8579  -3.3256  -0.0631 H              1 S1                 0.0000
     45 ****         4.1012  -0.3825   0.6368 H              1 S1                 0.0000
     46 ****         4.0972  -2.1208   0.4773 H              1 S1                 0.0000
     47 ****         4.3386   0.2644  -2.8176 H              1 S1                 0.0000
     48 ****         3.6661  -3.0927  -1.8480 H              1 S1                 0.0000
     49 ****         2.9210  -1.9031  -2.9130 H              1 S1                 0.0000
     50 ****         5.0210  -3.3027  -3.8297 H              1 S1                 0.0000
     51 ****         5.0886  -1.5455  -4.0496 H              1 S1                 0.0000
     52 ****         6.3386  -0.2908  -1.7976 H              1 S1                 0.0000
     53 ****         6.2837  -1.4861  -0.5102 H              1 S1                 0.0000
     54 ****        -2.0206  -1.1411   0.0213 LP             1 S1                 0.0000
     55 ****        -1.3639   2.2504   0.2850 LP             1 S1                 0.0000
     56 ****         2.6766   1.5568   0.2436 LP             1 S1                 0.0000
     57 ****        -0.5647  -2.7220  -0.0064 LP             1 S1                 0.0000
     58 ****         4.3191   0.9131  -1.3654 LP             1 S1                 0.0000
     59 ****         2.9683   0.2600  -2.0099 LP             1 S1                 0.0000
     60 ****         6.9629  -2.0282  -2.9247 LP             1 S1                 0.0000
     61 ****         6.2534  -3.1170  -1.9359 LP             1 S1                 0.0000
@<TRIPOS>BOND
    1    1    2 1     
    2    1   27 1     
    3    1   28 1     
    4    1   29 1     
    5    2   10 1     
    6    2    3 1     
    7    2   30 1     
    8    3    4 1     
    9    3   31 1     
   10    3   32 1     
   11    4    9 1     
   12    4    5 1     
   13    4   33 1     
   14    5    6 1     
   15    5   34 1     
   16    5   35 1     
   17    6    7 1     
   18    6   36 1     
   19    6   37 1     
   20    7    8 1     
   21    7   38 1     
   22    7   39 1     
   23    8    9 1     
   24    8   40 1     
   25    8   41 1     
   26    9   10 1     
   27    9   42 1     
   28   10   11 1     
   29   11   16 ar    
   30   11   12 ar    
   31   12   13 ar    
   32   13   14 ar    
   33   13   43 1     
   34   14   15 ar    
   35   15   19 1     
   36   15   16 ar    
   37   16   17 1     
   38   17   18 2     
   39   18   19 1     
   40   18   44 1     
   41   19   20 1     
   42   20   21 1     
   43   20   45 1     
   44   20   46 1     
   45   21   26 1     
   46   21   22 1     
   47   21   23 1     
   48   22   47 1     
   49   23   24 1     
   50   23   48 1     
   51   23   49 1     
   52   24   25 1     
   53   24   50 1     
   54   24   51 1     
   55   25   26 1     
   56   26   52 1     
   57   26   53 1     
   58   10   54 1     
   59   12   55 1     
   60   14   56 1     
   61   17   57 1     
   62   22   58 1     
   63   22   59 1     
   64   25   60 1     
   65   25   61 1     
@<TRIPOS>SUBSTRUCTURE
      1 S1             1
@<TRIPOS>SET
LONE_PAIRS      STATIC     ATOMS    <user>   **** ""
8 54 55 56 57 58 59 60 61
DONOR_HYDROGENS      STATIC     ATOMS    <user>   **** ""
1 47
ATOM$BLUE        STATIC     ATOMS    COLORGROUP SYSTEM
8 54 55 56 57 58 59 60 61
ATOM$RED        STATIC     ATOMS    COLORGROUP SYSTEM
1 47
