#       Name:                AV-unprocessed.smi:843
#       Creating user name   scv26
#       Creation time:       Fri Mar 27 01:38:23 2020


#       File generated by GOLD software.
#

@<TRIPOS>MOLECULE
AV-unprocessed.smi:843
    51    52     1
SMALL
NO_CHARGES


@<TRIPOS>ATOM
      1 ****        -5.4052   0.1122   1.5111 C.3            1 S1                 0.0000
      2 ****        -4.8314  -0.5599   0.2549 C.3            1 S1                 0.0000
      3 ****        -3.8293   0.2856  -0.4424 N.4            1 S1                 1.0000
      4 ****        -3.6219  -0.1434  -1.8502 C.3            1 S1                 0.0000
      5 ****        -2.6699   0.8100  -2.5969 C.3            1 S1                 0.0000
      6 ****        -1.3160   0.9646  -1.8791 C.3            1 S1                 0.0000
      7 ****        -0.4234  -0.2889  -2.0424 C.3            1 S1                 0.0000
      8 ****         0.9068  -0.1029  -1.4690 N.am           1 S1                 0.0000
      9 ****         1.3226  -0.5919  -0.2915 C.2            1 S1                 0.0000
     10 ****         0.6135  -1.2760   0.4456 O.2            1 S1                 0.0000
     11 ****         2.5948  -0.2368  -0.0430 N.am           1 S1                 0.0000
     12 ****         3.3984  -0.5087   1.1001 C.ar           1 S1                 0.0000
     13 ****         2.8844  -0.9391   2.3482 C.ar           1 S1                 0.0000
     14 ****         3.7749  -1.1610   3.4146 C.ar           1 S1                 0.0000
     15 ****         5.1469  -0.9387   3.2001 C.ar           1 S1                 0.0000
     16 ****         5.6506  -0.5172   2.0223 N.ar           1 S1                 0.0000
     17 ****         4.7941  -0.3021   0.9924 C.ar           1 S1                 0.0000
     18 ****         5.3126   0.1384  -0.2106 O.3            1 S1                 0.0000
     19 ****         6.7155   0.3609  -0.3056 C.3            1 S1                 0.0000
     20 ****        -1.5847   1.3735  -0.4161 C.3            1 S1                 0.0000
     21 ****        -2.5412   0.3982   0.2916 C.3            1 S1                 0.0000
     22 ****        -6.2141  -0.4874   1.9291 H              1 S1                 0.0000
     23 ****        -5.8110   1.0978   1.2814 H              1 S1                 0.0000
     24 ****        -4.6562   0.2284   2.2938 H              1 S1                 0.0000
     25 ****        -4.3968  -1.5297   0.5017 H              1 S1                 0.0000
     26 ****        -5.6630  -0.7574  -0.4228 H              1 S1                 0.0000
     27 ****        -3.2366  -1.1637  -1.8690 H              1 S1                 0.0000
     28 ****        -4.5803  -0.1633  -2.3702 H              1 S1                 0.0000
     29 ****        -2.5189   0.4624  -3.6195 H              1 S1                 0.0000
     30 ****        -3.1439   1.7890  -2.6798 H              1 S1                 0.0000
     31 ****        -0.7861   1.7895  -2.3580 H              1 S1                 0.0000
     32 ****        -0.9039  -1.1743  -1.6248 H              1 S1                 0.0000
     33 ****        -0.2879  -0.5002  -3.1035 H              1 S1                 0.0000
     34 ****         1.5608   0.4435  -2.0105 H              1 S1                 0.0000
     35 ****         3.0643   0.2672  -0.7812 H              1 S1                 0.0000
     36 ****         1.8307  -1.0913   2.5186 H              1 S1                 0.0000
     37 ****         3.4124  -1.4899   4.3773 H              1 S1                 0.0000
     38 ****         5.8584  -1.0974   3.9969 H              1 S1                 0.0000
     39 ****         6.9577   0.7149  -1.3075 H              1 S1                 0.0000
     40 ****         7.2778  -0.5583  -0.1346 H              1 S1                 0.0000
     41 ****         7.0480   1.1218   0.4021 H              1 S1                 0.0000
     42 ****        -0.6548   1.4629   0.1444 H              1 S1                 0.0000
     43 ****        -2.0284   2.3700  -0.4024 H              1 S1                 0.0000
     44 ****        -2.7137   0.7592   1.3046 H              1 S1                 0.0000
     45 ****        -2.0845  -0.5876   0.3856 H              1 S1                 0.0000
     46 ****        -4.2221   1.2150  -0.4877 H              1 S1                 0.0000
     47 ****        -0.3248  -1.4929   0.1763 LP             1 S1                 0.0000
     48 ****         0.9755  -1.6150   1.3140 LP             1 S1                 0.0000
     49 ****         6.6329  -0.3666   1.9107 LP             1 S1                 0.0000
     50 ****         4.8612   1.0041  -0.4271 LP             1 S1                 0.0000
     51 ****         5.0745  -0.5437  -0.9019 LP             1 S1                 0.0000
@<TRIPOS>BOND
    1    1    2 1     
    2    1   22 1     
    3    1   23 1     
    4    1   24 1     
    5    2    3 1     
    6    2   25 1     
    7    2   26 1     
    8    3   21 1     
    9    3    4 1     
   10    3   46 1     
   11    4    5 1     
   12    4   27 1     
   13    4   28 1     
   14    5    6 1     
   15    5   29 1     
   16    5   30 1     
   17    6    7 1     
   18    6   20 1     
   19    6   31 1     
   20    7    8 1     
   21    7   32 1     
   22    7   33 1     
   23    8    9 am    
   24    8   34 1     
   25    9   10 2     
   26    9   11 am    
   27   11   12 1     
   28   11   35 1     
   29   12   17 ar    
   30   12   13 ar    
   31   13   14 ar    
   32   13   36 1     
   33   14   15 ar    
   34   14   37 1     
   35   15   16 ar    
   36   15   38 1     
   37   16   17 ar    
   38   17   18 1     
   39   18   19 1     
   40   19   39 1     
   41   19   40 1     
   42   19   41 1     
   43   20   21 1     
   44   20   42 1     
   45   20   43 1     
   46   21   44 1     
   47   21   45 1     
   48   10   47 1     
   49   10   48 1     
   50   16   49 1     
   51   18   50 1     
   52   18   51 1     
@<TRIPOS>SUBSTRUCTURE
      1 S1             1
@<TRIPOS>SET
LONE_PAIRS      STATIC     ATOMS    <user>   **** ""
5 47 48 49 50 51
DONOR_HYDROGENS      STATIC     ATOMS    <user>   **** ""
3 46 34 35
ATOM$BLUE        STATIC     ATOMS    COLORGROUP SYSTEM
5 47 48 49 50 51
ATOM$RED        STATIC     ATOMS    COLORGROUP SYSTEM
3 46 34 35
