AV-unprocessed.smi:224|AV-procd|sdf|1716|dock6
  -GOLD-   2262020193D 1   1.00000     0.00000
 Structure written by MMmdl.
 56 59  0  0  0  0  0  0  0  0  2 V2000
  143.4927  132.1076  150.7690 C   0  0  0  0  0  0  0  0  0  0  0  0
  144.5409  132.5821  149.7541 C   0  0  1  0  0  0  0  0  0  0  0  0
  143.9148  133.5056  148.8864 O   0  0  0  0  0  0  0  0  0  0  0  0
  145.7399  133.2602  150.4469 C   0  0  0  0  0  0  0  0  0  0  0  0
  145.3610  133.9584  151.7035 N   0  3  2  0  0  0  0  0  0  0  0  0
  145.5082  135.4377  151.6368 C   0  0  0  0  0  0  0  0  0  0  0  0
  144.9641  136.1041  152.9134 C   0  0  0  0  0  0  0  0  0  0  0  0
  145.5639  135.5209  154.1120 N   0  0  0  0  0  0  0  0  0  0  0  0
  146.6894  136.0783  154.6355 C   0  0  0  0  0  0  0  0  0  0  0  0
  147.3548  135.4369  155.6336 N   0  0  0  0  0  0  0  0  0  0  0  0
  148.4468  135.9789  156.1796 C   0  0  0  0  0  0  0  0  0  0  0  0
  149.0419  137.1337  155.8802 N   0  0  0  0  0  0  0  0  0  0  0  0
  148.3953  137.7751  154.8658 C   0  0  0  0  0  0  0  0  0  0  0  0
  147.2233  137.3239  154.1941 C   0  0  0  0  0  0  0  0  0  0  0  0
  146.8633  138.2410  153.2129 N   0  0  0  0  0  0  0  0  0  0  0  0
  147.7617  139.1825  153.3072 C   0  0  0  0  0  0  0  0  0  0  0  0
  148.7236  138.9802  154.2706 N   0  0  0  0  0  0  0  0  0  0  0  0
  149.8387  139.8590  154.5877 C   0  0  0  0  0  0  0  0  0  0  0  0
  149.4160  141.1443  155.3368 C   0  0  1  0  0  0  0  0  0  0  0  0
  148.9076  142.0808  154.4025 O   0  0  0  0  0  0  0  0  0  0  0  0
  148.3609  140.9180  156.4165 C   0  0  0  0  0  0  0  0  0  0  0  0
  148.7160  141.9638  157.4640 C   0  0  0  0  0  0  0  0  0  0  0  0
  150.1326  141.9328  157.4589 O   0  0  0  0  0  0  0  0  0  0  0  0
  150.5735  141.8065  156.1110 C   0  0  0  0  0  0  0  0  0  0  0  0
  145.4355  134.0669  154.1996 C   0  0  0  0  0  0  0  0  0  0  0  0
  145.9695  133.3639  152.9311 C   0  0  2  0  0  0  0  0  0  0  0  0
  147.5128  133.3222  152.8912 C   0  0  0  0  0  0  0  0  0  0  0  0
  143.9167  131.3744  151.4557 H   0  0  0  0  0  0  0  0  0  0  0  0
  142.6451  131.6370  150.2690 H   0  0  0  0  0  0  0  0  0  0  0  0
  143.1094  132.9372  151.3641 H   0  0  0  0  0  0  0  0  0  0  0  0
  144.8617  131.7216  149.1682 H   0  0  0  0  0  0  0  0  0  0  0  0
  144.5766  133.9563  148.3849 H   0  0  0  0  0  0  0  0  0  0  0  0
  146.4913  132.4974  150.6580 H   0  0  0  0  0  0  0  0  0  0  0  0
  146.2130  133.9753  149.7720 H   0  0  0  0  0  0  0  0  0  0  0  0
  146.5566  135.6981  151.4882 H   0  0  0  0  0  0  0  0  0  0  0  0
  144.9695  135.8354  150.7781 H   0  0  0  0  0  0  0  0  0  0  0  0
  145.1120  137.1843  152.8805 H   0  0  0  0  0  0  0  0  0  0  0  0
  143.8855  135.9529  152.9709 H   0  0  0  0  0  0  0  0  0  0  0  0
  148.9098  135.4065  156.9699 H   0  0  0  0  0  0  0  0  0  0  0  0
  147.7501  140.0535  152.6685 H   0  0  0  0  0  0  0  0  0  0  0  0
  150.5529  139.2942  155.1885 H   0  0  0  0  0  0  0  0  0  0  0  0
  150.3545  140.1128  153.6606 H   0  0  0  0  0  0  0  0  0  0  0  0
  148.8222  142.9179  154.8328 H   0  0  0  0  0  0  0  0  0  0  0  0
  147.3345  140.9993  156.0556 H   0  0  0  0  0  0  0  0  0  0  0  0
  148.4798  139.9284  156.8592 H   0  0  0  0  0  0  0  0  0  0  0  0
  148.3661  142.9535  157.1672 H   0  0  0  0  0  0  0  0  0  0  0  0
  148.3101  141.7316  158.4487 H   0  0  0  0  0  0  0  0  0  0  0  0
  151.4861  141.2100  156.0872 H   0  0  0  0  0  0  0  0  0  0  0  0
  150.8204  142.7932  155.7152 H   0  0  0  0  0  0  0  0  0  0  0  0
  145.9276  133.6577  155.0803 H   0  0  0  0  0  0  0  0  0  0  0  0
  144.3759  133.8389  154.3196 H   0  0  0  0  0  0  0  0  0  0  0  0
  145.6298  132.3285  152.9838 H   0  0  0  0  0  0  0  0  0  0  0  0
  147.9106  132.9062  153.8171 H   0  0  0  0  0  0  0  0  0  0  0  0
  147.9515  134.3111  152.7662 H   0  0  0  0  0  0  0  0  0  0  0  0
  147.8801  132.6954  152.0789 H   0  0  0  0  0  0  0  0  0  0  0  0
  144.3708  133.7917  151.8092 H   0  0  0  0  0  0  0  0  0  0  0  0
  1  2  1  0  0  0  0
  1 28  1  0  0  0  0
  1 29  1  0  0  0  0
  1 30  1  0  0  0  0
  2  3  1  0  0  0  0
  2  4  1  0  0  0  0
  2 31  1  0  0  0  0
  3 32  1  0  0  0  0
  4  5  1  0  0  0  0
  4 33  1  0  0  0  0
  4 34  1  0  0  0  0
  5 26  1  0  0  0  0
  5  6  1  0  0  0  0
  5 56  1  0  0  0  0
  6  7  1  0  0  0  0
  6 35  1  0  0  0  0
  6 36  1  0  0  0  0
  7  8  1  0  0  0  0
  7 37  1  0  0  0  0
  7 38  1  0  0  0  0
  8  9  1  0  0  0  0
  8 25  1  0  0  0  0
  9 14  1  0  0  0  0
  9 10  2  0  0  0  0
 10 11  1  0  0  0  0
 11 12  2  0  0  0  0
 11 39  1  0  0  0  0
 12 13  1  0  0  0  0
 13 17  1  0  0  0  0
 13 14  2  0  0  0  0
 14 15  1  0  0  0  0
 15 16  2  0  0  0  0
 16 17  1  0  0  0  0
 16 40  1  0  0  0  0
 17 18  1  0  0  0  0
 18 19  1  0  0  0  0
 18 41  1  0  0  0  0
 18 42  1  0  0  0  0
 19 24  1  0  0  0  0
 19 20  1  0  0  0  0
 19 21  1  0  0  0  0
 20 43  1  0  0  0  0
 21 22  1  0  0  0  0
 21 44  1  0  0  0  0
 21 45  1  0  0  0  0
 22 23  1  0  0  0  0
 22 46  1  0  0  0  0
 22 47  1  0  0  0  0
 23 24  1  0  0  0  0
 24 48  1  0  0  0  0
 24 49  1  0  0  0  0
 25 26  1  0  0  0  0
 25 50  1  0  0  0  0
 25 51  1  0  0  0  0
 26 27  1  0  0  0  0
 26 52  1  0  0  0  0
 27 53  1  0  0  0  0
 27 54  1  0  0  0  0
 27 55  1  0  0  0  0
M  CHG  1   5   1
M  END
> <s_m_source_file>
AV-unprocessed.smi

> <i_m_source_file_index>
224

> <i_lp_mmshare_version>
43012

> <i_f3d_flags>
0

> <s_epik_input>
W0NIM11bQ0BIXShbT0hdKVtDSDJdTjFbQ0gyXVtDSDJdTihbQ0gyXVtDQEhdMVtDSDNdKWMobltjSF1uMiljKGMyMyluW2NIXW4zW0NIMl1bQ0BAXTQoW09IXSlbQ0gyXVtDSDJdT1tDSDJdNA==

> <s_epik_cmdline>
J2VwaWtfcHl0aG9uJywgJy1waCcsICc3LjAnLCAnLXRuJywgJzgnLCAnLW1hJywgJzIwMCcsICctbWV0YWxfYmluZGluZycsICctaW1hZScsICc8aW5maWxlLm1hZT4nLCAnLW9tYWUnLCAnPG91dGZpbGUubWFlPic=

> <r_lp_tautomer_probability>
1

> <r_epik_Ionization_Penalty>
0.00516958

> <r_epik_Ionization_Penalty_Charging>
0.00509693

> <r_epik_Ionization_Penalty_Neutral>
7.26542e-05

> <r_epik_State_Penalty>
-0

> <r_epik_Charging_Adjusted_Penalty>
0.00509693

> <i_epik_Tot_Q>
1

> <i_epik_Tot_abs_Q>
1

> <r_epik_Metal_State_Penalty>
-0

> <b_epik_Metal_Only>
0

> <s_lp_Force_Field>
OPLS_2005

> <r_lp_Energy>
50.5155

> <b_lp_Chiralities_Consistent>
1

> <s_lp_Variant>
AV-unprocessed.smi:224-10

> <Gold.Version>
5.8.1

> <Gold.Id.Protein>
6NUR|6NUR_protein|mol2

> <Gold.PLP.Fitness>
39.7591

> <Gold.PLP.PLP>
-34.4122

> <Gold.PLP.part.hbond>
-3.7910

> <Gold.PLP.part.metal>
0.0000

> <Gold.PLP.part.buried>
-3.2554

> <Gold.PLP.part.nonpolar>
-27.8825

> <Gold.PLP.part.repulsive>
0.4380

> <Gold.PLP.ligand.clash>
0.0000

> <Gold.PLP.ligand.torsion>
1.6706

> <Gold.PLP.Chemscore.Hbond>
2.1820

> <Gold.PLP.Chemscore.CHOScore>
0.6033

> <Gold.PLP.Chemscore.Metal>
0.0000

> <Gold.Chemscore.Hbonds>
donor molecule, donor type, donor heavy atom, donor atom, acceptor molecule, acceptor atom, score
      L1  H     3    32       P1  7921  1.00
      L1  H    20    43       P1  8028  1.00
      P1  H  8011  8017       L1    20  0.14
      L1  C    16    40       P1  7957  0.63

> <Gold.PLP.Chemscore.Internal.Correction>
0.3321

> <Gold.Rescore>
     Score         DG    S(hbond)    S(metal)    S(lipo)     H(rot)  DE(clash)    DE(int)     intcor
     10.39     -13.42       2.01        0.00      76.52       3.02       0.24       2.80       ----

> <Gold.Chemscore.Fitness>
10.3873

> <Gold.Chemscore.DG>
-13.4228

> <Gold.Chemscore.ZeroCoef>
-5.4800

> <Gold.Chemscore.Hbond>
2.0148

> <Gold.Chemscore.Metal>
0.0000

> <Gold.Chemscore.Lipo>
76.5161

> <Gold.Chemscore.Internal_Hbond>
0.0000

> <Gold.Chemscore.DEClash>
0.2380

> <Gold.Chemscore.DEInternal>
2.7974

> <Gold.Chemscore.Rot>
3.0231

> <Gold.Chemscore.Internal.Correction>
   9.000000E+99

> <Gold.Chemscore.Hbonds>
donor molecule, donor type, donor heavy atom, donor atom, acceptor molecule, acceptor atom, score
      L1  H     3    32       P1  7921  1.00
      L1  H    20    43       P1  8028  0.98
      P1  H  8011  8017       L1    20  0.09

> <Gold.Chemscore.Hbond.Weighted>
-6.7295

> <Gold.Chemscore.Metal.Weighted>
-0.0000

> <Gold.Chemscore.Lipo.Weighted>
-8.9524

> <Gold.Chemscore.Internal_Hbond.Weighted>
0.0000

> <Gold.Chemscore.DEClash.Weighted>
0.2380

> <Gold.Chemscore.DEInternal.Weighted>
2.7974

> <Gold.Chemscore.Rot.Weighted>
7.7391

> <Gold.Chemscore.Internal.Correction.Weighted>
   9.000000E+99

> <Gold.Protein.RotatedTorsions>
[ 6907 6896 6895 6894 ] final   11.36 input  -60.11 | X-H torsion
[ 7974 7965 7964 7962 ] final   69.80 input  175.53 | X-H torsion
[ 8008 7997 7996 7995 ] final   89.36 input   59.86 | X-H torsion
[ 10167 10162 10161 10158 ] final -178.47 input  -65.29 | X-H torsion
[ 10718 10713 10712 10709 ] final  -64.91 input   66.30 | X-H torsion
[ 10763 10752 10751 10750 ] final   19.05 input  -60.55 | X-H torsion
[ 11005 11000 10999 10996 ] final -112.90 input  -57.11 | X-H torsion

> <Gold.Protein.ActiveResidues>
 VAL166  LYS551  ARG553  GLY616  TRP617  ASP618  TYR619  PRO620  LYS621  CYS622 
 ASP623  PHE694  ASN695  SER759  ASP760  ASP761  ALA762  ILE779  LEU786  VAL792 
 PHE793  MET794  SER795  GLU796  ALA797  LYS798  CYS799  TRP800  GLU811  SER814 

> <Gold.Protein.RotatedAtoms>
  151.7530  135.0828  160.0333 H   0  0  0  0  0  0  0  0  0  0  0  0  # atno 6907 bound_to 6896
  152.3404  133.6056  159.5881 H   0  0  0  0  0  0  0  0  0  0  0  0  # atno 6908 bound_to 6896
  150.7476  133.9647  159.3568 H   0  0  0  0  0  0  0  0  0  0  0  0  # atno 6909 bound_to 6896
  145.7860  139.2910  143.1238 H   0  0  0  0  0  0  0  0  0  0  0  0  # atno 7974 bound_to 7965
  155.9990  140.3361  155.6827 H   0  0  0  0  0  0  0  0  0  0  0  0  # atno 8008 bound_to 7997
  155.6316  140.0685  157.2665 H   0  0  0  0  0  0  0  0  0  0  0  0  # atno 8009 bound_to 7997
  154.4243  140.1758  156.1466 H   0  0  0  0  0  0  0  0  0  0  0  0  # atno 8010 bound_to 7997
  139.5431  144.2309  152.0935 H   0  0  0  0  0  0  0  0  0  0  0  0  # atno 10167 bound_to 10162
  156.0701  130.4240  150.1488 H   0  0  0  0  0  0  0  0  0  0  0  0  # atno 10718 bound_to 10713
  153.1196  135.6716  153.9359 H   0  0  0  0  0  0  0  0  0  0  0  0  # atno 10763 bound_to 10752
  153.8878  135.3050  155.3448 H   0  0  0  0  0  0  0  0  0  0  0  0  # atno 10764 bound_to 10752
  154.7609  135.4988  153.9541 H   0  0  0  0  0  0  0  0  0  0  0  0  # atno 10765 bound_to 10752
  141.0647  133.9478  157.2601 H   0  0  0  0  0  0  0  0  0  0  0  0  # atno 11005 bound_to 11000
  146.0025  140.8507  143.0011 LP  0  0  0  0  0  0  0  0  0  0  0  0  # atno 17320 bound_to 7965
  144.6789  140.2373  143.7348 LP  0  0  0  0  0  0  0  0  0  0  0  0  # atno 17321 bound_to 7965
  140.1791  144.4862  150.6538 LP  0  0  0  0  0  0  0  0  0  0  0  0  # atno 17342 bound_to 10162
  140.6669  143.2271  151.5721 LP  0  0  0  0  0  0  0  0  0  0  0  0  # atno 17343 bound_to 10162
  156.9541  130.9784  151.3492 LP  0  0  0  0  0  0  0  0  0  0  0  0  # atno 17370 bound_to 10713
  157.5766  130.8347  149.8464 LP  0  0  0  0  0  0  0  0  0  0  0  0  # atno 17371 bound_to 10713
  139.9465  135.0183  156.8867 LP  0  0  0  0  0  0  0  0  0  0  0  0  # atno 17394 bound_to 11000
  140.5798  134.0363  155.7460 LP  0  0  0  0  0  0  0  0  0  0  0  0  # atno 17395 bound_to 11000

$$$$
