AV-unprocessed.smi:975|AV-procd|sdf|4301|dock6
  -GOLD-   22720 2203D 1   1.00000     0.00000
 Structure written by MMmdl.
 44 45  0  0  0  0  0  0  0  0  1 V2000
  151.2674  145.5025  160.0672 C   0  0  0  0  0  0  0  0  0  0  0  0
  151.8963  144.1322  160.2140 C   0  0  0  0  0  0  0  0  0  0  0  0
  152.0722  143.2707  159.0634 C   0  0  0  0  0  0  0  0  0  0  0  0
  152.6286  142.0612  159.2318 C   0  0  0  0  0  0  0  0  0  0  0  0
  153.0493  141.6055  160.4943 N   0  0  0  0  0  0  0  0  0  0  0  0
  153.6605  140.2651  160.5529 C   0  0  0  0  0  0  0  0  0  0  0  0
  153.5378  139.4411  159.2590 C   0  0  0  0  0  0  0  0  0  0  0  0
  154.5479  139.2264  158.5901 O   0  0  0  0  0  0  0  0  0  0  0  0
  152.3228  138.9806  158.9134 N   0  0  0  0  0  0  0  0  0  0  0  0
  152.0065  138.1809  157.7332 C   0  0  0  0  0  0  0  0  0  0  0  0
  152.5470  138.9235  156.4896 C   0  0  0  0  0  0  0  0  0  0  0  0
  152.1957  138.3115  155.1214 C   0  0  0  0  0  0  0  0  0  0  0  0
  150.9399  138.8990  154.4384 C   0  0  0  0  0  0  0  0  0  0  0  0
  149.6086  138.2118  154.7942 C   0  0  0  0  0  0  0  0  0  0  0  0
  148.8207  138.8083  155.9802 C   0  0  0  0  0  0  0  0  0  0  0  0
  149.5894  139.0209  157.2971 C   0  0  0  0  0  0  0  0  0  0  0  0
  150.4985  137.8459  157.7081 C   0  0  0  0  0  0  0  0  0  0  0  0
  152.9201  142.3726  161.6187 C   0  0  0  0  0  0  0  0  0  0  0  0
  153.3029  141.9865  162.7230 O   0  0  0  0  0  0  0  0  0  0  0  0
  152.3046  143.6905  161.4241 C   0  0  0  0  0  0  0  0  0  0  0  0
  151.0121  145.7105  159.0276 H   0  0  0  0  0  0  0  0  0  0  0  0
  151.9567  146.2748  160.4094 H   0  0  0  0  0  0  0  0  0  0  0  0
  150.3554  145.5667  160.6613 H   0  0  0  0  0  0  0  0  0  0  0  0
  151.7630  143.5944  158.0800 H   0  0  0  0  0  0  0  0  0  0  0  0
  152.7941  141.3724  158.4157 H   0  0  0  0  0  0  0  0  0  0  0  0
  154.7172  140.3391  160.8158 H   0  0  0  0  0  0  0  0  0  0  0  0
  153.2116  139.6881  161.3628 H   0  0  0  0  0  0  0  0  0  0  0  0
  151.5497  139.2026  159.5236 H   0  0  0  0  0  0  0  0  0  0  0  0
  152.5485  137.2358  157.8045 H   0  0  0  0  0  0  0  0  0  0  0  0
  152.2623  139.9761  156.5035 H   0  0  0  0  0  0  0  0  0  0  0  0
  153.6346  138.9357  156.5762 H   0  0  0  0  0  0  0  0  0  0  0  0
  153.0368  138.5231  154.4598 H   0  0  0  0  0  0  0  0  0  0  0  0
  152.1473  137.2234  155.1782 H   0  0  0  0  0  0  0  0  0  0  0  0
  150.8745  139.9778  154.5846 H   0  0  0  0  0  0  0  0  0  0  0  0
  151.0806  138.7669  153.3648 H   0  0  0  0  0  0  0  0  0  0  0  0
  148.9568  138.2771  153.9220 H   0  0  0  0  0  0  0  0  0  0  0  0
  149.7680  137.1427  154.9328 H   0  0  0  0  0  0  0  0  0  0  0  0
  148.3915  139.7640  155.6771 H   0  0  0  0  0  0  0  0  0  0  0  0
  147.9689  138.1560  156.1764 H   0  0  0  0  0  0  0  0  0  0  0  0
  150.1535  139.9507  157.2416 H   0  0  0  0  0  0  0  0  0  0  0  0
  148.8614  139.1955  158.0902 H   0  0  0  0  0  0  0  0  0  0  0  0
  150.3319  136.9815  157.0679 H   0  0  0  0  0  0  0  0  0  0  0  0
  150.1953  137.4970  158.6963 H   0  0  0  0  0  0  0  0  0  0  0  0
  152.1764  144.3285  162.2866 H   0  0  0  0  0  0  0  0  0  0  0  0
  1  2  1  0  0  0  0
  1 21  1  0  0  0  0
  1 22  1  0  0  0  0
  1 23  1  0  0  0  0
  2 20  2  0  0  0  0
  2  3  1  0  0  0  0
  3  4  2  0  0  0  0
  3 24  1  0  0  0  0
  4  5  1  0  0  0  0
  4 25  1  0  0  0  0
  5  6  1  0  0  0  0
  5 18  1  0  0  0  0
  6  7  1  0  0  0  0
  6 26  1  0  0  0  0
  6 27  1  0  0  0  0
  7  8  2  0  0  0  0
  7  9  1  0  0  0  0
  9 10  1  0  0  0  0
  9 28  1  0  0  0  0
 10 17  1  0  0  0  0
 10 11  1  0  0  0  0
 10 29  1  0  0  0  0
 11 12  1  0  0  0  0
 11 30  1  0  0  0  0
 11 31  1  0  0  0  0
 12 13  1  0  0  0  0
 12 32  1  0  0  0  0
 12 33  1  0  0  0  0
 13 14  1  0  0  0  0
 13 34  1  0  0  0  0
 13 35  1  0  0  0  0
 14 15  1  0  0  0  0
 14 36  1  0  0  0  0
 14 37  1  0  0  0  0
 15 16  1  0  0  0  0
 15 38  1  0  0  0  0
 15 39  1  0  0  0  0
 16 17  1  0  0  0  0
 16 40  1  0  0  0  0
 16 41  1  0  0  0  0
 17 42  1  0  0  0  0
 17 43  1  0  0  0  0
 18 19  2  0  0  0  0
 18 20  1  0  0  0  0
 20 44  1  0  0  0  0
M  END
> <s_m_source_file>
AV-unprocessed.smi

> <i_m_source_file_index>
975

> <i_lp_mmshare_version>
43012

> <i_f3d_flags>
0

> <s_epik_input>
W0NIM11jMVtjSF1bY0hdbihjKD1PKVtjSF0xKVtDSDJdQyg9TylbTkhdW0NIXTJbQ0gyXVtDSDJdW0NIMl1bQ0gyXVtDSDJdW0NIMl1bQ0gyXTI=

> <s_epik_cmdline>
J2VwaWtfcHl0aG9uJywgJy1waCcsICc3LjAnLCAnLXRuJywgJzgnLCAnLW1hJywgJzIwMCcsICctbWV0YWxfYmluZGluZycsICctaW1hZScsICc8aW5maWxlLm1hZT4nLCAnLW9tYWUnLCAnPG91dGZpbGUubWFlPic=

> <r_lp_tautomer_probability>
1

> <r_epik_Ionization_Penalty>
5.54847e-07

> <r_epik_Ionization_Penalty_Charging>
5.34632e-07

> <r_epik_Ionization_Penalty_Neutral>
2.02148e-08

> <r_epik_State_Penalty>
-0

> <r_epik_Charging_Adjusted_Penalty>
5.34632e-07

> <i_epik_Tot_Q>
0

> <i_epik_Tot_abs_Q>
0

> <r_epik_Metal_State_Penalty>
-0

> <b_epik_Metal_Only>
0

> <s_lp_Force_Field>
OPLS_2005

> <r_lp_Energy>
31.8723

> <b_lp_Chiralities_Consistent>
1

> <s_lp_Variant>
AV-unprocessed.smi:975-1

> <Gold.Version>
5.8.1

> <Gold.Id.Protein>
6NUR|6NUR_protein|mol2

> <Gold.PLP.Fitness>
44.9656

> <Gold.PLP.PLP>
-42.3383

> <Gold.PLP.part.hbond>
-0.9768

> <Gold.PLP.part.metal>
0.0000

> <Gold.PLP.part.buried>
-5.0586

> <Gold.PLP.part.nonpolar>
-36.9871

> <Gold.PLP.part.repulsive>
0.1396

> <Gold.PLP.ligand.clash>
0.0000

> <Gold.PLP.ligand.torsion>
0.1997

> <Gold.PLP.Chemscore.Hbond>
1.0000

> <Gold.PLP.Chemscore.CHOScore>
0.0000

> <Gold.PLP.Chemscore.Metal>
0.0000

> <Gold.Chemscore.Hbonds>
donor molecule, donor type, donor heavy atom, donor atom, acceptor molecule, acceptor atom, score
      P1  H  7997  8008       L1     8  1.00

> <Gold.PLP.Chemscore.Internal.Correction>
0.0268

> <Gold.Rescore>
     Score         DG    S(hbond)    S(metal)    S(lipo)     H(rot)  DE(clash)    DE(int)     intcor
     15.87     -17.84       0.99        0.00     106.65       1.34       0.00       1.97       ----

> <Gold.Chemscore.Fitness>
15.8678

> <Gold.Chemscore.DG>
-17.8372

> <Gold.Chemscore.ZeroCoef>
-5.4800

> <Gold.Chemscore.Hbond>
0.9871

> <Gold.Chemscore.Metal>
0.0000

> <Gold.Chemscore.Lipo>
106.6542

> <Gold.Chemscore.Internal_Hbond>
0.0000

> <Gold.Chemscore.DEClash>
0.0021

> <Gold.Chemscore.DEInternal>
1.9673

> <Gold.Chemscore.Rot>
1.3352

> <Gold.Chemscore.Internal.Correction>
   9.000000E+99

> <Gold.Chemscore.Hbonds>
donor molecule, donor type, donor heavy atom, donor atom, acceptor molecule, acceptor atom, score
      P1  H  7997  8008       L1     8  0.98

> <Gold.Chemscore.Hbond.Weighted>
-3.2968

> <Gold.Chemscore.Metal.Weighted>
-0.0000

> <Gold.Chemscore.Lipo.Weighted>
-12.4785

> <Gold.Chemscore.Internal_Hbond.Weighted>
0.0000

> <Gold.Chemscore.DEClash.Weighted>
0.0021

> <Gold.Chemscore.DEInternal.Weighted>
1.9673

> <Gold.Chemscore.Rot.Weighted>
3.4181

> <Gold.Chemscore.Internal.Correction.Weighted>
   9.000000E+99

> <Gold.Protein.RotatedTorsions>
[ 6907 6896 6895 6894 ] final  162.76 input  -60.11 | X-H torsion
[ 7974 7965 7964 7962 ] final  -35.01 input  175.53 | X-H torsion
[ 8008 7997 7996 7995 ] final -123.05 input   59.86 | X-H torsion
[ 10167 10162 10161 10158 ] final -166.22 input  -65.29 | X-H torsion
[ 10718 10713 10712 10709 ] final  153.89 input   66.30 | X-H torsion
[ 10763 10752 10751 10750 ] final   84.88 input  -60.55 | X-H torsion
[ 11005 11000 10999 10996 ] final  -91.98 input  -57.11 | X-H torsion

> <Gold.Protein.ActiveResidues>
 VAL166  LYS551  ARG553  GLY616  TRP617  ASP618  TYR619  PRO620  LYS621  CYS622 
 ASP623  PHE694  ASN695  SER759  ASP760  ASP761  ALA762  ILE779  LEU786  VAL792 
 PHE793  MET794  SER795  GLU796  ALA797  LYS798  CYS799  TRP800  GLU811  SER814 

> <Gold.Protein.RotatedAtoms>
  151.9355  133.3623  159.3945 H   0  0  0  0  0  0  0  0  0  0  0  0  # atno 6907 bound_to 6896
  150.7008  134.4493  159.5338 H   0  0  0  0  0  0  0  0  0  0  0  0  # atno 6908 bound_to 6896
  152.2141  134.8474  160.0544 H   0  0  0  0  0  0  0  0  0  0  0  0  # atno 6909 bound_to 6896
  146.0782  140.6108  142.8921 H   0  0  0  0  0  0  0  0  0  0  0  0  # atno 7974 bound_to 7965
  155.1742  140.0409  157.2869 H   0  0  0  0  0  0  0  0  0  0  0  0  # atno 8008 bound_to 7997
  154.6249  140.2510  155.7477 H   0  0  0  0  0  0  0  0  0  0  0  0  # atno 8009 bound_to 7997
  156.2453  140.2887  156.0573 H   0  0  0  0  0  0  0  0  0  0  0  0  # atno 8010 bound_to 7997
  139.6129  144.0777  152.1860 H   0  0  0  0  0  0  0  0  0  0  0  0  # atno 10167 bound_to 10162
  157.2389  131.0755  151.1805 H   0  0  0  0  0  0  0  0  0  0  0  0  # atno 10718 bound_to 10713
  153.1423  135.4638  154.9514 H   0  0  0  0  0  0  0  0  0  0  0  0  # atno 10763 bound_to 10752
  154.7757  135.3172  154.8099 H   0  0  0  0  0  0  0  0  0  0  0  0  # atno 10764 bound_to 10752
  153.8619  135.6912  153.4836 H   0  0  0  0  0  0  0  0  0  0  0  0  # atno 10765 bound_to 10752
  141.1532  133.7791  156.9956 H   0  0  0  0  0  0  0  0  0  0  0  0  # atno 11005 bound_to 11000
  144.7275  140.4571  143.6962 LP  0  0  0  0  0  0  0  0  0  0  0  0  # atno 17320 bound_to 7965
  145.6267  139.1531  143.2992 LP  0  0  0  0  0  0  0  0  0  0  0  0  # atno 17321 bound_to 7965
  140.0401  144.6014  150.7418 LP  0  0  0  0  0  0  0  0  0  0  0  0  # atno 17342 bound_to 10162
  140.7331  143.2714  151.3877 LP  0  0  0  0  0  0  0  0  0  0  0  0  # atno 17343 bound_to 10162
  157.3400  130.7028  149.6376 LP  0  0  0  0  0  0  0  0  0  0  0  0  # atno 17370 bound_to 10713
  155.9671  130.4282  150.4780 LP  0  0  0  0  0  0  0  0  0  0  0  0  # atno 17371 bound_to 10713
  140.0974  134.9556  157.1870 LP  0  0  0  0  0  0  0  0  0  0  0  0  # atno 17394 bound_to 11000
  140.3364  134.2752  155.7219 LP  0  0  0  0  0  0  0  0  0  0  0  0  # atno 17395 bound_to 11000

$$$$
