AV-unprocessed.smi:258|AV-procd|sdf|1968|dock10
  -GOLD-   2262021123D 1   1.00000     0.00000
 Structure written by MMmdl.
 57 60  0  0  0  0  0  0  0  0  1 V2000
  150.3793  144.6483  158.1646 O   0  0  0  0  0  0  0  0  0  0  0  0
  151.7489  144.3844  158.3843 C   0  0  0  0  0  0  0  0  0  0  0  0
  152.0727  144.4737  159.8807 C   0  0  0  0  0  0  0  0  0  0  0  0
  152.0045  143.1731  160.4484 O   0  0  0  0  0  0  0  0  0  0  0  0
  152.9134  142.2366  159.8846 C   0  0  1  0  0  0  0  0  0  0  0  0
  153.7777  141.5750  160.9770 C   0  0  0  0  0  0  0  0  0  0  0  0
  154.6436  140.4617  160.3683 C   0  0  0  0  0  0  0  0  0  0  0  0
  153.7796  139.4422  159.6089 C   0  0  0  0  0  0  0  0  0  0  0  0
  152.9358  140.1108  158.6166 N   0  0  0  0  0  0  0  0  0  0  0  0
  152.3559  139.3429  157.6592 C   0  0  0  0  0  0  0  0  0  0  0  0
  152.7551  139.4557  156.3637 N   0  0  0  0  0  0  0  0  0  0  0  0
  152.1994  138.6947  155.4164 C   0  0  0  0  0  0  0  0  0  0  0  0
  151.2434  137.7726  155.5412 N   0  0  0  0  0  0  0  0  0  0  0  0
  150.8323  137.6590  156.8363 C   0  0  0  0  0  0  0  0  0  0  0  0
  151.3283  138.3999  157.9464 C   0  0  0  0  0  0  0  0  0  0  0  0
  150.6572  138.0222  159.1039 N   0  0  0  0  0  0  0  0  0  0  0  0
  149.8225  137.1022  158.7037 C   0  0  0  0  0  0  0  0  0  0  0  0
  149.8680  136.8144  157.3588 N   0  0  0  0  0  0  0  0  0  0  0  0
  149.0555  135.8353  156.6570 C   0  0  0  0  0  0  0  0  0  0  0  0
  149.8864  134.8797  155.7658 C   0  0  1  0  0  0  0  0  0  0  0  0
  151.1973  134.4703  156.4786 C   0  0  0  0  0  0  0  0  0  0  0  0
  150.9565  133.4281  157.4008 O   0  0  0  0  0  0  0  0  0  0  0  0
  149.0563  133.6707  155.2483 C   0  0  2  0  0  0  0  0  0  0  0  0
  149.8501  132.5870  154.5201 C   0  0  0  0  0  0  0  0  0  0  0  0
  148.8743  132.1038  153.4557 C   0  0  0  0  0  0  0  0  0  0  0  0
  148.2214  133.3011  153.0719 O   0  0  0  0  0  0  0  0  0  0  0  0
  147.9319  134.0274  154.2592 C   0  0  0  0  0  0  0  0  0  0  0  0
  152.0812  141.1725  159.1484 C   0  0  0  0  0  0  0  0  0  0  0  0
  150.1959  144.5373  157.2443 H   0  0  0  0  0  0  0  0  0  0  0  0
  152.0220  143.4110  157.9756 H   0  0  0  0  0  0  0  0  0  0  0  0
  152.3194  145.1357  157.8381 H   0  0  0  0  0  0  0  0  0  0  0  0
  153.0898  144.8496  160.0000 H   0  0  0  0  0  0  0  0  0  0  0  0
  151.4078  145.1787  160.3805 H   0  0  0  0  0  0  0  0  0  0  0  0
  153.5549  142.7321  159.1534 H   0  0  0  0  0  0  0  0  0  0  0  0
  154.4194  142.3076  161.4654 H   0  0  0  0  0  0  0  0  0  0  0  0
  153.1345  141.1563  161.7520 H   0  0  0  0  0  0  0  0  0  0  0  0
  155.3729  140.9004  159.6862 H   0  0  0  0  0  0  0  0  0  0  0  0
  155.2131  139.9589  161.1504 H   0  0  0  0  0  0  0  0  0  0  0  0
  154.4271  138.7125  159.1208 H   0  0  0  0  0  0  0  0  0  0  0  0
  153.1468  138.8957  160.3098 H   0  0  0  0  0  0  0  0  0  0  0  0
  152.5762  138.8453  154.4155 H   0  0  0  0  0  0  0  0  0  0  0  0
  149.1490  136.6010  159.3836 H   0  0  0  0  0  0  0  0  0  0  0  0
  148.5002  135.2711  157.4066 H   0  0  0  0  0  0  0  0  0  0  0  0
  148.3116  136.3599  156.0565 H   0  0  0  0  0  0  0  0  0  0  0  0
  150.1743  135.4424  154.8763 H   0  0  0  0  0  0  0  0  0  0  0  0
  151.9493  134.1355  155.7642 H   0  0  0  0  0  0  0  0  0  0  0  0
  151.6322  135.3031  157.0296 H   0  0  0  0  0  0  0  0  0  0  0  0
  150.1986  132.9416  157.1136 H   0  0  0  0  0  0  0  0  0  0  0  0
  148.5607  133.2002  156.0981 H   0  0  0  0  0  0  0  0  0  0  0  0
  150.7344  132.9943  154.0323 H   0  0  0  0  0  0  0  0  0  0  0  0
  150.1772  131.7841  155.1805 H   0  0  0  0  0  0  0  0  0  0  0  0
  149.3716  131.6248  152.6119 H   0  0  0  0  0  0  0  0  0  0  0  0
  148.1490  131.4047  153.8752 H   0  0  0  0  0  0  0  0  0  0  0  0
  146.9676  133.6965  154.6482 H   0  0  0  0  0  0  0  0  0  0  0  0
  147.8485  135.0941  154.0523 H   0  0  0  0  0  0  0  0  0  0  0  0
  151.3600  140.7255  159.8342 H   0  0  0  0  0  0  0  0  0  0  0  0
  151.5018  141.6523  158.3604 H   0  0  0  0  0  0  0  0  0  0  0  0
  1  2  1  0  0  0  0
  1 29  1  0  0  0  0
  2  3  1  0  0  0  0
  2 30  1  0  0  0  0
  2 31  1  0  0  0  0
  3  4  1  0  0  0  0
  3 32  1  0  0  0  0
  3 33  1  0  0  0  0
  4  5  1  0  0  0  0
  5 28  1  0  0  0  0
  5  6  1  0  0  0  0
  5 34  1  0  0  0  0
  6  7  1  0  0  0  0
  6 35  1  0  0  0  0
  6 36  1  0  0  0  0
  7  8  1  0  0  0  0
  7 37  1  0  0  0  0
  7 38  1  0  0  0  0
  8  9  1  0  0  0  0
  8 39  1  0  0  0  0
  8 40  1  0  0  0  0
  9 10  1  0  0  0  0
  9 28  1  0  0  0  0
 10 15  1  0  0  0  0
 10 11  2  0  0  0  0
 11 12  1  0  0  0  0
 12 13  2  0  0  0  0
 12 41  1  0  0  0  0
 13 14  1  0  0  0  0
 14 18  1  0  0  0  0
 14 15  2  0  0  0  0
 15 16  1  0  0  0  0
 16 17  2  0  0  0  0
 17 18  1  0  0  0  0
 17 42  1  0  0  0  0
 18 19  1  0  0  0  0
 19 20  1  0  0  0  0
 19 43  1  0  0  0  0
 19 44  1  0  0  0  0
 20 21  1  0  0  0  0
 20 23  1  0  0  0  0
 20 45  1  0  0  0  0
 21 22  1  0  0  0  0
 21 46  1  0  0  0  0
 21 47  1  0  0  0  0
 22 48  1  0  0  0  0
 23 27  1  0  0  0  0
 23 24  1  0  0  0  0
 23 49  1  0  0  0  0
 24 25  1  0  0  0  0
 24 50  1  0  0  0  0
 24 51  1  0  0  0  0
 25 26  1  0  0  0  0
 25 52  1  0  0  0  0
 25 53  1  0  0  0  0
 26 27  1  0  0  0  0
 27 54  1  0  0  0  0
 27 55  1  0  0  0  0
 28 56  1  0  0  0  0
 28 57  1  0  0  0  0
M  END
> <s_m_source_file>
AV-unprocessed.smi

> <i_m_source_file_index>
258

> <i_lp_mmshare_version>
43012

> <i_f3d_flags>
0

> <s_epik_input>
W09IXVtDSDJdW0NIMl1PW0NAQEhdMVtDSDJdW0NIMl1bQ0gyXU4oW0NIMl0xKWMobltjSF1uMiljKGMyMyluW2NIXW4zW0NIMl1bQ0BIXShbQ0gyXVtPSF0pW0NAQEhdNFtDSDJdW0NIMl1PW0NIMl00

> <s_epik_cmdline>
J2VwaWtfcHl0aG9uJywgJy1waCcsICc3LjAnLCAnLXRuJywgJzgnLCAnLW1hJywgJzIwMCcsICctbWV0YWxfYmluZGluZycsICctaW1hZScsICc8aW5maWxlLm1hZT4nLCAnLW9tYWUnLCAnPG91dGZpbGUubWFlPic=

> <r_lp_tautomer_probability>
1

> <r_epik_Ionization_Penalty>
0.00349036

> <r_epik_Ionization_Penalty_Charging>
0

> <r_epik_Ionization_Penalty_Neutral>
0.00349036

> <r_epik_State_Penalty>
0.00229798

> <r_epik_Charging_Adjusted_Penalty>
0.00229798

> <i_epik_Tot_Q>
0

> <i_epik_Tot_abs_Q>
0

> <r_epik_Metal_State_Penalty>
-0

> <b_epik_Metal_Only>
0

> <s_lp_Force_Field>
OPLS_2005

> <r_lp_Energy>
48.0574

> <b_lp_Chiralities_Consistent>
1

> <s_lp_Variant>
AV-unprocessed.smi:258-4

> <Gold.Version>
5.8.1

> <Gold.Id.Protein>
6NUR|6NUR_protein|mol2

> <Gold.PLP.Fitness>
53.3849

> <Gold.PLP.PLP>
-47.7498

> <Gold.PLP.part.hbond>
-4.4856

> <Gold.PLP.part.metal>
0.0000

> <Gold.PLP.part.buried>
-8.4601

> <Gold.PLP.part.nonpolar>
-36.4212

> <Gold.PLP.part.repulsive>
0.2964

> <Gold.PLP.ligand.clash>
0.0000

> <Gold.PLP.ligand.torsion>
1.6393

> <Gold.PLP.Chemscore.Hbond>
2.7600

> <Gold.PLP.Chemscore.CHOScore>
0.0000

> <Gold.PLP.Chemscore.Metal>
0.0000

> <Gold.Chemscore.Hbonds>
donor molecule, donor type, donor heavy atom, donor atom, acceptor molecule, acceptor atom, score
      L1  H     1    29       P1  8028  0.98
      P1  H  6896  6907       L1    22  0.78
      P1  H  7997  8008       L1    11  1.00

> <Gold.PLP.Chemscore.Internal.Correction>
0.6336

> <Gold.Rescore>
     Score         DG    S(hbond)    S(metal)    S(lipo)     H(rot)  DE(clash)    DE(int)     intcor
     13.26     -14.87       2.36        0.00     105.29       4.22       0.08       1.53       ----

> <Gold.Chemscore.Fitness>
13.2609

> <Gold.Chemscore.DG>
-14.8689

> <Gold.Chemscore.ZeroCoef>
-5.4800

> <Gold.Chemscore.Hbond>
2.3606

> <Gold.Chemscore.Metal>
0.0000

> <Gold.Chemscore.Lipo>
105.2934

> <Gold.Chemscore.Internal_Hbond>
0.0000

> <Gold.Chemscore.DEClash>
0.0787

> <Gold.Chemscore.DEInternal>
1.5293

> <Gold.Chemscore.Rot>
4.2246

> <Gold.Chemscore.Internal.Correction>
   9.000000E+99

> <Gold.Chemscore.Hbonds>
donor molecule, donor type, donor heavy atom, donor atom, acceptor molecule, acceptor atom, score
      L1  H     1    29       P1  8028  0.44
      P1  H  6896  6907       L1    22  0.66
      P1  H  7997  8008       L1    11  0.70

> <Gold.Chemscore.Hbond.Weighted>
-7.8844

> <Gold.Chemscore.Metal.Weighted>
-0.0000

> <Gold.Chemscore.Lipo.Weighted>
-12.3193

> <Gold.Chemscore.Internal_Hbond.Weighted>
0.0000

> <Gold.Chemscore.DEClash.Weighted>
0.0787

> <Gold.Chemscore.DEInternal.Weighted>
1.5293

> <Gold.Chemscore.Rot.Weighted>
10.8149

> <Gold.Chemscore.Internal.Correction.Weighted>
   9.000000E+99

> <Gold.Protein.RotatedTorsions>
[ 6907 6896 6895 6894 ] final -142.61 input  -60.11 | X-H torsion
[ 7974 7965 7964 7962 ] final   99.48 input  175.53 | X-H torsion
[ 8008 7997 7996 7995 ] final  -41.34 input   59.86 | X-H torsion
[ 10167 10162 10161 10158 ] final  -30.38 input  -65.29 | X-H torsion
[ 10718 10713 10712 10709 ] final -169.38 input   66.30 | X-H torsion
[ 10763 10752 10751 10750 ] final   78.66 input  -60.55 | X-H torsion
[ 11005 11000 10999 10996 ] final  -34.63 input  -57.11 | X-H torsion

> <Gold.Protein.ActiveResidues>
 VAL166  LYS551  ARG553  GLY616  TRP617  ASP618  TYR619  PRO620  LYS621  CYS622 
 ASP623  PHE694  ASN695  SER759  ASP760  ASP761  ALA762  ILE779  LEU786  VAL792 
 PHE793  MET794  SER795  GLU796  ALA797  LYS798  CYS799  TRP800  GLU811  SER814 

> <Gold.Protein.RotatedAtoms>
  151.0893  133.5328  159.2615 H   0  0  0  0  0  0  0  0  0  0  0  0  # atno 6907 bound_to 6896
  151.2201  135.0514  159.8956 H   0  0  0  0  0  0  0  0  0  0  0  0  # atno 6908 bound_to 6896
  152.5432  134.0697  159.8242 H   0  0  0  0  0  0  0  0  0  0  0  0  # atno 6909 bound_to 6896
  145.3982  139.2352  143.3314 H   0  0  0  0  0  0  0  0  0  0  0  0  # atno 7974 bound_to 7965
  154.4005  140.1502  156.3174 H   0  0  0  0  0  0  0  0  0  0  0  0  # atno 8008 bound_to 7997
  155.8560  140.3455  155.5703 H   0  0  0  0  0  0  0  0  0  0  0  0  # atno 8009 bound_to 7997
  155.7932  140.0859  157.1988 H   0  0  0  0  0  0  0  0  0  0  0  0  # atno 8010 bound_to 7997
  140.7250  143.3853  151.1526 H   0  0  0  0  0  0  0  0  0  0  0  0  # atno 10167 bound_to 10162
  156.7107  130.9232  151.3089 H   0  0  0  0  0  0  0  0  0  0  0  0  # atno 10718 bound_to 10713
  153.0891  135.4869  154.8655 H   0  0  0  0  0  0  0  0  0  0  0  0  # atno 10763 bound_to 10752
  154.7247  135.3047  154.8992 H   0  0  0  0  0  0  0  0  0  0  0  0  # atno 10764 bound_to 10752
  153.9646  135.6808  153.4799 H   0  0  0  0  0  0  0  0  0  0  0  0  # atno 10765 bound_to 10752
  140.9731  133.7098  156.1557 H   0  0  0  0  0  0  0  0  0  0  0  0  # atno 11005 bound_to 11000
  146.2764  140.4676  142.8793 LP  0  0  0  0  0  0  0  0  0  0  0  0  # atno 17320 bound_to 7965
  144.8392  140.6830  143.6240 LP  0  0  0  0  0  0  0  0  0  0  0  0  # atno 17321 bound_to 7965
  139.7449  143.8867  152.3061 LP  0  0  0  0  0  0  0  0  0  0  0  0  # atno 17342 bound_to 10162
  139.8701  144.7073  150.8998 LP  0  0  0  0  0  0  0  0  0  0  0  0  # atno 17343 bound_to 10162
  157.6937  130.9260  150.0585 LP  0  0  0  0  0  0  0  0  0  0  0  0  # atno 17370 bound_to 10713
  156.1663  130.3645  149.9227 LP  0  0  0  0  0  0  0  0  0  0  0  0  # atno 17371 bound_to 10713
  140.7299  134.4266  157.5567 LP  0  0  0  0  0  0  0  0  0  0  0  0  # atno 17394 bound_to 11000
  139.8920  134.8766  156.2292 LP  0  0  0  0  0  0  0  0  0  0  0  0  # atno 17395 bound_to 11000

$$$$
