AV-unprocessed.smi:1830|AV-procd|sdf|7445|dock4
  -GOLD-   22720 9133D 1   1.00000     0.00000
 Structure written by MMmdl.
 54 57  0  0  0  0  0  0  0  0  3 V2000
  150.8569  134.8651  155.8366 O   0  0  0  0  0  0  0  0  0  0  0  0
  150.2134  135.2587  154.8641 C   0  0  0  0  0  0  0  0  0  0  0  0
  150.2487  136.5219  154.4172 N   0  0  0  0  0  0  0  0  0  0  0  0
  151.0355  137.5954  155.0156 C   0  0  0  0  0  0  0  0  0  0  0  0
  150.8374  138.9371  154.2747 C   0  0  1  0  0  0  0  0  0  0  0  0
  149.3932  139.4835  154.3900 C   0  0  0  0  0  0  0  0  0  0  0  0
  149.1943  140.0470  155.7384 N   0  3  2  0  0  0  0  0  0  0  0  0
  147.8780  140.6236  156.0629 C   0  0  0  0  0  0  0  0  0  0  0  0
  148.1542  141.6249  157.2021 C   0  0  0  0  0  0  0  0  0  0  0  0
  149.6853  141.6760  157.3513 C   0  0  0  0  0  0  0  0  0  0  0  0
  150.1803  141.0886  156.0333 C   0  0  1  0  0  0  0  0  0  0  0  0
  151.5836  140.4726  156.0019 C   0  0  0  0  0  0  0  0  0  0  0  0
  151.7942  139.9212  154.6988 O   0  0  0  0  0  0  0  0  0  0  0  0
  149.4082  134.4937  154.1085 N   0  0  0  0  0  0  0  0  0  0  0  0
  149.1469  133.1003  154.2442 C   0  0  0  0  0  0  0  0  0  0  0  0
  150.0167  132.2416  154.9642 C   0  0  0  0  0  0  0  0  0  0  0  0
  149.6956  130.8780  155.1054 C   0  0  0  0  0  0  0  0  0  0  0  0
  148.5050  130.3949  154.5344 C   0  0  0  0  0  0  0  0  0  0  0  0
  147.6911  131.2404  153.8687 N   0  3  0  0  0  0  0  0  0  0  0  0
  147.9477  132.5615  153.7020 C   0  0  0  0  0  0  0  0  0  0  0  0
  147.0348  133.3464  152.9654 N   0  0  0  0  0  0  0  0  0  0  0  0
  147.0150  133.0548  151.5341 C   0  0  0  0  0  0  0  0  0  0  0  0
  145.5605  133.1991  151.0812 C   0  0  0  0  0  0  0  0  0  0  0  0
  144.7719  132.8998  152.3501 C   0  0  0  0  0  0  0  0  0  0  0  0
  145.6597  133.4998  153.4386 C   0  0  0  0  0  0  0  0  0  0  0  0
  149.6913  136.7601  153.6097 H   0  0  0  0  0  0  0  0  0  0  0  0
  150.7618  137.7051  156.0665 H   0  0  0  0  0  0  0  0  0  0  0  0
  152.0828  137.2951  155.0117 H   0  0  0  0  0  0  0  0  0  0  0  0
  151.0293  138.7589  153.2162 H   0  0  0  0  0  0  0  0  0  0  0  0
  149.2282  140.2627  153.6444 H   0  0  0  0  0  0  0  0  0  0  0  0
  148.6615  138.6977  154.1990 H   0  0  0  0  0  0  0  0  0  0  0  0
  147.4740  141.1459  155.1941 H   0  0  0  0  0  0  0  0  0  0  0  0
  147.1709  139.8453  156.3513 H   0  0  0  0  0  0  0  0  0  0  0  0
  147.7564  142.6068  156.9428 H   0  0  0  0  0  0  0  0  0  0  0  0
  147.6822  141.3157  158.1354 H   0  0  0  0  0  0  0  0  0  0  0  0
  150.0605  142.6839  157.5319 H   0  0  0  0  0  0  0  0  0  0  0  0
  149.9968  141.0460  158.1857 H   0  0  0  0  0  0  0  0  0  0  0  0
  150.1128  141.8623  155.2652 H   0  0  0  0  0  0  0  0  0  0  0  0
  152.3384  141.2365  156.1893 H   0  0  0  0  0  0  0  0  0  0  0  0
  151.7040  139.7103  156.7718 H   0  0  0  0  0  0  0  0  0  0  0  0
  149.0167  134.9322  153.2878 H   0  0  0  0  0  0  0  0  0  0  0  0
  150.9196  132.6108  155.4265 H   0  0  0  0  0  0  0  0  0  0  0  0
  150.3515  130.2143  155.6497 H   0  0  0  0  0  0  0  0  0  0  0  0
  148.1780  129.3668  154.5929 H   0  0  0  0  0  0  0  0  0  0  0  0
  147.6683  133.7320  150.9836 H   0  0  0  0  0  0  0  0  0  0  0  0
  147.3609  132.0355  151.3539 H   0  0  0  0  0  0  0  0  0  0  0  0
  145.3709  134.2256  150.7644 H   0  0  0  0  0  0  0  0  0  0  0  0
  145.3063  132.5376  150.2526 H   0  0  0  0  0  0  0  0  0  0  0  0
  143.7669  133.3224  152.3398 H   0  0  0  0  0  0  0  0  0  0  0  0
  144.6869  131.8212  152.4899 H   0  0  0  0  0  0  0  0  0  0  0  0
  145.4588  133.0558  154.4133 H   0  0  0  0  0  0  0  0  0  0  0  0
  145.4601  134.5679  153.5322 H   0  0  0  0  0  0  0  0  0  0  0  0
  149.3529  139.3046  156.4044 H   0  0  0  0  0  0  0  0  0  0  0  0
  146.8344  130.8616  153.4646 H   0  0  0  0  0  0  0  0  0  0  0  0
  1  2  2  0  0  0  0
  2  3  1  0  0  0  0
  2 14  1  0  0  0  0
  3  4  1  0  0  0  0
  3 26  1  0  0  0  0
  4  5  1  0  0  0  0
  4 27  1  0  0  0  0
  4 28  1  0  0  0  0
  5 13  1  0  0  0  0
  5  6  1  0  0  0  0
  5 29  1  0  0  0  0
  6  7  1  0  0  0  0
  6 30  1  0  0  0  0
  6 31  1  0  0  0  0
  7 11  1  0  0  0  0
  7  8  1  0  0  0  0
  7 53  1  0  0  0  0
  8  9  1  0  0  0  0
  8 32  1  0  0  0  0
  8 33  1  0  0  0  0
  9 10  1  0  0  0  0
  9 34  1  0  0  0  0
  9 35  1  0  0  0  0
 10 11  1  0  0  0  0
 10 36  1  0  0  0  0
 10 37  1  0  0  0  0
 11 12  1  0  0  0  0
 11 38  1  0  0  0  0
 12 13  1  0  0  0  0
 12 39  1  0  0  0  0
 12 40  1  0  0  0  0
 14 15  1  0  0  0  0
 14 41  1  0  0  0  0
 15 20  1  0  0  0  0
 15 16  2  0  0  0  0
 16 17  1  0  0  0  0
 16 42  1  0  0  0  0
 17 18  2  0  0  0  0
 17 43  1  0  0  0  0
 18 19  1  0  0  0  0
 18 44  1  0  0  0  0
 19 20  2  0  0  0  0
 19 54  1  0  0  0  0
 20 21  1  0  0  0  0
 21 25  1  0  0  0  0
 21 22  1  0  0  0  0
 22 23  1  0  0  0  0
 22 45  1  0  0  0  0
 22 46  1  0  0  0  0
 23 24  1  0  0  0  0
 23 47  1  0  0  0  0
 23 48  1  0  0  0  0
 24 25  1  0  0  0  0
 24 49  1  0  0  0  0
 24 50  1  0  0  0  0
 25 51  1  0  0  0  0
 25 52  1  0  0  0  0
M  CHG  1   7   1
M  CHG  1  19   1
M  END
> <s_m_source_file>
AV-unprocessed.smi

> <i_m_source_file_index>
1830

> <i_lp_mmshare_version>
43012

> <i_f3d_flags>
0

> <s_epik_input>
W0NIMl0xW0NIMl1bQ0gyXVtDQEhdKE4xMilbQ0gyXU9bQ0BASF0oW0NIMl0yKVtDSDJdW05IXUMoPU8pW05IXWMzW2NIXVtjSF1bY0hdbmMzTjRbQ0gyXVtDSDJdW0NIMl1bQ0gyXTQ=

> <s_epik_cmdline>
J2VwaWtfcHl0aG9uJywgJy1waCcsICc3LjAnLCAnLXRuJywgJzgnLCAnLW1hJywgJzIwMCcsICctbWV0YWxfYmluZGluZycsICctaW1hZScsICc8aW5maWxlLm1hZT4nLCAnLW9tYWUnLCAnPG91dGZpbGUubWFlPic=

> <r_lp_tautomer_probability>
0.999994

> <r_epik_Ionization_Penalty>
1.29113

> <r_epik_Ionization_Penalty_Charging>
1.29111

> <r_epik_Ionization_Penalty_Neutral>
1.88144e-05

> <r_epik_State_Penalty>
1.32676

> <r_epik_Charging_Adjusted_Penalty>
2.61787

> <i_epik_Tot_Q>
2

> <i_epik_Tot_abs_Q>
2

> <r_epik_Metal_State_Penalty>
1.40425

> <b_epik_Metal_Only>
0

> <s_lp_Force_Field>
OPLS_2005

> <r_lp_Energy>
76.3722

> <b_lp_Chiralities_Consistent>
1

> <s_lp_Variant>
AV-unprocessed.smi:1830-14

> <Gold.Version>
5.8.1

> <Gold.Id.Protein>
6NUR|6NUR_protein|mol2

> <Gold.PLP.Fitness>
46.9686

> <Gold.PLP.PLP>
-39.3441

> <Gold.PLP.part.hbond>
-3.9216

> <Gold.PLP.part.metal>
0.0000

> <Gold.PLP.part.buried>
-4.4740

> <Gold.PLP.part.nonpolar>
-31.6751

> <Gold.PLP.part.repulsive>
0.3655

> <Gold.PLP.ligand.clash>
0.0000

> <Gold.PLP.ligand.torsion>
0.2457

> <Gold.PLP.Chemscore.Hbond>
2.6532

> <Gold.PLP.Chemscore.CHOScore>
0.0000

> <Gold.PLP.Chemscore.Metal>
0.0000

> <Gold.Chemscore.Hbonds>
donor molecule, donor type, donor heavy atom, donor atom, acceptor molecule, acceptor atom, score
      L1  H     3    26       P1  7948  0.96
      L1  H    14    41       P1  7948  0.90
      P1  H  7989  7998       L1    13  0.89

> <Gold.PLP.Chemscore.Internal.Correction>
0.1562

> <Gold.Rescore>
     Score         DG    S(hbond)    S(metal)    S(lipo)     H(rot)  DE(clash)    DE(int)     intcor
     14.06     -15.60       1.25        0.00      82.03       1.43       0.04       1.50       ----

> <Gold.Chemscore.Fitness>
14.0640

> <Gold.Chemscore.DG>
-15.5991

> <Gold.Chemscore.ZeroCoef>
-5.4800

> <Gold.Chemscore.Hbond>
1.2504

> <Gold.Chemscore.Metal>
0.0000

> <Gold.Chemscore.Lipo>
82.0330

> <Gold.Chemscore.Internal_Hbond>
0.0000

> <Gold.Chemscore.DEClash>
0.0386

> <Gold.Chemscore.DEInternal>
1.4964

> <Gold.Chemscore.Rot>
1.4278

> <Gold.Chemscore.Internal.Correction>
   9.000000E+99

> <Gold.Chemscore.Hbonds>
donor molecule, donor type, donor heavy atom, donor atom, acceptor molecule, acceptor atom, score
      L1  H     3    26       P1  7948  0.55
      L1  H    14    41       P1  7948  0.18
      P1  H  7989  7998       L1    13  0.15

> <Gold.Chemscore.Hbond.Weighted>
-4.1763

> <Gold.Chemscore.Metal.Weighted>
-0.0000

> <Gold.Chemscore.Lipo.Weighted>
-9.5979

> <Gold.Chemscore.Internal_Hbond.Weighted>
0.0000

> <Gold.Chemscore.DEClash.Weighted>
0.0386

> <Gold.Chemscore.DEInternal.Weighted>
1.4964

> <Gold.Chemscore.Rot.Weighted>
3.6551

> <Gold.Chemscore.Internal.Correction.Weighted>
   9.000000E+99

> <Gold.Protein.RotatedTorsions>
[ 6907 6896 6895 6894 ] final   -8.85 input  -60.11 | X-H torsion
[ 7974 7965 7964 7962 ] final   10.52 input  175.53 | X-H torsion
[ 8008 7997 7996 7995 ] final -105.42 input   59.86 | X-H torsion
[ 10167 10162 10161 10158 ] final -127.15 input  -65.29 | X-H torsion
[ 10718 10713 10712 10709 ] final -102.81 input   66.30 | X-H torsion
[ 10763 10752 10751 10750 ] final   24.52 input  -60.55 | X-H torsion
[ 11005 11000 10999 10996 ] final   69.73 input  -57.11 | X-H torsion

> <Gold.Protein.ActiveResidues>
 VAL166  LYS551  ARG553  GLY616  TRP617  ASP618  TYR619  PRO620  LYS621  CYS622 
 ASP623  PHE694  ASN695  SER759  ASP760  ASP761  ALA762  ILE779  LEU786  VAL792 
 PHE793  MET794  SER795  GLU796  ALA797  LYS798  CYS799  TRP800  GLU811  SER814 

> <Gold.Protein.RotatedAtoms>
  151.4271  135.1005  159.9631 H   0  0  0  0  0  0  0  0  0  0  0  0  # atno 6907 bound_to 6896
  152.4969  133.8652  159.7281 H   0  0  0  0  0  0  0  0  0  0  0  0  # atno 6908 bound_to 6896
  150.9181  133.6856  159.2866 H   0  0  0  0  0  0  0  0  0  0  0  0  # atno 6909 bound_to 6896
  146.2387  139.9622  142.8457 H   0  0  0  0  0  0  0  0  0  0  0  0  # atno 7974 bound_to 7965
  154.8996  140.0413  157.1885 H   0  0  0  0  0  0  0  0  0  0  0  0  # atno 8008 bound_to 7997
  154.8458  140.2921  155.5609 H   0  0  0  0  0  0  0  0  0  0  0  0  # atno 8009 bound_to 7997
  156.2994  140.2474  156.3408 H   0  0  0  0  0  0  0  0  0  0  0  0  # atno 8010 bound_to 7997
  139.9639  143.5919  152.2436 H   0  0  0  0  0  0  0  0  0  0  0  0  # atno 10167 bound_to 10162
  156.0242  130.5438  150.7163 H   0  0  0  0  0  0  0  0  0  0  0  0  # atno 10718 bound_to 10713
  153.0758  135.6603  154.0149 H   0  0  0  0  0  0  0  0  0  0  0  0  # atno 10763 bound_to 10752
  153.9783  135.2957  155.3423 H   0  0  0  0  0  0  0  0  0  0  0  0  # atno 10764 bound_to 10752
  154.7146  135.5191  153.8788 H   0  0  0  0  0  0  0  0  0  0  0  0  # atno 10765 bound_to 10752
  139.9637  134.7017  156.0591 H   0  0  0  0  0  0  0  0  0  0  0  0  # atno 11005 bound_to 11000
  145.1760  140.9744  143.4294 LP  0  0  0  0  0  0  0  0  0  0  0  0  # atno 17320 bound_to 7965
  144.9985  139.3620  143.6179 LP  0  0  0  0  0  0  0  0  0  0  0  0  # atno 17321 bound_to 7965
  139.6533  144.7661  151.2106 LP  0  0  0  0  0  0  0  0  0  0  0  0  # atno 17342 bound_to 10162
  140.7544  143.6126  150.8590 LP  0  0  0  0  0  0  0  0  0  0  0  0  # atno 17343 bound_to 10162
  157.4789  131.0900  151.0558 LP  0  0  0  0  0  0  0  0  0  0  0  0  # atno 17370 bound_to 10713
  157.0997  130.5977  149.5457 LP  0  0  0  0  0  0  0  0  0  0  0  0  # atno 17371 bound_to 10713
  141.1316  133.6585  156.3479 LP  0  0  0  0  0  0  0  0  0  0  0  0  # atno 17394 bound_to 11000
  140.5443  134.6089  157.5389 LP  0  0  0  0  0  0  0  0  0  0  0  0  # atno 17395 bound_to 11000

$$$$
