AV-unprocessed.smi:1254|AV-procd|sdf|5275|dock10
  -GOLD-   22720 4393D 1   1.00000     0.00000
 Structure written by MMmdl.
 45 46  0  0  0  0  0  0  0  0  3 V2000
  145.9116  134.6924  162.7517 C   0  0  0  0  0  0  0  0  0  0  0  0
  146.8938  135.3343  161.8326 C   0  0  0  0  0  0  0  0  0  0  0  0
  147.7585  134.8332  160.9014 C   0  0  0  0  0  0  0  0  0  0  0  0
  148.3983  135.9966  160.3930 C   0  0  0  0  0  0  0  0  0  0  0  0
  149.3347  136.0249  159.4321 N   0  5  0  0  0  0  0  0  0  0  0  0
  149.1660  136.8020  158.3384 C   0  0  0  0  0  0  0  0  0  0  0  0
  149.6177  137.9374  158.1698 O   0  0  0  0  0  0  0  0  0  0  0  0
  148.4347  136.2246  157.3748 N   0  0  0  0  0  0  0  0  0  0  0  0
  148.1162  136.8130  156.0785 C   0  0  0  0  0  0  0  0  0  0  0  0
  148.5331  135.8918  154.9185 C   0  0  2  0  0  0  0  0  0  0  0  0
  147.3637  135.0204  154.4230 C   0  0  0  0  0  0  0  0  0  0  0  0
  147.8181  134.1158  153.3379 N   0  3  2  0  0  0  0  0  0  0  0  0
  146.7352  133.2766  152.7633 C   0  0  0  0  0  0  0  0  0  0  0  0
  145.5350  134.0973  152.2423 C   0  0  0  0  0  0  0  0  0  0  0  0
  144.3789  133.1671  151.8459 C   0  0  0  0  0  0  0  0  0  0  0  0
  145.9244  135.0017  151.0609 C   0  0  0  0  0  0  0  0  0  0  0  0
  148.9765  133.3091  153.7902 C   0  0  0  0  0  0  0  0  0  0  0  0
  150.0922  134.2207  154.3270 C   0  0  0  0  0  0  0  0  0  0  0  0
  149.5760  135.0344  155.3718 O   0  0  0  0  0  0  0  0  0  0  0  0
  147.9495  137.1069  160.9545 N   0  0  0  0  0  0  0  0  0  0  0  0
  146.9883  136.6902  161.8832 O   0  0  0  0  0  0  0  0  0  0  0  0
  144.9675  134.5101  162.2383 H   0  0  0  0  0  0  0  0  0  0  0  0
  145.7107  135.3267  163.6153 H   0  0  0  0  0  0  0  0  0  0  0  0
  146.2895  133.7369  163.1160 H   0  0  0  0  0  0  0  0  0  0  0  0
  147.9120  133.8001  160.6285 H   0  0  0  0  0  0  0  0  0  0  0  0
  148.0818  135.2959  157.5549 H   0  0  0  0  0  0  0  0  0  0  0  0
  147.0435  137.0035  156.0410 H   0  0  0  0  0  0  0  0  0  0  0  0
  148.6067  137.7838  155.9905 H   0  0  0  0  0  0  0  0  0  0  0  0
  148.8983  136.4996  154.0885 H   0  0  0  0  0  0  0  0  0  0  0  0
  146.9560  134.4314  155.2462 H   0  0  0  0  0  0  0  0  0  0  0  0
  146.5642  135.6684  154.0666 H   0  0  0  0  0  0  0  0  0  0  0  0
  147.1363  132.6940  151.9322 H   0  0  0  0  0  0  0  0  0  0  0  0
  146.4092  132.5526  153.5117 H   0  0  0  0  0  0  0  0  0  0  0  0
  145.1609  134.7341  153.0433 H   0  0  0  0  0  0  0  0  0  0  0  0
  144.6685  132.4960  151.0366 H   0  0  0  0  0  0  0  0  0  0  0  0
  143.5121  133.7375  151.5103 H   0  0  0  0  0  0  0  0  0  0  0  0
  144.0598  132.5534  152.6890 H   0  0  0  0  0  0  0  0  0  0  0  0
  146.3076  134.4180  150.2233 H   0  0  0  0  0  0  0  0  0  0  0  0
  146.6922  135.7222  151.3443 H   0  0  0  0  0  0  0  0  0  0  0  0
  145.0655  135.5703  150.7030 H   0  0  0  0  0  0  0  0  0  0  0  0
  148.6562  132.6139  154.5679 H   0  0  0  0  0  0  0  0  0  0  0  0
  149.3599  132.7113  152.9626 H   0  0  0  0  0  0  0  0  0  0  0  0
  150.9122  133.6197  154.7201 H   0  0  0  0  0  0  0  0  0  0  0  0
  150.5061  134.8435  153.5324 H   0  0  0  0  0  0  0  0  0  0  0  0
  148.1576  134.7020  152.5885 H   0  0  0  0  0  0  0  0  0  0  0  0
  1  2  1  0  0  0  0
  1 22  1  0  0  0  0
  1 23  1  0  0  0  0
  1 24  1  0  0  0  0
  2 21  1  0  0  0  0
  2  3  2  0  0  0  0
  3  4  1  0  0  0  0
  3 25  1  0  0  0  0
  4  5  1  0  0  0  0
  4 20  2  0  0  0  0
  5  6  1  0  0  0  0
  6  7  2  0  0  0  0
  6  8  1  0  0  0  0
  8  9  1  0  0  0  0
  8 26  1  0  0  0  0
  9 10  1  0  0  0  0
  9 27  1  0  0  0  0
  9 28  1  0  0  0  0
 10 19  1  0  0  0  0
 10 11  1  0  0  0  0
 10 29  1  0  0  0  0
 11 12  1  0  0  0  0
 11 30  1  0  0  0  0
 11 31  1  0  0  0  0
 12 13  1  0  0  0  0
 12 17  1  0  0  0  0
 12 45  1  0  0  0  0
 13 14  1  0  0  0  0
 13 32  1  0  0  0  0
 13 33  1  0  0  0  0
 14 15  1  0  0  0  0
 14 16  1  0  0  0  0
 14 34  1  0  0  0  0
 15 35  1  0  0  0  0
 15 36  1  0  0  0  0
 15 37  1  0  0  0  0
 16 38  1  0  0  0  0
 16 39  1  0  0  0  0
 16 40  1  0  0  0  0
 17 18  1  0  0  0  0
 17 41  1  0  0  0  0
 17 42  1  0  0  0  0
 18 19  1  0  0  0  0
 18 43  1  0  0  0  0
 18 44  1  0  0  0  0
 20 21  1  0  0  0  0
M  CHG  1   5  -1
M  CHG  1  12   1
M  END
> <s_m_source_file>
AV-unprocessed.smi

> <i_m_source_file_index>
1254

> <i_lp_mmshare_version>
43012

> <i_f3d_flags>
0

> <s_epik_input>
W0NIM11jMVtjSF1jKG5vMSlbTkhdQyg9TylbTkhdW0NIMl1bQ0BASF0yW0NIMl1OKFtDSDJdW0NIMl1PMilbQ0gyXVtDSF0oW0NIM10pW0NIM10=

> <s_epik_cmdline>
J2VwaWtfcHl0aG9uJywgJy1waCcsICc3LjAnLCAnLXRuJywgJzgnLCAnLW1hJywgJzIwMCcsICctbWV0YWxfYmluZGluZycsICctaW1hZScsICc8aW5maWxlLm1hZT4nLCAnLW9tYWUnLCAnPG91dGZpbGUubWFlPic=

> <r_epik_Ionization_Penalty>
6.33139

> <r_epik_Ionization_Penalty_Charging>
6.33128

> <r_epik_Ionization_Penalty_Neutral>
0.000104968

> <r_epik_State_Penalty>
6.32522

> <r_epik_Charging_Adjusted_Penalty>
12.6565

> <i_epik_Tot_Q>
0

> <i_epik_Tot_abs_Q>
2

> <r_epik_Metal_State_Penalty>
2.26285

> <b_epik_Metal_Only>
1

> <s_lp_Force_Field>
OPLS_2005

> <r_lp_Energy>
5.65212

> <b_lp_Chiralities_Consistent>
1

> <s_lp_Variant>
AV-unprocessed.smi:1254-7

> <Gold.Version>
5.8.1

> <Gold.Id.Protein>
6NUR|6NUR_protein|mol2

> <Gold.PLP.Fitness>
43.4528

> <Gold.PLP.PLP>
-29.3211

> <Gold.PLP.part.hbond>
-4.0000

> <Gold.PLP.part.metal>
0.0000

> <Gold.PLP.part.buried>
-4.3884

> <Gold.PLP.part.nonpolar>
-20.3708

> <Gold.PLP.part.repulsive>
0.1175

> <Gold.PLP.ligand.clash>
0.0000

> <Gold.PLP.ligand.torsion>
1.7545

> <Gold.PLP.Chemscore.Hbond>
5.8400

> <Gold.PLP.Chemscore.CHOScore>
0.0000

> <Gold.PLP.Chemscore.Metal>
0.0000

> <Gold.Chemscore.Hbonds>
donor molecule, donor type, donor heavy atom, donor atom, acceptor molecule, acceptor atom, score
      L1  H    12    45       P1  7948  2.00
      P1  H  6896  6909       L1     5  2.00
      P1  H  6931  6943       L1    20  0.96
      P1  H  6934  6947       L1    20  0.44

> <Gold.PLP.Chemscore.Internal.Correction>
0.1207

> <Gold.Rescore>
     Score         DG    S(hbond)    S(metal)    S(lipo)     H(rot)  DE(clash)    DE(int)     intcor
     15.34     -17.39       2.88        0.00      56.68       1.69       0.00       2.05       ----

> <Gold.Chemscore.Fitness>
15.3426

> <Gold.Chemscore.DG>
-17.3947

> <Gold.Chemscore.ZeroCoef>
-5.4800

> <Gold.Chemscore.Hbond>
2.8789

> <Gold.Chemscore.Metal>
0.0000

> <Gold.Chemscore.Lipo>
56.6841

> <Gold.Chemscore.Internal_Hbond>
0.0000

> <Gold.Chemscore.DEClash>
0.0029

> <Gold.Chemscore.DEInternal>
2.0491

> <Gold.Chemscore.Rot>
1.6926

> <Gold.Chemscore.Internal.Correction>
   9.000000E+99

> <Gold.Chemscore.Hbonds>
donor molecule, donor type, donor heavy atom, donor atom, acceptor molecule, acceptor atom, score
      L1  H    12    45       P1  7948  0.49
      P1  H  6896  6909       L1     5  0.90
      P1  H  6931  6943       L1    20  0.46
      P1  H  6934  6947       L1    20  0.03

> <Gold.Chemscore.Hbond.Weighted>
-9.6157

> <Gold.Chemscore.Metal.Weighted>
-0.0000

> <Gold.Chemscore.Lipo.Weighted>
-6.6320

> <Gold.Chemscore.Internal_Hbond.Weighted>
0.0000

> <Gold.Chemscore.DEClash.Weighted>
0.0029

> <Gold.Chemscore.DEInternal.Weighted>
2.0491

> <Gold.Chemscore.Rot.Weighted>
4.3330

> <Gold.Chemscore.Internal.Correction.Weighted>
   9.000000E+99

> <Gold.Protein.RotatedTorsions>
[ 6907 6896 6895 6894 ] final   65.24 input  -60.11 | X-H torsion
[ 7974 7965 7964 7962 ] final  -97.88 input  175.53 | X-H torsion
[ 8008 7997 7996 7995 ] final -170.06 input   59.86 | X-H torsion
[ 10167 10162 10161 10158 ] final   39.86 input  -65.29 | X-H torsion
[ 10718 10713 10712 10709 ] final  124.23 input   66.30 | X-H torsion
[ 10763 10752 10751 10750 ] final -118.40 input  -60.55 | X-H torsion
[ 11005 11000 10999 10996 ] final   84.68 input  -57.11 | X-H torsion

> <Gold.Protein.ActiveResidues>
 VAL166  LYS551  ARG553  GLY616  TRP617  ASP618  TYR619  PRO620  LYS621  CYS622 
 ASP623  PHE694  ASN695  SER759  ASP760  ASP761  ALA762  ILE779  LEU786  VAL792 
 PHE793  MET794  SER795  GLU796  ALA797  LYS798  CYS799  TRP800  GLU811  SER814 

> <Gold.Protein.RotatedAtoms>
  152.4392  134.5624  159.9897 H   0  0  0  0  0  0  0  0  0  0  0  0  # atno 6907 bound_to 6896
  151.5726  133.3382  159.3000 H   0  0  0  0  0  0  0  0  0  0  0  0  # atno 6908 bound_to 6896
  150.8296  134.7576  159.6906 H   0  0  0  0  0  0  0  0  0  0  0  0  # atno 6909 bound_to 6896
  145.3280  140.9435  143.2678 H   0  0  0  0  0  0  0  0  0  0  0  0  # atno 7974 bound_to 7965
  155.9132  140.1061  157.1263 H   0  0  0  0  0  0  0  0  0  0  0  0  # atno 8008 bound_to 7997
  154.4042  140.1270  156.4649 H   0  0  0  0  0  0  0  0  0  0  0  0  # atno 8009 bound_to 7997
  155.7285  140.3469  155.5050 H   0  0  0  0  0  0  0  0  0  0  0  0  # atno 8010 bound_to 7997
  140.3798  144.1994  150.6131 H   0  0  0  0  0  0  0  0  0  0  0  0  # atno 10167 bound_to 10162
  157.5602  131.1090  150.8552 H   0  0  0  0  0  0  0  0  0  0  0  0  # atno 10718 bound_to 10713
  154.8586  135.4275  154.2133 H   0  0  0  0  0  0  0  0  0  0  0  0  # atno 10763 bound_to 10752
  153.3154  135.6978  153.7084 H   0  0  0  0  0  0  0  0  0  0  0  0  # atno 10764 bound_to 10752
  153.6159  135.3510  155.2968 H   0  0  0  0  0  0  0  0  0  0  0  0  # atno 10765 bound_to 10752
  139.8993  134.8233  156.2478 H   0  0  0  0  0  0  0  0  0  0  0  0  # atno 11005 bound_to 11000
  144.8887  139.4804  143.6688 LP  0  0  0  0  0  0  0  0  0  0  0  0  # atno 17320 bound_to 7965
  146.3057  139.7571  142.9058 LP  0  0  0  0  0  0  0  0  0  0  0  0  # atno 17321 bound_to 7965
  140.4949  143.2336  151.8765 LP  0  0  0  0  0  0  0  0  0  0  0  0  # atno 17342 bound_to 10162
  139.4796  144.5125  151.8913 LP  0  0  0  0  0  0  0  0  0  0  0  0  # atno 17343 bound_to 10162
  156.9052  130.5261  149.5281 LP  0  0  0  0  0  0  0  0  0  0  0  0  # atno 17370 bound_to 10713
  156.0655  130.5699  150.9280 LP  0  0  0  0  0  0  0  0  0  0  0  0  # atno 17371 bound_to 10713
  141.0243  133.7023  156.1322 LP  0  0  0  0  0  0  0  0  0  0  0  0  # atno 17394 bound_to 11000
  140.7188  134.4381  157.5576 LP  0  0  0  0  0  0  0  0  0  0  0  0  # atno 17395 bound_to 11000

$$$$
