AV-unprocessed.smi:3318|AV-procd|sdf|12764|dock9
  -GOLD-   2272019103D 1   1.00000     0.00000
 Structure written by MMmdl.
 44 45  0  0  0  0  0  0  0  0  2 V2000
  152.8968  143.2570  162.1772 C   0  0  0  0  0  0  0  0  0  0  0  0
  153.5843  142.0184  161.5875 C   0  0  0  0  0  0  0  0  0  0  0  0
  153.7477  142.0846  160.0563 C   0  0  0  0  0  0  0  0  0  0  0  0
  152.4686  142.0831  159.3443 N   0  0  0  0  0  0  0  0  0  0  0  0
  152.4521  140.9594  158.4051 C   0  0  0  0  0  0  0  0  0  0  0  0
  151.0813  140.8621  157.7139 C   0  0  0  0  0  0  0  0  0  0  0  0
  150.7540  142.1542  156.9517 C   0  0  0  0  0  0  0  0  0  0  0  0
  149.3963  142.0708  156.3695 N   0  3  0  0  0  0  0  0  0  0  0  0
  149.2095  141.0156  155.3520 C   0  0  0  0  0  0  0  0  0  0  0  0
  148.2424  141.4785  154.2537 C   0  0  0  0  0  0  0  0  0  0  0  0
  147.0173  142.1717  154.8197 C   0  0  0  0  0  0  0  0  0  0  0  0
  146.0754  142.7840  153.9654 C   0  0  0  0  0  0  0  0  0  0  0  0
  144.9570  143.4158  154.5436 C   0  0  0  0  0  0  0  0  0  0  0  0
  144.8257  143.4121  155.9456 C   0  0  0  0  0  0  0  0  0  0  0  0
  145.8218  142.7737  156.7108 C   0  0  0  0  0  0  0  0  0  0  0  0
  146.8982  142.1654  156.1665 N   0  0  0  0  0  0  0  0  0  0  0  0
  150.8945  143.3429  157.9190 C   0  0  0  0  0  0  0  0  0  0  0  0
  152.2704  143.3364  158.6086 C   0  0  0  0  0  0  0  0  0  0  0  0
  152.7526  143.1452  163.2520 H   0  0  0  0  0  0  0  0  0  0  0  0
  151.9175  143.4169  161.7254 H   0  0  0  0  0  0  0  0  0  0  0  0
  153.4922  144.1560  162.0159 H   0  0  0  0  0  0  0  0  0  0  0  0
  154.5389  141.8513  162.0844 H   0  0  0  0  0  0  0  0  0  0  0  0
  152.9768  141.1453  161.8269 H   0  0  0  0  0  0  0  0  0  0  0  0
  154.3263  142.9656  159.7741 H   0  0  0  0  0  0  0  0  0  0  0  0
  154.3362  141.2195  159.7470 H   0  0  0  0  0  0  0  0  0  0  0  0
  153.2467  141.0725  157.6657 H   0  0  0  0  0  0  0  0  0  0  0  0
  152.6449  140.0294  158.9419 H   0  0  0  0  0  0  0  0  0  0  0  0
  151.0765  140.0131  157.0293 H   0  0  0  0  0  0  0  0  0  0  0  0
  150.3125  140.6610  158.4620 H   0  0  0  0  0  0  0  0  0  0  0  0
  151.4742  142.2624  156.1392 H   0  0  0  0  0  0  0  0  0  0  0  0
  148.7521  141.8795  157.1235 H   0  0  0  0  0  0  0  0  0  0  0  0
  150.1715  140.7571  154.9098 H   0  0  0  0  0  0  0  0  0  0  0  0
  148.8207  140.1163  155.8316 H   0  0  0  0  0  0  0  0  0  0  0  0
  148.7528  142.1569  153.5686 H   0  0  0  0  0  0  0  0  0  0  0  0
  147.9186  140.6253  153.6556 H   0  0  0  0  0  0  0  0  0  0  0  0
  146.2031  142.7716  152.8929 H   0  0  0  0  0  0  0  0  0  0  0  0
  144.2136  143.8942  153.9230 H   0  0  0  0  0  0  0  0  0  0  0  0
  143.9812  143.8868  156.4233 H   0  0  0  0  0  0  0  0  0  0  0  0
  145.7528  142.7523  157.7884 H   0  0  0  0  0  0  0  0  0  0  0  0
  150.7698  144.2865  157.3879 H   0  0  0  0  0  0  0  0  0  0  0  0
  150.1089  143.3067  158.6756 H   0  0  0  0  0  0  0  0  0  0  0  0
  152.3198  144.1881  159.2853 H   0  0  0  0  0  0  0  0  0  0  0  0
  153.0639  143.4695  157.8713 H   0  0  0  0  0  0  0  0  0  0  0  0
  149.1599  142.9664  155.9667 H   0  0  0  0  0  0  0  0  0  0  0  0
  1  2  1  0  0  0  0
  1 19  1  0  0  0  0
  1 20  1  0  0  0  0
  1 21  1  0  0  0  0
  2  3  1  0  0  0  0
  2 22  1  0  0  0  0
  2 23  1  0  0  0  0
  3  4  1  0  0  0  0
  3 24  1  0  0  0  0
  3 25  1  0  0  0  0
  4 18  1  0  0  0  0
  4  5  1  0  0  0  0
  5  6  1  0  0  0  0
  5 26  1  0  0  0  0
  5 27  1  0  0  0  0
  6  7  1  0  0  0  0
  6 28  1  0  0  0  0
  6 29  1  0  0  0  0
  7  8  1  0  0  0  0
  7 17  1  0  0  0  0
  7 30  1  0  0  0  0
  8  9  1  0  0  0  0
  8 31  1  0  0  0  0
  8 44  1  0  0  0  0
  9 10  1  0  0  0  0
  9 32  1  0  0  0  0
  9 33  1  0  0  0  0
 10 11  1  0  0  0  0
 10 34  1  0  0  0  0
 10 35  1  0  0  0  0
 11 16  1  0  0  0  0
 11 12  2  0  0  0  0
 12 13  1  0  0  0  0
 12 36  1  0  0  0  0
 13 14  2  0  0  0  0
 13 37  1  0  0  0  0
 14 15  1  0  0  0  0
 14 38  1  0  0  0  0
 15 16  2  0  0  0  0
 15 39  1  0  0  0  0
 17 18  1  0  0  0  0
 17 40  1  0  0  0  0
 17 41  1  0  0  0  0
 18 42  1  0  0  0  0
 18 43  1  0  0  0  0
M  CHG  1   8   1
M  END
> <s_m_source_file>
AV-unprocessed.smi

> <i_m_source_file_index>
3318

> <i_lp_mmshare_version>
43012

> <i_f3d_flags>
0

> <s_epik_input>
W0NIM11bQ0gyXVtDSDJdTjFbQ0gyXVtDSDJdW0NIXShbQ0gyXVtDSDJdMSlbTkhdW0NIMl1bQ0gyXWMyW2NIXVtjSF1bY0hdW2NIXW4y

> <s_epik_cmdline>
J2VwaWtfcHl0aG9uJywgJy1waCcsICc3LjAnLCAnLXRuJywgJzgnLCAnLW1hJywgJzIwMCcsICctbWV0YWxfYmluZGluZycsICctaW1hZScsICc8aW5maWxlLm1hZT4nLCAnLW9tYWUnLCAnPG91dGZpbGUubWFlPic=

> <r_epik_Ionization_Penalty>
1.50803

> <r_epik_Ionization_Penalty_Charging>
0.000531593

> <r_epik_Ionization_Penalty_Neutral>
1.5075

> <r_epik_State_Penalty>
1.60727

> <r_epik_Charging_Adjusted_Penalty>
1.6078

> <i_epik_Tot_Q>
1

> <i_epik_Tot_abs_Q>
1

> <r_epik_Metal_State_Penalty>
1.6087

> <b_epik_Metal_Only>
0

> <s_lp_Force_Field>
OPLS_2005

> <r_lp_Energy>
19.6285

> <b_lp_Chiralities_Consistent>
1

> <s_lp_Variant>
AV-unprocessed.smi:3318-3

> <Gold.Version>
5.8.1

> <Gold.Id.Protein>
6NUR|6NUR_protein|mol2

> <Gold.PLP.Fitness>
47.7007

> <Gold.PLP.PLP>
-43.8412

> <Gold.PLP.part.hbond>
-1.0000

> <Gold.PLP.part.metal>
0.0000

> <Gold.PLP.part.buried>
-4.6841

> <Gold.PLP.part.nonpolar>
-37.9393

> <Gold.PLP.part.repulsive>
0.4179

> <Gold.PLP.ligand.clash>
0.0000

> <Gold.PLP.ligand.torsion>
1.0920

> <Gold.PLP.Chemscore.Hbond>
2.0000

> <Gold.PLP.Chemscore.CHOScore>
0.0000

> <Gold.PLP.Chemscore.Metal>
0.0000

> <Gold.Chemscore.Hbonds>
donor molecule, donor type, donor heavy atom, donor atom, acceptor molecule, acceptor atom, score
      L1  H     8    44       P1  8028  2.00

> <Gold.PLP.Chemscore.Internal.Correction>
0.0435

> <Gold.Rescore>
     Score         DG    S(hbond)    S(metal)    S(lipo)     H(rot)  DE(clash)    DE(int)     intcor
     15.70     -18.60       0.98        0.00     116.53       1.48       0.01       2.88       ----

> <Gold.Chemscore.Fitness>
15.7042

> <Gold.Chemscore.DG>
-18.5992

> <Gold.Chemscore.ZeroCoef>
-5.4800

> <Gold.Chemscore.Hbond>
0.9833

> <Gold.Chemscore.Metal>
0.0000

> <Gold.Chemscore.Lipo>
116.5290

> <Gold.Chemscore.Internal_Hbond>
0.0000

> <Gold.Chemscore.DEClash>
0.0121

> <Gold.Chemscore.DEInternal>
2.8828

> <Gold.Chemscore.Rot>
1.4840

> <Gold.Chemscore.Internal.Correction>
   9.000000E+99

> <Gold.Chemscore.Hbonds>
donor molecule, donor type, donor heavy atom, donor atom, acceptor molecule, acceptor atom, score
      L1  H     8    44       P1  8028  1.00

> <Gold.Chemscore.Hbond.Weighted>
-3.2844

> <Gold.Chemscore.Metal.Weighted>
-0.0000

> <Gold.Chemscore.Lipo.Weighted>
-13.6339

> <Gold.Chemscore.Internal_Hbond.Weighted>
0.0000

> <Gold.Chemscore.DEClash.Weighted>
0.0121

> <Gold.Chemscore.DEInternal.Weighted>
2.8828

> <Gold.Chemscore.Rot.Weighted>
3.7991

> <Gold.Chemscore.Internal.Correction.Weighted>
   9.000000E+99

> <Gold.Protein.RotatedTorsions>
[ 6907 6896 6895 6894 ] final   64.66 input  -60.11 | X-H torsion
[ 7974 7965 7964 7962 ] final  166.23 input  175.53 | X-H torsion
[ 8008 7997 7996 7995 ] final  -68.32 input   59.86 | X-H torsion
[ 10167 10162 10161 10158 ] final   -0.32 input  -65.29 | X-H torsion
[ 10718 10713 10712 10709 ] final   48.40 input   66.30 | X-H torsion
[ 10763 10752 10751 10750 ] final  107.21 input  -60.55 | X-H torsion
[ 11005 11000 10999 10996 ] final  126.73 input  -57.11 | X-H torsion

> <Gold.Protein.ActiveResidues>
 VAL166  LYS551  ARG553  GLY616  TRP617  ASP618  TYR619  PRO620  LYS621  CYS622 
 ASP623  PHE694  ASN695  SER759  ASP760  ASP761  ALA762  ILE779  LEU786  VAL792 
 PHE793  MET794  SER795  GLU796  ALA797  LYS798  CYS799  TRP800  GLU811  SER814 

> <Gold.Protein.RotatedAtoms>
  152.4349  134.5707  159.9920 H   0  0  0  0  0  0  0  0  0  0  0  0  # atno 6907 bound_to 6896
  151.5820  133.3371  159.3018 H   0  0  0  0  0  0  0  0  0  0  0  0  # atno 6908 bound_to 6896
  150.8246  134.7505  159.6866 H   0  0  0  0  0  0  0  0  0  0  0  0  # atno 6909 bound_to 6896
  144.7471  139.8585  143.6378 H   0  0  0  0  0  0  0  0  0  0  0  0  # atno 7974 bound_to 7965
  154.4860  140.0875  156.7487 H   0  0  0  0  0  0  0  0  0  0  0  0  # atno 8008 bound_to 7997
  155.4349  140.3451  155.4265 H   0  0  0  0  0  0  0  0  0  0  0  0  # atno 8009 bound_to 7997
  156.1262  140.1488  156.9121 H   0  0  0  0  0  0  0  0  0  0  0  0  # atno 8010 bound_to 7997
  140.6762  143.6909  150.8028 H   0  0  0  0  0  0  0  0  0  0  0  0  # atno 10167 bound_to 10162
  157.4682  130.8239  149.7959 H   0  0  0  0  0  0  0  0  0  0  0  0  # atno 10718 bound_to 10713
  153.4037  135.3851  155.2004 H   0  0  0  0  0  0  0  0  0  0  0  0  # atno 10763 bound_to 10752
  154.8731  135.3777  154.4587 H   0  0  0  0  0  0  0  0  0  0  0  0  # atno 10764 bound_to 10752
  153.5087  135.7087  153.5854 H   0  0  0  0  0  0  0  0  0  0  0  0  # atno 10765 bound_to 10752
  139.9471  134.9628  156.8750 H   0  0  0  0  0  0  0  0  0  0  0  0  # atno 11005 bound_to 11000
  146.1365  139.4412  143.0135 LP  0  0  0  0  0  0  0  0  0  0  0  0  # atno 17320 bound_to 7965
  145.7083  141.0114  143.1467 LP  0  0  0  0  0  0  0  0  0  0  0  0  # atno 17321 bound_to 7965
  140.0602  143.5162  152.2631 LP  0  0  0  0  0  0  0  0  0  0  0  0  # atno 17342 bound_to 10162
  139.6056  144.7595  151.3070 LP  0  0  0  0  0  0  0  0  0  0  0  0  # atno 17343 bound_to 10162
  156.0061  130.3855  150.2428 LP  0  0  0  0  0  0  0  0  0  0  0  0  # atno 17370 bound_to 10713
  157.0609  131.0089  151.3223 LP  0  0  0  0  0  0  0  0  0  0  0  0  # atno 17371 bound_to 10713
  140.5808  134.0354  155.7463 LP  0  0  0  0  0  0  0  0  0  0  0  0  # atno 17394 bound_to 11000
  141.1124  133.9595  157.2885 LP  0  0  0  0  0  0  0  0  0  0  0  0  # atno 17395 bound_to 11000

$$$$
