AV-unprocessed.smi:3272|AV-procd|sdf|12518|dock4
  -GOLD-   2272018433D 1   1.00000     0.00000
 Structure written by MMmdl.
 35 36  0  0  0  0  0  0  0  0  1 V2000
  143.7938  132.7136  148.6823 C   0  0  0  0  0  0  0  0  0  0  0  0
  143.7092  132.4521  150.1907 C   0  0  0  0  0  0  0  0  0  0  0  0
  144.1728  133.5906  150.9594 N   0  0  0  0  0  0  0  0  0  0  0  0
  145.3297  134.3241  150.7853 C   0  0  0  0  0  0  0  0  0  0  0  0
  145.3021  135.2907  151.7504 C   0  0  0  0  0  0  0  0  0  0  0  0
  146.2385  136.3207  152.0196 N   0  0  0  0  0  0  0  0  0  0  0  0
  145.9845  137.5491  152.4994 C   0  0  0  0  0  0  0  0  0  0  0  0
  144.8649  137.9889  152.7610 O   0  0  0  0  0  0  0  0  0  0  0  0
  147.1152  138.2531  152.6527 N   0  0  0  0  0  0  0  0  0  0  0  0
  147.2002  139.6278  153.1353 C   0  0  0  0  0  0  0  0  0  0  0  0
  148.2672  139.7793  154.2349 C   0  0  2  0  0  0  0  0  0  0  0  0
  148.5647  141.2173  154.6062 C   0  0  0  0  0  0  0  0  0  0  0  0
  149.9089  141.0910  155.3175 C   0  0  0  0  0  0  0  0  0  0  0  0
  150.5633  139.9735  154.7228 O   0  0  0  0  0  0  0  0  0  0  0  0
  149.6649  139.2836  153.8593 C   0  0  0  0  0  0  0  0  0  0  0  0
  144.0988  135.0825  152.4731 C   0  0  0  0  0  0  0  0  0  0  0  0
  143.4223  134.0515  151.9904 N   0  0  0  0  0  0  0  0  0  0  0  0
  143.4546  131.8445  148.1185 H   0  0  0  0  0  0  0  0  0  0  0  0
  144.8182  132.9298  148.3778 H   0  0  0  0  0  0  0  0  0  0  0  0
  143.1714  133.5609  148.3926 H   0  0  0  0  0  0  0  0  0  0  0  0
  142.6823  132.2258  150.4809 H   0  0  0  0  0  0  0  0  0  0  0  0
  144.3125  131.5833  150.4564 H   0  0  0  0  0  0  0  0  0  0  0  0
  146.0423  134.0960  150.0064 H   0  0  0  0  0  0  0  0  0  0  0  0
  147.2041  136.0976  151.8274 H   0  0  0  0  0  0  0  0  0  0  0  0
  147.9870  137.8054  152.4108 H   0  0  0  0  0  0  0  0  0  0  0  0
  147.3914  140.3214  152.3144 H   0  0  0  0  0  0  0  0  0  0  0  0
  146.2233  139.8968  153.5375 H   0  0  0  0  0  0  0  0  0  0  0  0
  147.9392  139.2536  155.1334 H   0  0  0  0  0  0  0  0  0  0  0  0
  148.6737  141.8279  153.7085 H   0  0  0  0  0  0  0  0  0  0  0  0
  147.7944  141.6672  155.2331 H   0  0  0  0  0  0  0  0  0  0  0  0
  150.5102  141.9965  155.2325 H   0  0  0  0  0  0  0  0  0  0  0  0
  149.7609  140.8812  156.3775 H   0  0  0  0  0  0  0  0  0  0  0  0
  149.7682  138.2030  153.9611 H   0  0  0  0  0  0  0  0  0  0  0  0
  149.9058  139.5504  152.8294 H   0  0  0  0  0  0  0  0  0  0  0  0
  143.7013  135.6329  153.3131 H   0  0  0  0  0  0  0  0  0  0  0  0
  1  2  1  0  0  0  0
  1 18  1  0  0  0  0
  1 19  1  0  0  0  0
  1 20  1  0  0  0  0
  2  3  1  0  0  0  0
  2 21  1  0  0  0  0
  2 22  1  0  0  0  0
  3 17  1  0  0  0  0
  3  4  1  0  0  0  0
  4  5  2  0  0  0  0
  4 23  1  0  0  0  0
  5  6  1  0  0  0  0
  5 16  1  0  0  0  0
  6  7  1  0  0  0  0
  6 24  1  0  0  0  0
  7  8  2  0  0  0  0
  7  9  1  0  0  0  0
  9 10  1  0  0  0  0
  9 25  1  0  0  0  0
 10 11  1  0  0  0  0
 10 26  1  0  0  0  0
 10 27  1  0  0  0  0
 11 15  1  0  0  0  0
 11 12  1  0  0  0  0
 11 28  1  0  0  0  0
 12 13  1  0  0  0  0
 12 29  1  0  0  0  0
 12 30  1  0  0  0  0
 13 14  1  0  0  0  0
 13 31  1  0  0  0  0
 13 32  1  0  0  0  0
 14 15  1  0  0  0  0
 15 33  1  0  0  0  0
 15 34  1  0  0  0  0
 16 17  2  0  0  0  0
 16 35  1  0  0  0  0
M  END
> <s_m_source_file>
AV-unprocessed.smi

> <i_m_source_file_index>
3272

> <i_lp_mmshare_version>
43012

> <i_f3d_flags>
0

> <s_epik_input>
W0NIM11bQ0gyXW4xW2NIXWMoW2NIXW4xKVtOSF1DKD1PKVtOSF1bQ0gyXVtDQEBIXTJbQ0gyXVtDSDJdT1tDSDJdMg==

> <s_epik_cmdline>
J2VwaWtfcHl0aG9uJywgJy1waCcsICc3LjAnLCAnLXRuJywgJzgnLCAnLW1hJywgJzIwMCcsICctbWV0YWxfYmluZGluZycsICctaW1hZScsICc8aW5maWxlLm1hZT4nLCAnLW9tYWUnLCAnPG91dGZpbGUubWFlPic=

> <r_lp_tautomer_probability>
1

> <r_epik_Ionization_Penalty>
0.000182896

> <r_epik_Ionization_Penalty_Charging>
0

> <r_epik_Ionization_Penalty_Neutral>
0.000182896

> <r_epik_State_Penalty>
-0

> <r_epik_Charging_Adjusted_Penalty>
0

> <i_epik_Tot_Q>
0

> <i_epik_Tot_abs_Q>
0

> <r_epik_Metal_State_Penalty>
-0

> <b_epik_Metal_Only>
0

> <s_lp_Force_Field>
OPLS_2005

> <r_lp_Energy>
22.7112

> <b_lp_Chiralities_Consistent>
1

> <s_lp_Variant>
AV-unprocessed.smi:3272-1

> <Gold.Version>
5.8.1

> <Gold.Id.Protein>
6NUR|6NUR_protein|mol2

> <Gold.PLP.Fitness>
42.2667

> <Gold.PLP.PLP>
-31.1430

> <Gold.PLP.part.hbond>
-3.0000

> <Gold.PLP.part.metal>
0.0000

> <Gold.PLP.part.buried>
-2.7703

> <Gold.PLP.part.nonpolar>
-28.4567

> <Gold.PLP.part.repulsive>
2.9187

> <Gold.PLP.ligand.clash>
0.0000

> <Gold.PLP.ligand.torsion>
0.4347

> <Gold.PLP.Chemscore.Hbond>
3.0000

> <Gold.PLP.Chemscore.CHOScore>
0.9950

> <Gold.PLP.Chemscore.Metal>
0.0000

> <Gold.Chemscore.Hbonds>
donor molecule, donor type, donor heavy atom, donor atom, acceptor molecule, acceptor atom, score
      L1  H     6    24       P1  7948  1.00
      L1  H     9    25       P1  7948  1.00
      P1  H  7989  7998       L1    14  0.95
      L1  C     4    23       P1  7921  1.00

> <Gold.PLP.Chemscore.Internal.Correction>
0.0081

> <Gold.Rescore>
     Score         DG    S(hbond)    S(metal)    S(lipo)     H(rot)  DE(clash)    DE(int)     intcor
     14.07     -16.60       1.94        0.00      70.53       1.41       1.36       1.17       ----

> <Gold.Chemscore.Fitness>
14.0679

> <Gold.Chemscore.DG>
-16.5981

> <Gold.Chemscore.ZeroCoef>
-5.4800

> <Gold.Chemscore.Hbond>
1.9362

> <Gold.Chemscore.Metal>
0.0000

> <Gold.Chemscore.Lipo>
70.5270

> <Gold.Chemscore.Internal_Hbond>
0.0000

> <Gold.Chemscore.DEClash>
1.3563

> <Gold.Chemscore.DEInternal>
1.1738

> <Gold.Chemscore.Rot>
1.4064

> <Gold.Chemscore.Internal.Correction>
   9.000000E+99

> <Gold.Chemscore.Hbonds>
donor molecule, donor type, donor heavy atom, donor atom, acceptor molecule, acceptor atom, score
      L1  H     6    24       P1  7948  1.00
      L1  H     9    25       P1  7948  0.95
      P1  H  7989  7998       L1    14  0.06

> <Gold.Chemscore.Hbond.Weighted>
-6.4669

> <Gold.Chemscore.Metal.Weighted>
-0.0000

> <Gold.Chemscore.Lipo.Weighted>
-8.2517

> <Gold.Chemscore.Internal_Hbond.Weighted>
0.0000

> <Gold.Chemscore.DEClash.Weighted>
1.3563

> <Gold.Chemscore.DEInternal.Weighted>
1.1738

> <Gold.Chemscore.Rot.Weighted>
3.6004

> <Gold.Chemscore.Internal.Correction.Weighted>
   9.000000E+99

> <Gold.Protein.RotatedTorsions>
[ 6907 6896 6895 6894 ] final   56.75 input  -60.11 | X-H torsion
[ 7974 7965 7964 7962 ] final -162.91 input  175.53 | X-H torsion
[ 8008 7997 7996 7995 ] final -130.96 input   59.86 | X-H torsion
[ 10167 10162 10161 10158 ] final   66.65 input  -65.29 | X-H torsion
[ 10718 10713 10712 10709 ] final -106.04 input   66.30 | X-H torsion
[ 10763 10752 10751 10750 ] final  106.92 input  -60.55 | X-H torsion
[ 11005 11000 10999 10996 ] final  -79.19 input  -57.11 | X-H torsion

> <Gold.Protein.ActiveResidues>
 VAL166  LYS551  ARG553  GLY616  TRP617  ASP618  TYR619  PRO620  LYS621  CYS622 
 ASP623  PHE694  ASN695  SER759  ASP760  ASP761  ALA762  ILE779  LEU786  VAL792 
 PHE793  MET794  SER795  GLU796  ALA797  LYS798  CYS799  TRP800  GLU811  SER814 

> <Gold.Protein.RotatedAtoms>
  152.3666  134.6795  160.0189 H   0  0  0  0  0  0  0  0  0  0  0  0  # atno 6907 bound_to 6896
  151.7101  133.3307  159.3296 H   0  0  0  0  0  0  0  0  0  0  0  0  # atno 6908 bound_to 6896
  150.7643  134.6474  159.6314 H   0  0  0  0  0  0  0  0  0  0  0  0  # atno 6909 bound_to 6896
  144.7342  140.3183  143.6175 H   0  0  0  0  0  0  0  0  0  0  0  0  # atno 7974 bound_to 7965
  155.3045  140.0454  157.3031 H   0  0  0  0  0  0  0  0  0  0  0  0  # atno 8008 bound_to 7997
  154.5468  140.2305  155.8517 H   0  0  0  0  0  0  0  0  0  0  0  0  # atno 8009 bound_to 7997
  156.1931  140.3045  155.9379 H   0  0  0  0  0  0  0  0  0  0  0  0  # atno 8010 bound_to 7997
  140.0981  144.4928  150.7055 H   0  0  0  0  0  0  0  0  0  0  0  0  # atno 10167 bound_to 10162
  156.0372  130.5593  150.7624 H   0  0  0  0  0  0  0  0  0  0  0  0  # atno 10718 bound_to 10713
  153.3996  135.3861  155.1978 H   0  0  0  0  0  0  0  0  0  0  0  0  # atno 10763 bound_to 10752
  154.8728  135.3768  154.4635 H   0  0  0  0  0  0  0  0  0  0  0  0  # atno 10764 bound_to 10752
  153.5131  135.7087  153.5832 H   0  0  0  0  0  0  0  0  0  0  0  0  # atno 10765 bound_to 10752
  141.1667  133.7095  156.8086 H   0  0  0  0  0  0  0  0  0  0  0  0  # atno 11005 bound_to 11000
  145.7594  139.1820  143.2275 LP  0  0  0  0  0  0  0  0  0  0  0  0  # atno 17320 bound_to 7965
  146.0998  140.7557  142.9555 LP  0  0  0  0  0  0  0  0  0  0  0  0  # atno 17321 bound_to 7965
  140.6992  143.2424  151.4912 LP  0  0  0  0  0  0  0  0  0  0  0  0  # atno 17342 bound_to 10162
  139.5686  144.1981  152.1803 LP  0  0  0  0  0  0  0  0  0  0  0  0  # atno 17343 bound_to 10162
  157.5140  131.0927  151.0163 LP  0  0  0  0  0  0  0  0  0  0  0  0  # atno 17370 bound_to 10713
  157.0511  130.5787  149.5370 LP  0  0  0  0  0  0  0  0  0  0  0  0  # atno 17371 bound_to 10713
  140.2204  134.8761  157.3371 LP  0  0  0  0  0  0  0  0  0  0  0  0  # atno 17394 bound_to 11000
  140.1993  134.4274  155.7671 LP  0  0  0  0  0  0  0  0  0  0  0  0  # atno 17395 bound_to 11000

$$$$
