AV-unprocessed.smi:1019|AV-procd|sdf|4452|dock4
  -GOLD-   22720 2423D 1   1.00000     0.00000
 Structure written by MMmdl.
 43 45  0  0  0  0  0  0  0  0  1 V2000
  151.1084  137.1988  154.8030 C   0  0  0  0  0  0  0  0  0  0  0  0
  149.6946  137.2713  155.1615 N   0  0  0  0  0  0  0  0  0  0  0  0
  149.3700  136.3105  156.2200 C   0  0  0  0  0  0  0  0  0  0  0  0
  149.3002  134.8700  155.7424 C   0  0  0  0  0  0  0  0  0  0  0  0
  148.4043  134.5082  154.7144 C   0  0  0  0  0  0  0  0  0  0  0  0
  148.3393  133.1735  154.2694 C   0  0  0  0  0  0  0  0  0  0  0  0
  149.1691  132.1957  154.8514 C   0  0  0  0  0  0  0  0  0  0  0  0
  150.0633  132.5530  155.8792 C   0  0  0  0  0  0  0  0  0  0  0  0
  150.1285  133.8877  156.3250 C   0  0  0  0  0  0  0  0  0  0  0  0
  149.3440  138.6420  155.5382 C   0  0  0  0  0  0  0  0  0  0  0  0
  149.8978  139.7453  154.6105 C   0  0  1  0  0  0  0  0  0  0  0  0
  148.9720  139.9806  153.5661 O   0  0  0  0  0  0  0  0  0  0  0  0
  150.1293  141.0696  155.3648 C   0  0  0  0  0  0  0  0  0  0  0  0
  151.0765  140.9303  156.4569 N   0  0  0  0  0  0  0  0  0  0  0  0
  151.8023  139.8404  156.7728 C   0  0  0  0  0  0  0  0  0  0  0  0
  152.6149  139.9327  157.8218 N   0  0  0  0  0  0  0  0  0  0  0  0
  152.3946  141.2363  158.2322 C   0  0  0  0  0  0  0  0  0  0  0  0
  152.9549  141.9687  159.3034 C   0  0  0  0  0  0  0  0  0  0  0  0
  152.5712  143.3067  159.5318 C   0  0  0  0  0  0  0  0  0  0  0  0
  151.6241  143.9321  158.6950 C   0  0  0  0  0  0  0  0  0  0  0  0
  151.0525  143.2230  157.6212 C   0  0  0  0  0  0  0  0  0  0  0  0
  151.4376  141.8883  157.3973 C   0  0  0  0  0  0  0  0  0  0  0  0
  151.3424  137.9015  154.0026 H   0  0  0  0  0  0  0  0  0  0  0  0
  151.3760  136.2046  154.4444 H   0  0  0  0  0  0  0  0  0  0  0  0
  151.7440  137.4346  155.6574 H   0  0  0  0  0  0  0  0  0  0  0  0
  150.0876  136.3952  157.0374 H   0  0  0  0  0  0  0  0  0  0  0  0
  148.3928  136.5355  156.6459 H   0  0  0  0  0  0  0  0  0  0  0  0
  147.7670  135.2554  154.2644 H   0  0  0  0  0  0  0  0  0  0  0  0
  147.6533  132.9001  153.4812 H   0  0  0  0  0  0  0  0  0  0  0  0
  149.1198  131.1724  154.5096 H   0  0  0  0  0  0  0  0  0  0  0  0
  150.6996  131.8034  156.3259 H   0  0  0  0  0  0  0  0  0  0  0  0
  150.8177  134.1550  157.1125 H   0  0  0  0  0  0  0  0  0  0  0  0
  148.2633  138.7430  155.6520 H   0  0  0  0  0  0  0  0  0  0  0  0
  149.7532  138.8226  156.5331 H   0  0  0  0  0  0  0  0  0  0  0  0
  150.8436  139.4209  154.1735 H   0  0  0  0  0  0  0  0  0  0  0  0
  149.4507  140.0618  152.7551 H   0  0  0  0  0  0  0  0  0  0  0  0
  150.4901  141.8406  154.6822 H   0  0  0  0  0  0  0  0  0  0  0  0
  149.1898  141.4359  155.7807 H   0  0  0  0  0  0  0  0  0  0  0  0
  151.7267  138.9260  156.2027 H   0  0  0  0  0  0  0  0  0  0  0  0
  153.6815  141.5003  159.9506 H   0  0  0  0  0  0  0  0  0  0  0  0
  153.0065  143.8562  160.3535 H   0  0  0  0  0  0  0  0  0  0  0  0
  151.3364  144.9570  158.8783 H   0  0  0  0  0  0  0  0  0  0  0  0
  150.3267  143.6982  156.9780 H   0  0  0  0  0  0  0  0  0  0  0  0
  1  2  1  0  0  0  0
  1 23  1  0  0  0  0
  1 24  1  0  0  0  0
  1 25  1  0  0  0  0
  2  3  1  0  0  0  0
  2 10  1  0  0  0  0
  3  4  1  0  0  0  0
  3 26  1  0  0  0  0
  3 27  1  0  0  0  0
  4  9  1  0  0  0  0
  4  5  2  0  0  0  0
  5  6  1  0  0  0  0
  5 28  1  0  0  0  0
  6  7  2  0  0  0  0
  6 29  1  0  0  0  0
  7  8  1  0  0  0  0
  7 30  1  0  0  0  0
  8  9  2  0  0  0  0
  8 31  1  0  0  0  0
  9 32  1  0  0  0  0
 10 11  1  0  0  0  0
 10 33  1  0  0  0  0
 10 34  1  0  0  0  0
 11 12  1  0  0  0  0
 11 13  1  0  0  0  0
 11 35  1  0  0  0  0
 12 36  1  0  0  0  0
 13 14  1  0  0  0  0
 13 37  1  0  0  0  0
 13 38  1  0  0  0  0
 14 22  1  0  0  0  0
 14 15  1  0  0  0  0
 15 16  2  0  0  0  0
 15 39  1  0  0  0  0
 16 17  1  0  0  0  0
 17 22  2  0  0  0  0
 17 18  1  0  0  0  0
 18 19  2  0  0  0  0
 18 40  1  0  0  0  0
 19 20  1  0  0  0  0
 19 41  1  0  0  0  0
 20 21  2  0  0  0  0
 20 42  1  0  0  0  0
 21 22  1  0  0  0  0
 21 43  1  0  0  0  0
M  END
> <s_m_source_file>
AV-unprocessed.smi

> <i_m_source_file_index>
1019

> <i_lp_mmshare_version>
43012

> <i_f3d_flags>
0

> <s_epik_input>
W2NIXTFbY0hdW2NIXVtjSF1bY0hdYzFbQ0gyXU4oW0NIM10pW0NIMl1bQ0BIXShbT0hdKVtDSDJdbihbY0hdbjIpYyhjMjMpW2NIXVtjSF1bY0hdW2NIXTM=

> <s_epik_cmdline>
J2VwaWtfcHl0aG9uJywgJy1waCcsICc3LjAnLCAnLXRuJywgJzgnLCAnLW1hJywgJzIwMCcsICctbWV0YWxfYmluZGluZycsICctaW1hZScsICc8aW5maWxlLm1hZT4nLCAnLW9tYWUnLCAnPG91dGZpbGUubWFlPic=

> <r_epik_Ionization_Penalty>
1.56741

> <r_epik_Ionization_Penalty_Charging>
0

> <r_epik_Ionization_Penalty_Neutral>
1.56741

> <r_epik_State_Penalty>
1.62466

> <r_epik_Charging_Adjusted_Penalty>
1.62466

> <i_epik_Tot_Q>
0

> <i_epik_Tot_abs_Q>
0

> <r_epik_Metal_State_Penalty>
1.58486

> <b_epik_Metal_Only>
0

> <s_lp_Force_Field>
OPLS_2005

> <r_lp_Energy>
22.9091

> <b_lp_Chiralities_Consistent>
1

> <s_lp_Variant>
AV-unprocessed.smi:1019-10

> <Gold.Version>
5.8.1

> <Gold.Id.Protein>
6NUR|6NUR_protein|mol2

> <Gold.PLP.Fitness>
48.2504

> <Gold.PLP.PLP>
-43.2725

> <Gold.PLP.part.hbond>
-1.9497

> <Gold.PLP.part.metal>
0.0000

> <Gold.PLP.part.buried>
-3.4649

> <Gold.PLP.part.nonpolar>
-36.4588

> <Gold.PLP.part.repulsive>
0.1542

> <Gold.PLP.ligand.clash>
0.0000

> <Gold.PLP.ligand.torsion>
0.6081

> <Gold.PLP.Chemscore.Hbond>
2.0000

> <Gold.PLP.Chemscore.CHOScore>
0.0000

> <Gold.PLP.Chemscore.Metal>
0.0000

> <Gold.Chemscore.Hbonds>
donor molecule, donor type, donor heavy atom, donor atom, acceptor molecule, acceptor atom, score
      L1  H    12    36       P1  7957  1.00
      P1  H  7997  8009       L1    16  0.60

> <Gold.PLP.Chemscore.Internal.Correction>
0.1942

> <Gold.Rescore>
     Score         DG    S(hbond)    S(metal)    S(lipo)     H(rot)  DE(clash)    DE(int)     intcor
     16.01     -17.79       1.10        0.00     123.50       2.27       0.07       1.72       ----

> <Gold.Chemscore.Fitness>
16.0120

> <Gold.Chemscore.DG>
-17.7942

> <Gold.Chemscore.ZeroCoef>
-5.4800

> <Gold.Chemscore.Hbond>
1.0981

> <Gold.Chemscore.Metal>
0.0000

> <Gold.Chemscore.Lipo>
123.4988

> <Gold.Chemscore.Internal_Hbond>
0.0000

> <Gold.Chemscore.DEClash>
0.0653

> <Gold.Chemscore.DEInternal>
1.7169

> <Gold.Chemscore.Rot>
2.2667

> <Gold.Chemscore.Internal.Correction>
   9.000000E+99

> <Gold.Chemscore.Hbonds>
donor molecule, donor type, donor heavy atom, donor atom, acceptor molecule, acceptor atom, score
      L1  H    12    36       P1  7957  0.97
      P1  H  7997  8009       L1    16  0.03

> <Gold.Chemscore.Hbond.Weighted>
-3.6677

> <Gold.Chemscore.Metal.Weighted>
-0.0000

> <Gold.Chemscore.Lipo.Weighted>
-14.4494

> <Gold.Chemscore.Internal_Hbond.Weighted>
0.0000

> <Gold.Chemscore.DEClash.Weighted>
0.0653

> <Gold.Chemscore.DEInternal.Weighted>
1.7169

> <Gold.Chemscore.Rot.Weighted>
5.8028

> <Gold.Chemscore.Internal.Correction.Weighted>
   9.000000E+99

> <Gold.Protein.RotatedTorsions>
[ 6907 6896 6895 6894 ] final  169.23 input  -60.11 | X-H torsion
[ 7974 7965 7964 7962 ] final -138.23 input  175.53 | X-H torsion
[ 8008 7997 7996 7995 ] final  179.53 input   59.86 | X-H torsion
[ 10167 10162 10161 10158 ] final  -86.22 input  -65.29 | X-H torsion
[ 10718 10713 10712 10709 ] final  -91.32 input   66.30 | X-H torsion
[ 10763 10752 10751 10750 ] final  -13.75 input  -60.55 | X-H torsion
[ 11005 11000 10999 10996 ] final -163.36 input  -57.11 | X-H torsion

> <Gold.Protein.ActiveResidues>
 VAL166  LYS551  ARG553  GLY616  TRP617  ASP618  TYR619  PRO620  LYS621  CYS622 
 ASP623  PHE694  ASN695  SER759  ASP760  ASP761  ALA762  ILE779  LEU786  VAL792 
 PHE793  MET794  SER795  GLU796  ALA797  LYS798  CYS799  TRP800  GLU811  SER814 

> <Gold.Protein.RotatedAtoms>
  151.8351  133.3414  159.3625 H   0  0  0  0  0  0  0  0  0  0  0  0  # atno 6907 bound_to 6896
  150.7252  134.5445  159.5773 H   0  0  0  0  0  0  0  0  0  0  0  0  # atno 6908 bound_to 6896
  152.2907  134.7726  160.0429 H   0  0  0  0  0  0  0  0  0  0  0  0  # atno 6909 bound_to 6896
  144.8776  140.6460  143.5227 H   0  0  0  0  0  0  0  0  0  0  0  0  # atno 7974 bound_to 7965
  156.0424  140.1306  157.0141 H   0  0  0  0  0  0  0  0  0  0  0  0  # atno 8008 bound_to 7997
  154.4397  140.1027  156.6327 H   0  0  0  0  0  0  0  0  0  0  0  0  # atno 8009 bound_to 7997
  155.5647  140.3465  155.4502 H   0  0  0  0  0  0  0  0  0  0  0  0  # atno 8010 bound_to 7997
  140.3962  143.2682  151.9201 H   0  0  0  0  0  0  0  0  0  0  0  0  # atno 10167 bound_to 10162
  155.9993  130.4943  150.5456 H   0  0  0  0  0  0  0  0  0  0  0  0  # atno 10718 bound_to 10713
  153.5180  135.7016  153.5746 H   0  0  0  0  0  0  0  0  0  0  0  0  # atno 10763 bound_to 10752
  153.3808  135.3920  155.1855 H   0  0  0  0  0  0  0  0  0  0  0  0  # atno 10764 bound_to 10752
  154.8697  135.3834  154.4666 H   0  0  0  0  0  0  0  0  0  0  0  0  # atno 10765 bound_to 10752
  140.5990  134.4967  157.5203 H   0  0  0  0  0  0  0  0  0  0  0  0  # atno 11005 bound_to 11000
  145.4014  139.1597  143.4175 LP  0  0  0  0  0  0  0  0  0  0  0  0  # atno 17320 bound_to 7965
  146.2973  140.4111  142.8717 LP  0  0  0  0  0  0  0  0  0  0  0  0  # atno 17321 bound_to 7965
  139.4786  144.5679  151.8136 LP  0  0  0  0  0  0  0  0  0  0  0  0  # atno 17342 bound_to 10162
  140.4788  144.1480  150.5929 LP  0  0  0  0  0  0  0  0  0  0  0  0  # atno 17343 bound_to 10162
  157.3386  131.0712  151.1805 LP  0  0  0  0  0  0  0  0  0  0  0  0  # atno 17370 bound_to 10713
  157.2661  130.6682  149.5997 LP  0  0  0  0  0  0  0  0  0  0  0  0  # atno 17371 bound_to 10713
  139.9241  134.8091  156.1122 LP  0  0  0  0  0  0  0  0  0  0  0  0  # atno 17394 bound_to 11000
  141.0885  133.6724  156.2488 LP  0  0  0  0  0  0  0  0  0  0  0  0  # atno 17395 bound_to 11000

$$$$
