AV-unprocessed.smi:2041|AV-procd|sdf|8290|dock2
  -GOLD-   2272010553D 1   1.00000     0.00000
 Structure written by MMmdl.
 31 32  0  0  0  0  0  0  0  0  1 V2000
  150.2668  140.4228  156.7829 O   0  0  0  0  0  0  0  0  0  0  0  0
  150.0051  141.5518  156.3663 C   0  0  0  0  0  0  0  0  0  0  0  0
  150.5684  142.6918  156.8030 N   0  0  0  0  0  0  0  0  0  0  0  0
  151.5517  142.8559  157.8138 C   0  0  0  0  0  0  0  0  0  0  0  0
  152.1993  141.8472  158.4088 N   0  0  0  0  0  0  0  0  0  0  0  0
  153.1093  142.3012  159.3670 C   0  0  0  0  0  0  0  0  0  0  0  0
  153.1427  143.6681  159.4884 C   0  0  0  0  0  0  0  0  0  0  0  0
  152.0264  144.4443  158.3973 S   0  0  0  0  0  0  0  0  0  0  0  0
  149.1054  141.7957  155.4023 N   0  0  0  0  0  0  0  0  0  0  0  0
  148.2797  140.7932  154.7287 C   0  0  2  0  0  0  0  0  0  0  0  0
  147.2384  140.1915  155.7083 C   0  0  0  0  0  0  0  0  0  0  0  0
  146.7297  138.7736  155.3732 C   0  0  0  0  0  0  0  0  0  0  0  0
  146.1603  138.5895  153.9518 C   0  0  0  0  0  0  0  0  0  0  0  0
  147.0815  138.9957  152.7769 C   0  0  0  0  0  0  0  0  0  0  0  0
  148.5094  138.9571  153.0893 N   0  0  0  0  0  0  0  0  0  0  0  0
  149.1357  139.7680  153.9596 C   0  0  0  0  0  0  0  0  0  0  0  0
  150.3478  139.6858  154.1551 O   0  0  0  0  0  0  0  0  0  0  0  0
  150.2511  143.5444  156.3654 H   0  0  0  0  0  0  0  0  0  0  0  0
  153.6941  141.5802  159.9189 H   0  0  0  0  0  0  0  0  0  0  0  0
  153.7537  144.2627  160.1510 H   0  0  0  0  0  0  0  0  0  0  0  0
  148.9537  142.7550  155.1265 H   0  0  0  0  0  0  0  0  0  0  0  0
  147.7271  141.3319  153.9578 H   0  0  0  0  0  0  0  0  0  0  0  0
  147.6656  140.1551  156.7117 H   0  0  0  0  0  0  0  0  0  0  0  0
  146.3874  140.8701  155.7783 H   0  0  0  0  0  0  0  0  0  0  0  0
  147.5328  138.0534  155.5351 H   0  0  0  0  0  0  0  0  0  0  0  0
  145.9589  138.5015  156.0949 H   0  0  0  0  0  0  0  0  0  0  0  0
  145.9016  137.5365  153.8361 H   0  0  0  0  0  0  0  0  0  0  0  0
  145.2178  139.1309  153.8636 H   0  0  0  0  0  0  0  0  0  0  0  0
  146.8980  138.3379  151.9269 H   0  0  0  0  0  0  0  0  0  0  0  0
  146.8202  139.9948  152.4263 H   0  0  0  0  0  0  0  0  0  0  0  0
  149.0673  138.2760  152.5947 H   0  0  0  0  0  0  0  0  0  0  0  0
  1  2  2  0  0  0  0
  2  3  1  0  0  0  0
  2  9  1  0  0  0  0
  3  4  1  0  0  0  0
  3 18  1  0  0  0  0
  4  8  1  0  0  0  0
  4  5  2  0  0  0  0
  5  6  1  0  0  0  0
  6  7  2  0  0  0  0
  6 19  1  0  0  0  0
  7  8  1  0  0  0  0
  7 20  1  0  0  0  0
  9 10  1  0  0  0  0
  9 21  1  0  0  0  0
 10 16  1  0  0  0  0
 10 11  1  0  0  0  0
 10 22  1  0  0  0  0
 11 12  1  0  0  0  0
 11 23  1  0  0  0  0
 11 24  1  0  0  0  0
 12 13  1  0  0  0  0
 12 25  1  0  0  0  0
 12 26  1  0  0  0  0
 13 14  1  0  0  0  0
 13 27  1  0  0  0  0
 13 28  1  0  0  0  0
 14 15  1  0  0  0  0
 14 29  1  0  0  0  0
 14 30  1  0  0  0  0
 15 16  1  0  0  0  0
 15 31  1  0  0  0  0
 16 17  2  0  0  0  0
M  END
> <s_m_source_file>
AV-unprocessed.smi

> <i_m_source_file_index>
2041

> <i_lp_mmshare_version>
43012

> <i_f3d_flags>
0

> <s_epik_input>
czFbY0hdW2NIXW5jMVtOSF1DKD1PKVtOSF1bQ0BASF0yW0NIMl1bQ0gyXVtDSDJdW0NIMl1bTkhdQzI9Tw==

> <s_epik_cmdline>
J2VwaWtfcHl0aG9uJywgJy1waCcsICc3LjAnLCAnLXRuJywgJzgnLCAnLW1hJywgJzIwMCcsICctbWV0YWxfYmluZGluZycsICctaW1hZScsICc8aW5maWxlLm1hZT4nLCAnLW9tYWUnLCAnPG91dGZpbGUubWFlPic=

> <r_lp_tautomer_probability>
1

> <r_epik_Ionization_Penalty>
0.000247973

> <r_epik_Ionization_Penalty_Charging>
0

> <r_epik_Ionization_Penalty_Neutral>
0.000247973

> <r_epik_State_Penalty>
-0

> <r_epik_Charging_Adjusted_Penalty>
0

> <i_epik_Tot_Q>
0

> <i_epik_Tot_abs_Q>
0

> <r_epik_Metal_State_Penalty>
0.011719

> <b_epik_Metal_Only>
0

> <s_lp_Force_Field>
OPLS_2005

> <r_lp_Energy>
12.9597

> <b_lp_Chiralities_Consistent>
1

> <s_lp_Variant>
AV-unprocessed.smi:2041-1

> <Gold.Version>
5.8.1

> <Gold.Id.Protein>
6NUR|6NUR_protein|mol2

> <Gold.PLP.Fitness>
40.8290

> <Gold.PLP.PLP>
-30.0036

> <Gold.PLP.part.hbond>
-4.7839

> <Gold.PLP.part.metal>
0.0000

> <Gold.PLP.part.buried>
-2.8625

> <Gold.PLP.part.nonpolar>
-23.1656

> <Gold.PLP.part.repulsive>
0.4979

> <Gold.PLP.ligand.clash>
0.0000

> <Gold.PLP.ligand.torsion>
0.0496

> <Gold.PLP.Chemscore.Hbond>
3.6237

> <Gold.PLP.Chemscore.CHOScore>
0.0000

> <Gold.PLP.Chemscore.Metal>
0.0000

> <Gold.Chemscore.Hbonds>
donor molecule, donor type, donor heavy atom, donor atom, acceptor molecule, acceptor atom, score
      L1  H     3    18       P1  8028  1.00
      L1  H     9    21       P1  8028  0.99
      L1  H    15    31       P1  7948  0.61
      P1  H  7989  7998       L1    17  1.00

> <Gold.PLP.Chemscore.Internal.Correction>
0.0536

> <Gold.Rescore>
     Score         DG    S(hbond)    S(metal)    S(lipo)     H(rot)  DE(clash)    DE(int)     intcor
     16.72     -20.67       3.40        0.00      54.65       1.00       0.12       3.83       ----

> <Gold.Chemscore.Fitness>
16.7236

> <Gold.Chemscore.DG>
-20.6701

> <Gold.Chemscore.ZeroCoef>
-5.4800

> <Gold.Chemscore.Hbond>
3.4000

> <Gold.Chemscore.Metal>
0.0000

> <Gold.Chemscore.Lipo>
54.6514

> <Gold.Chemscore.Internal_Hbond>
0.0000

> <Gold.Chemscore.DEClash>
0.1214

> <Gold.Chemscore.DEInternal>
3.8250

> <Gold.Chemscore.Rot>
1.0000

> <Gold.Chemscore.Internal.Correction>
   9.000000E+99

> <Gold.Chemscore.Hbonds>
donor molecule, donor type, donor heavy atom, donor atom, acceptor molecule, acceptor atom, score
      L1  H     3    18       P1  8028  0.97
      L1  H     9    21       P1  8028  0.87
      L1  H    15    31       P1  7948  0.59
      P1  H  7989  7998       L1    17  0.99

> <Gold.Chemscore.Hbond.Weighted>
-11.3558

> <Gold.Chemscore.Metal.Weighted>
-0.0000

> <Gold.Chemscore.Lipo.Weighted>
-6.3942

> <Gold.Chemscore.Internal_Hbond.Weighted>
0.0000

> <Gold.Chemscore.DEClash.Weighted>
0.1214

> <Gold.Chemscore.DEInternal.Weighted>
3.8250

> <Gold.Chemscore.Rot.Weighted>
2.5600

> <Gold.Chemscore.Internal.Correction.Weighted>
   9.000000E+99

> <Gold.Protein.RotatedTorsions>
[ 6907 6896 6895 6894 ] final   61.41 input  -60.11 | X-H torsion
[ 7974 7965 7964 7962 ] final   49.53 input  175.53 | X-H torsion
[ 8008 7997 7996 7995 ] final  -99.83 input   59.86 | X-H torsion
[ 10167 10162 10161 10158 ] final -169.71 input  -65.29 | X-H torsion
[ 10718 10713 10712 10709 ] final    7.06 input   66.30 | X-H torsion
[ 10763 10752 10751 10750 ] final  149.32 input  -60.55 | X-H torsion
[ 11005 11000 10999 10996 ] final -143.83 input  -57.11 | X-H torsion

> <Gold.Protein.ActiveResidues>
 VAL166  LYS551  ARG553  GLY616  TRP617  ASP618  TYR619  PRO620  LYS621  CYS622 
 ASP623  PHE694  ASN695  SER759  ASP760  ASP761  ALA762  ILE779  LEU786  VAL792 
 PHE793  MET794  SER795  GLU796  ALA797  LYS798  CYS799  TRP800  GLU811  SER814 

> <Gold.Protein.RotatedAtoms>
  152.4087  134.6163  160.0038 H   0  0  0  0  0  0  0  0  0  0  0  0  # atno 6907 bound_to 6896
  151.6346  133.3324  159.3124 H   0  0  0  0  0  0  0  0  0  0  0  0  # atno 6908 bound_to 6896
  150.7979  134.7093  159.6639 H   0  0  0  0  0  0  0  0  0  0  0  0  # atno 6909 bound_to 6896
  146.0100  139.4532  142.9962 H   0  0  0  0  0  0  0  0  0  0  0  0  # atno 7974 bound_to 7965
  154.8202  140.0445  157.1405 H   0  0  0  0  0  0  0  0  0  0  0  0  # atno 8008 bound_to 7997
  154.9269  140.3034  155.5167 H   0  0  0  0  0  0  0  0  0  0  0  0  # atno 8009 bound_to 7997
  156.2979  140.2330  156.4324 H   0  0  0  0  0  0  0  0  0  0  0  0  # atno 8010 bound_to 7997
  139.5906  144.1222  152.1629 H   0  0  0  0  0  0  0  0  0  0  0  0  # atno 10167 bound_to 10162
  156.9314  130.5827  149.5649 H   0  0  0  0  0  0  0  0  0  0  0  0  # atno 10718 bound_to 10713
  154.0692  135.2868  155.3311 H   0  0  0  0  0  0  0  0  0  0  0  0  # atno 10763 bound_to 10752
  154.6758  135.5282  153.8200 H   0  0  0  0  0  0  0  0  0  0  0  0  # atno 10764 bound_to 10752
  153.0492  135.6569  154.0874 H   0  0  0  0  0  0  0  0  0  0  0  0  # atno 10765 bound_to 10752
  140.8086  134.2771  157.4950 H   0  0  0  0  0  0  0  0  0  0  0  0  # atno 11005 bound_to 11000
  145.7357  141.0026  143.1328 LP  0  0  0  0  0  0  0  0  0  0  0  0  # atno 17320 bound_to 7965
  144.6949  139.9038  143.7460 LP  0  0  0  0  0  0  0  0  0  0  0  0  # atno 17321 bound_to 7965
  140.0795  144.5712  150.7132 LP  0  0  0  0  0  0  0  0  0  0  0  0  # atno 17342 bound_to 10162
  140.7169  143.2553  151.4404 LP  0  0  0  0  0  0  0  0  0  0  0  0  # atno 17343 bound_to 10162
  156.0445  130.5524  150.8849 LP  0  0  0  0  0  0  0  0  0  0  0  0  # atno 17370 bound_to 10713
  157.5844  131.0946  150.9219 LP  0  0  0  0  0  0  0  0  0  0  0  0  # atno 17371 bound_to 10713
  139.8716  134.9470  156.3955 LP  0  0  0  0  0  0  0  0  0  0  0  0  # atno 17394 bound_to 11000
  140.9221  133.7638  155.9919 LP  0  0  0  0  0  0  0  0  0  0  0  0  # atno 17395 bound_to 11000

$$$$
