AV-unprocessed.smi:1437|AV-procd|sdf|5866|dock6
  -GOLD-   22720 5543D 1   1.00000     0.00000
 Structure written by MMmdl.
 35 36  0  0  0  0  0  0  0  0  3 V2000
  152.3405  141.1558  159.0260 C   0  0  0  0  0  0  0  0  0  0  0  0
  152.0254  140.6394  157.6637 C   0  0  0  0  0  0  0  0  0  0  0  0
  151.0462  140.9421  156.7604 C   0  0  0  0  0  0  0  0  0  0  0  0
  151.3302  140.0739  155.6708 C   0  0  0  0  0  0  0  0  0  0  0  0
  150.6452  140.0027  154.5192 N   0  5  0  0  0  0  0  0  0  0  0  0
  149.5105  140.7204  154.3565 C   0  0  0  0  0  0  0  0  0  0  0  0
  149.3249  141.8884  154.7050 O   0  0  0  0  0  0  0  0  0  0  0  0
  148.5315  140.0405  153.7434 N   0  0  0  0  0  0  0  0  0  0  0  0
  147.2012  140.5483  153.4095 C   0  0  2  0  0  0  0  0  0  0  0  0
  146.1455  139.9170  154.3343 C   0  0  0  0  0  0  0  0  0  0  0  0
  145.9368  138.4217  154.0299 C   0  0  0  0  0  0  0  0  0  0  0  0
  145.5900  138.2080  152.6026 N   0  3  2  0  0  0  0  0  0  0  0  0
  145.2751  136.7939  152.3072 C   0  0  0  0  0  0  0  0  0  0  0  0
  146.6201  138.7589  151.6871 C   0  0  0  0  0  0  0  0  0  0  0  0
  146.8358  140.2614  151.9391 C   0  0  0  0  0  0  0  0  0  0  0  0
  152.3973  139.3233  155.8870 N   0  0  0  0  0  0  0  0  0  0  0  0
  152.8459  139.6758  157.1654 O   0  0  0  0  0  0  0  0  0  0  0  0
  152.7719  142.1551  158.9686 H   0  0  0  0  0  0  0  0  0  0  0  0
  153.0536  140.5083  159.5367 H   0  0  0  0  0  0  0  0  0  0  0  0
  151.4386  141.2107  159.6357 H   0  0  0  0  0  0  0  0  0  0  0  0
  150.2517  141.6660  156.8628 H   0  0  0  0  0  0  0  0  0  0  0  0
  148.7320  139.0845  153.4890 H   0  0  0  0  0  0  0  0  0  0  0  0
  147.1983  141.6271  153.5744 H   0  0  0  0  0  0  0  0  0  0  0  0
  146.4294  140.0511  155.3790 H   0  0  0  0  0  0  0  0  0  0  0  0
  145.1981  140.4427  154.2088 H   0  0  0  0  0  0  0  0  0  0  0  0
  146.8362  137.8550  154.2764 H   0  0  0  0  0  0  0  0  0  0  0  0
  145.1370  138.0323  154.6609 H   0  0  0  0  0  0  0  0  0  0  0  0
  146.1464  136.1579  152.4689 H   0  0  0  0  0  0  0  0  0  0  0  0
  144.9547  136.6791  151.2712 H   0  0  0  0  0  0  0  0  0  0  0  0
  144.4667  136.4372  152.9464 H   0  0  0  0  0  0  0  0  0  0  0  0
  147.5569  138.2140  151.8161 H   0  0  0  0  0  0  0  0  0  0  0  0
  146.3077  138.6071  150.6534 H   0  0  0  0  0  0  0  0  0  0  0  0
  145.9216  140.8002  151.6868 H   0  0  0  0  0  0  0  0  0  0  0  0
  147.6048  140.6455  151.2680 H   0  0  0  0  0  0  0  0  0  0  0  0
  144.7443  138.7328  152.4313 H   0  0  0  0  0  0  0  0  0  0  0  0
  1  2  1  0  0  0  0
  1 18  1  0  0  0  0
  1 19  1  0  0  0  0
  1 20  1  0  0  0  0
  2 17  1  0  0  0  0
  2  3  2  0  0  0  0
  3  4  1  0  0  0  0
  3 21  1  0  0  0  0
  4  5  1  0  0  0  0
  4 16  2  0  0  0  0
  5  6  1  0  0  0  0
  6  7  2  0  0  0  0
  6  8  1  0  0  0  0
  8  9  1  0  0  0  0
  8 22  1  0  0  0  0
  9 15  1  0  0  0  0
  9 10  1  0  0  0  0
  9 23  1  0  0  0  0
 10 11  1  0  0  0  0
 10 24  1  0  0  0  0
 10 25  1  0  0  0  0
 11 12  1  0  0  0  0
 11 26  1  0  0  0  0
 11 27  1  0  0  0  0
 12 13  1  0  0  0  0
 12 14  1  0  0  0  0
 12 35  1  0  0  0  0
 13 28  1  0  0  0  0
 13 29  1  0  0  0  0
 13 30  1  0  0  0  0
 14 15  1  0  0  0  0
 14 31  1  0  0  0  0
 14 32  1  0  0  0  0
 15 33  1  0  0  0  0
 15 34  1  0  0  0  0
 16 17  1  0  0  0  0
M  CHG  1   5  -1
M  CHG  1  12   1
M  END
> <s_m_source_file>
AV-unprocessed.smi

> <i_m_source_file_index>
1437

> <i_lp_mmshare_version>
43012

> <i_f3d_flags>
0

> <s_epik_input>
W0NIM11jMVtjSF1jKG5vMSlbTkhdQyg9TylbTkhdW0NIXTJbQ0gyXVtDSDJdTihbQ0gzXSlbQ0gyXVtDSDJdMg==

> <s_epik_cmdline>
J2VwaWtfcHl0aG9uJywgJy1waCcsICc3LjAnLCAnLXRuJywgJzgnLCAnLW1hJywgJzIwMCcsICctbWV0YWxfYmluZGluZycsICctaW1hZScsICc8aW5maWxlLm1hZT4nLCAnLW9tYWUnLCAnPG91dGZpbGUubWFlPic=

> <r_epik_Ionization_Penalty>
6.28535

> <r_epik_Ionization_Penalty_Charging>
6.28525

> <r_epik_Ionization_Penalty_Neutral>
9.66055e-05

> <r_epik_State_Penalty>
6.28414

> <r_epik_Charging_Adjusted_Penalty>
12.5694

> <i_epik_Tot_Q>
0

> <i_epik_Tot_abs_Q>
2

> <r_epik_Metal_State_Penalty>
2.21724

> <b_epik_Metal_Only>
1

> <s_lp_Force_Field>
OPLS_2005

> <r_lp_Energy>
2.0091

> <b_lp_Chiralities_Consistent>
1

> <s_lp_Variant>
AV-unprocessed.smi:1437-4

> <Gold.Version>
5.8.1

> <Gold.Id.Protein>
6NUR|6NUR_protein|mol2

> <Gold.PLP.Fitness>
38.3611

> <Gold.PLP.PLP>
-27.4189

> <Gold.PLP.part.hbond>
-5.2800

> <Gold.PLP.part.metal>
0.0000

> <Gold.PLP.part.buried>
-0.1837

> <Gold.PLP.part.nonpolar>
-24.3298

> <Gold.PLP.part.repulsive>
1.1276

> <Gold.PLP.ligand.clash>
0.0000

> <Gold.PLP.ligand.torsion>
0.4581

> <Gold.PLP.Chemscore.Hbond>
3.9500

> <Gold.PLP.Chemscore.CHOScore>
0.0000

> <Gold.PLP.Chemscore.Metal>
0.0000

> <Gold.Chemscore.Hbonds>
donor molecule, donor type, donor heavy atom, donor atom, acceptor molecule, acceptor atom, score
      L1  H    12    35       P1 10175  2.00
      P1  H  7989  7998       L1     5  0.90
      P1  H  7997  8009       L1    17  0.99

> <Gold.PLP.Chemscore.Internal.Correction>
0.0083

> <Gold.Rescore>
     Score         DG    S(hbond)    S(metal)    S(lipo)     H(rot)  DE(clash)    DE(int)     intcor
     11.80     -15.36       1.71        0.00      57.64       1.00       1.80       1.76       ----

> <Gold.Chemscore.Fitness>
11.8002

> <Gold.Chemscore.DG>
-15.3611

> <Gold.Chemscore.ZeroCoef>
-5.4800

> <Gold.Chemscore.Hbond>
1.7056

> <Gold.Chemscore.Metal>
0.0000

> <Gold.Chemscore.Lipo>
57.6449

> <Gold.Chemscore.Internal_Hbond>
0.0000

> <Gold.Chemscore.DEClash>
1.8040

> <Gold.Chemscore.DEInternal>
1.7569

> <Gold.Chemscore.Rot>
1.0000

> <Gold.Chemscore.Internal.Correction>
   9.000000E+99

> <Gold.Chemscore.Hbonds>
donor molecule, donor type, donor heavy atom, donor atom, acceptor molecule, acceptor atom, score
      L1  H    12    35       P1 10175  0.90
      P1  H  7989  7998       L1     5  0.06
      P1  H  7997  8009       L1    17  0.41

> <Gold.Chemscore.Hbond.Weighted>
-5.6967

> <Gold.Chemscore.Metal.Weighted>
-0.0000

> <Gold.Chemscore.Lipo.Weighted>
-6.7444

> <Gold.Chemscore.Internal_Hbond.Weighted>
0.0000

> <Gold.Chemscore.DEClash.Weighted>
1.8040

> <Gold.Chemscore.DEInternal.Weighted>
1.7569

> <Gold.Chemscore.Rot.Weighted>
2.5600

> <Gold.Chemscore.Internal.Correction.Weighted>
   9.000000E+99

> <Gold.Protein.RotatedTorsions>
[ 6907 6896 6895 6894 ] final  153.93 input  -60.11 | X-H torsion
[ 7974 7965 7964 7962 ] final  155.70 input  175.53 | X-H torsion
[ 8008 7997 7996 7995 ] final  158.48 input   59.86 | X-H torsion
[ 10167 10162 10161 10158 ] final    7.16 input  -65.29 | X-H torsion
[ 10718 10713 10712 10709 ] final -179.16 input   66.30 | X-H torsion
[ 10763 10752 10751 10750 ] final  -25.26 input  -60.55 | X-H torsion
[ 11005 11000 10999 10996 ] final   76.38 input  -57.11 | X-H torsion

> <Gold.Protein.ActiveResidues>
 VAL166  LYS551  ARG553  GLY616  TRP617  ASP618  TYR619  PRO620  LYS621  CYS622 
 ASP623  PHE694  ASN695  SER759  ASP760  ASP761  ALA762  ILE779  LEU786  VAL792 
 PHE793  MET794  SER795  GLU796  ALA797  LYS798  CYS799  TRP800  GLU811  SER814 

> <Gold.Protein.RotatedAtoms>
  152.0657  133.4082  159.4436 H   0  0  0  0  0  0  0  0  0  0  0  0  # atno 6907 bound_to 6896
  150.6865  134.3150  159.4771 H   0  0  0  0  0  0  0  0  0  0  0  0  # atno 6908 bound_to 6896
  152.0976  134.9364  160.0621 H   0  0  0  0  0  0  0  0  0  0  0  0  # atno 6909 bound_to 6896
  144.8009  139.7103  143.6182 H   0  0  0  0  0  0  0  0  0  0  0  0  # atno 7974 bound_to 7965
  156.2300  140.1857  156.7266 H   0  0  0  0  0  0  0  0  0  0  0  0  # atno 8008 bound_to 7997
  154.6006  140.0636  156.9391 H   0  0  0  0  0  0  0  0  0  0  0  0  # atno 8009 bound_to 7997
  155.2180  140.3305  155.4322 H   0  0  0  0  0  0  0  0  0  0  0  0  # atno 8010 bound_to 7997
  140.6387  143.7825  150.7397 H   0  0  0  0  0  0  0  0  0  0  0  0  # atno 10167 bound_to 10162
  156.8550  130.9732  151.3089 H   0  0  0  0  0  0  0  0  0  0  0  0  # atno 10718 bound_to 10713
  153.6970  135.6958  153.5073 H   0  0  0  0  0  0  0  0  0  0  0  0  # atno 10763 bound_to 10752
  153.2370  135.4318  155.0656 H   0  0  0  0  0  0  0  0  0  0  0  0  # atno 10764 bound_to 10752
  154.8355  135.3498  154.6511 H   0  0  0  0  0  0  0  0  0  0  0  0  # atno 10765 bound_to 10752
  139.9301  134.7596  156.1388 H   0  0  0  0  0  0  0  0  0  0  0  0  # atno 11005 bound_to 11000
  146.2290  139.5777  142.9568 LP  0  0  0  0  0  0  0  0  0  0  0  0  # atno 17320 bound_to 7965
  145.5556  141.0409  143.2254 LP  0  0  0  0  0  0  0  0  0  0  0  0  # atno 17321 bound_to 7965
  140.1452  143.4406  152.2168 LP  0  0  0  0  0  0  0  0  0  0  0  0  # atno 17342 bound_to 10162
  139.5597  144.7397  151.4192 LP  0  0  0  0  0  0  0  0  0  0  0  0  # atno 17343 bound_to 10162
  157.6282  130.8708  149.9227 LP  0  0  0  0  0  0  0  0  0  0  0  0  # atno 17370 bound_to 10713
  156.0808  130.3673  150.0585 LP  0  0  0  0  0  0  0  0  0  0  0  0  # atno 17371 bound_to 10713
  141.0884  133.6724  156.2486 LP  0  0  0  0  0  0  0  0  0  0  0  0  # atno 17394 bound_to 11000
  140.6226  134.5346  157.5549 LP  0  0  0  0  0  0  0  0  0  0  0  0  # atno 17395 bound_to 11000

$$$$
