AV-unprocessed.smi:1487|AV-procd|sdf|6011|dock10
  -GOLD-   22720 6113D 1   1.00000     0.00000
 Structure written by MMmdl.
 48 50  0  0  0  0  0  0  0  0  2 V2000
  153.6887  142.3659  160.6036 C   0  0  0  0  0  0  0  0  0  0  0  0
  152.6917  142.1182  159.4853 C   0  0  0  0  0  0  0  0  0  0  0  0
  152.5954  140.8247  158.9251 C   0  0  0  0  0  0  0  0  0  0  0  0
  151.6802  140.5524  157.8849 C   0  0  0  0  0  0  0  0  0  0  0  0
  151.4226  139.3775  157.1996 N   0  0  0  0  0  0  0  0  0  0  0  0
  150.4687  139.7618  156.3573 C   0  0  0  0  0  0  0  0  0  0  0  0
  150.0805  141.0503  156.4113 N   0  0  0  0  0  0  0  0  0  0  0  0
  149.0657  141.6896  155.5924 C   0  0  0  0  0  0  0  0  0  0  0  0
  148.6410  140.8163  154.3965 C   0  0  2  0  0  0  0  0  0  0  0  0
  149.4866  141.0887  153.2953 O   0  0  0  0  0  0  0  0  0  0  0  0
  147.1841  141.0917  153.9760 C   0  0  0  0  0  0  0  0  0  0  0  0
  146.5552  139.9188  153.3169 N   0  3  1  0  0  0  0  0  0  0  0  0
  147.1973  139.5561  152.0261 C   0  0  0  0  0  0  0  0  0  0  0  0
  146.4000  138.4581  151.3058 C   0  0  0  0  0  0  0  0  0  0  0  0
  146.2469  137.2166  152.1962 C   0  0  0  0  0  0  0  0  0  0  0  0
  145.6642  137.5896  153.5699 C   0  0  2  0  0  0  0  0  0  0  0  0
  144.3008  137.9438  153.4488 O   0  0  0  0  0  0  0  0  0  0  0  0
  146.4425  138.7474  154.2257 C   0  0  0  0  0  0  0  0  0  0  0  0
  150.8576  141.6183  157.4157 C   0  0  0  0  0  0  0  0  0  0  0  0
  150.9460  142.9102  157.9636 C   0  0  0  0  0  0  0  0  0  0  0  0
  151.8651  143.1647  159.0032 C   0  0  0  0  0  0  0  0  0  0  0  0
  151.9509  144.5622  159.5908 C   0  0  0  0  0  0  0  0  0  0  0  0
  154.2102  141.4498  160.8824 H   0  0  0  0  0  0  0  0  0  0  0  0
  153.1824  142.7447  161.4917 H   0  0  0  0  0  0  0  0  0  0  0  0
  154.4367  143.0955  160.2923 H   0  0  0  0  0  0  0  0  0  0  0  0
  153.2257  140.0277  159.2915 H   0  0  0  0  0  0  0  0  0  0  0  0
  150.0282  139.0671  155.6571 H   0  0  0  0  0  0  0  0  0  0  0  0
  148.2046  141.9042  156.2268 H   0  0  0  0  0  0  0  0  0  0  0  0
  149.4455  142.6530  155.2492 H   0  0  0  0  0  0  0  0  0  0  0  0
  148.7667  139.7692  154.6708 H   0  0  0  0  0  0  0  0  0  0  0  0
  149.2723  140.4904  152.5950 H   0  0  0  0  0  0  0  0  0  0  0  0
  146.5823  141.3831  154.8383 H   0  0  0  0  0  0  0  0  0  0  0  0
  147.1776  141.9487  153.3006 H   0  0  0  0  0  0  0  0  0  0  0  0
  147.2646  140.4275  151.3759 H   0  0  0  0  0  0  0  0  0  0  0  0
  148.2197  139.2199  152.2074 H   0  0  0  0  0  0  0  0  0  0  0  0
  145.4165  138.8410  151.0300 H   0  0  0  0  0  0  0  0  0  0  0  0
  146.8970  138.1872  150.3739 H   0  0  0  0  0  0  0  0  0  0  0  0
  145.6243  136.4685  151.7038 H   0  0  0  0  0  0  0  0  0  0  0  0
  147.2259  136.7565  152.3366 H   0  0  0  0  0  0  0  0  0  0  0  0
  145.7065  136.7179  154.2237 H   0  0  0  0  0  0  0  0  0  0  0  0
  144.2311  138.6789  152.8583 H   0  0  0  0  0  0  0  0  0  0  0  0
  147.4449  138.4118  154.4967 H   0  0  0  0  0  0  0  0  0  0  0  0
  145.9481  139.0389  155.1538 H   0  0  0  0  0  0  0  0  0  0  0  0
  150.3120  143.6994  157.5873 H   0  0  0  0  0  0  0  0  0  0  0  0
  151.2734  145.2494  159.0832 H   0  0  0  0  0  0  0  0  0  0  0  0
  152.9624  144.9572  159.4937 H   0  0  0  0  0  0  0  0  0  0  0  0
  151.6841  144.5484  160.6477 H   0  0  0  0  0  0  0  0  0  0  0  0
  145.6051  140.1929  153.1079 H   0  0  0  0  0  0  0  0  0  0  0  0
  1  2  1  0  0  0  0
  1 23  1  0  0  0  0
  1 24  1  0  0  0  0
  1 25  1  0  0  0  0
  2 21  1  0  0  0  0
  2  3  2  0  0  0  0
  3  4  1  0  0  0  0
  3 26  1  0  0  0  0
  4 19  2  0  0  0  0
  4  5  1  0  0  0  0
  5  6  2  0  0  0  0
  6  7  1  0  0  0  0
  6 27  1  0  0  0  0
  7  8  1  0  0  0  0
  7 19  1  0  0  0  0
  8  9  1  0  0  0  0
  8 28  1  0  0  0  0
  8 29  1  0  0  0  0
  9 10  1  0  0  0  0
  9 11  1  0  0  0  0
  9 30  1  0  0  0  0
 10 31  1  0  0  0  0
 11 12  1  0  0  0  0
 11 32  1  0  0  0  0
 11 33  1  0  0  0  0
 12 18  1  0  0  0  0
 12 13  1  0  0  0  0
 12 48  1  0  0  0  0
 13 14  1  0  0  0  0
 13 34  1  0  0  0  0
 13 35  1  0  0  0  0
 14 15  1  0  0  0  0
 14 36  1  0  0  0  0
 14 37  1  0  0  0  0
 15 16  1  0  0  0  0
 15 38  1  0  0  0  0
 15 39  1  0  0  0  0
 16 17  1  0  0  0  0
 16 18  1  0  0  0  0
 16 40  1  0  0  0  0
 17 41  1  0  0  0  0
 18 42  1  0  0  0  0
 18 43  1  0  0  0  0
 19 20  1  0  0  0  0
 20 21  2  0  0  0  0
 20 44  1  0  0  0  0
 21 22  1  0  0  0  0
 22 45  1  0  0  0  0
 22 46  1  0  0  0  0
 22 47  1  0  0  0  0
M  CHG  1  12   1
M  END
> <s_m_source_file>
AV-unprocessed.smi

> <i_m_source_file_index>
1487

> <i_lp_mmshare_version>
43012

> <i_f3d_flags>
0

> <s_epik_input>
W0NIM11jKFtjSF0xKWMoW0NIM10pW2NIXWMoYzEyKW4oW2NIXW4yKVtDSDJdW0NASF0oW09IXSlbQ0gyXU4zW0NIMl1bQ0gyXVtDSDJdW0NAQEhdKFtPSF0pW0NIMl0z

> <s_epik_cmdline>
J2VwaWtfcHl0aG9uJywgJy1waCcsICc3LjAnLCAnLXRuJywgJzgnLCAnLW1hJywgJzIwMCcsICctbWV0YWxfYmluZGluZycsICctaW1hZScsICc8aW5maWxlLm1hZT4nLCAnLW9tYWUnLCAnPG91dGZpbGUubWFlPic=

> <r_epik_Ionization_Penalty>
0.0940186

> <r_epik_Ionization_Penalty_Charging>
0.00679686

> <r_epik_Ionization_Penalty_Neutral>
0.0872218

> <r_epik_State_Penalty>
0.0799311

> <r_epik_Charging_Adjusted_Penalty>
0.086728

> <i_epik_Tot_Q>
1

> <i_epik_Tot_abs_Q>
1

> <r_epik_Metal_State_Penalty>
7.95545e-05

> <b_epik_Metal_Only>
0

> <s_lp_Force_Field>
OPLS_2005

> <r_lp_Energy>
22.5409

> <b_lp_Chiralities_Consistent>
1

> <s_lp_Variant>
AV-unprocessed.smi:1487-5

> <Gold.Version>
5.8.1

> <Gold.Id.Protein>
6NUR|6NUR_protein|mol2

> <Gold.PLP.Fitness>
56.5438

> <Gold.PLP.PLP>
-43.3426

> <Gold.PLP.part.hbond>
-3.9492

> <Gold.PLP.part.metal>
0.0000

> <Gold.PLP.part.buried>
1.4293

> <Gold.PLP.part.nonpolar>
-41.5276

> <Gold.PLP.part.repulsive>
0.0000

> <Gold.PLP.ligand.clash>
0.0000

> <Gold.PLP.ligand.torsion>
0.7951

> <Gold.PLP.Chemscore.Hbond>
4.9166

> <Gold.PLP.Chemscore.CHOScore>
0.0000

> <Gold.PLP.Chemscore.Metal>
0.0000

> <Gold.Chemscore.Hbonds>
donor molecule, donor type, donor heavy atom, donor atom, acceptor molecule, acceptor atom, score
      L1  H    10    31       P1  7957  0.90
      L1  H    12    48       P1 10175  1.95
      L1  H    17    41       P1 10175  1.00
      P1  H  7989  7998       L1    10  0.12
      P1  H  8011  8017       L1    10  0.80

> <Gold.PLP.Chemscore.Internal.Correction>
0.0417

> <Gold.Rescore>
     Score         DG    S(hbond)    S(metal)    S(lipo)     H(rot)  DE(clash)    DE(int)     intcor
     22.66     -23.82       3.35        0.00     119.65       2.67       0.26       0.90       ----

> <Gold.Chemscore.Fitness>
22.6632

> <Gold.Chemscore.DG>
-23.8155

> <Gold.Chemscore.ZeroCoef>
-5.4800

> <Gold.Chemscore.Hbond>
3.3458

> <Gold.Chemscore.Metal>
0.0000

> <Gold.Chemscore.Lipo>
119.6478

> <Gold.Chemscore.Internal_Hbond>
0.0000

> <Gold.Chemscore.DEClash>
0.2557

> <Gold.Chemscore.DEInternal>
0.8966

> <Gold.Chemscore.Rot>
2.6712

> <Gold.Chemscore.Internal.Correction>
   9.000000E+99

> <Gold.Chemscore.Hbonds>
donor molecule, donor type, donor heavy atom, donor atom, acceptor molecule, acceptor atom, score
      L1  H    10    31       P1  7957  0.82
      L1  H    12    48       P1 10175  0.90
      L1  H    17    41       P1 10175  0.95
      P1  H  7989  7998       L1    10  0.05
      P1  H  8011  8017       L1    10  0.12

> <Gold.Chemscore.Hbond.Weighted>
-11.1750

> <Gold.Chemscore.Metal.Weighted>
-0.0000

> <Gold.Chemscore.Lipo.Weighted>
-13.9988

> <Gold.Chemscore.Internal_Hbond.Weighted>
0.0000

> <Gold.Chemscore.DEClash.Weighted>
0.2557

> <Gold.Chemscore.DEInternal.Weighted>
0.8966

> <Gold.Chemscore.Rot.Weighted>
6.8383

> <Gold.Chemscore.Internal.Correction.Weighted>
   9.000000E+99

> <Gold.Protein.RotatedTorsions>
[ 6907 6896 6895 6894 ] final -102.37 input  -60.11 | X-H torsion
[ 7974 7965 7964 7962 ] final -140.85 input  175.53 | X-H torsion
[ 8008 7997 7996 7995 ] final   68.07 input   59.86 | X-H torsion
[ 10167 10162 10161 10158 ] final   37.74 input  -65.29 | X-H torsion
[ 10718 10713 10712 10709 ] final  -19.05 input   66.30 | X-H torsion
[ 10763 10752 10751 10750 ] final  -30.38 input  -60.55 | X-H torsion
[ 11005 11000 10999 10996 ] final  -93.49 input  -57.11 | X-H torsion

> <Gold.Protein.ActiveResidues>
 VAL166  LYS551  ARG553  GLY616  TRP617  ASP618  TYR619  PRO620  LYS621  CYS622 
 ASP623  PHE694  ASN695  SER759  ASP760  ASP761  ALA762  ILE779  LEU786  VAL792 
 PHE793  MET794  SER795  GLU796  ALA797  LYS798  CYS799  TRP800  GLU811  SER814 

> <Gold.Protein.RotatedAtoms>
  150.7193  134.0591  159.3824 H   0  0  0  0  0  0  0  0  0  0  0  0  # atno 6907 bound_to 6896
  151.8571  135.0535  160.0474 H   0  0  0  0  0  0  0  0  0  0  0  0  # atno 6908 bound_to 6896
  152.2746  133.5378  159.5496 H   0  0  0  0  0  0  0  0  0  0  0  0  # atno 6909 bound_to 6896
  144.8565  140.6151  143.5356 H   0  0  0  0  0  0  0  0  0  0  0  0  # atno 7974 bound_to 7965
  155.7027  140.3495  155.4940 H   0  0  0  0  0  0  0  0  0  0  0  0  # atno 8008 bound_to 7997
  155.9426  140.1104  157.1065 H   0  0  0  0  0  0  0  0  0  0  0  0  # atno 8009 bound_to 7997
  154.4105  140.1210  156.4933 H   0  0  0  0  0  0  0  0  0  0  0  0  # atno 8010 bound_to 7997
  140.4004  144.1732  150.6133 H   0  0  0  0  0  0  0  0  0  0  0  0  # atno 10167 bound_to 10162
  156.5511  130.4702  149.6452 H   0  0  0  0  0  0  0  0  0  0  0  0  # atno 10718 bound_to 10713
  153.7801  135.6906  153.4890 H   0  0  0  0  0  0  0  0  0  0  0  0  # atno 10763 bound_to 10752
  153.1817  135.4504  155.0035 H   0  0  0  0  0  0  0  0  0  0  0  0  # atno 10764 bound_to 10752
  154.8085  135.3367  154.7304 H   0  0  0  0  0  0  0  0  0  0  0  0  # atno 10765 bound_to 10752
  141.1495  133.7891  157.0167 H   0  0  0  0  0  0  0  0  0  0  0  0  # atno 11005 bound_to 11000
  145.4396  139.1537  143.3978 LP  0  0  0  0  0  0  0  0  0  0  0  0  # atno 17320 bound_to 7965
  146.2827  140.4516  142.8770 LP  0  0  0  0  0  0  0  0  0  0  0  0  # atno 17321 bound_to 7965
  140.4746  143.2400  151.9041 LP  0  0  0  0  0  0  0  0  0  0  0  0  # atno 17342 bound_to 10162
  139.4785  144.5334  151.8634 LP  0  0  0  0  0  0  0  0  0  0  0  0  # atno 17343 bound_to 10162
  156.2884  130.7110  151.1953 LP  0  0  0  0  0  0  0  0  0  0  0  0  # atno 17370 bound_to 10713
  157.7387  131.0537  150.5276 LP  0  0  0  0  0  0  0  0  0  0  0  0  # atno 17371 bound_to 10713
  140.0842  134.9630  157.1673 LP  0  0  0  0  0  0  0  0  0  0  0  0  # atno 17394 bound_to 11000
  140.3534  134.2573  155.7195 LP  0  0  0  0  0  0  0  0  0  0  0  0  # atno 17395 bound_to 11000

$$$$
