#       Name:                AV-unprocessed.smi:247
#       Creating user name   scv26
#       Creation time:       Thu Mar 26 20:55:22 2020


#       File generated by GOLD software.
#

@<TRIPOS>MOLECULE
AV-unprocessed.smi:247
    72    76     1
SMALL
NO_CHARGES


@<TRIPOS>ATOM
      1 ****        -4.1762   2.6943   0.9048 O.3            1 S1                 0.0000
      2 ****        -3.6507   1.5269   0.3039 C.3            1 S1                 0.0000
      3 ****        -4.2812   0.2144   0.8471 C.3            1 S1                 0.0000
      4 ****        -3.6975  -0.9887   0.0406 C.3            1 S1                 0.0000
      5 ****        -2.2519  -1.1465   0.1222 N.pl3          1 S1                 0.0000
      6 ****        -1.5522  -1.8555   1.0719 C.2            1 S1                 0.0000
      7 ****        -0.2560  -1.8504   0.9272 N.2            1 S1                 0.0000
      8 ****        -0.0409  -1.1026  -0.2254 C.ar           1 S1                 0.0000
      9 ****         1.1192  -0.7003  -0.9505 C.ar           1 S1                 0.0000
     10 ****         2.3855  -1.0308  -0.5787 N.pl3          1 S1                 0.0000
     11 ****         2.6392  -2.3549  -0.0232 C.3            1 S1                 0.0000
     12 ****         4.0780  -2.7012  -0.4046 C.3            1 S1                 0.0000
     13 ****         4.3692  -1.7614  -1.5718 C.3            1 S1                 0.0000
     14 ****         3.5839  -0.4839  -1.2225 C.3            1 S1                 0.0000
     15 ****         4.3633   0.5048  -0.2898 C.3            1 S1                 0.0000
     16 ****         5.6431   1.0487  -0.9723 C.3            1 S1                 0.0000
     17 ****         5.2981   1.8566  -2.0952 O.3            1 S1                 0.0000
     18 ****         4.5924   3.0415  -1.7386 C.3            1 S1                 0.0000
     19 ****         3.2846   2.6919  -1.0103 C.3            1 S1                 0.0000
     20 ****         3.5807   1.7631   0.1749 C.3            1 S1                 0.0000
     21 ****         2.4039   1.4783   0.9031 O.3            1 S1                 0.0000
     22 ****         0.9220   0.0642  -2.0565 N.ar           1 S1                 0.0000
     23 ****        -0.3113   0.4061  -2.4377 C.ar           1 S1                 0.0000
     24 ****        -1.4754   0.1010  -1.8638 N.ar           1 S1                 0.0000
     25 ****        -1.2900  -0.6569  -0.7455 C.ar           1 S1                 0.0000
     26 ****        -4.0000   0.0869   2.3670 C.3            1 S1                 0.0000
     27 ****        -4.7897  -1.0643   3.0145 C.3            1 S1                 0.0000
     28 ****        -6.1820  -0.8811   2.7885 O.3            1 S1                 0.0000
     29 ****        -6.5312  -0.9018   1.4095 C.3            1 S1                 0.0000
     30 ****        -5.8207   0.2436   0.6627 C.3            1 S1                 0.0000
     31 ****        -3.7390   3.4458   0.5347 H              1 S1                 0.0000
     32 ****        -3.8048   1.6039  -0.7728 H              1 S1                 0.0000
     33 ****        -2.5738   1.5373   0.4713 H              1 S1                 0.0000
     34 ****        -4.1405  -1.9322   0.3555 H              1 S1                 0.0000
     35 ****        -3.9614  -0.8866  -1.0130 H              1 S1                 0.0000
     36 ****        -2.0354  -2.3738   1.8871 H              1 S1                 0.0000
     37 ****         2.5001  -2.3632   1.0581 H              1 S1                 0.0000
     38 ****         1.9530  -3.0802  -0.4626 H              1 S1                 0.0000
     39 ****         4.7474  -2.4788   0.4270 H              1 S1                 0.0000
     40 ****         4.2037  -3.7525  -0.6647 H              1 S1                 0.0000
     41 ****         5.4342  -1.6279  -1.7451 H              1 S1                 0.0000
     42 ****         3.9560  -2.1927  -2.4847 H              1 S1                 0.0000
     43 ****         3.3554   0.0285  -2.1562 H              1 S1                 0.0000
     44 ****         4.6666  -0.0426   0.6034 H              1 S1                 0.0000
     45 ****         6.2315   1.6387  -0.2676 H              1 S1                 0.0000
     46 ****         6.3073   0.2534  -1.3017 H              1 S1                 0.0000
     47 ****         5.2254   3.6710  -1.1113 H              1 S1                 0.0000
     48 ****         4.3774   3.6108  -2.6429 H              1 S1                 0.0000
     49 ****         2.7980   3.6050  -0.6661 H              1 S1                 0.0000
     50 ****         2.5932   2.2167  -1.7050 H              1 S1                 0.0000
     51 ****         4.2153   2.3115   0.8728 H              1 S1                 0.0000
     52 ****         2.6331   0.9443   1.6481 H              1 S1                 0.0000
     53 ****        -0.3728   1.0114  -3.3302 H              1 S1                 0.0000
     54 ****        -2.9346  -0.0254   2.5643 H              1 S1                 0.0000
     55 ****        -4.2921   1.0062   2.8752 H              1 S1                 0.0000
     56 ****        -4.4695  -2.0358   2.6376 H              1 S1                 0.0000
     57 ****        -4.6121  -1.0740   4.0900 H              1 S1                 0.0000
     58 ****        -6.2973  -1.8746   0.9767 H              1 S1                 0.0000
     59 ****        -7.6113  -0.7806   1.3256 H              1 S1                 0.0000
     60 ****        -6.2287   1.1801   1.0437 H              1 S1                 0.0000
     61 ****        -6.0788   0.2150  -0.3965 H              1 S1                 0.0000
     62 ****        -4.0192   2.6652   1.8919 LP             1 S1                 0.0000
     63 ****        -5.1582   2.7532   0.7250 LP             1 S1                 0.0000
     64 ****         0.4281  -2.2856   1.5124 LP             1 S1                 0.0000
     65 ****         4.7229   1.3171  -2.7102 LP             1 S1                 0.0000
     66 ****         6.1390   2.1180  -2.5690 LP             1 S1                 0.0000
     67 ****         1.7581   0.9848   0.3205 LP             1 S1                 0.0000
     68 ****         1.9861   2.3314   1.2156 LP             1 S1                 0.0000
     69 ****         1.7086   0.3740  -2.5906 LP             1 S1                 0.0000
     70 ****        -2.3684   0.3903  -2.2087 LP             1 S1                 0.0000
     71 ****        -6.4533   0.0016   3.1722 LP             1 S1                 0.0000
     72 ****        -6.6790  -1.6137   3.2536 LP             1 S1                 0.0000
@<TRIPOS>BOND
    1    1    2 1     
    2    1   31 1     
    3    2    3 1     
    4    2   32 1     
    5    2   33 1     
    6    3   30 1     
    7    3    4 1     
    8    3   26 1     
    9    4    5 1     
   10    4   34 1     
   11    4   35 1     
   12    5   25 1     
   13    5    6 1     
   14    6    7 2     
   15    6   36 1     
   16    7    8 1     
   17    8   25 ar    
   18    8    9 ar    
   19    9   10 1     
   20    9   22 ar    
   21   10   14 1     
   22   10   11 1     
   23   11   12 1     
   24   11   37 1     
   25   11   38 1     
   26   12   13 1     
   27   12   39 1     
   28   12   40 1     
   29   13   14 1     
   30   13   41 1     
   31   13   42 1     
   32   14   15 1     
   33   14   43 1     
   34   15   20 1     
   35   15   16 1     
   36   15   44 1     
   37   16   17 1     
   38   16   45 1     
   39   16   46 1     
   40   17   18 1     
   41   18   19 1     
   42   18   47 1     
   43   18   48 1     
   44   19   20 1     
   45   19   49 1     
   46   19   50 1     
   47   20   21 1     
   48   20   51 1     
   49   21   52 1     
   50   22   23 ar    
   51   23   24 ar    
   52   23   53 1     
   53   24   25 ar    
   54   26   27 1     
   55   26   54 1     
   56   26   55 1     
   57   27   28 1     
   58   27   56 1     
   59   27   57 1     
   60   28   29 1     
   61   29   30 1     
   62   29   58 1     
   63   29   59 1     
   64   30   60 1     
   65   30   61 1     
   66    1   62 1     
   67    1   63 1     
   68    7   64 1     
   69   17   65 1     
   70   17   66 1     
   71   21   67 1     
   72   21   68 1     
   73   22   69 1     
   74   24   70 1     
   75   28   71 1     
   76   28   72 1     
@<TRIPOS>SUBSTRUCTURE
      1 S1             1
@<TRIPOS>SET
LONE_PAIRS      STATIC     ATOMS    <user>   **** ""
11 62 63 64 65 66 67 68 69 70 71 72
DONOR_HYDROGENS      STATIC     ATOMS    <user>   **** ""
2 31 52
ATOM$BLUE        STATIC     ATOMS    COLORGROUP SYSTEM
11 62 63 64 65 66 67 68 69 70 71 72
ATOM$RED        STATIC     ATOMS    COLORGROUP SYSTEM
2 31 52
