AV-unprocessed.smi:2032|AV-procd|sdf|8251|dock6
  -GOLD-   2272010523D 1   1.00000     0.00000
 Structure written by MMmdl.
 42 43  0  0  0  0  0  0  0  0  3 V2000
  145.9077  132.2083  151.2845 C   0  0  0  0  0  0  0  0  0  0  0  0
  146.3005  133.5950  151.8064 C   0  0  2  0  0  0  0  0  0  0  0  0
  146.9722  133.5221  153.1879 C   0  0  0  0  0  0  0  0  0  0  0  0
  147.2822  134.8822  153.7016 N   0  3  2  0  0  0  0  0  0  0  0  0
  148.0837  134.8426  154.9674 C   0  0  2  0  0  0  0  0  0  0  0  0
  149.2291  133.8012  154.9505 C   0  0  0  0  0  0  0  0  0  0  0  0
  147.1464  134.5879  156.1766 C   0  0  0  0  0  0  0  0  0  0  0  0
  147.3904  135.5034  157.2867 N   0  0  0  0  0  0  0  0  0  0  0  0
  148.3523  135.3689  158.2105 C   0  0  0  0  0  0  0  0  0  0  0  0
  149.1344  134.4171  158.1483 O   0  0  0  0  0  0  0  0  0  0  0  0
  148.3423  136.3401  159.1505 N   0  5  0  0  0  0  0  0  0  0  0  0
  147.9639  136.0547  160.4069 C   0  0  0  0  0  0  0  0  0  0  0  0
  147.7656  136.9930  161.3398 N   0  0  0  0  0  0  0  0  0  0  0  0
  147.3702  136.4741  162.5741 C   0  0  0  0  0  0  0  0  0  0  0  0
  147.2563  135.1091  162.5786 C   0  0  0  0  0  0  0  0  0  0  0  0
  147.6447  134.4308  161.0234 S   0  0  0  0  0  0  0  0  0  0  0  0
  146.0318  135.6887  153.7452 C   0  0  0  0  0  0  0  0  0  0  0  0
  145.3166  135.7042  152.3786 C   0  0  1  0  0  0  0  0  0  0  0  0
  146.0091  136.5970  151.3331 C   0  0  0  0  0  0  0  0  0  0  0  0
  145.1144  134.3757  151.9023 O   0  0  0  0  0  0  0  0  0  0  0  0
  146.7815  131.5634  151.1872 H   0  0  0  0  0  0  0  0  0  0  0  0
  145.4374  132.2797  150.3034 H   0  0  0  0  0  0  0  0  0  0  0  0
  145.2030  131.7178  151.9567 H   0  0  0  0  0  0  0  0  0  0  0  0
  146.9856  134.0442  151.0871 H   0  0  0  0  0  0  0  0  0  0  0  0
  146.3186  133.0090  153.8956 H   0  0  0  0  0  0  0  0  0  0  0  0
  147.8757  132.9202  153.1071 H   0  0  0  0  0  0  0  0  0  0  0  0
  148.5564  135.8193  155.0843 H   0  0  0  0  0  0  0  0  0  0  0  0
  149.7753  133.7899  155.8937 H   0  0  0  0  0  0  0  0  0  0  0  0
  149.9717  134.0225  154.1840 H   0  0  0  0  0  0  0  0  0  0  0  0
  148.8502  132.7926  154.7822 H   0  0  0  0  0  0  0  0  0  0  0  0
  146.0942  134.6582  155.9027 H   0  0  0  0  0  0  0  0  0  0  0  0
  147.2916  133.5722  156.5453 H   0  0  0  0  0  0  0  0  0  0  0  0
  146.7749  136.2993  157.3710 H   0  0  0  0  0  0  0  0  0  0  0  0
  147.1899  137.1510  163.3959 H   0  0  0  0  0  0  0  0  0  0  0  0
  146.9685  134.4649  163.3955 H   0  0  0  0  0  0  0  0  0  0  0  0
  145.3675  135.2727  154.5044 H   0  0  0  0  0  0  0  0  0  0  0  0
  146.2360  136.7216  154.0260 H   0  0  0  0  0  0  0  0  0  0  0  0
  144.3206  136.1204  152.5329 H   0  0  0  0  0  0  0  0  0  0  0  0
  146.0206  137.6370  151.6604 H   0  0  0  0  0  0  0  0  0  0  0  0
  145.4822  136.5588  150.3794 H   0  0  0  0  0  0  0  0  0  0  0  0
  147.0435  136.3032  151.1566 H   0  0  0  0  0  0  0  0  0  0  0  0
  147.8726  135.3293  153.0149 H   0  0  0  0  0  0  0  0  0  0  0  0
  1  2  1  0  0  0  0
  1 21  1  0  0  0  0
  1 22  1  0  0  0  0
  1 23  1  0  0  0  0
  2 20  1  0  0  0  0
  2  3  1  0  0  0  0
  2 24  1  0  0  0  0
  3  4  1  0  0  0  0
  3 25  1  0  0  0  0
  3 26  1  0  0  0  0
  4  5  1  0  0  0  0
  4 17  1  0  0  0  0
  4 42  1  0  0  0  0
  5  6  1  0  0  0  0
  5  7  1  0  0  0  0
  5 27  1  0  0  0  0
  6 28  1  0  0  0  0
  6 29  1  0  0  0  0
  6 30  1  0  0  0  0
  7  8  1  0  0  0  0
  7 31  1  0  0  0  0
  7 32  1  0  0  0  0
  8  9  1  0  0  0  0
  8 33  1  0  0  0  0
  9 10  2  0  0  0  0
  9 11  1  0  0  0  0
 11 12  1  0  0  0  0
 12 16  1  0  0  0  0
 12 13  2  0  0  0  0
 13 14  1  0  0  0  0
 14 15  2  0  0  0  0
 14 34  1  0  0  0  0
 15 16  1  0  0  0  0
 15 35  1  0  0  0  0
 17 18  1  0  0  0  0
 17 36  1  0  0  0  0
 17 37  1  0  0  0  0
 18 19  1  0  0  0  0
 18 20  1  0  0  0  0
 18 38  1  0  0  0  0
 19 39  1  0  0  0  0
 19 40  1  0  0  0  0
 19 41  1  0  0  0  0
M  CHG  1   4   1
M  CHG  1  11  -1
M  END
> <s_m_source_file>
AV-unprocessed.smi

> <i_m_source_file_index>
2032

> <i_lp_mmshare_version>
43012

> <i_f3d_flags>
0

> <s_epik_input>
W0NIM11bQ0BASF0xW0NIMl1OKFtDSDJdW0NASF0oTzEpW0NIM10pW0NASF0oW0NIM10pW0NIMl1bTkhdQyg9TylbTkhdYzJuW2NIXVtjSF1zMg==

> <s_epik_cmdline>
J2VwaWtfcHl0aG9uJywgJy1waCcsICc3LjAnLCAnLXRuJywgJzgnLCAnLW1hJywgJzIwMCcsICctbWV0YWxfYmluZGluZycsICctaW1hZScsICc8aW5maWxlLm1hZT4nLCAnLW9tYWUnLCAnPG91dGZpbGUubWFlPic=

> <r_lp_tautomer_probability>
0.999

> <r_epik_Ionization_Penalty>
6.71699

> <r_epik_Ionization_Penalty_Charging>
5.88592

> <r_epik_Ionization_Penalty_Neutral>
0.831074

> <r_epik_State_Penalty>
6.08365

> <r_epik_Charging_Adjusted_Penalty>
11.9696

> <i_epik_Tot_Q>
0

> <i_epik_Tot_abs_Q>
2

> <r_epik_Metal_State_Penalty>
2.0947

> <b_epik_Metal_Only>
1

> <s_lp_Force_Field>
OPLS_2005

> <r_lp_Energy>
13.7972

> <b_lp_Chiralities_Consistent>
1

> <s_lp_Variant>
AV-unprocessed.smi:2032-21

> <Gold.Version>
5.8.1

> <Gold.Id.Protein>
6NUR|6NUR_protein|mol2

> <Gold.PLP.Fitness>
41.4527

> <Gold.PLP.PLP>
-30.3143

> <Gold.PLP.part.hbond>
-4.0000

> <Gold.PLP.part.metal>
0.0000

> <Gold.PLP.part.buried>
-2.8979

> <Gold.PLP.part.nonpolar>
-23.5467

> <Gold.PLP.part.repulsive>
0.0948

> <Gold.PLP.ligand.clash>
0.0000

> <Gold.PLP.ligand.torsion>
1.7137

> <Gold.PLP.Chemscore.Hbond>
4.8320

> <Gold.PLP.Chemscore.CHOScore>
0.0000

> <Gold.PLP.Chemscore.Metal>
0.0000

> <Gold.Chemscore.Hbonds>
donor molecule, donor type, donor heavy atom, donor atom, acceptor molecule, acceptor atom, score
      L1  H     4    42       P1  7948  2.00
      P1  H  6896  6909       L1    10  1.00
      P1  H  6931  6943       L1    13  1.00
      P1  H  6934  6947       L1    13  0.58

> <Gold.PLP.Chemscore.Internal.Correction>
0.0698

> <Gold.Rescore>
     Score         DG    S(hbond)    S(metal)    S(lipo)     H(rot)  DE(clash)    DE(int)     intcor
     17.67     -19.32       3.11        0.00      64.20       1.58       0.03       1.63       ----

> <Gold.Chemscore.Fitness>
17.6697

> <Gold.Chemscore.DG>
-19.3245

> <Gold.Chemscore.ZeroCoef>
-5.4800

> <Gold.Chemscore.Hbond>
3.1064

> <Gold.Chemscore.Metal>
0.0000

> <Gold.Chemscore.Lipo>
64.2027

> <Gold.Chemscore.Internal_Hbond>
0.0000

> <Gold.Chemscore.DEClash>
0.0263

> <Gold.Chemscore.DEInternal>
1.6285

> <Gold.Chemscore.Rot>
1.5791

> <Gold.Chemscore.Internal.Correction>
   9.000000E+99

> <Gold.Chemscore.Hbonds>
donor molecule, donor type, donor heavy atom, donor atom, acceptor molecule, acceptor atom, score
      L1  H     4    42       P1  7948  1.00
      P1  H  6896  6909       L1    10  0.92
      P1  H  6931  6943       L1    13  0.25
      P1  H  6934  6947       L1    13  0.53

> <Gold.Chemscore.Hbond.Weighted>
-10.3753

> <Gold.Chemscore.Metal.Weighted>
-0.0000

> <Gold.Chemscore.Lipo.Weighted>
-7.5117

> <Gold.Chemscore.Internal_Hbond.Weighted>
0.0000

> <Gold.Chemscore.DEClash.Weighted>
0.0263

> <Gold.Chemscore.DEInternal.Weighted>
1.6285

> <Gold.Chemscore.Rot.Weighted>
4.0425

> <Gold.Chemscore.Internal.Correction.Weighted>
   9.000000E+99

> <Gold.Protein.RotatedTorsions>
[ 6907 6896 6895 6894 ] final   37.43 input  -60.11 | X-H torsion
[ 7974 7965 7964 7962 ] final -178.79 input  175.53 | X-H torsion
[ 8008 7997 7996 7995 ] final   60.06 input   59.86 | X-H torsion
[ 10167 10162 10161 10158 ] final   75.34 input  -65.29 | X-H torsion
[ 10718 10713 10712 10709 ] final  126.86 input   66.30 | X-H torsion
[ 10763 10752 10751 10750 ] final  -63.48 input  -60.55 | X-H torsion
[ 11005 11000 10999 10996 ] final  155.64 input  -57.11 | X-H torsion

> <Gold.Protein.ActiveResidues>
 VAL166  LYS551  ARG553  GLY616  TRP617  ASP618  TYR619  PRO620  LYS621  CYS622 
 ASP623  PHE694  ASN695  SER759  ASP760  ASP761  ALA762  ILE779  LEU786  VAL792 
 PHE793  MET794  SER795  GLU796  ALA797  LYS798  CYS799  TRP800  GLU811  SER814 

> <Gold.Protein.RotatedAtoms>
  152.1431  134.9047  160.0552 H   0  0  0  0  0  0  0  0  0  0  0  0  # atno 6907 bound_to 6896
  152.0107  133.3855  159.4227 H   0  0  0  0  0  0  0  0  0  0  0  0  # atno 6908 bound_to 6896
  150.6867  134.3655  159.5013 H   0  0  0  0  0  0  0  0  0  0  0  0  # atno 6909 bound_to 6896
  144.7133  140.0815  143.6425 H   0  0  0  0  0  0  0  0  0  0  0  0  # atno 7974 bound_to 7965
  155.5762  140.3490  155.4528 H   0  0  0  0  0  0  0  0  0  0  0  0  # atno 8008 bound_to 7997
  156.0407  140.1295  157.0183 H   0  0  0  0  0  0  0  0  0  0  0  0  # atno 8009 bound_to 7997
  154.4391  140.1024  156.6219 H   0  0  0  0  0  0  0  0  0  0  0  0  # atno 8010 bound_to 7997
  140.0041  144.5664  150.7713 H   0  0  0  0  0  0  0  0  0  0  0  0  # atno 10167 bound_to 10162
  157.5382  131.1097  150.8901 H   0  0  0  0  0  0  0  0  0  0  0  0  # atno 10718 bound_to 10713
  154.3157  135.6206  153.5485 H   0  0  0  0  0  0  0  0  0  0  0  0  # atno 10763 bound_to 10752
  152.9825  135.5712  154.5127 H   0  0  0  0  0  0  0  0  0  0  0  0  # atno 10764 bound_to 10752
  154.4785  135.2862  155.1565 H   0  0  0  0  0  0  0  0  0  0  0  0  # atno 10765 bound_to 10752
  140.1601  134.8615  157.2563 H   0  0  0  0  0  0  0  0  0  0  0  0  # atno 11005 bound_to 11000
  145.9698  139.2861  143.1106 LP  0  0  0  0  0  0  0  0  0  0  0  0  # atno 17320 bound_to 7965
  145.9129  140.9168  143.0444 LP  0  0  0  0  0  0  0  0  0  0  0  0  # atno 17321 bound_to 7965
  140.7407  143.2808  151.3603 LP  0  0  0  0  0  0  0  0  0  0  0  0  # atno 17342 bound_to 10162
  139.6251  144.0830  152.2427 LP  0  0  0  0  0  0  0  0  0  0  0  0  # atno 17343 bound_to 10162
  156.9461  130.5402  149.5281 LP  0  0  0  0  0  0  0  0  0  0  0  0  # atno 17370 bound_to 10713
  156.0476  130.5550  150.8915 LP  0  0  0  0  0  0  0  0  0  0  0  0  # atno 17371 bound_to 10713
  140.2500  134.3694  155.7446 LP  0  0  0  0  0  0  0  0  0  0  0  0  # atno 17394 bound_to 11000
  141.2208  133.7312  156.8921 LP  0  0  0  0  0  0  0  0  0  0  0  0  # atno 17395 bound_to 11000

$$$$
