#       Name:                AV-unprocessed.smi:1254
#       Creating user name   scv26
#       Creation time:       Fri Mar 27 04:39:59 2020


#       File generated by GOLD software.
#

@<TRIPOS>MOLECULE
AV-unprocessed.smi:1254
    53    54     1
SMALL
NO_CHARGES


@<TRIPOS>ATOM
      1 ****        -4.3627   6.4076  -3.6787 C.3            1 S1                 0.0000
      2 ****        -3.6391   5.6248  -2.6374 C.2            1 S1                 0.0000
      3 ****        -3.9933   4.5562  -1.8637 C.2            1 S1                 0.0000
      4 ****        -2.8243   4.3123  -1.0921 C.2            1 S1                 0.0000
      5 ****        -2.6802   3.3561  -0.1617 N.pl3          1 S1                -1.0000
      6 ****        -2.3094   2.1055  -0.5220 C.2            1 S1                 0.0000
      7 ****        -2.0735   1.7151  -1.6676 O.2            1 S1                 0.0000
      8 ****        -2.2087   1.2561   0.5103 N.am           1 S1                 0.0000
      9 ****        -1.8201  -0.1487   0.4345 C.3            1 S1                 0.0000
     10 ****        -0.3104  -0.3319   0.6626 C.3            1 S1                 0.0000
     11 ****         0.0755  -1.8206   0.7660 C.3            1 S1                 0.0000
     12 ****         1.5132  -2.0095   0.9320 N.3            1 S1                 0.0000
     13 ****         1.8418  -3.4321   1.0379 C.3            1 S1                 0.0000
     14 ****         3.2909  -3.7600   1.4575 C.3            1 S1                 0.0000
     15 ****         3.5336  -5.2755   1.4033 C.3            1 S1                 0.0000
     16 ****         3.6165  -3.2128   2.8568 C.3            1 S1                 0.0000
     17 ****         2.2075  -1.3490  -0.1713 C.3            1 S1                 0.0000
     18 ****         1.8136   0.1326  -0.2928 C.3            1 S1                 0.0000
     19 ****         0.4018   0.2379  -0.4330 O.3            1 S1                 0.0000
     20 ****        -1.8531   5.1691  -1.3611 N.2            1 S1                 0.0000
     21 ****        -2.3655   6.0102  -2.3561 O.3            1 S1                 0.0000
     22 ****        -4.6478   7.3872  -3.2953 H              1 S1                 0.0000
     23 ****        -5.2690   5.8903  -3.9939 H              1 S1                 0.0000
     24 ****        -3.7356   6.5560  -4.5579 H              1 S1                 0.0000
     25 ****        -4.9357   4.0292  -1.8526 H              1 S1                 0.0000
     26 ****        -2.4094   1.6230   1.4289 H              1 S1                 0.0000
     27 ****        -2.3727  -0.6774   1.2114 H              1 S1                 0.0000
     28 ****        -2.1254  -0.5937  -0.5140 H              1 S1                 0.0000
     29 ****        -0.0241   0.1803   1.5833 H              1 S1                 0.0000
     30 ****        -0.4524  -2.2693   1.6083 H              1 S1                 0.0000
     31 ****        -0.2642  -2.3450  -0.1288 H              1 S1                 0.0000
     32 ****         1.1743  -3.8959   1.7658 H              1 S1                 0.0000
     33 ****         1.6237  -3.9201   0.0867 H              1 S1                 0.0000
     34 ****         3.9834  -3.3085   0.7478 H              1 S1                 0.0000
     35 ****         2.8834  -5.8067   2.0992 H              1 S1                 0.0000
     36 ****         4.5651  -5.5184   1.6598 H              1 S1                 0.0000
     37 ****         3.3432  -5.6687   0.4043 H              1 S1                 0.0000
     38 ****         2.9526  -3.6348   3.6119 H              1 S1                 0.0000
     39 ****         3.5138  -2.1279   2.8925 H              1 S1                 0.0000
     40 ****         4.6410  -3.4519   3.1433 H              1 S1                 0.0000
     41 ****         3.2861  -1.4088  -0.0331 H              1 S1                 0.0000
     42 ****         1.9818  -1.8589  -1.1092 H              1 S1                 0.0000
     43 ****         2.1429   0.6946   0.5825 H              1 S1                 0.0000
     44 ****         2.2922   0.5833  -1.1622 H              1 S1                 0.0000
     45 ****        -2.8474   3.5684   0.8011 LP             1 S1                 0.0000
     46 ****        -2.1506   2.3485  -2.4376 LP             1 S1                 0.0000
     47 ****        -1.8052   0.7650  -1.8268 LP             1 S1                 0.0000
     48 ****         1.8196  -1.5905   1.7867 LP             1 S1                 0.0000
     49 ****         0.1596   1.2057  -0.5019 LP             1 S1                 0.0000
     50 ****         0.1286  -0.2345  -1.2710 LP             1 S1                 0.0000
     51 ****        -0.9457   5.2078  -0.9427 LP             1 S1                 0.0000
     52 ****        -2.3638   6.9560  -2.0314 LP             1 S1                 0.0000
     53 ****        -1.8026   5.9395  -3.1796 LP             1 S1                 0.0000
@<TRIPOS>BOND
    1    1    2 1     
    2    1   22 1     
    3    1   23 1     
    4    1   24 1     
    5    2   21 1     
    6    2    3 2     
    7    3    4 1     
    8    3   25 1     
    9    4    5 1     
   10    4   20 2     
   11    5    6 1     
   12    6    7 2     
   13    6    8 am    
   14    8    9 1     
   15    8   26 1     
   16    9   10 1     
   17    9   27 1     
   18    9   28 1     
   19   10   19 1     
   20   10   11 1     
   21   10   29 1     
   22   11   12 1     
   23   11   30 1     
   24   11   31 1     
   25   12   13 1     
   26   12   17 1     
   27   13   14 1     
   28   13   32 1     
   29   13   33 1     
   30   14   15 1     
   31   14   16 1     
   32   14   34 1     
   33   15   35 1     
   34   15   36 1     
   35   15   37 1     
   36   16   38 1     
   37   16   39 1     
   38   16   40 1     
   39   17   18 1     
   40   17   41 1     
   41   17   42 1     
   42   18   19 1     
   43   18   43 1     
   44   18   44 1     
   45   20   21 1     
   46    5   45 1     
   47    7   46 1     
   48    7   47 1     
   49   12   48 1     
   50   19   49 1     
   51   19   50 1     
   52   20   51 1     
   53   21   52 1     
   54   21   53 1     
@<TRIPOS>SUBSTRUCTURE
      1 S1             1
@<TRIPOS>SET
LONE_PAIRS      STATIC     ATOMS    <user>   **** ""
9 45 46 47 48 49 50 51 52 53
DONOR_HYDROGENS      STATIC     ATOMS    <user>   **** ""
1 26
ATOM$BLUE        STATIC     ATOMS    COLORGROUP SYSTEM
9 45 46 47 48 49 50 51 52 53
ATOM$RED        STATIC     ATOMS    COLORGROUP SYSTEM
1 26
