AV-unprocessed.smi:2784|AV-procd|sdf|10742|dock5
  -GOLD-   2272015183D 1   1.00000     0.00000
 Structure written by MMmdl.
 30 31  0  0  0  0  0  0  0  0  2 V2000
  152.8432  142.4129  162.2429 C   0  0  0  0  0  0  0  0  0  0  0  0
  151.8857  142.3336  161.1991 O   0  0  0  0  0  0  0  0  0  0  0  0
  152.2655  143.0287  160.0184 C   0  0  2  0  0  0  0  0  0  0  0  0
  152.1363  144.5501  160.1855 C   0  0  0  0  0  0  0  0  0  0  0  0
  151.7563  145.0592  158.8000 C   0  0  0  0  0  0  0  0  0  0  0  0
  150.8166  143.9820  158.2632 C   0  0  0  0  0  0  0  0  0  0  0  0
  151.3258  142.6512  158.8517 C   0  0  1  0  0  0  0  0  0  0  0  0
  152.0427  141.8696  157.8454 N   0  0  0  0  0  0  0  0  0  0  0  0
  151.6234  140.7222  157.2930 C   0  0  0  0  0  0  0  0  0  0  0  0
  150.5385  140.2397  157.6266 O   0  0  0  0  0  0  0  0  0  0  0  0
  152.4843  140.2083  156.3856 N   0  5  0  0  0  0  0  0  0  0  0  0
  152.0196  139.4600  155.3721 C   0  0  0  0  0  0  0  0  0  0  0  0
  151.0348  139.7877  154.5337 N   0  0  0  0  0  0  0  0  0  0  0  0
  150.9020  138.7140  153.6667 C   0  0  0  0  0  0  0  0  0  0  0  0
  151.8205  137.7666  154.0281 C   0  0  0  0  0  0  0  0  0  0  0  0
  152.5284  138.2238  155.1053 O   0  0  0  0  0  0  0  0  0  0  0  0
  152.4935  141.8381  163.1004 H   0  0  0  0  0  0  0  0  0  0  0  0
  152.9958  143.4412  162.5721 H   0  0  0  0  0  0  0  0  0  0  0  0
  153.8027  141.9984  161.9312 H   0  0  0  0  0  0  0  0  0  0  0  0
  153.2966  142.7828  159.7545 H   0  0  0  0  0  0  0  0  0  0  0  0
  151.3306  144.7797  160.8844 H   0  0  0  0  0  0  0  0  0  0  0  0
  153.0483  145.0105  160.5662 H   0  0  0  0  0  0  0  0  0  0  0  0
  151.2939  146.0463  158.8249 H   0  0  0  0  0  0  0  0  0  0  0  0
  152.6458  145.1195  158.1712 H   0  0  0  0  0  0  0  0  0  0  0  0
  149.8078  144.1719  158.6323 H   0  0  0  0  0  0  0  0  0  0  0  0
  150.7640  143.9884  157.1735 H   0  0  0  0  0  0  0  0  0  0  0  0
  150.4796  142.0703  159.2237 H   0  0  0  0  0  0  0  0  0  0  0  0
  152.9372  142.2274  157.5444 H   0  0  0  0  0  0  0  0  0  0  0  0
  150.1720  138.7089  152.8711 H   0  0  0  0  0  0  0  0  0  0  0  0
  152.0806  136.7882  153.6535 H   0  0  0  0  0  0  0  0  0  0  0  0
  1  2  1  0  0  0  0
  1 17  1  0  0  0  0
  1 18  1  0  0  0  0
  1 19  1  0  0  0  0
  2  3  1  0  0  0  0
  3  7  1  0  0  0  0
  3  4  1  0  0  0  0
  3 20  1  0  0  0  0
  4  5  1  0  0  0  0
  4 21  1  0  0  0  0
  4 22  1  0  0  0  0
  5  6  1  0  0  0  0
  5 23  1  0  0  0  0
  5 24  1  0  0  0  0
  6  7  1  0  0  0  0
  6 25  1  0  0  0  0
  6 26  1  0  0  0  0
  7  8  1  0  0  0  0
  7 27  1  0  0  0  0
  8 28  1  0  0  0  0
  8  9  1  0  0  0  0
  9 11  1  0  0  0  0
  9 10  2  0  0  0  0
 11 12  1  0  0  0  0
 12 16  1  0  0  0  0
 12 13  2  0  0  0  0
 13 14  1  0  0  0  0
 14 29  1  0  0  0  0
 14 15  2  0  0  0  0
 15 30  1  0  0  0  0
 15 16  1  0  0  0  0
M  CHG  1  11  -1
M  END
> <s_m_source_file>
AV-unprocessed.smi

> <i_m_source_file_index>
2784

> <i_lp_mmshare_version>
43012

> <i_f3d_flags>
0

> <s_epik_input>
W0NIM11PW0NAQEhdMVtDSDJdW0NIMl1bQ0gyXVtDQEhdMVtOSF1DKD1PKVtOSF1jMm5bY0hdW2NIXW8y

> <s_epik_cmdline>
J2VwaWtfcHl0aG9uJywgJy1waCcsICc3LjAnLCAnLXRuJywgJzgnLCAnLW1hJywgJzIwMCcsICctbWV0YWxfYmluZGluZycsICctaW1hZScsICc8aW5maWxlLm1hZT4nLCAnLW9tYWUnLCAnPG91dGZpbGUubWFlPic=

> <r_lp_tautomer_probability>
0.107061

> <r_epik_Ionization_Penalty>
10.8857

> <r_epik_Ionization_Penalty_Charging>
7.67908

> <r_epik_Ionization_Penalty_Neutral>
3.20665

> <r_epik_State_Penalty>
5.80296

> <r_epik_Charging_Adjusted_Penalty>
13.482

> <i_epik_Tot_Q>
-1

> <i_epik_Tot_abs_Q>
1

> <r_epik_Metal_State_Penalty>
1.73217

> <b_epik_Metal_Only>
1

> <s_lp_Force_Field>
OPLS_2005

> <r_lp_Energy>
14.4726

> <b_lp_Chiralities_Consistent>
1

> <s_lp_Variant>
AV-unprocessed.smi:2784-17

> <Gold.Version>
5.8.1

> <Gold.Id.Protein>
6NUR|6NUR_protein|mol2

> <Gold.PLP.Fitness>
49.2963

> <Gold.PLP.PLP>
-34.2860

> <Gold.PLP.part.hbond>
-3.0000

> <Gold.PLP.part.metal>
0.0000

> <Gold.PLP.part.buried>
-3.9163

> <Gold.PLP.part.nonpolar>
-28.5453

> <Gold.PLP.part.repulsive>
0.2488

> <Gold.PLP.ligand.clash>
0.0000

> <Gold.PLP.ligand.torsion>
0.8215

> <Gold.PLP.Chemscore.Hbond>
3.2917

> <Gold.PLP.Chemscore.CHOScore>
2.2571

> <Gold.PLP.Chemscore.Metal>
0.0000

> <Gold.Chemscore.Hbonds>
donor molecule, donor type, donor heavy atom, donor atom, acceptor molecule, acceptor atom, score
      P1  H  6933  6945       L1     2  0.31
      P1  H  7989  7998       L1    13  0.90
      P1  H  7997  8009       L1    11  2.00
      L1  C    14    29       P1  7948  0.10
      L1  C    14    29       P1  7957  1.00
      L1  C    15    30       P1  7949  0.82

> <Gold.PLP.Chemscore.Internal.Correction>
0.0070

> <Gold.Rescore>
     Score         DG    S(hbond)    S(metal)    S(lipo)     H(rot)  DE(clash)    DE(int)     intcor
     17.50     -18.60       2.00        0.00      83.78       1.31       0.03       1.07       ----

> <Gold.Chemscore.Fitness>
17.4957

> <Gold.Chemscore.DG>
-18.5979

> <Gold.Chemscore.ZeroCoef>
-5.4800

> <Gold.Chemscore.Hbond>
1.9973

> <Gold.Chemscore.Metal>
0.0000

> <Gold.Chemscore.Lipo>
83.7760

> <Gold.Chemscore.Internal_Hbond>
0.0000

> <Gold.Chemscore.DEClash>
0.0310

> <Gold.Chemscore.DEInternal>
1.0712

> <Gold.Chemscore.Rot>
1.3106

> <Gold.Chemscore.Internal.Correction>
   9.000000E+99

> <Gold.Chemscore.Hbonds>
donor molecule, donor type, donor heavy atom, donor atom, acceptor molecule, acceptor atom, score
      P1  H  6933  6945       L1     2  0.14
      P1  H  7989  7998       L1    13  0.11
      P1  H  7997  8009       L1    11  0.76

> <Gold.Chemscore.Hbond.Weighted>
-6.6711

> <Gold.Chemscore.Metal.Weighted>
-0.0000

> <Gold.Chemscore.Lipo.Weighted>
-9.8018

> <Gold.Chemscore.Internal_Hbond.Weighted>
0.0000

> <Gold.Chemscore.DEClash.Weighted>
0.0310

> <Gold.Chemscore.DEInternal.Weighted>
1.0712

> <Gold.Chemscore.Rot.Weighted>
3.3550

> <Gold.Chemscore.Internal.Correction.Weighted>
   9.000000E+99

> <Gold.Protein.RotatedTorsions>
[ 6907 6896 6895 6894 ] final  -97.37 input  -60.11 | X-H torsion
[ 7974 7965 7964 7962 ] final  -41.28 input  175.53 | X-H torsion
[ 8008 7997 7996 7995 ] final -170.44 input   59.86 | X-H torsion
[ 10167 10162 10161 10158 ] final -158.71 input  -65.29 | X-H torsion
[ 10718 10713 10712 10709 ] final  -19.66 input   66.30 | X-H torsion
[ 10763 10752 10751 10750 ] final -106.50 input  -60.55 | X-H torsion
[ 11005 11000 10999 10996 ] final  117.84 input  -57.11 | X-H torsion

> <Gold.Protein.ActiveResidues>
 VAL166  LYS551  ARG553  GLY616  TRP617  ASP618  TYR619  PRO620  LYS621  CYS622 
 ASP623  PHE694  ASN695  SER759  ASP760  ASP761  ALA762  ILE779  LEU786  VAL792 
 PHE793  MET794  SER795  GLU796  ALA797  LYS798  CYS799  TRP800  GLU811  SER814 

> <Gold.Protein.RotatedAtoms>
  150.7014  134.1359  159.4086 H   0  0  0  0  0  0  0  0  0  0  0  0  # atno 6907 bound_to 6896
  151.9344  135.0240  160.0541 H   0  0  0  0  0  0  0  0  0  0  0  0  # atno 6908 bound_to 6896
  152.2148  133.4903  159.5166 H   0  0  0  0  0  0  0  0  0  0  0  0  # atno 6909 bound_to 6896
  146.0226  140.6831  142.9171 H   0  0  0  0  0  0  0  0  0  0  0  0  # atno 7974 bound_to 7965
  155.9183  140.1069  157.1226 H   0  0  0  0  0  0  0  0  0  0  0  0  # atno 8008 bound_to 7997
  154.4050  140.1261  156.4712 H   0  0  0  0  0  0  0  0  0  0  0  0  # atno 8009 bound_to 7997
  155.7226  140.3469  155.5025 H   0  0  0  0  0  0  0  0  0  0  0  0  # atno 8010 bound_to 7997
  139.6671  143.9810  152.2261 H   0  0  0  0  0  0  0  0  0  0  0  0  # atno 10167 bound_to 10162
  156.5426  130.4682  149.6491 H   0  0  0  0  0  0  0  0  0  0  0  0  # atno 10718 bound_to 10713
  154.8016  135.4710  154.0289 H   0  0  0  0  0  0  0  0  0  0  0  0  # atno 10763 bound_to 10752
  153.1790  135.6837  153.8510 H   0  0  0  0  0  0  0  0  0  0  0  0  # atno 10764 bound_to 10752
  153.8067  135.3222  155.3374 H   0  0  0  0  0  0  0  0  0  0  0  0  # atno 10765 bound_to 10752
  139.9088  134.9614  156.7412 H   0  0  0  0  0  0  0  0  0  0  0  0  # atno 11005 bound_to 11000
  144.6996  140.3593  143.7167 LP  0  0  0  0  0  0  0  0  0  0  0  0  # atno 17320 bound_to 7965
  145.7169  139.1699  143.2507 LP  0  0  0  0  0  0  0  0  0  0  0  0  # atno 17321 bound_to 7965
  139.9564  144.6586  150.8121 LP  0  0  0  0  0  0  0  0  0  0  0  0  # atno 17342 bound_to 10162
  140.7603  143.3149  151.2756 LP  0  0  0  0  0  0  0  0  0  0  0  0  # atno 17343 bound_to 10162
  156.2958  130.7149  151.2009 LP  0  0  0  0  0  0  0  0  0  0  0  0  # atno 17370 bound_to 10713
  157.7402  131.0519  150.5178 LP  0  0  0  0  0  0  0  0  0  0  0  0  # atno 17371 bound_to 10713
  140.6848  133.9442  155.7931 LP  0  0  0  0  0  0  0  0  0  0  0  0  # atno 17394 bound_to 11000
  141.0484  134.0520  157.3815 LP  0  0  0  0  0  0  0  0  0  0  0  0  # atno 17395 bound_to 11000

$$$$
