AV-unprocessed.smi:2062|AV-procd|sdf|8405|dock6
  -GOLD-   2272011 93D 1   1.00000     0.00000
 Structure written by MMmdl.
 42 43  0  0  0  0  0  0  0  0  3 V2000
  144.6745  134.8523  150.6372 C   0  0  0  0  0  0  0  0  0  0  0  0
  146.0702  134.4091  151.1073 C   0  0  0  0  0  0  0  0  0  0  0  0
  146.3742  132.9862  150.6154 C   0  0  0  0  0  0  0  0  0  0  0  0
  146.2152  134.4951  152.6423 C   0  0  0  0  0  0  0  0  0  0  0  0
  147.6131  134.3034  153.1064 N   0  3  2  0  0  0  0  0  0  0  0  0
  148.0390  132.8826  153.1498 C   0  0  0  0  0  0  0  0  0  0  0  0
  149.5066  132.7782  153.5952 C   0  0  0  0  0  0  0  0  0  0  0  0
  149.6651  133.4143  154.8559 O   0  0  0  0  0  0  0  0  0  0  0  0
  149.3557  134.8036  154.8039 C   0  0  2  0  0  0  0  0  0  0  0  0
  149.6558  135.4174  156.1780 C   0  0  0  0  0  0  0  0  0  0  0  0
  148.7353  134.8881  157.1776 N   0  0  0  0  0  0  0  0  0  0  0  0
  148.7129  135.2000  158.4799 C   0  0  0  0  0  0  0  0  0  0  0  0
  149.5413  135.9870  158.9434 O   0  0  0  0  0  0  0  0  0  0  0  0
  147.7261  134.5784  159.1636 N   0  5  0  0  0  0  0  0  0  0  0  0
  147.5602  134.8199  160.4743 C   0  0  0  0  0  0  0  0  0  0  0  0
  147.0285  133.9281  161.3179 N   0  0  0  0  0  0  0  0  0  0  0  0
  146.9432  134.3899  162.6326 C   0  0  0  0  0  0  0  0  0  0  0  0
  147.4133  135.6663  162.7920 C   0  0  0  0  0  0  0  0  0  0  0  0
  147.9795  136.3311  161.2864 S   0  0  0  0  0  0  0  0  0  0  0  0
  147.8745  134.9597  154.4094 C   0  0  0  0  0  0  0  0  0  0  0  0
  143.8922  134.2340  151.0788 H   0  0  0  0  0  0  0  0  0  0  0  0
  144.5838  134.7767  149.5531 H   0  0  0  0  0  0  0  0  0  0  0  0
  144.4719  135.8891  150.9067 H   0  0  0  0  0  0  0  0  0  0  0  0
  146.8052  135.0644  150.6409 H   0  0  0  0  0  0  0  0  0  0  0  0
  145.6711  132.2634  151.0304 H   0  0  0  0  0  0  0  0  0  0  0  0
  147.3793  132.6765  150.9031 H   0  0  0  0  0  0  0  0  0  0  0  0
  146.3116  132.9234  149.5285 H   0  0  0  0  0  0  0  0  0  0  0  0
  145.8586  135.4750  152.9637 H   0  0  0  0  0  0  0  0  0  0  0  0
  145.5710  133.7629  153.1319 H   0  0  0  0  0  0  0  0  0  0  0  0
  147.4017  132.3295  153.8418 H   0  0  0  0  0  0  0  0  0  0  0  0
  147.9280  132.4171  152.1714 H   0  0  0  0  0  0  0  0  0  0  0  0
  149.7977  131.7319  153.6890 H   0  0  0  0  0  0  0  0  0  0  0  0
  150.1727  133.2297  152.8580 H   0  0  0  0  0  0  0  0  0  0  0  0
  149.9839  135.2898  154.0546 H   0  0  0  0  0  0  0  0  0  0  0  0
  150.6700  135.1657  156.4892 H   0  0  0  0  0  0  0  0  0  0  0  0
  149.6052  136.5055  156.1134 H   0  0  0  0  0  0  0  0  0  0  0  0
  148.0370  134.2356  156.8529 H   0  0  0  0  0  0  0  0  0  0  0  0
  146.5320  133.7419  163.3921 H   0  0  0  0  0  0  0  0  0  0  0  0
  147.4597  136.2539  163.6964 H   0  0  0  0  0  0  0  0  0  0  0  0
  147.6242  136.0193  154.3427 H   0  0  0  0  0  0  0  0  0  0  0  0
  147.2292  134.5244  155.1744 H   0  0  0  0  0  0  0  0  0  0  0  0
  148.2051  134.7701  152.4341 H   0  0  0  0  0  0  0  0  0  0  0  0
  1  2  1  0  0  0  0
  1 21  1  0  0  0  0
  1 22  1  0  0  0  0
  1 23  1  0  0  0  0
  2  3  1  0  0  0  0
  2  4  1  0  0  0  0
  2 24  1  0  0  0  0
  3 25  1  0  0  0  0
  3 26  1  0  0  0  0
  3 27  1  0  0  0  0
  4  5  1  0  0  0  0
  4 28  1  0  0  0  0
  4 29  1  0  0  0  0
  5 20  1  0  0  0  0
  5  6  1  0  0  0  0
  5 42  1  0  0  0  0
  6  7  1  0  0  0  0
  6 30  1  0  0  0  0
  6 31  1  0  0  0  0
  7  8  1  0  0  0  0
  7 32  1  0  0  0  0
  7 33  1  0  0  0  0
  8  9  1  0  0  0  0
  9 10  1  0  0  0  0
  9 20  1  0  0  0  0
  9 34  1  0  0  0  0
 10 11  1  0  0  0  0
 10 35  1  0  0  0  0
 10 36  1  0  0  0  0
 11 12  1  0  0  0  0
 11 37  1  0  0  0  0
 12 13  2  0  0  0  0
 12 14  1  0  0  0  0
 14 15  1  0  0  0  0
 15 19  1  0  0  0  0
 15 16  2  0  0  0  0
 16 17  1  0  0  0  0
 17 18  2  0  0  0  0
 17 38  1  0  0  0  0
 18 19  1  0  0  0  0
 18 39  1  0  0  0  0
 20 40  1  0  0  0  0
 20 41  1  0  0  0  0
M  CHG  1   5   1
M  CHG  1  14  -1
M  END
> <s_m_source_file>
AV-unprocessed.smi

> <i_m_source_file_index>
2062

> <i_lp_mmshare_version>
43012

> <i_f3d_flags>
0

> <s_epik_input>
W0NIM11bQ0hdKFtDSDNdKVtDSDJdTjFbQ0gyXVtDSDJdT1tDQEhdKFtDSDJdMSlbQ0gyXVtOSF1DKD1PKVtOSF1jMm5bY0hdW2NIXXMy

> <s_epik_cmdline>
J2VwaWtfcHl0aG9uJywgJy1waCcsICc3LjAnLCAnLXRuJywgJzgnLCAnLW1hJywgJzIwMCcsICctbWV0YWxfYmluZGluZycsICctaW1hZScsICc8aW5maWxlLm1hZT4nLCAnLW9tYWUnLCAnPG91dGZpbGUubWFlPic=

> <r_lp_tautomer_probability>
0.999

> <r_epik_Ionization_Penalty>
6.35835

> <r_epik_Ionization_Penalty_Charging>
5.49938

> <r_epik_Ionization_Penalty_Neutral>
0.858963

> <r_epik_State_Penalty>
5.49328

> <r_epik_Charging_Adjusted_Penalty>
10.9927

> <i_epik_Tot_Q>
0

> <i_epik_Tot_abs_Q>
2

> <r_epik_Metal_State_Penalty>
1.51523

> <b_epik_Metal_Only>
1

> <s_lp_Force_Field>
OPLS_2005

> <r_lp_Energy>
7.82162

> <b_lp_Chiralities_Consistent>
1

> <s_lp_Variant>
AV-unprocessed.smi:2062-10

> <Gold.Version>
5.8.1

> <Gold.Id.Protein>
6NUR|6NUR_protein|mol2

> <Gold.PLP.Fitness>
43.3649

> <Gold.PLP.PLP>
-35.1083

> <Gold.PLP.part.hbond>
-2.0000

> <Gold.PLP.part.metal>
0.0000

> <Gold.PLP.part.buried>
-3.9332

> <Gold.PLP.part.nonpolar>
-29.1666

> <Gold.PLP.part.repulsive>
0.1105

> <Gold.PLP.ligand.clash>
0.0000

> <Gold.PLP.ligand.torsion>
0.4635

> <Gold.PLP.Chemscore.Hbond>
3.0000

> <Gold.PLP.Chemscore.CHOScore>
0.0000

> <Gold.PLP.Chemscore.Metal>
0.0000

> <Gold.Chemscore.Hbonds>
donor molecule, donor type, donor heavy atom, donor atom, acceptor molecule, acceptor atom, score
      L1  H     5    42       P1  7948  2.00
      P1  H  6896  6907       L1    13  0.65

> <Gold.PLP.Chemscore.Internal.Correction>
0.1838

> <Gold.Rescore>
     Score         DG    S(hbond)    S(metal)    S(lipo)     H(rot)  DE(clash)    DE(int)     intcor
     14.81     -15.71       1.94        0.00      69.58       1.72       0.00       0.90       ----

> <Gold.Chemscore.Fitness>
14.8058

> <Gold.Chemscore.DG>
-15.7136

> <Gold.Chemscore.ZeroCoef>
-5.4800

> <Gold.Chemscore.Hbond>
1.9443

> <Gold.Chemscore.Metal>
0.0000

> <Gold.Chemscore.Lipo>
69.5835

> <Gold.Chemscore.Internal_Hbond>
0.0000

> <Gold.Chemscore.DEClash>
0.0029

> <Gold.Chemscore.DEInternal>
0.9048

> <Gold.Chemscore.Rot>
1.7194

> <Gold.Chemscore.Internal.Correction>
   9.000000E+99

> <Gold.Chemscore.Hbonds>
donor molecule, donor type, donor heavy atom, donor atom, acceptor molecule, acceptor atom, score
      L1  H     5    42       P1  7948  0.38
      P1  H  6896  6907       L1    13  0.06

> <Gold.Chemscore.Hbond.Weighted>
-6.4940

> <Gold.Chemscore.Metal.Weighted>
-0.0000

> <Gold.Chemscore.Lipo.Weighted>
-8.1413

> <Gold.Chemscore.Internal_Hbond.Weighted>
0.0000

> <Gold.Chemscore.DEClash.Weighted>
0.0029

> <Gold.Chemscore.DEInternal.Weighted>
0.9048

> <Gold.Chemscore.Rot.Weighted>
4.4017

> <Gold.Chemscore.Internal.Correction.Weighted>
   9.000000E+99

> <Gold.Protein.RotatedTorsions>
[ 6907 6896 6895 6894 ] final  -71.58 input  -60.11 | X-H torsion
[ 7974 7965 7964 7962 ] final   72.99 input  175.53 | X-H torsion
[ 8008 7997 7996 7995 ] final   43.36 input   59.86 | X-H torsion
[ 10167 10162 10161 10158 ] final -167.76 input  -65.29 | X-H torsion
[ 10718 10713 10712 10709 ] final   61.44 input   66.30 | X-H torsion
[ 10763 10752 10751 10750 ] final  155.36 input  -60.55 | X-H torsion
[ 11005 11000 10999 10996 ] final -171.34 input  -57.11 | X-H torsion

> <Gold.Protein.ActiveResidues>
 VAL166  LYS551  ARG553  GLY616  TRP617  ASP618  TYR619  PRO620  LYS621  CYS622 
 ASP623  PHE694  ASN695  SER759  ASP760  ASP761  ALA762  ILE779  LEU786  VAL792 
 PHE793  MET794  SER795  GLU796  ALA797  LYS798  CYS799  TRP800  GLU811  SER814 

> <Gold.Protein.RotatedAtoms>
  150.7206  134.5288  159.5689 H   0  0  0  0  0  0  0  0  0  0  0  0  # atno 6907 bound_to 6896
  152.2826  134.7809  160.0403 H   0  0  0  0  0  0  0  0  0  0  0  0  # atno 6908 bound_to 6896
  151.8450  133.3394  159.3692 H   0  0  0  0  0  0  0  0  0  0  0  0  # atno 6909 bound_to 6896
  145.7465  139.2742  143.1456 H   0  0  0  0  0  0  0  0  0  0  0  0  # atno 7974 bound_to 7965
  155.3015  140.3385  155.4247 H   0  0  0  0  0  0  0  0  0  0  0  0  # atno 8008 bound_to 7997
  156.1999  140.1729  156.7960 H   0  0  0  0  0  0  0  0  0  0  0  0  # atno 8009 bound_to 7997
  154.5546  140.0699  156.8706 H   0  0  0  0  0  0  0  0  0  0  0  0  # atno 8010 bound_to 7997
  139.6028  144.0975  152.1761 H   0  0  0  0  0  0  0  0  0  0  0  0  # atno 10167 bound_to 10162
  157.5828  130.8994  149.9461 H   0  0  0  0  0  0  0  0  0  0  0  0  # atno 10718 bound_to 10713
  154.1671  135.2806  155.3092 H   0  0  0  0  0  0  0  0  0  0  0  0  # atno 10763 bound_to 10752
  154.6103  135.5501  153.7469 H   0  0  0  0  0  0  0  0  0  0  0  0  # atno 10764 bound_to 10752
  153.0175  135.6414  154.1812 H   0  0  0  0  0  0  0  0  0  0  0  0  # atno 10765 bound_to 10752
  140.5093  134.5817  157.5014 H   0  0  0  0  0  0  0  0  0  0  0  0  # atno 11005 bound_to 11000
  146.0398  140.8176  142.9834 LP  0  0  0  0  0  0  0  0  0  0  0  0  # atno 17320 bound_to 7965
  144.6859  140.2893  143.7280 LP  0  0  0  0  0  0  0  0  0  0  0  0  # atno 17321 bound_to 7965
  140.0575  144.5883  150.7288 LP  0  0  0  0  0  0  0  0  0  0  0  0  # atno 17342 bound_to 10162
  140.7263  143.2639  151.4110 LP  0  0  0  0  0  0  0  0  0  0  0  0  # atno 17343 bound_to 10162
  156.0874  130.3666  150.0460 LP  0  0  0  0  0  0  0  0  0  0  0  0  # atno 17370 bound_to 10713
  156.8596  130.9487  151.3619 LP  0  0  0  0  0  0  0  0  0  0  0  0  # atno 17371 bound_to 10713
  139.9668  134.7360  156.0123 LP  0  0  0  0  0  0  0  0  0  0  0  0  # atno 17394 bound_to 11000
  141.1394  133.6568  156.3685 LP  0  0  0  0  0  0  0  0  0  0  0  0  # atno 17395 bound_to 11000

$$$$
