AV-unprocessed.smi:1760|AV-procd|sdf|7094|dock2
  -GOLD-   22720 8313D 1   1.00000     0.00000
 Structure written by MMmdl.
 42 44  0  0  0  0  0  0  0  0  2 V2000
  150.3114  138.2617  158.8897 O   0  0  0  0  0  0  0  0  0  0  0  0
  150.9683  138.5431  157.8879 C   0  0  0  0  0  0  0  0  0  0  0  0
  151.7837  139.6045  157.7489 N   0  0  0  0  0  0  0  0  0  0  0  0
  152.0989  140.6215  158.6670 C   0  0  0  0  0  0  0  0  0  0  0  0
  151.6746  141.9130  158.5798 C   0  0  0  0  0  0  0  0  0  0  0  0
  152.0347  142.9213  159.5691 C   0  0  0  0  0  0  0  0  0  0  0  0
  151.6676  144.3898  159.4504 C   0  0  0  0  0  0  0  0  0  0  0  0
  150.3446  144.5504  159.4107 F   0  0  0  0  0  0  0  0  0  0  0  0
  152.1448  145.0879  160.4809 F   0  0  0  0  0  0  0  0  0  0  0  0
  152.1806  144.8972  158.3305 F   0  0  0  0  0  0  0  0  0  0  0  0
  152.8409  142.4114  160.5680 C   0  0  0  0  0  0  0  0  0  0  0  0
  153.2797  141.1460  160.7442 N   0  5  0  0  0  0  0  0  0  0  0  0
  152.9382  140.2116  159.8127 C   0  0  0  0  0  0  0  0  0  0  0  0
  153.3121  139.0420  159.9079 O   0  0  0  0  0  0  0  0  0  0  0  0
  150.9413  137.8172  156.7607 N   0  0  0  0  0  0  0  0  0  0  0  0
  150.1444  136.6140  156.5340 C   0  0  0  0  0  0  0  0  0  0  0  0
  151.0370  135.4755  156.0159 C   0  0  0  0  0  0  0  0  0  0  0  0
  150.1934  134.2507  155.6203 C   0  0  0  0  0  0  0  0  0  0  0  0
  149.2163  134.6193  154.5955 N   0  0  0  0  0  0  0  0  0  0  0  0
  148.4673  133.4336  154.2126 C   0  0  0  0  0  0  0  0  0  0  0  0
  149.2555  132.1968  153.8460 C   0  0  0  0  0  0  0  0  0  0  0  0
  148.5523  132.9887  152.7703 C   0  0  0  0  0  0  0  0  0  0  0  0
  148.2855  135.6137  155.1299 C   0  0  0  0  0  0  0  0  0  0  0  0
  149.0400  136.9015  155.5051 C   0  0  0  0  0  0  0  0  0  0  0  0
  152.2117  139.7234  156.8421 H   0  0  0  0  0  0  0  0  0  0  0  0
  151.0375  142.2351  157.7735 H   0  0  0  0  0  0  0  0  0  0  0  0
  153.1913  143.1308  161.3386 H   0  0  0  0  0  0  0  0  0  0  0  0
  151.5122  138.1299  155.9891 H   0  0  0  0  0  0  0  0  0  0  0  0
  149.6699  136.2841  157.4600 H   0  0  0  0  0  0  0  0  0  0  0  0
  151.6112  135.8127  155.1513 H   0  0  0  0  0  0  0  0  0  0  0  0
  151.7629  135.1931  156.7791 H   0  0  0  0  0  0  0  0  0  0  0  0
  150.8480  133.4684  155.2345 H   0  0  0  0  0  0  0  0  0  0  0  0
  149.6862  133.8412  156.4955 H   0  0  0  0  0  0  0  0  0  0  0  0
  147.5120  133.2445  154.6997 H   0  0  0  0  0  0  0  0  0  0  0  0
  150.3418  132.2546  153.8817 H   0  0  0  0  0  0  0  0  0  0  0  0
  148.8313  131.2333  154.1206 H   0  0  0  0  0  0  0  0  0  0  0  0
  147.6596  132.5522  152.3270 H   0  0  0  0  0  0  0  0  0  0  0  0
  149.1724  133.5713  152.0913 H   0  0  0  0  0  0  0  0  0  0  0  0
  147.5272  135.8424  154.3801 H   0  0  0  0  0  0  0  0  0  0  0  0
  147.7639  135.2131  156.0009 H   0  0  0  0  0  0  0  0  0  0  0  0
  148.3402  137.6359  155.9050 H   0  0  0  0  0  0  0  0  0  0  0  0
  149.4714  137.3425  154.6050 H   0  0  0  0  0  0  0  0  0  0  0  0
  1  2  2  0  0  0  0
  2  3  1  0  0  0  0
  2 15  1  0  0  0  0
  3  4  1  0  0  0  0
  3 25  1  0  0  0  0
  4 13  1  0  0  0  0
  4  5  2  0  0  0  0
  5  6  1  0  0  0  0
  5 26  1  0  0  0  0
  6  7  1  0  0  0  0
  6 11  2  0  0  0  0
  7  8  1  0  0  0  0
  7  9  1  0  0  0  0
  7 10  1  0  0  0  0
 11 12  1  0  0  0  0
 11 27  1  0  0  0  0
 12 13  1  0  0  0  0
 13 14  2  0  0  0  0
 15 16  1  0  0  0  0
 15 28  1  0  0  0  0
 16 24  1  0  0  0  0
 16 17  1  0  0  0  0
 16 29  1  0  0  0  0
 17 18  1  0  0  0  0
 17 30  1  0  0  0  0
 17 31  1  0  0  0  0
 18 19  1  0  0  0  0
 18 32  1  0  0  0  0
 18 33  1  0  0  0  0
 19 20  1  0  0  0  0
 19 23  1  0  0  0  0
 20 22  1  0  0  0  0
 20 21  1  0  0  0  0
 20 34  1  0  0  0  0
 21 22  1  0  0  0  0
 21 35  1  0  0  0  0
 21 36  1  0  0  0  0
 22 37  1  0  0  0  0
 22 38  1  0  0  0  0
 23 24  1  0  0  0  0
 23 39  1  0  0  0  0
 23 40  1  0  0  0  0
 24 41  1  0  0  0  0
 24 42  1  0  0  0  0
M  CHG  1  12  -1
M  END
> <s_m_source_file>
AV-unprocessed.smi

> <i_m_source_file_index>
1760

> <i_lp_mmshare_version>
43012

> <i_f3d_flags>
0

> <s_epik_input>
W0NIMl0xW0NIMl1bQ0hdMU4oW0NIMl1bQ0gyXTIpW0NIMl1bQ0gyXVtDSF0yW05IXUMoPU8pW05IXWMzW2NIXWMoQyhGKShGKUYpW2NIXVtuSF1jMz1P

> <s_epik_cmdline>
J2VwaWtfcHl0aG9uJywgJy1waCcsICc3LjAnLCAnLXRuJywgJzgnLCAnLW1hJywgJzIwMCcsICctbWV0YWxfYmluZGluZycsICctaW1hZScsICc8aW5maWxlLm1hZT4nLCAnLW9tYWUnLCAnPG91dGZpbGUubWFlPic=

> <r_lp_tautomer_probability>
0.999

> <r_epik_Ionization_Penalty>
4.20788

> <r_epik_Ionization_Penalty_Charging>
0.176783

> <r_epik_Ionization_Penalty_Neutral>
4.0311

> <r_epik_State_Penalty>
4.02505

> <r_epik_Charging_Adjusted_Penalty>
4.20183

> <i_epik_Tot_Q>
-1

> <i_epik_Tot_abs_Q>
1

> <r_epik_Metal_State_Penalty>
1.4828

> <b_epik_Metal_Only>
1

> <s_lp_Force_Field>
OPLS_2005

> <r_lp_Energy>
35.3535

> <b_lp_Chiralities_Consistent>
1

> <s_lp_Variant>
AV-unprocessed.smi:1760-6

> <Gold.Version>
5.8.1

> <Gold.Id.Protein>
6NUR|6NUR_protein|mol2

> <Gold.PLP.Fitness>
41.8104

> <Gold.PLP.PLP>
-43.7262

> <Gold.PLP.part.hbond>
-0.4254

> <Gold.PLP.part.metal>
0.0000

> <Gold.PLP.part.buried>
-7.6932

> <Gold.PLP.part.nonpolar>
-35.4628

> <Gold.PLP.part.repulsive>
0.2402

> <Gold.PLP.ligand.clash>
0.0000

> <Gold.PLP.ligand.torsion>
1.5727

> <Gold.PLP.Chemscore.Hbond>
0.0000

> <Gold.PLP.Chemscore.CHOScore>
0.0000

> <Gold.PLP.Chemscore.Metal>
0.0000

> <Gold.PLP.Chemscore.Internal.Correction>
1.2296

> <Gold.Rescore>
     Score         DG    S(hbond)    S(metal)    S(lipo)     H(rot)  DE(clash)    DE(int)     intcor
     10.58     -12.15       0.00        0.00      84.70       1.26       0.05       1.52       ----

> <Gold.Chemscore.Fitness>
10.5766

> <Gold.Chemscore.DG>
-12.1528

> <Gold.Chemscore.ZeroCoef>
-5.4800

> <Gold.Chemscore.Hbond>
0.0000

> <Gold.Chemscore.Metal>
0.0000

> <Gold.Chemscore.Lipo>
84.6972

> <Gold.Chemscore.Internal_Hbond>
0.0000

> <Gold.Chemscore.DEClash>
0.0547

> <Gold.Chemscore.DEInternal>
1.5215

> <Gold.Chemscore.Rot>
1.2644

> <Gold.Chemscore.Internal.Correction>
   9.000000E+99

> <Gold.Chemscore.Hbond.Weighted>
-0.0000

> <Gold.Chemscore.Metal.Weighted>
-0.0000

> <Gold.Chemscore.Lipo.Weighted>
-9.9096

> <Gold.Chemscore.Internal_Hbond.Weighted>
0.0000

> <Gold.Chemscore.DEClash.Weighted>
0.0547

> <Gold.Chemscore.DEInternal.Weighted>
1.5215

> <Gold.Chemscore.Rot.Weighted>
3.2367

> <Gold.Chemscore.Internal.Correction.Weighted>
   9.000000E+99

> <Gold.Protein.RotatedTorsions>
[ 6907 6896 6895 6894 ] final  -57.01 input  -60.11 | X-H torsion
[ 7974 7965 7964 7962 ] final   98.45 input  175.53 | X-H torsion
[ 8008 7997 7996 7995 ] final  163.89 input   59.86 | X-H torsion
[ 10167 10162 10161 10158 ] final -145.72 input  -65.29 | X-H torsion
[ 10718 10713 10712 10709 ] final   52.25 input   66.30 | X-H torsion
[ 10763 10752 10751 10750 ] final -153.16 input  -60.55 | X-H torsion
[ 11005 11000 10999 10996 ] final  -61.55 input  -57.11 | X-H torsion

> <Gold.Protein.ActiveResidues>
 VAL166  LYS551  ARG553  GLY616  TRP617  ASP618  TYR619  PRO620  LYS621  CYS622 
 ASP623  PHE694  ASN695  SER759  ASP760  ASP761  ALA762  ILE779  LEU786  VAL792 
 PHE793  MET794  SER795  GLU796  ALA797  LYS798  CYS799  TRP800  GLU811  SER814 

> <Gold.Protein.RotatedAtoms>
  150.8120  134.7281  159.6696 H   0  0  0  0  0  0  0  0  0  0  0  0  # atno 6907 bound_to 6896
  152.4240  134.5899  159.9981 H   0  0  0  0  0  0  0  0  0  0  0  0  # atno 6908 bound_to 6896
  151.6107  133.3310  159.3103 H   0  0  0  0  0  0  0  0  0  0  0  0  # atno 6909 bound_to 6896
  145.4120  139.2332  143.3243 H   0  0  0  0  0  0  0  0  0  0  0  0  # atno 7974 bound_to 7965
  156.1923  140.1711  156.8068 H   0  0  0  0  0  0  0  0  0  0  0  0  # atno 8008 bound_to 7997
  154.5486  140.0722  156.8662 H   0  0  0  0  0  0  0  0  0  0  0  0  # atno 8009 bound_to 7997
  155.3073  140.3365  155.4247 H   0  0  0  0  0  0  0  0  0  0  0  0  # atno 8010 bound_to 7997
  139.7780  143.8142  152.2634 H   0  0  0  0  0  0  0  0  0  0  0  0  # atno 10167 bound_to 10162
  157.5057  130.8467  149.8372 H   0  0  0  0  0  0  0  0  0  0  0  0  # atno 10718 bound_to 10713
  154.7946  135.3219  154.7696 H   0  0  0  0  0  0  0  0  0  0  0  0  # atno 10763 bound_to 10752
  153.8377  135.6873  153.4811 H   0  0  0  0  0  0  0  0  0  0  0  0  # atno 10764 bound_to 10752
  153.1632  135.4652  154.9742 H   0  0  0  0  0  0  0  0  0  0  0  0  # atno 10765 bound_to 10752
  141.1328  133.6631  156.5393 H   0  0  0  0  0  0  0  0  0  0  0  0  # atno 11005 bound_to 11000
  146.2700  140.4833  142.8818 LP  0  0  0  0  0  0  0  0  0  0  0  0  # atno 17320 bound_to 7965
  144.8302  140.6695  143.6296 LP  0  0  0  0  0  0  0  0  0  0  0  0  # atno 17321 bound_to 7965
  139.8196  144.7301  150.9590 LP  0  0  0  0  0  0  0  0  0  0  0  0  # atno 17342 bound_to 10162
  140.7817  143.4171  151.0899 LP  0  0  0  0  0  0  0  0  0  0  0  0  # atno 17343 bound_to 10162
  156.0257  130.3780  150.1831 LP  0  0  0  0  0  0  0  0  0  0  0  0  # atno 17370 bound_to 10713
  157.0021  130.9925  151.3388 LP  0  0  0  0  0  0  0  0  0  0  0  0  # atno 17371 bound_to 10713
  140.4153  134.7236  157.4859 LP  0  0  0  0  0  0  0  0  0  0  0  0  # atno 17394 bound_to 11000
  140.0398  134.6283  155.8995 LP  0  0  0  0  0  0  0  0  0  0  0  0  # atno 17395 bound_to 11000

$$$$
