AV-unprocessed.smi:3340|AV-procd|sdf|12882|dock5
  -GOLD-   2272019283D 1   1.00000     0.00000
 Structure written by MMmdl.
 41 42  0  0  0  0  0  0  0  0  1 V2000
  149.8153  142.1985  155.3714 C   0  0  0  0  0  0  0  0  0  0  0  0
  150.0612  140.7286  155.0240 C   0  0  0  0  0  0  0  0  0  0  0  0
  151.2150  140.3045  155.0957 O   0  0  0  0  0  0  0  0  0  0  0  0
  149.0161  139.9497  154.6533 N   0  0  0  0  0  0  0  0  0  0  0  0
  149.1739  138.5417  154.2577 C   0  0  0  0  0  0  0  0  0  0  0  0
  148.7514  138.3830  152.7834 C   0  0  0  0  0  0  0  0  0  0  0  0
  147.3524  138.8294  152.6375 N   0  0  0  0  0  0  0  0  0  0  0  0
  146.2817  138.0500  152.3405 C   0  0  0  0  0  0  0  0  0  0  0  0
  145.1204  138.4557  152.3951 O   0  0  0  0  0  0  0  0  0  0  0  0
  146.5900  136.7972  151.9567 N   0  0  0  0  0  0  0  0  0  0  0  0
  145.6712  135.7317  151.5453 C   0  0  1  0  0  0  0  0  0  0  0  0
  144.5774  136.2614  150.6018 C   0  0  0  0  0  0  0  0  0  0  0  0
  146.4035  134.5014  150.9633 C   0  0  0  0  0  0  0  0  0  0  0  0
  145.5418  133.3375  150.8683 N   0  0  0  0  0  0  0  0  0  0  0  0
  144.3469  133.2343  150.1680 C   0  0  0  0  0  0  0  0  0  0  0  0
  143.8871  131.9515  150.3621 C   0  0  0  0  0  0  0  0  0  0  0  0
  144.7767  131.2527  151.1752 N   0  0  0  0  0  0  0  0  0  0  0  0
  145.7289  132.1388  151.4372 C   0  0  0  0  0  0  0  0  0  0  0  0
  147.2086  140.2423  153.0209 C   0  0  0  0  0  0  0  0  0  0  0  0
  147.6255  140.4054  154.4964 C   0  0  0  0  0  0  0  0  0  0  0  0
  149.3986  142.7334  154.5175 H   0  0  0  0  0  0  0  0  0  0  0  0
  150.7490  142.6899  155.6469 H   0  0  0  0  0  0  0  0  0  0  0  0
  149.1313  142.2872  156.2160 H   0  0  0  0  0  0  0  0  0  0  0  0
  150.1947  138.1785  154.3834 H   0  0  0  0  0  0  0  0  0  0  0  0
  148.5517  137.9157  154.8991 H   0  0  0  0  0  0  0  0  0  0  0  0
  149.3883  138.9964  152.1444 H   0  0  0  0  0  0  0  0  0  0  0  0
  148.9278  137.3554  152.4668 H   0  0  0  0  0  0  0  0  0  0  0  0
  147.5712  136.5603  151.9370 H   0  0  0  0  0  0  0  0  0  0  0  0
  145.1699  135.4132  152.4601 H   0  0  0  0  0  0  0  0  0  0  0  0
  143.8251  135.4957  150.4107 H   0  0  0  0  0  0  0  0  0  0  0  0
  144.9844  136.5661  149.6376 H   0  0  0  0  0  0  0  0  0  0  0  0
  144.0658  137.1212  151.0356 H   0  0  0  0  0  0  0  0  0  0  0  0
  146.7714  134.7280  149.9619 H   0  0  0  0  0  0  0  0  0  0  0  0
  147.2803  134.2418  151.5574 H   0  0  0  0  0  0  0  0  0  0  0  0
  143.9369  134.0585  149.6027 H   0  0  0  0  0  0  0  0  0  0  0  0
  142.9922  131.4813  149.9816 H   0  0  0  0  0  0  0  0  0  0  0  0
  146.5855  131.9093  152.0536 H   0  0  0  0  0  0  0  0  0  0  0  0
  147.8409  140.8566  152.3782 H   0  0  0  0  0  0  0  0  0  0  0  0
  146.1936  140.6176  152.8845 H   0  0  0  0  0  0  0  0  0  0  0  0
  146.9795  139.8036  155.1375 H   0  0  0  0  0  0  0  0  0  0  0  0
  147.4649  141.4374  154.8038 H   0  0  0  0  0  0  0  0  0  0  0  0
  1  2  1  0  0  0  0
  1 21  1  0  0  0  0
  1 22  1  0  0  0  0
  1 23  1  0  0  0  0
  2  3  2  0  0  0  0
  2  4  1  0  0  0  0
  4 20  1  0  0  0  0
  4  5  1  0  0  0  0
  5  6  1  0  0  0  0
  5 24  1  0  0  0  0
  5 25  1  0  0  0  0
  6  7  1  0  0  0  0
  6 26  1  0  0  0  0
  6 27  1  0  0  0  0
  7  8  1  0  0  0  0
  7 19  1  0  0  0  0
  8  9  2  0  0  0  0
  8 10  1  0  0  0  0
 10 11  1  0  0  0  0
 10 28  1  0  0  0  0
 11 12  1  0  0  0  0
 11 13  1  0  0  0  0
 11 29  1  0  0  0  0
 12 30  1  0  0  0  0
 12 31  1  0  0  0  0
 12 32  1  0  0  0  0
 13 14  1  0  0  0  0
 13 33  1  0  0  0  0
 13 34  1  0  0  0  0
 14 18  1  0  0  0  0
 14 15  1  0  0  0  0
 15 16  2  0  0  0  0
 15 35  1  0  0  0  0
 16 17  1  0  0  0  0
 16 36  1  0  0  0  0
 17 18  2  0  0  0  0
 18 37  1  0  0  0  0
 19 20  1  0  0  0  0
 19 38  1  0  0  0  0
 19 39  1  0  0  0  0
 20 40  1  0  0  0  0
 20 41  1  0  0  0  0
M  END
> <s_m_source_file>
AV-unprocessed.smi

> <i_m_source_file_index>
3340

> <i_lp_mmshare_version>
43012

> <i_f3d_flags>
0

> <s_epik_input>
W0NIM11DKD1PKU4xW0NIMl1bQ0gyXU4oW0NIMl1bQ0gyXTEpQyg9TylbTkhdW0NASF0oW0NIM10pW0NIMl1uMltjSF1bY0hdbltjSF0y

> <s_epik_cmdline>
J2VwaWtfcHl0aG9uJywgJy1waCcsICc3LjAnLCAnLXRuJywgJzgnLCAnLW1hJywgJzIwMCcsICctbWV0YWxfYmluZGluZycsICctaW1hZScsICc8aW5maWxlLm1hZT4nLCAnLW9tYWUnLCAnPG91dGZpbGUubWFlPic=

> <r_lp_tautomer_probability>
1

> <r_epik_Ionization_Penalty>
0.622948

> <r_epik_Ionization_Penalty_Charging>
0.622904

> <r_epik_Ionization_Penalty_Neutral>
4.39259e-05

> <r_epik_State_Penalty>
0.639086

> <r_epik_Charging_Adjusted_Penalty>
1.26199

> <i_epik_Tot_Q>
0

> <i_epik_Tot_abs_Q>
0

> <r_epik_Metal_State_Penalty>
0.307185

> <b_epik_Metal_Only>
0

> <s_lp_Force_Field>
OPLS_2005

> <r_lp_Energy>
50.7734

> <b_lp_Chiralities_Consistent>
1

> <s_lp_Variant>
AV-unprocessed.smi:3340-4

> <Gold.Version>
5.8.1

> <Gold.Id.Protein>
6NUR|6NUR_protein|mol2

> <Gold.PLP.Fitness>
39.4796

> <Gold.PLP.PLP>
-24.8894

> <Gold.PLP.part.hbond>
-2.0000

> <Gold.PLP.part.metal>
0.0000

> <Gold.PLP.part.buried>
1.2722

> <Gold.PLP.part.nonpolar>
-25.0255

> <Gold.PLP.part.repulsive>
0.3165

> <Gold.PLP.ligand.clash>
0.0000

> <Gold.PLP.ligand.torsion>
0.2417

> <Gold.PLP.Chemscore.Hbond>
2.0000

> <Gold.PLP.Chemscore.CHOScore>
3.0000

> <Gold.PLP.Chemscore.Metal>
0.0000

> <Gold.Chemscore.Hbonds>
donor molecule, donor type, donor heavy atom, donor atom, acceptor molecule, acceptor atom, score
      L1  H    10    28       P1  7948  0.68
      P1  H  7989  7998       L1     3  0.70
      L1  C    16    36       P1 10952  1.00

> <Gold.PLP.Chemscore.Internal.Correction>
0.0736

> <Gold.Rescore>
     Score         DG    S(hbond)    S(metal)    S(lipo)     H(rot)  DE(clash)    DE(int)     intcor
     10.86     -14.62       1.97        0.00      57.76       1.65       2.55       1.21       ----

> <Gold.Chemscore.Fitness>
10.8593

> <Gold.Chemscore.DG>
-14.6174

> <Gold.Chemscore.ZeroCoef>
-5.4800

> <Gold.Chemscore.Hbond>
1.9748

> <Gold.Chemscore.Metal>
0.0000

> <Gold.Chemscore.Lipo>
57.7633

> <Gold.Chemscore.Internal_Hbond>
0.0000

> <Gold.Chemscore.DEClash>
2.5490

> <Gold.Chemscore.DEInternal>
1.2091

> <Gold.Chemscore.Rot>
1.6471

> <Gold.Chemscore.Internal.Correction>
   9.000000E+99

> <Gold.Chemscore.Hbonds>
donor molecule, donor type, donor heavy atom, donor atom, acceptor molecule, acceptor atom, score
      L1  H    10    28       P1  7948  0.67
      P1  H  7989  7998       L1     3  0.07

> <Gold.Chemscore.Hbond.Weighted>
-6.5957

> <Gold.Chemscore.Metal.Weighted>
-0.0000

> <Gold.Chemscore.Lipo.Weighted>
-6.7583

> <Gold.Chemscore.Internal_Hbond.Weighted>
0.0000

> <Gold.Chemscore.DEClash.Weighted>
2.5490

> <Gold.Chemscore.DEInternal.Weighted>
1.2091

> <Gold.Chemscore.Rot.Weighted>
4.2166

> <Gold.Chemscore.Internal.Correction.Weighted>
   9.000000E+99

> <Gold.Protein.RotatedTorsions>
[ 6907 6896 6895 6894 ] final  -99.15 input  -60.11 | X-H torsion
[ 7974 7965 7964 7962 ] final  113.29 input  175.53 | X-H torsion
[ 8008 7997 7996 7995 ] final  109.95 input   59.86 | X-H torsion
[ 10167 10162 10161 10158 ] final  -41.83 input  -65.29 | X-H torsion
[ 10718 10713 10712 10709 ] final  108.00 input   66.30 | X-H torsion
[ 10763 10752 10751 10750 ] final  -39.27 input  -60.55 | X-H torsion
[ 11005 11000 10999 10996 ] final  122.51 input  -57.11 | X-H torsion

> <Gold.Protein.ActiveResidues>
 VAL166  LYS551  ARG553  GLY616  TRP617  ASP618  TYR619  PRO620  LYS621  CYS622 
 ASP623  PHE694  ASN695  SER759  ASP760  ASP761  ALA762  ILE779  LEU786  VAL792 
 PHE793  MET794  SER795  GLU796  ALA797  LYS798  CYS799  TRP800  GLU811  SER814 

> <Gold.Protein.RotatedAtoms>
  150.7070  134.1085  159.3991 H   0  0  0  0  0  0  0  0  0  0  0  0  # atno 6907 bound_to 6896
  151.9072  135.0352  160.0520 H   0  0  0  0  0  0  0  0  0  0  0  0  # atno 6908 bound_to 6896
  152.2366  133.5065  159.5282 H   0  0  0  0  0  0  0  0  0  0  0  0  # atno 6909 bound_to 6896
  145.2188  139.2871  143.4229 H   0  0  0  0  0  0  0  0  0  0  0  0  # atno 7974 bound_to 7965
  156.2017  140.3048  155.9541 H   0  0  0  0  0  0  0  0  0  0  0  0  # atno 8008 bound_to 7997
  155.2937  140.0443  157.3042 H   0  0  0  0  0  0  0  0  0  0  0  0  # atno 8009 bound_to 7997
  154.5580  140.2311  155.8389 H   0  0  0  0  0  0  0  0  0  0  0  0  # atno 8010 bound_to 7997
  140.6989  143.3072  151.3123 H   0  0  0  0  0  0  0  0  0  0  0  0  # atno 10167 bound_to 10162
  157.6605  131.0884  150.6240 H   0  0  0  0  0  0  0  0  0  0  0  0  # atno 10718 bound_to 10713
  153.9267  135.6776  153.4746 H   0  0  0  0  0  0  0  0  0  0  0  0  # atno 10763 bound_to 10752
  153.1001  135.4832  154.8848 H   0  0  0  0  0  0  0  0  0  0  0  0  # atno 10764 bound_to 10752
  154.7450  135.3170  154.8618 H   0  0  0  0  0  0  0  0  0  0  0  0  # atno 10765 bound_to 10752
  139.9272  134.9641  156.8120 H   0  0  0  0  0  0  0  0  0  0  0  0  # atno 11005 bound_to 11000
  146.3381  140.2488  142.8598 LP  0  0  0  0  0  0  0  0  0  0  0  0  # atno 17320 bound_to 7965
  144.9785  140.8437  143.5412 LP  0  0  0  0  0  0  0  0  0  0  0  0  # atno 17321 bound_to 7965
  139.6482  144.0412  152.2606 LP  0  0  0  0  0  0  0  0  0  0  0  0  # atno 17342 bound_to 10162
  139.9940  144.6341  150.7789 LP  0  0  0  0  0  0  0  0  0  0  0  0  # atno 17343 bound_to 10162
  156.6544  130.4494  149.5708 LP  0  0  0  0  0  0  0  0  0  0  0  0  # atno 17370 bound_to 10713
  156.2114  130.6681  151.1273 LP  0  0  0  0  0  0  0  0  0  0  0  0  # atno 17371 bound_to 10713
  140.6304  133.9911  155.7659 LP  0  0  0  0  0  0  0  0  0  0  0  0  # atno 17394 bound_to 11000
  141.0837  134.0024  157.3347 LP  0  0  0  0  0  0  0  0  0  0  0  0  # atno 17395 bound_to 11000

$$$$
