AV-unprocessed.smi:1830|AV-procd|sdf|7448|dock4
  -GOLD-   22720 9133D 1   1.00000     0.00000
 Structure written by MMmdl.
 54 57  0  0  0  0  0  0  0  0  3 V2000
  147.4895  138.0243  152.5740 O   0  0  0  0  0  0  0  0  0  0  0  0
  146.4791  138.7179  152.6815 C   0  0  0  0  0  0  0  0  0  0  0  0
  146.5129  140.0338  152.9252 N   0  0  0  0  0  0  0  0  0  0  0  0
  147.7391  140.8042  153.0985 C   0  0  0  0  0  0  0  0  0  0  0  0
  147.8763  141.3561  154.5279 C   0  0  2  0  0  0  0  0  0  0  0  0
  149.3303  141.6549  154.9378 C   0  0  0  0  0  0  0  0  0  0  0  0
  149.4040  142.1732  156.3272 N   0  3  2  0  0  0  0  0  0  0  0  0
  150.7885  142.1846  156.8488 C   0  0  0  0  0  0  0  0  0  0  0  0
  150.9600  140.8936  157.6706 C   0  0  0  0  0  0  0  0  0  0  0  0
  149.5773  140.2314  157.6985 C   0  0  0  0  0  0  0  0  0  0  0  0
  148.6298  141.3598  157.2906 C   0  0  2  0  0  0  0  0  0  0  0  0
  147.2499  140.9247  156.7559 C   0  0  0  0  0  0  0  0  0  0  0  0
  147.3465  140.4012  155.4385 O   0  0  0  0  0  0  0  0  0  0  0  0
  145.2158  138.2771  152.5587 N   0  0  0  0  0  0  0  0  0  0  0  0
  144.7613  136.9586  152.2664 C   0  0  0  0  0  0  0  0  0  0  0  0
  145.4894  136.0556  151.4490 C   0  0  0  0  0  0  0  0  0  0  0  0
  144.9839  134.7613  151.2148 C   0  0  0  0  0  0  0  0  0  0  0  0
  143.7651  134.3840  151.8076 C   0  0  0  0  0  0  0  0  0  0  0  0
  143.1051  135.2595  152.5942 N   0  3  0  0  0  0  0  0  0  0  0  0
  143.5473  136.5152  152.8507 C   0  0  0  0  0  0  0  0  0  0  0  0
  142.7870  137.3452  153.6928 N   0  0  0  0  0  0  0  0  0  0  0  0
  141.5234  137.8103  153.1456 C   0  0  0  0  0  0  0  0  0  0  0  0
  140.7359  138.3457  154.3438 C   0  0  0  0  0  0  0  0  0  0  0  0
  141.3506  137.6469  155.5629 C   0  0  0  0  0  0  0  0  0  0  0  0
  142.4784  136.7803  154.9959 C   0  0  0  0  0  0  0  0  0  0  0  0
  145.6404  140.5382  152.9853 H   0  0  0  0  0  0  0  0  0  0  0  0
  148.5977  140.1713  152.8685 H   0  0  0  0  0  0  0  0  0  0  0  0
  147.7504  141.6264  152.3815 H   0  0  0  0  0  0  0  0  0  0  0  0
  147.2870  142.2731  154.5864 H   0  0  0  0  0  0  0  0  0  0  0  0
  149.9321  140.7482  154.8589 H   0  0  0  0  0  0  0  0  0  0  0  0
  149.7726  142.3862  154.2603 H   0  0  0  0  0  0  0  0  0  0  0  0
  151.5342  142.2806  156.0579 H   0  0  0  0  0  0  0  0  0  0  0  0
  150.8992  143.0506  157.5025 H   0  0  0  0  0  0  0  0  0  0  0  0
  151.7001  140.2282  157.2247 H   0  0  0  0  0  0  0  0  0  0  0  0
  151.2978  141.1312  158.6802 H   0  0  0  0  0  0  0  0  0  0  0  0
  149.5391  139.4225  156.9675 H   0  0  0  0  0  0  0  0  0  0  0  0
  149.3321  139.8100  158.6740 H   0  0  0  0  0  0  0  0  0  0  0  0
  148.4678  141.9806  158.1736 H   0  0  0  0  0  0  0  0  0  0  0  0
  146.8113  140.1711  157.4103 H   0  0  0  0  0  0  0  0  0  0  0  0
  146.5622  141.7719  156.7559 H   0  0  0  0  0  0  0  0  0  0  0  0
  144.4958  138.9840  152.5930 H   0  0  0  0  0  0  0  0  0  0  0  0
  146.4356  136.3242  151.0059 H   0  0  0  0  0  0  0  0  0  0  0  0
  145.5277  134.0661  150.5919 H   0  0  0  0  0  0  0  0  0  0  0  0
  143.3055  133.4141  151.6839 H   0  0  0  0  0  0  0  0  0  0  0  0
  141.6817  138.5827  152.3922 H   0  0  0  0  0  0  0  0  0  0  0  0
  140.9795  136.9888  152.6773 H   0  0  0  0  0  0  0  0  0  0  0  0
  140.8665  139.4251  154.4307 H   0  0  0  0  0  0  0  0  0  0  0  0
  139.6682  138.1476  154.2449 H   0  0  0  0  0  0  0  0  0  0  0  0
  141.7503  138.3890  156.2549 H   0  0  0  0  0  0  0  0  0  0  0  0
  140.6213  137.0455  156.1064 H   0  0  0  0  0  0  0  0  0  0  0  0
  142.1426  135.7473  154.8953 H   0  0  0  0  0  0  0  0  0  0  0  0
  143.3553  136.7878  155.6441 H   0  0  0  0  0  0  0  0  0  0  0  0
  149.0356  143.1140  156.3208 H   0  0  0  0  0  0  0  0  0  0  0  0
  142.2276  134.9589  153.0188 H   0  0  0  0  0  0  0  0  0  0  0  0
  1  2  2  0  0  0  0
  2  3  1  0  0  0  0
  2 14  1  0  0  0  0
  3  4  1  0  0  0  0
  3 26  1  0  0  0  0
  4  5  1  0  0  0  0
  4 27  1  0  0  0  0
  4 28  1  0  0  0  0
  5 13  1  0  0  0  0
  5  6  1  0  0  0  0
  5 29  1  0  0  0  0
  6  7  1  0  0  0  0
  6 30  1  0  0  0  0
  6 31  1  0  0  0  0
  7 11  1  0  0  0  0
  7  8  1  0  0  0  0
  7 53  1  0  0  0  0
  8  9  1  0  0  0  0
  8 32  1  0  0  0  0
  8 33  1  0  0  0  0
  9 10  1  0  0  0  0
  9 34  1  0  0  0  0
  9 35  1  0  0  0  0
 10 11  1  0  0  0  0
 10 36  1  0  0  0  0
 10 37  1  0  0  0  0
 11 12  1  0  0  0  0
 11 38  1  0  0  0  0
 12 13  1  0  0  0  0
 12 39  1  0  0  0  0
 12 40  1  0  0  0  0
 14 15  1  0  0  0  0
 14 41  1  0  0  0  0
 15 20  1  0  0  0  0
 15 16  2  0  0  0  0
 16 17  1  0  0  0  0
 16 42  1  0  0  0  0
 17 18  2  0  0  0  0
 17 43  1  0  0  0  0
 18 19  1  0  0  0  0
 18 44  1  0  0  0  0
 19 20  2  0  0  0  0
 19 54  1  0  0  0  0
 20 21  1  0  0  0  0
 21 25  1  0  0  0  0
 21 22  1  0  0  0  0
 22 23  1  0  0  0  0
 22 45  1  0  0  0  0
 22 46  1  0  0  0  0
 23 24  1  0  0  0  0
 23 47  1  0  0  0  0
 23 48  1  0  0  0  0
 24 25  1  0  0  0  0
 24 49  1  0  0  0  0
 24 50  1  0  0  0  0
 25 51  1  0  0  0  0
 25 52  1  0  0  0  0
M  CHG  1   7   1
M  CHG  1  19   1
M  END
> <s_m_source_file>
AV-unprocessed.smi

> <i_m_source_file_index>
1830

> <i_lp_mmshare_version>
43012

> <i_f3d_flags>
0

> <s_epik_input>
W0NIMl0xW0NIMl1bQ0gyXVtDQEhdKE4xMilbQ0gyXU9bQ0BASF0oW0NIMl0yKVtDSDJdW05IXUMoPU8pW05IXWMzW2NIXVtjSF1bY0hdbmMzTjRbQ0gyXVtDSDJdW0NIMl1bQ0gyXTQ=

> <s_epik_cmdline>
J2VwaWtfcHl0aG9uJywgJy1waCcsICc3LjAnLCAnLXRuJywgJzgnLCAnLW1hJywgJzIwMCcsICctbWV0YWxfYmluZGluZycsICctaW1hZScsICc8aW5maWxlLm1hZT4nLCAnLW9tYWUnLCAnPG91dGZpbGUubWFlPic=

> <r_lp_tautomer_probability>
0.999994

> <r_epik_Ionization_Penalty>
1.29113

> <r_epik_Ionization_Penalty_Charging>
1.29111

> <r_epik_Ionization_Penalty_Neutral>
1.88144e-05

> <r_epik_State_Penalty>
1.32676

> <r_epik_Charging_Adjusted_Penalty>
2.61787

> <i_epik_Tot_Q>
2

> <i_epik_Tot_abs_Q>
2

> <r_epik_Metal_State_Penalty>
1.40425

> <b_epik_Metal_Only>
0

> <s_lp_Force_Field>
OPLS_2005

> <r_lp_Energy>
77.5794

> <b_lp_Chiralities_Consistent>
1

> <s_lp_Variant>
AV-unprocessed.smi:1830-17

> <Gold.Version>
5.8.1

> <Gold.Id.Protein>
6NUR|6NUR_protein|mol2

> <Gold.PLP.Fitness>
42.0945

> <Gold.PLP.PLP>
-31.6712

> <Gold.PLP.part.hbond>
-3.8366

> <Gold.PLP.part.metal>
0.0000

> <Gold.PLP.part.buried>
-4.3287

> <Gold.PLP.part.nonpolar>
-29.3838

> <Gold.PLP.part.repulsive>
4.9957

> <Gold.PLP.ligand.clash>
0.0000

> <Gold.PLP.ligand.torsion>
0.6245

> <Gold.PLP.Chemscore.Hbond>
3.8800

> <Gold.PLP.Chemscore.CHOScore>
0.0000

> <Gold.PLP.Chemscore.Metal>
0.0000

> <Gold.Chemscore.Hbonds>
donor molecule, donor type, donor heavy atom, donor atom, acceptor molecule, acceptor atom, score
      L1  H     3    26       P1 10175  0.88
      L1  H     7    53       P1  8028  2.00
      L1  H    14    41       P1 10175  1.00

> <Gold.PLP.Chemscore.Internal.Correction>
0.0322

> <Gold.Rescore>
     Score         DG    S(hbond)    S(metal)    S(lipo)     H(rot)  DE(clash)    DE(int)     intcor
     15.69     -20.47       2.75        0.00      80.75       1.43       3.21       1.57       ----

> <Gold.Chemscore.Fitness>
15.6887

> <Gold.Chemscore.DG>
-20.4712

> <Gold.Chemscore.ZeroCoef>
-5.4800

> <Gold.Chemscore.Hbond>
2.7541

> <Gold.Chemscore.Metal>
0.0000

> <Gold.Chemscore.Lipo>
80.7479

> <Gold.Chemscore.Internal_Hbond>
0.0000

> <Gold.Chemscore.DEClash>
3.2103

> <Gold.Chemscore.DEInternal>
1.5722

> <Gold.Chemscore.Rot>
1.4278

> <Gold.Chemscore.Internal.Correction>
   9.000000E+99

> <Gold.Chemscore.Hbonds>
donor molecule, donor type, donor heavy atom, donor atom, acceptor molecule, acceptor atom, score
      L1  H     3    26       P1 10175  0.67
      L1  H     7    53       P1  8028  0.97
      L1  H    14    41       P1 10175  1.00

> <Gold.Chemscore.Hbond.Weighted>
-9.1988

> <Gold.Chemscore.Metal.Weighted>
-0.0000

> <Gold.Chemscore.Lipo.Weighted>
-9.4475

> <Gold.Chemscore.Internal_Hbond.Weighted>
0.0000

> <Gold.Chemscore.DEClash.Weighted>
3.2103

> <Gold.Chemscore.DEInternal.Weighted>
1.5722

> <Gold.Chemscore.Rot.Weighted>
3.6551

> <Gold.Chemscore.Internal.Correction.Weighted>
   9.000000E+99

> <Gold.Protein.RotatedTorsions>
[ 6907 6896 6895 6894 ] final    1.36 input  -60.11 | X-H torsion
[ 7974 7965 7964 7962 ] final   48.11 input  175.53 | X-H torsion
[ 8008 7997 7996 7995 ] final  -36.62 input   59.86 | X-H torsion
[ 10167 10162 10161 10158 ] final  -53.49 input  -65.29 | X-H torsion
[ 10718 10713 10712 10709 ] final  -34.41 input   66.30 | X-H torsion
[ 10763 10752 10751 10750 ] final  -72.66 input  -60.55 | X-H torsion
[ 11005 11000 10999 10996 ] final  -53.44 input  -57.11 | X-H torsion

> <Gold.Protein.ActiveResidues>
 VAL166  LYS551  ARG553  GLY616  TRP617  ASP618  TYR619  PRO620  LYS621  CYS622 
 ASP623  PHE694  ASN695  SER759  ASP760  ASP761  ALA762  ILE779  LEU786  VAL792 
 PHE793  MET794  SER795  GLU796  ALA797  LYS798  CYS799  TRP800  GLU811  SER814 

> <Gold.Protein.RotatedAtoms>
  151.5914  135.1053  160.0039 H   0  0  0  0  0  0  0  0  0  0  0  0  # atno 6907 bound_to 6896
  152.4304  133.7264  159.6573 H   0  0  0  0  0  0  0  0  0  0  0  0  # atno 6908 bound_to 6896
  150.8196  133.8204  159.3167 H   0  0  0  0  0  0  0  0  0  0  0  0  # atno 6909 bound_to 6896
  146.0235  139.4679  142.9882 H   0  0  0  0  0  0  0  0  0  0  0  0  # atno 7974 bound_to 7965
  154.4069  140.1626  156.2404 H   0  0  0  0  0  0  0  0  0  0  0  0  # atno 8008 bound_to 7997
  155.9206  140.3421  155.6147 H   0  0  0  0  0  0  0  0  0  0  0  0  # atno 8009 bound_to 7997
  155.7227  140.0770  157.2314 H   0  0  0  0  0  0  0  0  0  0  0  0  # atno 8010 bound_to 7997
  140.6482  143.2548  151.4800 H   0  0  0  0  0  0  0  0  0  0  0  0  # atno 10167 bound_to 10162
  156.3509  130.4308  149.7705 H   0  0  0  0  0  0  0  0  0  0  0  0  # atno 10718 bound_to 10713
  154.4488  135.5922  153.6178 H   0  0  0  0  0  0  0  0  0  0  0  0  # atno 10763 bound_to 10752
  152.9811  135.6016  154.3631 H   0  0  0  0  0  0  0  0  0  0  0  0  # atno 10764 bound_to 10752
  154.3489  135.2841  155.2361 H   0  0  0  0  0  0  0  0  0  0  0  0  # atno 10765 bound_to 10752
  141.0976  133.6622  156.4172 H   0  0  0  0  0  0  0  0  0  0  0  0  # atno 11005 bound_to 11000
  145.7155  141.0092  143.1430 LP  0  0  0  0  0  0  0  0  0  0  0  0  # atno 17320 bound_to 7965
  144.7000  139.8808  143.7447 LP  0  0  0  0  0  0  0  0  0  0  0  0  # atno 17321 bound_to 7965
  139.5694  144.1964  152.1814 LP  0  0  0  0  0  0  0  0  0  0  0  0  # atno 17342 bound_to 10162
  140.1256  144.5334  150.6835 LP  0  0  0  0  0  0  0  0  0  0  0  0  # atno 17343 bound_to 10162
  156.4905  130.8083  151.3093 LP  0  0  0  0  0  0  0  0  0  0  0  0  # atno 17370 bound_to 10713
  157.7461  130.9977  150.2824 LP  0  0  0  0  0  0  0  0  0  0  0  0  # atno 17371 bound_to 10713
  140.5102  134.6402  157.5281 LP  0  0  0  0  0  0  0  0  0  0  0  0  # atno 17394 bound_to 11000
  139.9817  134.7127  155.9847 LP  0  0  0  0  0  0  0  0  0  0  0  0  # atno 17395 bound_to 11000

$$$$
