AV-unprocessed.smi:645|AV-procd|sdf|3161|dock7
  -GOLD-   22720 0 83D 1   1.00000     0.00000
 Structure written by MMmdl.
 22 23  0  0  0  0  0  0  0  0  2 V2000
  150.7629  138.8815  154.3560 C   0  0  0  0  0  0  0  0  0  0  0  0
  151.3493  138.5678  155.7485 C   0  0  1  0  0  0  0  0  0  0  0  0
  151.3897  139.8097  156.6561 C   0  0  0  0  0  0  0  0  0  0  0  0
  150.9005  141.0695  156.2312 C   0  0  0  0  0  0  0  0  0  0  0  0
  150.9753  142.1651  157.1140 C   0  0  0  0  0  0  0  0  0  0  0  0
  151.4948  142.0852  158.3566 N   0  0  0  0  0  0  0  0  0  0  0  0
  151.9617  140.8869  158.7637 C   0  0  0  0  0  0  0  0  0  0  0  0
  151.9354  139.7312  157.9590 C   0  0  0  0  0  0  0  0  0  0  0  0
  150.6239  137.4532  156.3276 N   0  0  0  0  0  0  0  0  0  0  0  0
  151.4208  136.4102  156.5514 C   0  0  0  0  0  0  0  0  0  0  0  0
  151.0001  135.3726  157.0579 O   0  0  0  0  0  0  0  0  0  0  0  0
  152.6742  136.6887  156.1456 N   0  5  0  0  0  0  0  0  0  0  0  0
  152.7469  137.9380  155.6363 C   0  0  0  0  0  0  0  0  0  0  0  0
  153.7042  138.5316  155.1397 O   0  0  0  0  0  0  0  0  0  0  0  0
  151.3456  139.6365  153.8279 H   0  0  0  0  0  0  0  0  0  0  0  0
  149.7408  139.2522  154.4375 H   0  0  0  0  0  0  0  0  0  0  0  0
  150.7391  137.9934  153.7225 H   0  0  0  0  0  0  0  0  0  0  0  0
  150.4693  141.2129  155.2519 H   0  0  0  0  0  0  0  0  0  0  0  0
  150.6069  143.1343  156.8120 H   0  0  0  0  0  0  0  0  0  0  0  0
  152.3695  140.8464  159.7629 H   0  0  0  0  0  0  0  0  0  0  0  0
  152.3205  138.7993  158.3453 H   0  0  0  0  0  0  0  0  0  0  0  0
  149.6407  137.4869  156.5526 H   0  0  0  0  0  0  0  0  0  0  0  0
  1  2  1  0  0  0  0
  1 15  1  0  0  0  0
  1 16  1  0  0  0  0
  1 17  1  0  0  0  0
  2 13  1  0  0  0  0
  2  3  1  0  0  0  0
  2  9  1  0  0  0  0
  3  8  1  0  0  0  0
  3  4  2  0  0  0  0
  4  5  1  0  0  0  0
  4 18  1  0  0  0  0
  5  6  2  0  0  0  0
  5 19  1  0  0  0  0
  6  7  1  0  0  0  0
  7  8  2  0  0  0  0
  7 20  1  0  0  0  0
  8 21  1  0  0  0  0
  9 10  1  0  0  0  0
  9 22  1  0  0  0  0
 10 11  2  0  0  0  0
 10 12  1  0  0  0  0
 12 13  1  0  0  0  0
 13 14  2  0  0  0  0
M  CHG  1  12  -1
M  END
> <s_m_source_file>
AV-unprocessed.smi

> <i_m_source_file_index>
645

> <i_lp_mmshare_version>
43012

> <i_f3d_flags>
0

> <s_epik_input>
Tz1DMVtOSF1DKD1PKVtOSF1bQ0BAXTEoW0NIM10pYzJbY0hdW2NIXW5bY0hdW2NIXTI=

> <s_epik_cmdline>
J2VwaWtfcHl0aG9uJywgJy1waCcsICc3LjAnLCAnLXRuJywgJzgnLCAnLW1hJywgJzIwMCcsICctbWV0YWxfYmluZGluZycsICctaW1hZScsICc8aW5maWxlLm1hZT4nLCAnLW9tYWUnLCAnPG91dGZpbGUubWFlPic=

> <r_epik_Ionization_Penalty>
1.83307

> <r_epik_Ionization_Penalty_Charging>
1.82122

> <r_epik_Ionization_Penalty_Neutral>
0.0118514

> <r_epik_State_Penalty>
1.93645

> <r_epik_Charging_Adjusted_Penalty>
3.75767

> <i_epik_Tot_Q>
-1

> <i_epik_Tot_abs_Q>
1

> <r_epik_Metal_State_Penalty>
0.53507

> <b_epik_Metal_Only>
0

> <s_lp_Force_Field>
OPLS_2005

> <r_lp_Energy>
9.09868

> <b_lp_Chiralities_Consistent>
1

> <s_lp_Variant>
AV-unprocessed.smi:645-3

> <Gold.Version>
5.8.1

> <Gold.Id.Protein>
6NUR|6NUR_protein|mol2

> <Gold.PLP.Fitness>
32.4967

> <Gold.PLP.PLP>
-22.3787

> <Gold.PLP.part.hbond>
-2.6490

> <Gold.PLP.part.metal>
0.0000

> <Gold.PLP.part.buried>
-3.7296

> <Gold.PLP.part.nonpolar>
-16.6993

> <Gold.PLP.part.repulsive>
0.0478

> <Gold.PLP.ligand.clash>
0.0000

> <Gold.PLP.ligand.torsion>
0.0515

> <Gold.PLP.Chemscore.Hbond>
2.3797

> <Gold.PLP.Chemscore.CHOScore>
1.0000

> <Gold.PLP.Chemscore.Metal>
0.0000

> <Gold.Chemscore.Hbonds>
donor molecule, donor type, donor heavy atom, donor atom, acceptor molecule, acceptor atom, score
      P1  H  7997  8008       L1    14  0.33
      P1  H 10752 10764       L1    12  1.86
      L1  C     5    19       P1  8028  0.82

> <Gold.PLP.Chemscore.Internal.Correction>
0.0820

> <Gold.Rescore>
     Score         DG    S(hbond)    S(metal)    S(lipo)     H(rot)  DE(clash)    DE(int)     intcor
     14.25     -14.39       1.81        0.00      46.28       1.00       0.01       0.13       ----

> <Gold.Chemscore.Fitness>
14.2532

> <Gold.Chemscore.DG>
-14.3923

> <Gold.Chemscore.ZeroCoef>
-5.4800

> <Gold.Chemscore.Hbond>
1.8135

> <Gold.Chemscore.Metal>
0.0000

> <Gold.Chemscore.Lipo>
46.2831

> <Gold.Chemscore.Internal_Hbond>
0.0000

> <Gold.Chemscore.DEClash>
0.0073

> <Gold.Chemscore.DEInternal>
0.1317

> <Gold.Chemscore.Rot>
1.0000

> <Gold.Chemscore.Internal.Correction>
   9.000000E+99

> <Gold.Chemscore.Hbonds>
donor molecule, donor type, donor heavy atom, donor atom, acceptor molecule, acceptor atom, score
      P1  H  7997  8008       L1    14  0.24
      P1  H 10752 10764       L1    12  0.56

> <Gold.Chemscore.Hbond.Weighted>
-6.0571

> <Gold.Chemscore.Metal.Weighted>
-0.0000

> <Gold.Chemscore.Lipo.Weighted>
-5.4151

> <Gold.Chemscore.Internal_Hbond.Weighted>
0.0000

> <Gold.Chemscore.DEClash.Weighted>
0.0073

> <Gold.Chemscore.DEInternal.Weighted>
0.1317

> <Gold.Chemscore.Rot.Weighted>
2.5600

> <Gold.Chemscore.Internal.Correction.Weighted>
   9.000000E+99

> <Gold.Protein.RotatedTorsions>
[ 6907 6896 6895 6894 ] final   10.06 input  -60.11 | X-H torsion
[ 7974 7965 7964 7962 ] final   49.03 input  175.53 | X-H torsion
[ 8008 7997 7996 7995 ] final  -52.07 input   59.86 | X-H torsion
[ 10167 10162 10161 10158 ] final  -48.74 input  -65.29 | X-H torsion
[ 10718 10713 10712 10709 ] final  127.88 input   66.30 | X-H torsion
[ 10763 10752 10751 10750 ] final  -27.14 input  -60.55 | X-H torsion
[ 11005 11000 10999 10996 ] final  178.62 input  -57.11 | X-H torsion

> <Gold.Protein.ActiveResidues>
 VAL166  LYS551  ARG553  GLY616  TRP617  ASP618  TYR619  PRO620  LYS621  CYS622 
 ASP623  PHE694  ASN695  SER759  ASP760  ASP761  ALA762  ILE779  LEU786  VAL792 
 PHE793  MET794  SER795  GLU796  ALA797  LYS798  CYS799  TRP800  GLU811  SER814 

> <Gold.Protein.RotatedAtoms>
  151.7322  135.0872  160.0301 H   0  0  0  0  0  0  0  0  0  0  0  0  # atno 6907 bound_to 6896
  152.3534  133.6203  159.5970 H   0  0  0  0  0  0  0  0  0  0  0  0  # atno 6908 bound_to 6896
  150.7555  133.9455  159.3511 H   0  0  0  0  0  0  0  0  0  0  0  0  # atno 6909 bound_to 6896
  146.0147  139.4583  142.9934 H   0  0  0  0  0  0  0  0  0  0  0  0  # atno 7974 bound_to 7965
  154.4098  140.1232  156.4932 H   0  0  0  0  0  0  0  0  0  0  0  0  # atno 8008 bound_to 7997
  155.6969  140.3495  155.4897 H   0  0  0  0  0  0  0  0  0  0  0  0  # atno 8009 bound_to 7997
  155.9420  140.1089  157.1038 H   0  0  0  0  0  0  0  0  0  0  0  0  # atno 8010 bound_to 7997
  140.6717  143.2727  151.4114 H   0  0  0  0  0  0  0  0  0  0  0  0  # atno 10167 bound_to 10162
  157.5294  131.1098  150.9033 H   0  0  0  0  0  0  0  0  0  0  0  0  # atno 10718 bound_to 10713
  153.7273  135.6941  153.4998 H   0  0  0  0  0  0  0  0  0  0  0  0  # atno 10763 bound_to 10752
  153.2161  135.4386  155.0435 H   0  0  0  0  0  0  0  0  0  0  0  0  # atno 10764 bound_to 10752
  154.8265  135.3449  154.6804 H   0  0  0  0  0  0  0  0  0  0  0  0  # atno 10765 bound_to 10752
  140.3971  134.6810  157.4541 H   0  0  0  0  0  0  0  0  0  0  0  0  # atno 11005 bound_to 11000
  145.7287  141.0050  143.1363 LP  0  0  0  0  0  0  0  0  0  0  0  0  # atno 17320 bound_to 7965
  144.6966  139.8957  143.7455 LP  0  0  0  0  0  0  0  0  0  0  0  0  # atno 17321 bound_to 7965
  139.5989  144.1338  152.2175 LP  0  0  0  0  0  0  0  0  0  0  0  0  # atno 17342 bound_to 10162
  140.0716  144.5775  150.7188 LP  0  0  0  0  0  0  0  0  0  0  0  0  # atno 17343 bound_to 10162
  156.9619  130.5458  149.5286 LP  0  0  0  0  0  0  0  0  0  0  0  0  # atno 17370 bound_to 10713
  156.0411  130.5493  150.8772 LP  0  0  0  0  0  0  0  0  0  0  0  0  # atno 17371 bound_to 10713
  140.0364  134.6332  155.9038 LP  0  0  0  0  0  0  0  0  0  0  0  0  # atno 17394 bound_to 11000
  141.1870  133.6559  156.5263 LP  0  0  0  0  0  0  0  0  0  0  0  0  # atno 17395 bound_to 11000

$$$$
