#       Name:                AV-unprocessed.smi:2794
#       Creating user name   scv26
#       Creation time:       Fri Mar 27 15:21:23 2020


#       File generated by GOLD software.
#

@<TRIPOS>MOLECULE
AV-unprocessed.smi:2794
    37    38     1
SMALL
NO_CHARGES


@<TRIPOS>ATOM
      1 ****        -4.8993   2.8117  -0.3845 C.3            1 S1                 0.0000
      2 ****        -4.1712   1.5037  -0.1572 C.ar           1 S1                 0.0000
      3 ****        -4.8801   0.2973   0.0048 C.ar           1 S1                 0.0000
      4 ****        -4.1423  -0.8814   0.2149 C.ar           1 S1                 0.0000
      5 ****        -2.7367  -0.8055   0.2546 C.ar           1 S1                 0.0000
      6 ****        -2.1031   0.4455   0.0820 C.ar           1 S1                 0.0000
      7 ****        -0.6849   0.4130   0.1373 N.am           1 S1                 0.0000
      8 ****         0.1838   1.4309  -0.0264 C.2            1 S1                 0.0000
      9 ****        -0.1371   2.5969  -0.2497 O.2            1 S1                 0.0000
     10 ****         1.4785   1.0725   0.0642 N.am           1 S1                 0.0000
     11 ****         2.6716   1.9129  -0.0612 C.3            1 S1                 0.0000
     12 ****         2.9347   2.6782   1.2304 C.2            1 S1                 0.0000
     13 ****         4.1499   2.8032   1.7903 C.2            1 S1                 0.0000
     14 ****         5.4112   2.2053   1.1959 C.3            1 S1                 0.0000
     15 ****         5.2121   1.7698  -0.2664 C.3            1 S1                 0.0000
     16 ****         3.8769   1.0356  -0.4627 C.3            1 S1                 0.0000
     17 ****        -2.8233   1.5767  -0.1199 N.ar           1 S1                 0.0000
     18 ****        -5.9749   2.6563  -0.4707 H              1 S1                 0.0000
     19 ****        -4.5499   3.2870  -1.3015 H              1 S1                 0.0000
     20 ****        -4.7187   3.4937   0.4469 H              1 S1                 0.0000
     21 ****        -5.9593   0.2728  -0.0299 H              1 S1                 0.0000
     22 ****        -4.6451  -1.8285   0.3435 H              1 S1                 0.0000
     23 ****        -2.1549  -1.7016   0.4147 H              1 S1                 0.0000
     24 ****        -0.2782  -0.4942   0.3108 H              1 S1                 0.0000
     25 ****         1.6555   0.0908   0.2212 H              1 S1                 0.0000
     26 ****         2.5184   2.6531  -0.8482 H              1 S1                 0.0000
     27 ****         2.0838   3.1405   1.7094 H              1 S1                 0.0000
     28 ****         4.2588   3.3437   2.7191 H              1 S1                 0.0000
     29 ****         6.2203   2.9333   1.2593 H              1 S1                 0.0000
     30 ****         5.7015   1.3515   1.8088 H              1 S1                 0.0000
     31 ****         5.2321   2.6485  -0.9124 H              1 S1                 0.0000
     32 ****         6.0424   1.1374  -0.5819 H              1 S1                 0.0000
     33 ****         3.8908   0.1261   0.1402 H              1 S1                 0.0000
     34 ****         3.7741   0.7135  -1.4996 H              1 S1                 0.0000
     35 ****        -1.1033   2.8446  -0.3216 LP             1 S1                 0.0000
     36 ****         0.5681   3.2974  -0.3594 LP             1 S1                 0.0000
     37 ****        -2.3613   2.4554  -0.2399 LP             1 S1                 0.0000
@<TRIPOS>BOND
    1    1    2 1     
    2    1   18 1     
    3    1   19 1     
    4    1   20 1     
    5    2   17 ar    
    6    2    3 ar    
    7    3    4 ar    
    8    3   21 1     
    9    4    5 ar    
   10    4   22 1     
   11    5    6 ar    
   12    5   23 1     
   13    6    7 1     
   14    6   17 ar    
   15    7    8 am    
   16    7   24 1     
   17    8    9 2     
   18    8   10 am    
   19   10   11 1     
   20   10   25 1     
   21   11   16 1     
   22   11   12 1     
   23   11   26 1     
   24   12   13 2     
   25   12   27 1     
   26   13   14 1     
   27   13   28 1     
   28   14   15 1     
   29   14   29 1     
   30   14   30 1     
   31   15   16 1     
   32   15   31 1     
   33   15   32 1     
   34   16   33 1     
   35   16   34 1     
   36    9   35 1     
   37    9   36 1     
   38   17   37 1     
@<TRIPOS>SUBSTRUCTURE
      1 S1             1
@<TRIPOS>SET
LONE_PAIRS      STATIC     ATOMS    <user>   **** ""
3 35 36 37
DONOR_HYDROGENS      STATIC     ATOMS    <user>   **** ""
2 24 25
ATOM$BLUE        STATIC     ATOMS    COLORGROUP SYSTEM
3 35 36 37
ATOM$RED        STATIC     ATOMS    COLORGROUP SYSTEM
2 24 25
