AV-unprocessed.smi:915|AV-procd|sdf|4154|dock5
  -GOLD-   22720 2 63D 1   1.00000     0.00000
 Structure written by MMmdl.
 34 35  0  0  0  0  0  0  0  0  1 V2000
  145.5702  143.4418  153.7632 C   0  0  0  0  0  0  0  0  0  0  0  0
  146.1026  142.6718  154.9767 C   0  0  0  0  0  0  0  0  0  0  0  0
  147.0296  141.5616  154.5844 C   0  0  0  0  0  0  0  0  0  0  0  0
  148.3663  141.4598  154.8831 C   0  0  0  0  0  0  0  0  0  0  0  0
  149.0751  140.0093  154.2247 S   0  0  0  0  0  0  0  0  0  0  0  0
  147.5040  139.5896  153.5610 C   0  0  0  0  0  0  0  0  0  0  0  0
  147.2983  138.4019  152.8112 N   0  0  0  0  0  0  0  0  0  0  0  0
  146.1323  137.8192  152.4821 C   0  0  0  0  0  0  0  0  0  0  0  0
  145.0160  138.2364  152.7923 O   0  0  0  0  0  0  0  0  0  0  0  0
  146.3331  136.7073  151.7596 N   0  0  0  0  0  0  0  0  0  0  0  0
  145.2847  135.8317  151.2442 C   0  0  0  0  0  0  0  0  0  0  0  0
  145.4393  134.3851  151.7482 C   0  0  2  0  0  0  0  0  0  0  0  0
  146.6181  133.6191  151.1286 C   0  0  0  0  0  0  0  0  0  0  0  0
  146.3140  132.1296  151.2876 C   0  0  0  0  0  0  0  0  0  0  0  0
  144.8562  131.9432  150.8674 C   0  0  0  0  0  0  0  0  0  0  0  0
  143.9455  133.4053  151.4265 S   0  0  0  0  0  0  0  0  0  0  0  0
  146.5491  140.4875  153.8290 N   0  0  0  0  0  0  0  0  0  0  0  0
  144.9029  144.2452  154.0751 H   0  0  0  0  0  0  0  0  0  0  0  0
  145.0116  142.7862  153.0945 H   0  0  0  0  0  0  0  0  0  0  0  0
  146.3852  143.8878  153.1926 H   0  0  0  0  0  0  0  0  0  0  0  0
  146.6126  143.3660  155.6455 H   0  0  0  0  0  0  0  0  0  0  0  0
  145.2626  142.2723  155.5460 H   0  0  0  0  0  0  0  0  0  0  0  0
  148.9756  142.1499  155.4475 H   0  0  0  0  0  0  0  0  0  0  0  0
  148.1370  137.9414  152.4904 H   0  0  0  0  0  0  0  0  0  0  0  0
  147.2849  136.4427  151.5518 H   0  0  0  0  0  0  0  0  0  0  0  0
  144.3288  136.2334  151.5814 H   0  0  0  0  0  0  0  0  0  0  0  0
  145.2542  135.8553  150.1534 H   0  0  0  0  0  0  0  0  0  0  0  0
  145.5686  134.3949  152.8312 H   0  0  0  0  0  0  0  0  0  0  0  0
  146.6992  133.8547  150.0664 H   0  0  0  0  0  0  0  0  0  0  0  0
  147.5666  133.8895  151.5932 H   0  0  0  0  0  0  0  0  0  0  0  0
  146.9888  131.5093  150.6970 H   0  0  0  0  0  0  0  0  0  0  0  0
  146.4359  131.8415  152.3326 H   0  0  0  0  0  0  0  0  0  0  0  0
  144.7847  131.8933  149.7806 H   0  0  0  0  0  0  0  0  0  0  0  0
  144.4225  131.0290  151.2731 H   0  0  0  0  0  0  0  0  0  0  0  0
  1  2  1  0  0  0  0
  1 18  1  0  0  0  0
  1 19  1  0  0  0  0
  1 20  1  0  0  0  0
  2  3  1  0  0  0  0
  2 21  1  0  0  0  0
  2 22  1  0  0  0  0
  3 17  1  0  0  0  0
  3  4  2  0  0  0  0
  4  5  1  0  0  0  0
  4 23  1  0  0  0  0
  5  6  1  0  0  0  0
  6  7  1  0  0  0  0
  6 17  2  0  0  0  0
  7  8  1  0  0  0  0
  7 24  1  0  0  0  0
  8  9  2  0  0  0  0
  8 10  1  0  0  0  0
 10 11  1  0  0  0  0
 10 25  1  0  0  0  0
 11 12  1  0  0  0  0
 11 26  1  0  0  0  0
 11 27  1  0  0  0  0
 12 16  1  0  0  0  0
 12 13  1  0  0  0  0
 12 28  1  0  0  0  0
 13 14  1  0  0  0  0
 13 29  1  0  0  0  0
 13 30  1  0  0  0  0
 14 15  1  0  0  0  0
 14 31  1  0  0  0  0
 14 32  1  0  0  0  0
 15 16  1  0  0  0  0
 15 33  1  0  0  0  0
 15 34  1  0  0  0  0
M  END
> <s_m_source_file>
AV-unprocessed.smi

> <i_m_source_file_index>
915

> <i_lp_mmshare_version>
43012

> <i_f3d_flags>
0

> <s_epik_input>
W0NIM11bQ0gyXWMxW2NIXXNjKG4xKVtOSF1DKD1PKVtOSF1bQ0gyXVtDQEBIXTJbQ0gyXVtDSDJdW0NIMl1TMg==

> <s_epik_cmdline>
J2VwaWtfcHl0aG9uJywgJy1waCcsICc3LjAnLCAnLXRuJywgJzgnLCAnLW1hJywgJzIwMCcsICctbWV0YWxfYmluZGluZycsICctaW1hZScsICc8aW5maWxlLm1hZT4nLCAnLW9tYWUnLCAnPG91dGZpbGUubWFlPic=

> <r_lp_tautomer_probability>
0.999

> <r_epik_Ionization_Penalty>
0.000460048

> <r_epik_Ionization_Penalty_Charging>
0

> <r_epik_Ionization_Penalty_Neutral>
0.000460048

> <r_epik_State_Penalty>
0.000177984

> <r_epik_Charging_Adjusted_Penalty>
0.000177984

> <i_epik_Tot_Q>
0

> <i_epik_Tot_abs_Q>
0

> <r_epik_Metal_State_Penalty>
0.00612978

> <b_epik_Metal_Only>
0

> <s_lp_Force_Field>
OPLS_2005

> <r_lp_Energy>
7.49707

> <b_lp_Chiralities_Consistent>
1

> <s_lp_Variant>
AV-unprocessed.smi:915-1

> <Gold.Version>
5.8.1

> <Gold.Id.Protein>
6NUR|6NUR_protein|mol2

> <Gold.PLP.Fitness>
40.4211

> <Gold.PLP.PLP>
-31.7844

> <Gold.PLP.part.hbond>
-2.4600

> <Gold.PLP.part.metal>
0.0000

> <Gold.PLP.part.buried>
-4.3116

> <Gold.PLP.part.nonpolar>
-30.9884

> <Gold.PLP.part.repulsive>
4.2996

> <Gold.PLP.ligand.clash>
0.0000

> <Gold.PLP.ligand.torsion>
0.1469

> <Gold.PLP.Chemscore.Hbond>
1.9760

> <Gold.PLP.Chemscore.CHOScore>
0.9986

> <Gold.PLP.Chemscore.Metal>
0.0000

> <Gold.Chemscore.Hbonds>
donor molecule, donor type, donor heavy atom, donor atom, acceptor molecule, acceptor atom, score
      L1  H     7    24       P1  7948  0.94
      L1  H    10    25       P1  7948  1.00
      L1  C     4    23       P1  8028  0.89

> <Gold.PLP.Chemscore.Internal.Correction>
0.0068

> <Gold.Rescore>
     Score         DG    S(hbond)    S(metal)    S(lipo)     H(rot)  DE(clash)    DE(int)     intcor
     13.95     -16.99       1.97        0.00      71.95       1.36       1.64       1.40       ----

> <Gold.Chemscore.Fitness>
13.9518

> <Gold.Chemscore.DG>
-16.9919

> <Gold.Chemscore.ZeroCoef>
-5.4800

> <Gold.Chemscore.Hbond>
1.9691

> <Gold.Chemscore.Metal>
0.0000

> <Gold.Chemscore.Lipo>
71.9455

> <Gold.Chemscore.Internal_Hbond>
0.0000

> <Gold.Chemscore.DEClash>
1.6397

> <Gold.Chemscore.DEInternal>
1.4004

> <Gold.Chemscore.Rot>
1.3603

> <Gold.Chemscore.Internal.Correction>
   9.000000E+99

> <Gold.Chemscore.Hbonds>
donor molecule, donor type, donor heavy atom, donor atom, acceptor molecule, acceptor atom, score
      L1  H     7    24       P1  7948  0.89
      L1  H    10    25       P1  7948  0.99

> <Gold.Chemscore.Hbond.Weighted>
-6.5767

> <Gold.Chemscore.Metal.Weighted>
-0.0000

> <Gold.Chemscore.Lipo.Weighted>
-8.4176

> <Gold.Chemscore.Internal_Hbond.Weighted>
0.0000

> <Gold.Chemscore.DEClash.Weighted>
1.6397

> <Gold.Chemscore.DEInternal.Weighted>
1.4004

> <Gold.Chemscore.Rot.Weighted>
3.4824

> <Gold.Chemscore.Internal.Correction.Weighted>
   9.000000E+99

> <Gold.Protein.RotatedTorsions>
[ 6907 6896 6895 6894 ] final    9.35 input  -60.11 | X-H torsion
[ 7974 7965 7964 7962 ] final -126.26 input  175.53 | X-H torsion
[ 8008 7997 7996 7995 ] final   51.14 input   59.86 | X-H torsion
[ 10167 10162 10161 10158 ] final  150.10 input  -65.29 | X-H torsion
[ 10718 10713 10712 10709 ] final   96.02 input   66.30 | X-H torsion
[ 10763 10752 10751 10750 ] final  -59.13 input  -60.55 | X-H torsion
[ 11005 11000 10999 10996 ] final  -15.60 input  -57.11 | X-H torsion

> <Gold.Protein.ActiveResidues>
 VAL166  LYS551  ARG553  GLY616  TRP617  ASP618  TYR619  PRO620  LYS621  CYS622 
 ASP623  PHE694  ASN695  SER759  ASP760  ASP761  ALA762  ILE779  LEU786  VAL792 
 PHE793  MET794  SER795  GLU796  ALA797  LYS798  CYS799  TRP800  GLU811  SER814 

> <Gold.Protein.RotatedAtoms>
  151.7207  135.0895  160.0283 H   0  0  0  0  0  0  0  0  0  0  0  0  # atno 6907 bound_to 6896
  152.3603  133.6285  159.6019 H   0  0  0  0  0  0  0  0  0  0  0  0  # atno 6908 bound_to 6896
  150.7600  133.9350  159.3480 H   0  0  0  0  0  0  0  0  0  0  0  0  # atno 6909 bound_to 6896
  144.9891  140.7715  143.4565 H   0  0  0  0  0  0  0  0  0  0  0  0  # atno 7974 bound_to 7965
  155.4303  140.3450  155.4279 H   0  0  0  0  0  0  0  0  0  0  0  0  # atno 8008 bound_to 7997
  156.1340  140.1522  156.9053 H   0  0  0  0  0  0  0  0  0  0  0  0  # atno 8009 bound_to 7997
  154.4917  140.0839  156.7589 H   0  0  0  0  0  0  0  0  0  0  0  0  # atno 8010 bound_to 7997
  139.4854  144.5549  151.7335 H   0  0  0  0  0  0  0  0  0  0  0  0  # atno 10167 bound_to 10162
  157.6932  131.0564  150.4428 H   0  0  0  0  0  0  0  0  0  0  0  0  # atno 10718 bound_to 10713
  154.2489  135.6329  153.5233 H   0  0  0  0  0  0  0  0  0  0  0  0  # atno 10763 bound_to 10752
  152.9916  135.5560  154.5829 H   0  0  0  0  0  0  0  0  0  0  0  0  # atno 10764 bound_to 10752
  154.5352  135.2891  155.1120 H   0  0  0  0  0  0  0  0  0  0  0  0  # atno 10765 bound_to 10752
  140.7983  133.8234  155.9445 H   0  0  0  0  0  0  0  0  0  0  0  0  # atno 11005 bound_to 11000
  145.2311  139.2114  143.5042 LP  0  0  0  0  0  0  0  0  0  0  0  0  # atno 17320 bound_to 7965
  146.3427  140.2188  142.8591 LP  0  0  0  0  0  0  0  0  0  0  0  0  # atno 17321 bound_to 7965
  140.5109  144.1027  150.5995 LP  0  0  0  0  0  0  0  0  0  0  0  0  # atno 17342 bound_to 10162
  140.3952  143.2732  152.0013 LP  0  0  0  0  0  0  0  0  0  0  0  0  # atno 17343 bound_to 10162
  156.4785  130.4068  149.6476 LP  0  0  0  0  0  0  0  0  0  0  0  0  # atno 17370 bound_to 10713
  156.3530  130.7442  151.2404 LP  0  0  0  0  0  0  0  0  0  0  0  0  # atno 17371 bound_to 10713
  140.9320  134.2009  157.4857 LP  0  0  0  0  0  0  0  0  0  0  0  0  # atno 17394 bound_to 11000
  139.8724  134.9837  156.5208 LP  0  0  0  0  0  0  0  0  0  0  0  0  # atno 17395 bound_to 11000

$$$$
