AV-unprocessed.smi:1533|AV-procd|sdf|6164|dock2
  -GOLD-   22720 6313D 1   1.00000     0.00000
 Structure written by MMmdl.
 37 39  0  0  0  0  0  0  0  0  1 V2000
  153.6944  139.1483  153.7554 C   0  0  0  0  0  0  0  0  0  0  0  0
  152.2522  138.9150  154.0520 C   0  0  0  0  0  0  0  0  0  0  0  0
  151.7342  137.6926  154.0511 N   0  0  0  0  0  0  0  0  0  0  0  0
  150.3880  137.9115  154.3772 O   0  0  0  0  0  0  0  0  0  0  0  0
  150.2552  139.2526  154.5166 C   0  0  0  0  0  0  0  0  0  0  0  0
  148.9284  139.8071  154.9134 C   0  0  0  0  0  0  0  0  0  0  0  0
  148.9290  140.3564  156.3489 C   0  0  0  0  0  0  0  0  0  0  0  0
  150.0945  141.1951  156.6041 N   0  0  0  0  0  0  0  0  0  0  0  0
  150.2914  141.9266  157.7116 C   0  0  0  0  0  0  0  0  0  0  0  0
  149.4910  141.9538  158.6474 O   0  0  0  0  0  0  0  0  0  0  0  0
  151.6077  142.7223  157.7691 C   0  0  2  0  0  0  0  0  0  0  0  0
  152.6047  142.2479  158.8552 C   0  0  0  0  0  0  0  0  0  0  0  0
  152.9216  143.5445  159.6240 C   0  0  2  0  0  0  0  0  0  0  0  0
  151.7079  143.9419  160.4851 C   0  0  0  0  0  0  0  0  0  0  0  0
  150.7099  144.4720  159.4395 C   0  0  0  0  0  0  0  0  0  0  0  0
  151.4521  144.2294  158.1066 C   0  0  1  0  0  0  0  0  0  0  0  0
  152.8790  144.5868  158.5121 C   0  0  0  0  0  0  0  0  0  0  0  0
  151.3894  139.9270  154.3428 N   0  0  0  0  0  0  0  0  0  0  0  0
  154.2217  138.2043  153.6125 H   0  0  0  0  0  0  0  0  0  0  0  0
  154.1661  139.6847  154.5789 H   0  0  0  0  0  0  0  0  0  0  0  0
  153.8003  139.7435  152.8483 H   0  0  0  0  0  0  0  0  0  0  0  0
  148.6559  140.5909  154.2053 H   0  0  0  0  0  0  0  0  0  0  0  0
  148.1797  139.0204  154.8119 H   0  0  0  0  0  0  0  0  0  0  0  0
  148.0369  140.9613  156.5145 H   0  0  0  0  0  0  0  0  0  0  0  0
  148.8885  139.5392  157.0714 H   0  0  0  0  0  0  0  0  0  0  0  0
  150.8038  141.2226  155.8857 H   0  0  0  0  0  0  0  0  0  0  0  0
  152.0990  142.6354  156.7980 H   0  0  0  0  0  0  0  0  0  0  0  0
  152.2183  141.4693  159.5144 H   0  0  0  0  0  0  0  0  0  0  0  0
  153.5076  141.8527  158.3879 H   0  0  0  0  0  0  0  0  0  0  0  0
  153.8575  143.5026  160.1818 H   0  0  0  0  0  0  0  0  0  0  0  0
  151.3092  143.0973  161.0483 H   0  0  0  0  0  0  0  0  0  0  0  0
  151.9706  144.7257  161.1966 H   0  0  0  0  0  0  0  0  0  0  0  0
  149.7345  143.9905  159.4988 H   0  0  0  0  0  0  0  0  0  0  0  0
  150.5451  145.5400  159.5884 H   0  0  0  0  0  0  0  0  0  0  0  0
  151.0628  144.8208  157.2774 H   0  0  0  0  0  0  0  0  0  0  0  0
  152.9857  145.6108  158.8750 H   0  0  0  0  0  0  0  0  0  0  0  0
  153.6134  144.4104  157.7239 H   0  0  0  0  0  0  0  0  0  0  0  0
  1  2  1  0  0  0  0
  1 19  1  0  0  0  0
  1 20  1  0  0  0  0
  1 21  1  0  0  0  0
  2 18  1  0  0  0  0
  2  3  2  0  0  0  0
  3  4  1  0  0  0  0
  4  5  1  0  0  0  0
  5  6  1  0  0  0  0
  5 18  2  0  0  0  0
  6  7  1  0  0  0  0
  6 22  1  0  0  0  0
  6 23  1  0  0  0  0
  7  8  1  0  0  0  0
  7 24  1  0  0  0  0
  7 25  1  0  0  0  0
  8  9  1  0  0  0  0
  8 26  1  0  0  0  0
  9 10  2  0  0  0  0
  9 11  1  0  0  0  0
 11 16  1  0  0  0  0
 11 12  1  0  0  0  0
 11 27  1  0  0  0  0
 12 13  1  0  0  0  0
 12 28  1  0  0  0  0
 12 29  1  0  0  0  0
 13 17  1  0  0  0  0
 13 14  1  0  0  0  0
 13 30  1  0  0  0  0
 14 15  1  0  0  0  0
 14 31  1  0  0  0  0
 14 32  1  0  0  0  0
 15 16  1  0  0  0  0
 15 33  1  0  0  0  0
 15 34  1  0  0  0  0
 16 17  1  0  0  0  0
 16 35  1  0  0  0  0
 17 36  1  0  0  0  0
 17 37  1  0  0  0  0
M  END
> <s_m_source_file>
AV-unprocessed.smi

> <i_m_source_file_index>
1533

> <i_lp_mmshare_version>
43012

> <i_f3d_flags>
0

> <s_epik_input>
W0NIM11jMW5vYyhuMSlbQ0gyXVtDSDJdW05IXUMoPU8pW0NASF0oW0NIMl1bQ0BASF0yMylbQ0BASF0oW0NIMl0zKVtDSDJdW0NIMl0y

> <s_epik_cmdline>
J2VwaWtfcHl0aG9uJywgJy1waCcsICc3LjAnLCAnLXRuJywgJzgnLCAnLW1hJywgJzIwMCcsICctbWV0YWxfYmluZGluZycsICctaW1hZScsICc8aW5maWxlLm1hZT4nLCAnLW9tYWUnLCAnPG91dGZpbGUubWFlPic=

> <r_lp_tautomer_probability>
1

> <r_epik_Ionization_Penalty>
1.90116e-08

> <r_epik_Ionization_Penalty_Charging>
0

> <r_epik_Ionization_Penalty_Neutral>
1.90116e-08

> <r_epik_State_Penalty>
-0

> <r_epik_Charging_Adjusted_Penalty>
0

> <i_epik_Tot_Q>
0

> <i_epik_Tot_abs_Q>
0

> <r_epik_Metal_State_Penalty>
-0

> <b_epik_Metal_Only>
0

> <s_lp_Force_Field>
OPLS_2005

> <r_lp_Energy>
42.9891

> <b_lp_Chiralities_Consistent>
1

> <s_lp_Variant>
AV-unprocessed.smi:1533-3

> <Gold.Version>
5.8.1

> <Gold.Id.Protein>
6NUR|6NUR_protein|mol2

> <Gold.PLP.Fitness>
43.7754

> <Gold.PLP.PLP>
-38.3329

> <Gold.PLP.part.hbond>
-2.0499

> <Gold.PLP.part.metal>
0.0000

> <Gold.PLP.part.buried>
-5.4766

> <Gold.PLP.part.nonpolar>
-31.1241

> <Gold.PLP.part.repulsive>
0.4965

> <Gold.PLP.ligand.clash>
0.0000

> <Gold.PLP.ligand.torsion>
0.2475

> <Gold.PLP.Chemscore.Hbond>
1.9675

> <Gold.PLP.Chemscore.CHOScore>
0.0000

> <Gold.PLP.Chemscore.Metal>
0.0000

> <Gold.Chemscore.Hbonds>
donor molecule, donor type, donor heavy atom, donor atom, acceptor molecule, acceptor atom, score
      P1  H  7989  7998       L1    18  0.39
      P1  H 10752 10765       L1     3  0.14

> <Gold.PLP.Chemscore.Internal.Correction>
0.0352

> <Gold.Rescore>
     Score         DG    S(hbond)    S(metal)    S(lipo)     H(rot)  DE(clash)    DE(int)     intcor
     15.22     -18.73       1.83        0.00     101.56       1.85       0.27       3.24       ----

> <Gold.Chemscore.Fitness>
15.2174

> <Gold.Chemscore.DG>
-18.7260

> <Gold.Chemscore.ZeroCoef>
-5.4800

> <Gold.Chemscore.Hbond>
1.8254

> <Gold.Chemscore.Metal>
0.0000

> <Gold.Chemscore.Lipo>
101.5593

> <Gold.Chemscore.Internal_Hbond>
0.0000

> <Gold.Chemscore.DEClash>
0.2722

> <Gold.Chemscore.DEInternal>
3.2365

> <Gold.Chemscore.Rot>
1.8490

> <Gold.Chemscore.Internal.Correction>
   9.000000E+99

> <Gold.Chemscore.Hbonds>
donor molecule, donor type, donor heavy atom, donor atom, acceptor molecule, acceptor atom, score
      P1  H  7989  7998       L1    18  0.20
      P1  H 10752 10765       L1     3  0.14

> <Gold.Chemscore.Hbond.Weighted>
-6.0969

> <Gold.Chemscore.Metal.Weighted>
-0.0000

> <Gold.Chemscore.Lipo.Weighted>
-11.8824

> <Gold.Chemscore.Internal_Hbond.Weighted>
0.0000

> <Gold.Chemscore.DEClash.Weighted>
0.2722

> <Gold.Chemscore.DEInternal.Weighted>
3.2365

> <Gold.Chemscore.Rot.Weighted>
4.7334

> <Gold.Chemscore.Internal.Correction.Weighted>
   9.000000E+99

> <Gold.Protein.RotatedTorsions>
[ 6907 6896 6895 6894 ] final   24.42 input  -60.11 | X-H torsion
[ 7974 7965 7964 7962 ] final  119.51 input  175.53 | X-H torsion
[ 8008 7997 7996 7995 ] final -127.59 input   59.86 | X-H torsion
[ 10167 10162 10161 10158 ] final -155.94 input  -65.29 | X-H torsion
[ 10718 10713 10712 10709 ] final  168.05 input   66.30 | X-H torsion
[ 10763 10752 10751 10750 ] final  164.08 input  -60.55 | X-H torsion
[ 11005 11000 10999 10996 ] final -164.61 input  -57.11 | X-H torsion

> <Gold.Protein.ActiveResidues>
 VAL166  LYS551  ARG553  GLY616  TRP617  ASP618  TYR619  PRO620  LYS621  CYS622 
 ASP623  PHE694  ASN695  SER759  ASP760  ASP761  ALA762  ILE779  LEU786  VAL792 
 PHE793  MET794  SER795  GLU796  ALA797  LYS798  CYS799  TRP800  GLU811  SER814 

> <Gold.Protein.RotatedAtoms>
  151.9572  135.0141  160.0545 H   0  0  0  0  0  0  0  0  0  0  0  0  # atno 6907 bound_to 6896
  152.1900  133.4762  159.5011 H   0  0  0  0  0  0  0  0  0  0  0  0  # atno 6908 bound_to 6896
  150.6933  134.1641  159.4230 H   0  0  0  0  0  0  0  0  0  0  0  0  # atno 6909 bound_to 6896
  145.1423  139.3260  143.4609 H   0  0  0  0  0  0  0  0  0  0  0  0  # atno 7974 bound_to 7965
  155.2488  140.0431  157.2984 H   0  0  0  0  0  0  0  0  0  0  0  0  # atno 8008 bound_to 7997
  154.5782  140.2393  155.8061 H   0  0  0  0  0  0  0  0  0  0  0  0  # atno 8009 bound_to 7997
  156.2174  140.2980  155.9879 H   0  0  0  0  0  0  0  0  0  0  0  0  # atno 8010 bound_to 7997
  139.6890  143.9452  152.2375 H   0  0  0  0  0  0  0  0  0  0  0  0  # atno 10167 bound_to 10162
  157.0427  131.0291  151.2708 H   0  0  0  0  0  0  0  0  0  0  0  0  # atno 10718 bound_to 10713
  154.3035  135.2758  155.2600 H   0  0  0  0  0  0  0  0  0  0  0  0  # atno 10763 bound_to 10752
  154.5026  135.5804  153.6546 H   0  0  0  0  0  0  0  0  0  0  0  0  # atno 10764 bound_to 10752
  152.9897  135.6161  154.3207 H   0  0  0  0  0  0  0  0  0  0  0  0  # atno 10765 bound_to 10752
  140.5850  134.5103  157.5184 H   0  0  0  0  0  0  0  0  0  0  0  0  # atno 11005 bound_to 11000
  146.3504  140.1465  142.8593 LP  0  0  0  0  0  0  0  0  0  0  0  0  # atno 17320 bound_to 7965
  145.0519  140.9024  143.4990 LP  0  0  0  0  0  0  0  0  0  0  0  0  # atno 17321 bound_to 7965
  139.9263  144.6769  150.8409 LP  0  0  0  0  0  0  0  0  0  0  0  0  # atno 17342 bound_to 10162
  140.7677  143.3339  151.2350 LP  0  0  0  0  0  0  0  0  0  0  0  0  # atno 17343 bound_to 10162
  157.5092  130.7928  149.7687 LP  0  0  0  0  0  0  0  0  0  0  0  0  # atno 17370 bound_to 10713
  156.0033  130.3868  150.2525 LP  0  0  0  0  0  0  0  0  0  0  0  0  # atno 17371 bound_to 10713
  139.9300  134.7982  156.0958 LP  0  0  0  0  0  0  0  0  0  0  0  0  # atno 17394 bound_to 11000
  141.0972  133.6691  156.2671 LP  0  0  0  0  0  0  0  0  0  0  0  0  # atno 17395 bound_to 11000

$$$$
