AV-unprocessed.smi:483|AV-procd|sdf|2686|dock6
  -GOLD-   2262023113D 1   1.00000     0.00000
 Structure written by MMmdl.
 44 44  0  0  0  0  0  0  0  0  1 V2000
  143.9158  145.3121  154.3767 C   0  0  0  0  0  0  0  0  0  0  0  0
  144.7154  144.0217  154.6121 C   0  0  0  0  0  0  0  0  0  0  0  0
  145.5899  143.5917  153.4197 C   0  0  0  0  0  0  0  0  0  0  0  0
  146.1632  142.2641  153.6183 N   0  0  0  0  0  0  0  0  0  0  0  0
  147.4324  142.0106  153.9728 C   0  0  0  0  0  0  0  0  0  0  0  0
  148.2860  142.8888  154.1093 O   0  0  0  0  0  0  0  0  0  0  0  0
  147.7805  140.5385  154.2463 C   0  0  1  0  0  0  0  0  0  0  0  0
  147.6010  139.7294  152.9504 C   0  0  0  0  0  0  0  0  0  0  0  0
  149.1820  140.4535  154.6511 N   0  0  0  0  0  0  0  0  0  0  0  0
  149.6640  140.8746  155.8315 C   0  0  0  0  0  0  0  0  0  0  0  0
  148.9461  141.2739  156.7495 O   0  0  0  0  0  0  0  0  0  0  0  0
  151.1892  140.8500  155.9963 C   0  0  0  0  0  0  0  0  0  0  0  0
  151.6116  141.4062  157.2902 N   0  0  0  0  0  0  0  0  0  0  0  0
  151.1300  142.6753  157.5454 N   0  0  0  0  0  0  0  0  0  0  0  0
  151.4623  143.3183  158.6163 C   0  0  0  0  0  0  0  0  0  0  0  0
  150.8839  144.6976  158.7834 C   0  0  0  0  0  0  0  0  0  0  0  0
  152.3591  142.6959  159.5852 C   0  0  0  0  0  0  0  0  0  0  0  0
  152.7230  143.5042  160.8229 C   0  0  0  0  0  0  0  0  0  0  0  0
  152.8139  141.4436  159.3303 C   0  0  0  0  0  0  0  0  0  0  0  0
  153.7019  140.7583  160.2130 C   0  0  0  0  0  0  0  0  0  0  0  0
  154.4152  140.2144  160.9448 N   0  0  0  0  0  0  0  0  0  0  0  0
  152.4334  140.7053  158.1246 C   0  0  0  0  0  0  0  0  0  0  0  0
  152.8187  139.5629  157.8697 O   0  0  0  0  0  0  0  0  0  0  0  0
  143.2609  145.5234  155.2222 H   0  0  0  0  0  0  0  0  0  0  0  0
  143.2934  145.2348  153.4850 H   0  0  0  0  0  0  0  0  0  0  0  0
  144.5738  146.1717  154.2528 H   0  0  0  0  0  0  0  0  0  0  0  0
  145.3399  144.1434  155.4979 H   0  0  0  0  0  0  0  0  0  0  0  0
  144.0189  143.2149  154.8427 H   0  0  0  0  0  0  0  0  0  0  0  0
  144.9792  143.5586  152.5174 H   0  0  0  0  0  0  0  0  0  0  0  0
  146.3651  144.3365  153.2324 H   0  0  0  0  0  0  0  0  0  0  0  0
  145.5323  141.4802  153.5349 H   0  0  0  0  0  0  0  0  0  0  0  0
  147.1344  140.1273  155.0248 H   0  0  0  0  0  0  0  0  0  0  0  0
  146.5714  139.7795  152.5937 H   0  0  0  0  0  0  0  0  0  0  0  0
  147.8361  138.6774  153.1146 H   0  0  0  0  0  0  0  0  0  0  0  0
  148.2491  140.0884  152.1493 H   0  0  0  0  0  0  0  0  0  0  0  0
  149.8395  140.1373  153.9533 H   0  0  0  0  0  0  0  0  0  0  0  0
  151.5252  139.8167  155.8936 H   0  0  0  0  0  0  0  0  0  0  0  0
  151.6667  141.3992  155.1823 H   0  0  0  0  0  0  0  0  0  0  0  0
  150.2422  144.7434  159.6633 H   0  0  0  0  0  0  0  0  0  0  0  0
  150.2836  144.9944  157.9219 H   0  0  0  0  0  0  0  0  0  0  0  0
  151.6752  145.4380  158.9017 H   0  0  0  0  0  0  0  0  0  0  0  0
  153.3412  142.9377  161.5185 H   0  0  0  0  0  0  0  0  0  0  0  0
  151.8254  143.8105  161.3609 H   0  0  0  0  0  0  0  0  0  0  0  0
  153.2789  144.3997  160.5429 H   0  0  0  0  0  0  0  0  0  0  0  0
  1  2  1  0  0  0  0
  1 24  1  0  0  0  0
  1 25  1  0  0  0  0
  1 26  1  0  0  0  0
  2  3  1  0  0  0  0
  2 27  1  0  0  0  0
  2 28  1  0  0  0  0
  3  4  1  0  0  0  0
  3 29  1  0  0  0  0
  3 30  1  0  0  0  0
  4  5  1  0  0  0  0
  4 31  1  0  0  0  0
  5  6  2  0  0  0  0
  5  7  1  0  0  0  0
  7  8  1  0  0  0  0
  7  9  1  0  0  0  0
  7 32  1  0  0  0  0
  8 33  1  0  0  0  0
  8 34  1  0  0  0  0
  8 35  1  0  0  0  0
  9 10  1  0  0  0  0
  9 36  1  0  0  0  0
 10 11  2  0  0  0  0
 10 12  1  0  0  0  0
 12 13  1  0  0  0  0
 12 37  1  0  0  0  0
 12 38  1  0  0  0  0
 13 22  1  0  0  0  0
 13 14  1  0  0  0  0
 14 15  2  0  0  0  0
 15 16  1  0  0  0  0
 15 17  1  0  0  0  0
 16 39  1  0  0  0  0
 16 40  1  0  0  0  0
 16 41  1  0  0  0  0
 17 18  1  0  0  0  0
 17 19  2  0  0  0  0
 18 42  1  0  0  0  0
 18 43  1  0  0  0  0
 18 44  1  0  0  0  0
 19 20  1  0  0  0  0
 19 22  1  0  0  0  0
 20 21  3  0  0  0  0
 22 23  2  0  0  0  0
M  END
> <s_m_source_file>
AV-unprocessed.smi

> <i_m_source_file_index>
483

> <i_lp_mmshare_version>
43012

> <i_f3d_flags>
0

> <s_epik_input>
W0NIM11bQ0gyXVtDSDJdW05IXUMoPU8pW0NASF0oW0NIM10pW05IXUMoPU8pW0NIMl1uMW5jKFtDSDNdKWMoW0NIM10pYyhDI04pYzE9Tw==

> <s_epik_cmdline>
J2VwaWtfcHl0aG9uJywgJy1waCcsICc3LjAnLCAnLXRuJywgJzgnLCAnLW1hJywgJzIwMCcsICctbWV0YWxfYmluZGluZycsICctaW1hZScsICc8aW5maWxlLm1hZT4nLCAnLW9tYWUnLCAnPG91dGZpbGUubWFlPic=

> <r_lp_tautomer_probability>
1

> <r_epik_Ionization_Penalty>
5.96698e-08

> <r_epik_Ionization_Penalty_Charging>
1.88177e-11

> <r_epik_Ionization_Penalty_Neutral>
5.9651e-08

> <r_epik_State_Penalty>
-0

> <r_epik_Charging_Adjusted_Penalty>
1.88177e-11

> <i_epik_Tot_Q>
0

> <i_epik_Tot_abs_Q>
0

> <r_epik_Metal_State_Penalty>
-0

> <b_epik_Metal_Only>
0

> <s_lp_Force_Field>
OPLS_2005

> <r_lp_Energy>
18.0289

> <b_lp_Chiralities_Consistent>
1

> <s_lp_Variant>
AV-unprocessed.smi:483-2

> <Gold.Version>
5.8.1

> <Gold.Id.Protein>
6NUR|6NUR_protein|mol2

> <Gold.PLP.Fitness>
45.9113

> <Gold.PLP.PLP>
-39.6520

> <Gold.PLP.part.hbond>
-3.4413

> <Gold.PLP.part.metal>
0.0000

> <Gold.PLP.part.buried>
-4.3220

> <Gold.PLP.part.nonpolar>
-35.6753

> <Gold.PLP.part.repulsive>
4.8466

> <Gold.PLP.ligand.clash>
0.0000

> <Gold.PLP.ligand.torsion>
0.3048

> <Gold.PLP.Chemscore.Hbond>
2.2668

> <Gold.PLP.Chemscore.CHOScore>
0.0000

> <Gold.PLP.Chemscore.Metal>
0.0000

> <Gold.Chemscore.Hbonds>
donor molecule, donor type, donor heavy atom, donor atom, acceptor molecule, acceptor atom, score
      L1  H     4    31       P1 10175  0.20
      P1  H  7997  8008       L1    23  0.90
      P1  H  8022  8030       L1     6  1.00

> <Gold.PLP.Chemscore.Internal.Correction>
0.0687

> <Gold.Rescore>
     Score         DG    S(hbond)    S(metal)    S(lipo)     H(rot)  DE(clash)    DE(int)     intcor
     10.50     -16.99       1.78        0.00      99.47       2.38       3.57       2.91       ----

> <Gold.Chemscore.Fitness>
10.4987

> <Gold.Chemscore.DG>
-16.9859

> <Gold.Chemscore.ZeroCoef>
-5.4800

> <Gold.Chemscore.Hbond>
1.7834

> <Gold.Chemscore.Metal>
0.0000

> <Gold.Chemscore.Lipo>
99.4740

> <Gold.Chemscore.Internal_Hbond>
0.0000

> <Gold.Chemscore.DEClash>
3.5723

> <Gold.Chemscore.DEInternal>
2.9149

> <Gold.Chemscore.Rot>
2.3785

> <Gold.Chemscore.Internal.Correction>
   9.000000E+99

> <Gold.Chemscore.Hbonds>
donor molecule, donor type, donor heavy atom, donor atom, acceptor molecule, acceptor atom, score
      L1  H     4    31       P1 10175  0.04
      P1  H  7997  8008       L1    23  0.17
      P1  H  8022  8030       L1     6  0.94

> <Gold.Chemscore.Hbond.Weighted>
-5.9565

> <Gold.Chemscore.Metal.Weighted>
-0.0000

> <Gold.Chemscore.Lipo.Weighted>
-11.6385

> <Gold.Chemscore.Internal_Hbond.Weighted>
0.0000

> <Gold.Chemscore.DEClash.Weighted>
3.5723

> <Gold.Chemscore.DEInternal.Weighted>
2.9149

> <Gold.Chemscore.Rot.Weighted>
6.0890

> <Gold.Chemscore.Internal.Correction.Weighted>
   9.000000E+99

> <Gold.Protein.RotatedTorsions>
[ 6907 6896 6895 6894 ] final -149.39 input  -60.11 | X-H torsion
[ 7974 7965 7964 7962 ] final  116.16 input  175.53 | X-H torsion
[ 8008 7997 7996 7995 ] final  -75.94 input   59.86 | X-H torsion
[ 10167 10162 10161 10158 ] final   48.86 input  -65.29 | X-H torsion
[ 10718 10713 10712 10709 ] final -123.06 input   66.30 | X-H torsion
[ 10763 10752 10751 10750 ] final -127.53 input  -60.55 | X-H torsion
[ 11005 11000 10999 10996 ] final -153.91 input  -57.11 | X-H torsion

> <Gold.Protein.ActiveResidues>
 VAL166  LYS551  ARG553  GLY616  TRP617  ASP618  TYR619  PRO620  LYS621  CYS622 
 ASP623  PHE694  ASN695  SER759  ASP760  ASP761  ALA762  ILE779  LEU786  VAL792 
 PHE793  MET794  SER795  GLU796  ALA797  LYS798  CYS799  TRP800  GLU811  SER814 

> <Gold.Protein.RotatedAtoms>
  151.1835  133.4710  159.2594 H   0  0  0  0  0  0  0  0  0  0  0  0  # atno 6907 bound_to 6896
  151.1235  135.0092  159.8560 H   0  0  0  0  0  0  0  0  0  0  0  0  # atno 6908 bound_to 6896
  152.5457  134.1744  159.8663 H   0  0  0  0  0  0  0  0  0  0  0  0  # atno 6909 bound_to 6896
  145.1831  139.3039  143.4407 H   0  0  0  0  0  0  0  0  0  0  0  0  # atno 7974 bound_to 7965
  154.5461  140.0735  156.8591 H   0  0  0  0  0  0  0  0  0  0  0  0  # atno 8008 bound_to 7997
  155.3084  140.3388  155.4226 H   0  0  0  0  0  0  0  0  0  0  0  0  # atno 8009 bound_to 7997
  156.1919  140.1689  156.8061 H   0  0  0  0  0  0  0  0  0  0  0  0  # atno 8010 bound_to 7997
  140.2888  144.3070  150.6245 H   0  0  0  0  0  0  0  0  0  0  0  0  # atno 10167 bound_to 10162
  156.1471  130.6507  150.9858 H   0  0  0  0  0  0  0  0  0  0  0  0  # atno 10718 bound_to 10713
  154.8753  135.3959  154.3609 H   0  0  0  0  0  0  0  0  0  0  0  0  # atno 10763 bound_to 10752
  153.4382  135.7026  153.6192 H   0  0  0  0  0  0  0  0  0  0  0  0  # atno 10764 bound_to 10752
  153.4784  135.3774  155.2398 H   0  0  0  0  0  0  0  0  0  0  0  0  # atno 10765 bound_to 10752
  140.7030  134.3916  157.5207 H   0  0  0  0  0  0  0  0  0  0  0  0  # atno 11005 bound_to 11000
  146.3449  140.2017  142.8589 LP  0  0  0  0  0  0  0  0  0  0  0  0  # atno 17320 bound_to 7965
  145.0116  140.8719  143.5220 LP  0  0  0  0  0  0  0  0  0  0  0  0  # atno 17321 bound_to 7965
  140.5749  143.2177  151.7532 LP  0  0  0  0  0  0  0  0  0  0  0  0  # atno 17342 bound_to 10162
  139.4943  144.4163  152.0026 LP  0  0  0  0  0  0  0  0  0  0  0  0  # atno 17343 bound_to 10162
  157.6625  131.0878  150.7804 LP  0  0  0  0  0  0  0  0  0  0  0  0  # atno 17370 bound_to 10713
  156.7875  130.4879  149.5390 LP  0  0  0  0  0  0  0  0  0  0  0  0  # atno 17371 bound_to 10713
  139.8891  134.8838  156.2436 LP  0  0  0  0  0  0  0  0  0  0  0  0  # atno 17394 bound_to 11000
  141.0148  133.7075  156.1170 LP  0  0  0  0  0  0  0  0  0  0  0  0  # atno 17395 bound_to 11000

$$$$
