#       Name:                AV-unprocessed.smi:2138
#       Creating user name   scv26
#       Creation time:       Fri Mar 27 11:47:26 2020


#       File generated by GOLD software.
#

@<TRIPOS>MOLECULE
AV-unprocessed.smi:2138
    55    56     1
SMALL
NO_CHARGES


@<TRIPOS>ATOM
      1 ****        -8.8942   0.4556   1.2083 C.3            1 S1                 0.0000
      2 ****        -7.5432   0.8820   1.2109 O.3            1 S1                 0.0000
      3 ****        -7.1843   1.5588   0.0179 C.3            1 S1                 0.0000
      4 ****        -5.7098   1.9652   0.0976 C.3            1 S1                 0.0000
      5 ****        -4.9082   0.8053  -0.0784 O.3            1 S1                 0.0000
      6 ****        -3.5393   0.9487  -0.0268 C.ar           1 S1                 0.0000
      7 ****        -2.8663   2.1772   0.1880 C.ar           1 S1                 0.0000
      8 ****        -1.4587   2.1798   0.2160 C.ar           1 S1                 0.0000
      9 ****        -0.7622   0.9712   0.0194 C.ar           1 S1                 0.0000
     10 ****         0.6574   0.9995   0.0698 N.am           1 S1                 0.0000
     11 ****         1.5293   0.1334  -0.4785 C.2            1 S1                 0.0000
     12 ****         1.2094  -0.8418  -1.1585 O.2            1 S1                 0.0000
     13 ****         3.0170   0.4338  -0.2337 C.3            1 S1                 0.0000
     14 ****         3.7683   0.6823  -1.5550 C.3            1 S1                 0.0000
     15 ****         4.7447  -0.4769  -1.6512 C.2            1 S1                 0.0000
     16 ****         5.4794  -0.6411  -2.6243 O.2            1 S1                 0.0000
     17 ****         4.6916  -1.2549  -0.5620 N.am           1 S1                 0.0000
     18 ****         5.5398  -2.4315  -0.3211 C.3            1 S1                 0.0000
     19 ****         4.8484  -3.5018   0.5418 C.3            1 S1                 0.0000
     20 ****         6.8924  -2.0046   0.2706 C.3            1 S1                 0.0000
     21 ****         3.7533  -0.7485   0.4334 C.3            1 S1                 0.0000
     22 ****        -1.5269  -0.2041  -0.1738 C.ar           1 S1                 0.0000
     23 ****        -2.8762  -0.2148  -0.1997 N.ar           1 S1                 0.0000
     24 ****        -9.1184  -0.0563   2.1441 H              1 S1                 0.0000
     25 ****        -9.0861  -0.2397   0.3902 H              1 S1                 0.0000
     26 ****        -9.5756   1.3024   1.1159 H              1 S1                 0.0000
     27 ****        -7.3610   0.9319  -0.8575 H              1 S1                 0.0000
     28 ****        -7.8030   2.4512  -0.0872 H              1 S1                 0.0000
     29 ****        -5.4908   2.6791  -0.6979 H              1 S1                 0.0000
     30 ****        -5.5053   2.4490   1.0540 H              1 S1                 0.0000
     31 ****        -3.3950   3.1072   0.3310 H              1 S1                 0.0000
     32 ****        -0.9230   3.1034   0.3810 H              1 S1                 0.0000
     33 ****         1.0600   1.8060   0.5247 H              1 S1                 0.0000
     34 ****         3.1029   1.3154   0.4042 H              1 S1                 0.0000
     35 ****         3.1203   0.7046  -2.4329 H              1 S1                 0.0000
     36 ****         4.3208   1.6218  -1.5222 H              1 S1                 0.0000
     37 ****         5.7382  -2.8995  -1.2870 H              1 S1                 0.0000
     38 ****         5.4651  -4.3981   0.6137 H              1 S1                 0.0000
     39 ****         3.8919  -3.7987   0.1105 H              1 S1                 0.0000
     40 ****         4.6683  -3.1495   1.5579 H              1 S1                 0.0000
     41 ****         7.5507  -2.8638   0.4019 H              1 S1                 0.0000
     42 ****         6.7664  -1.5304   1.2444 H              1 S1                 0.0000
     43 ****         7.4050  -1.2962  -0.3809 H              1 S1                 0.0000
     44 ****         4.3062  -0.4120   1.3113 H              1 S1                 0.0000
     45 ****         3.0644  -1.5283   0.7612 H              1 S1                 0.0000
     46 ****        -1.0659  -1.1725  -0.2910 H              1 S1                 0.0000
     47 ****        -6.9542   0.0804   1.3143 LP             1 S1                 0.0000
     48 ****        -7.4036   1.5001   1.9845 LP             1 S1                 0.0000
     49 ****        -5.1330   0.4221  -0.9743 LP             1 S1                 0.0000
     50 ****        -5.1657   0.1551   0.6364 LP             1 S1                 0.0000
     51 ****         0.2440  -1.0330  -1.3353 LP             1 S1                 0.0000
     52 ****         1.9151  -1.4427  -1.5340 LP             1 S1                 0.0000
     53 ****         5.4468   0.0018  -3.3896 LP             1 S1                 0.0000
     54 ****         6.1093  -1.4174  -2.6500 LP             1 S1                 0.0000
     55 ****        -3.3758  -1.0689  -0.3443 LP             1 S1                 0.0000
@<TRIPOS>BOND
    1    1    2 1     
    2    1   24 1     
    3    1   25 1     
    4    1   26 1     
    5    2    3 1     
    6    3    4 1     
    7    3   27 1     
    8    3   28 1     
    9    4    5 1     
   10    4   29 1     
   11    4   30 1     
   12    5    6 1     
   13    6   23 ar    
   14    6    7 ar    
   15    7    8 ar    
   16    7   31 1     
   17    8    9 ar    
   18    8   32 1     
   19    9   10 1     
   20    9   22 ar    
   21   10   11 am    
   22   10   33 1     
   23   11   12 2     
   24   11   13 1     
   25   13   21 1     
   26   13   14 1     
   27   13   34 1     
   28   14   15 1     
   29   14   35 1     
   30   14   36 1     
   31   15   16 2     
   32   15   17 am    
   33   17   18 1     
   34   17   21 1     
   35   18   19 1     
   36   18   20 1     
   37   18   37 1     
   38   19   38 1     
   39   19   39 1     
   40   19   40 1     
   41   20   41 1     
   42   20   42 1     
   43   20   43 1     
   44   21   44 1     
   45   21   45 1     
   46   22   23 ar    
   47   22   46 1     
   48    2   47 1     
   49    2   48 1     
   50    5   49 1     
   51    5   50 1     
   52   12   51 1     
   53   12   52 1     
   54   16   53 1     
   55   16   54 1     
   56   23   55 1     
@<TRIPOS>SUBSTRUCTURE
      1 S1             1
@<TRIPOS>SET
LONE_PAIRS      STATIC     ATOMS    <user>   **** ""
9 47 48 49 50 51 52 53 54 55
DONOR_HYDROGENS      STATIC     ATOMS    <user>   **** ""
1 33
ATOM$BLUE        STATIC     ATOMS    COLORGROUP SYSTEM
9 47 48 49 50 51 52 53 54 55
ATOM$RED        STATIC     ATOMS    COLORGROUP SYSTEM
1 33
