AV-unprocessed.smi:72|AV-procd|sdf|716|dock6
  -GOLD-   2262017 43D 1   1.00000     0.00000
 Structure written by MMmdl.
 28 29  0  0  0  0  0  0  0  0  2 V2000
  153.8380  138.0243  156.0035 N   0  0  0  0  0  0  0  0  0  0  0  0
  152.7032  138.4738  155.6892 C   0  0  0  0  0  0  0  0  0  0  0  0
  151.9003  137.7909  154.6985 N   0  0  0  0  0  0  0  0  0  0  0  0
  150.7390  138.2927  154.4105 C   0  0  0  0  0  0  0  0  0  0  0  0
  150.2406  139.5014  155.0552 N   0  0  0  0  0  0  0  0  0  0  0  0
  148.8821  140.0976  154.7221 C   0  0  1  0  0  0  0  0  0  0  0  0
  148.4932  139.7148  153.4327 O   0  0  0  0  0  0  0  0  0  0  0  0
  147.4166  138.7868  153.5019 C   0  0  2  0  0  0  0  0  0  0  0  0
  146.6355  138.7470  152.1768 C   0  0  0  0  0  0  0  0  0  0  0  0
  147.3971  138.1043  151.1766 O   0  0  0  0  0  0  0  0  0  0  0  0
  146.6461  139.2229  154.7541 C   0  0  2  0  0  0  0  0  0  0  0  0
  145.7820  140.3089  154.4741 O   0  0  0  0  0  0  0  0  0  0  0  0
  147.7606  139.6570  155.6977 C   0  0  1  0  0  0  0  0  0  0  0  0
  148.1210  138.5735  156.5375 O   0  0  0  0  0  0  0  0  0  0  0  0
  151.0518  140.1499  156.0247 C   0  0  0  0  0  0  0  0  0  0  0  0
  150.6113  141.1661  156.5628 O   0  0  0  0  0  0  0  0  0  0  0  0
  152.2722  139.6202  156.3190 N   0  5  0  0  0  0  0  0  0  0  0  0
  149.0341  141.1780  154.7039 H   0  0  0  0  0  0  0  0  0  0  0  0
  147.8449  137.8004  153.6879 H   0  0  0  0  0  0  0  0  0  0  0  0
  146.0412  138.4118  155.1619 H   0  0  0  0  0  0  0  0  0  0  0  0
  147.4688  140.4973  156.3293 H   0  0  0  0  0  0  0  0  0  0  0  0
  154.0709  137.1843  155.4940 H   0  0  0  0  0  0  0  0  0  0  0  0
  150.0747  137.8407  153.6747 H   0  0  0  0  0  0  0  0  0  0  0  0
  145.6757  138.2428  152.2900 H   0  0  0  0  0  0  0  0  0  0  0  0
  146.4211  139.7628  151.8442 H   0  0  0  0  0  0  0  0  0  0  0  0
  147.9889  137.4969  151.5940 H   0  0  0  0  0  0  0  0  0  0  0  0
  145.1523  140.0289  153.8273 H   0  0  0  0  0  0  0  0  0  0  0  0
  148.1534  138.8833  157.4294 H   0  0  0  0  0  0  0  0  0  0  0  0
  1  2  2  0  0  0  0
  1 22  1  0  0  0  0
  2 17  1  0  0  0  0
  2  3  1  0  0  0  0
  3  4  2  0  0  0  0
  4  5  1  0  0  0  0
  4 23  1  0  0  0  0
  5  6  1  0  0  0  0
  5 15  1  0  0  0  0
  6 18  1  0  0  0  0
  6 13  1  0  0  0  0
  6  7  1  0  0  0  0
  7  8  1  0  0  0  0
  8 19  1  0  0  0  0
  8  9  1  0  0  0  0
  8 11  1  0  0  0  0
  9 10  1  0  0  0  0
  9 24  1  0  0  0  0
  9 25  1  0  0  0  0
 10 26  1  0  0  0  0
 11 20  1  0  0  0  0
 11 12  1  0  0  0  0
 11 13  1  0  0  0  0
 12 27  1  0  0  0  0
 13 21  1  0  0  0  0
 13 14  1  0  0  0  0
 14 28  1  0  0  0  0
 15 16  2  0  0  0  0
 15 17  1  0  0  0  0
M  CHG  1  17  -1
M  END
> <s_m_source_file>
AV-unprocessed.smi

> <i_m_source_file_index>
72

> <i_lp_mmshare_version>
43012

> <i_f3d_flags>
0

> <s_epik_input>
W05IMl1jMW5bY0hdbihjKD1PKW4xKVtDQEBIXTJPW0NASF0oW0NIMl1bT0hdKVtDQEBIXShbT0hdKVtDQEhdMltPSF0=

> <s_epik_cmdline>
J2VwaWtfcHl0aG9uJywgJy1waCcsICc3LjAnLCAnLXRuJywgJzgnLCAnLW1hJywgJzIwMCcsICctbWV0YWxfYmluZGluZycsICctaW1hZScsICc8aW5maWxlLm1hZT4nLCAnLW9tYWUnLCAnPG91dGZpbGUubWFlPic=

> <r_lp_tautomer_probability>
7.17554e-07

> <r_epik_Ionization_Penalty>
12.8705

> <r_epik_Ionization_Penalty_Charging>
5.64144

> <r_epik_Ionization_Penalty_Neutral>
7.22905

> <r_epik_State_Penalty>
3.30104

> <r_epik_Charging_Adjusted_Penalty>
8.94249

> <i_epik_Tot_Q>
-1

> <i_epik_Tot_abs_Q>
1

> <r_epik_Metal_State_Penalty>
0.529074

> <b_epik_Metal_Only>
1

> <s_epik_Chemistry_Notes>
This compound contains an acetal/aminal-like group ( X-CH(R)-Y where X, Y are N, S, or O) that may be acid/base labile, releasing an aldehyde.

> <s_lp_Force_Field>
OPLS_2005

> <r_lp_Energy>
37.2706

> <b_lp_Chiralities_Consistent>
1

> <s_lp_Variant>
AV-unprocessed.smi:72-54

> <Gold.Version>
5.8.1

> <Gold.Id.Protein>
6NUR|6NUR_protein|mol2

> <Gold.PLP.Fitness>
41.9369

> <Gold.PLP.PLP>
-24.4071

> <Gold.PLP.part.hbond>
-6.6739

> <Gold.PLP.part.metal>
0.0000

> <Gold.PLP.part.buried>
-5.5325

> <Gold.PLP.part.nonpolar>
-19.5477

> <Gold.PLP.part.repulsive>
5.5720

> <Gold.PLP.ligand.clash>
0.0000

> <Gold.PLP.ligand.torsion>
0.7528

> <Gold.PLP.Chemscore.Hbond>
5.3335

> <Gold.PLP.Chemscore.CHOScore>
1.0000

> <Gold.PLP.Chemscore.Metal>
0.0000

> <Gold.Chemscore.Hbonds>
donor molecule, donor type, donor heavy atom, donor atom, acceptor molecule, acceptor atom, score
      L1  H    10    26       P1  7948  1.00
      L1  H    12    27       P1 10175  0.95
      P1  H  7954  7966       L1    10  0.33
      P1  H  7997  8009       L1    17  0.38
      P1  H 10752 10763       L1     3  0.07
      L1  C     4    23       P1  7948  0.75

> <Gold.PLP.Chemscore.Internal.Correction>
0.0348

> <Gold.Rescore>
     Score         DG    S(hbond)    S(metal)    S(lipo)     H(rot)  DE(clash)    DE(int)     intcor
      3.46      -6.21       2.60        0.00      20.54       4.04       1.97       0.78       ----

> <Gold.Chemscore.Fitness>
3.4606

> <Gold.Chemscore.DG>
-6.2115

> <Gold.Chemscore.ZeroCoef>
-5.4800

> <Gold.Chemscore.Hbond>
2.5964

> <Gold.Chemscore.Metal>
0.0000

> <Gold.Chemscore.Lipo>
20.5358

> <Gold.Chemscore.Internal_Hbond>
0.0000

> <Gold.Chemscore.DEClash>
1.9740

> <Gold.Chemscore.DEInternal>
0.7769

> <Gold.Chemscore.Rot>
4.0403

> <Gold.Chemscore.Internal.Correction>
   9.000000E+99

> <Gold.Chemscore.Hbonds>
donor molecule, donor type, donor heavy atom, donor atom, acceptor molecule, acceptor atom, score
      L1  H    10    26       P1  7948  0.97
      L1  H    12    27       P1 10175  0.86
      P1  H  7954  7966       L1    10  0.01
      P1  H 10752 10763       L1     3  0.05

> <Gold.Chemscore.Hbond.Weighted>
-8.6719

> <Gold.Chemscore.Metal.Weighted>
-0.0000

> <Gold.Chemscore.Lipo.Weighted>
-2.4027

> <Gold.Chemscore.Internal_Hbond.Weighted>
0.0000

> <Gold.Chemscore.DEClash.Weighted>
1.9740

> <Gold.Chemscore.DEInternal.Weighted>
0.7769

> <Gold.Chemscore.Rot.Weighted>
10.3431

> <Gold.Chemscore.Internal.Correction.Weighted>
   9.000000E+99

> <Gold.Protein.RotatedTorsions>
[ 6907 6896 6895 6894 ] final  -24.49 input  -60.11 | X-H torsion
[ 7974 7965 7964 7962 ] final  138.22 input  175.53 | X-H torsion
[ 8008 7997 7996 7995 ] final -170.01 input   59.86 | X-H torsion
[ 10167 10162 10161 10158 ] final -175.32 input  -65.29 | X-H torsion
[ 10718 10713 10712 10709 ] final   16.60 input   66.30 | X-H torsion
[ 10763 10752 10751 10750 ] final   48.50 input  -60.55 | X-H torsion
[ 11005 11000 10999 10996 ] final   58.27 input  -57.11 | X-H torsion

> <Gold.Protein.ActiveResidues>
 VAL166  LYS551  ARG553  GLY616  TRP617  ASP618  TYR619  PRO620  LYS621  CYS622 
 ASP623  PHE694  ASN695  SER759  ASP760  ASP761  ALA762  ILE779  LEU786  VAL792 
 PHE793  MET794  SER795  GLU796  ALA797  LYS798  CYS799  TRP800  GLU811  SER814 

> <Gold.Protein.RotatedAtoms>
  151.1888  135.0393  159.8823 H   0  0  0  0  0  0  0  0  0  0  0  0  # atno 6907 bound_to 6896
  152.5440  134.0979  159.8315 H   0  0  0  0  0  0  0  0  0  0  0  0  # atno 6908 bound_to 6896
  151.1105  133.5129  159.2638 H   0  0  0  0  0  0  0  0  0  0  0  0  # atno 6909 bound_to 6896
  144.9393  139.4950  143.5579 H   0  0  0  0  0  0  0  0  0  0  0  0  # atno 7974 bound_to 7965
  155.9127  140.1060  157.1267 H   0  0  0  0  0  0  0  0  0  0  0  0  # atno 8008 bound_to 7997
  154.4042  140.1271  156.4642 H   0  0  0  0  0  0  0  0  0  0  0  0  # atno 8009 bound_to 7997
  155.7291  140.3468  155.5053 H   0  0  0  0  0  0  0  0  0  0  0  0  # atno 8010 bound_to 7997
  139.5587  144.1924  152.1202 H   0  0  0  0  0  0  0  0  0  0  0  0  # atno 10167 bound_to 10162
  157.0701  130.6345  149.5804 H   0  0  0  0  0  0  0  0  0  0  0  0  # atno 10718 bound_to 10713
  152.9791  135.5942  154.3937 H   0  0  0  0  0  0  0  0  0  0  0  0  # atno 10763 bound_to 10752
  154.3589  135.2767  155.2333 H   0  0  0  0  0  0  0  0  0  0  0  0  # atno 10764 bound_to 10752
  154.4338  135.6030  153.6141 H   0  0  0  0  0  0  0  0  0  0  0  0  # atno 10765 bound_to 10752
  140.0390  134.5901  155.9406 H   0  0  0  0  0  0  0  0  0  0  0  0  # atno 11005 bound_to 11000
  146.3279  139.8401  142.8892 LP  0  0  0  0  0  0  0  0  0  0  0  0  # atno 17320 bound_to 7965
  145.3016  141.0196  143.3605 LP  0  0  0  0  0  0  0  0  0  0  0  0  # atno 17321 bound_to 7965
  140.1433  144.5182  150.6731 LP  0  0  0  0  0  0  0  0  0  0  0  0  # atno 17342 bound_to 10162
  140.6864  143.2352  151.5250 LP  0  0  0  0  0  0  0  0  0  0  0  0  # atno 17343 bound_to 10162
  155.9953  130.5019  150.7452 LP  0  0  0  0  0  0  0  0  0  0  0  0  # atno 17370 bound_to 10713
  157.4884  131.0909  151.0455 LP  0  0  0  0  0  0  0  0  0  0  0  0  # atno 17371 bound_to 10713
  141.1873  133.6559  156.5276 LP  0  0  0  0  0  0  0  0  0  0  0  0  # atno 17394 bound_to 11000
  140.4100  134.7281  157.4830 LP  0  0  0  0  0  0  0  0  0  0  0  0  # atno 17395 bound_to 11000

$$$$
