AV-unprocessed.smi:2892|AV-procd|sdf|11120|dock9
  -GOLD-   2272015593D 1   1.00000     0.00000
 Structure written by MMmdl.
 42 42  0  0  0  0  0  0  0  0  2 V2000
  152.8060  142.6289  160.9864 C   0  0  0  0  0  0  0  0  0  0  0  0
  153.4143  142.1106  159.6747 C   0  0  0  0  0  0  0  0  0  0  0  0
  152.4537  141.2392  158.8222 C   0  0  2  0  0  0  0  0  0  0  0  0
  151.1037  141.9673  158.6236 C   0  0  0  0  0  0  0  0  0  0  0  0
  152.2394  139.8176  159.4301 C   0  0  1  0  0  0  0  0  0  0  0  0
  151.0337  139.2270  158.8515 N   0  0  0  0  0  0  0  0  0  0  0  0
  150.5681  137.9876  159.0785 C   0  0  0  0  0  0  0  0  0  0  0  0
  151.1399  137.1690  159.7982 O   0  0  0  0  0  0  0  0  0  0  0  0
  149.2534  137.6072  158.3876 C   0  0  0  0  0  0  0  0  0  0  0  0
  148.4464  136.6529  159.2319 C   0  0  0  0  0  0  0  0  0  0  0  0
  148.2554  135.2556  159.0342 C   0  0  0  0  0  0  0  0  0  0  0  0
  147.4180  134.8897  160.0484 C   0  0  0  0  0  0  0  0  0  0  0  0
  147.1532  136.0196  160.7927 N   0  0  0  0  0  0  0  0  0  0  0  0
  146.2902  136.1486  161.9573 C   0  0  0  0  0  0  0  0  0  0  0  0
  145.5747  134.8222  162.2599 C   0  0  0  0  0  0  0  0  0  0  0  0
  145.2984  137.3124  161.7959 C   0  0  0  0  0  0  0  0  0  0  0  0
  147.7920  137.1012  160.2942 N   0  0  0  0  0  0  0  0  0  0  0  0
  153.4182  138.8867  159.0912 C   0  0  0  0  0  0  0  0  0  0  0  0
  153.7035  138.7232  157.8832 O   0  0  0  0  0  0  0  0  0  0  0  0
  154.0160  138.3553  160.0523 O   0  5  0  0  0  0  0  0  0  0  0  0
  153.4914  143.3185  161.4792 H   0  0  0  0  0  0  0  0  0  0  0  0
  152.6016  141.8222  161.6895 H   0  0  0  0  0  0  0  0  0  0  0  0
  151.8743  143.1647  160.8033 H   0  0  0  0  0  0  0  0  0  0  0  0
  153.7323  142.9875  159.1117 H   0  0  0  0  0  0  0  0  0  0  0  0
  154.3258  141.5519  159.8901 H   0  0  0  0  0  0  0  0  0  0  0  0
  152.9026  141.1218  157.8344 H   0  0  0  0  0  0  0  0  0  0  0  0
  150.5932  142.1179  159.5753 H   0  0  0  0  0  0  0  0  0  0  0  0
  150.4288  141.4114  157.9728 H   0  0  0  0  0  0  0  0  0  0  0  0
  151.2328  142.9428  158.1569 H   0  0  0  0  0  0  0  0  0  0  0  0
  152.1399  139.9011  160.5143 H   0  0  0  0  0  0  0  0  0  0  0  0
  150.5048  139.8194  158.2285 H   0  0  0  0  0  0  0  0  0  0  0  0
  148.6867  138.5188  158.1955 H   0  0  0  0  0  0  0  0  0  0  0  0
  149.4693  137.1636  157.4147 H   0  0  0  0  0  0  0  0  0  0  0  0
  148.6589  134.6238  158.2569 H   0  0  0  0  0  0  0  0  0  0  0  0
  146.9888  133.9300  160.2954 H   0  0  0  0  0  0  0  0  0  0  0  0
  146.9331  136.3798  162.8077 H   0  0  0  0  0  0  0  0  0  0  0  0
  144.9786  134.8982  163.1695 H   0  0  0  0  0  0  0  0  0  0  0  0
  146.2916  134.0131  162.4030 H   0  0  0  0  0  0  0  0  0  0  0  0
  144.9055  134.5333  161.4487 H   0  0  0  0  0  0  0  0  0  0  0  0
  144.7122  137.4529  162.7042 H   0  0  0  0  0  0  0  0  0  0  0  0
  144.5998  137.1355  160.9772 H   0  0  0  0  0  0  0  0  0  0  0  0
  145.8212  138.2476  161.5931 H   0  0  0  0  0  0  0  0  0  0  0  0
  1  2  1  0  0  0  0
  1 21  1  0  0  0  0
  1 22  1  0  0  0  0
  1 23  1  0  0  0  0
  2  3  1  0  0  0  0
  2 24  1  0  0  0  0
  2 25  1  0  0  0  0
  3  4  1  0  0  0  0
  3  5  1  0  0  0  0
  3 26  1  0  0  0  0
  4 27  1  0  0  0  0
  4 28  1  0  0  0  0
  4 29  1  0  0  0  0
  5  6  1  0  0  0  0
  5 18  1  0  0  0  0
  5 30  1  0  0  0  0
  6  7  1  0  0  0  0
  6 31  1  0  0  0  0
  7  8  2  0  0  0  0
  7  9  1  0  0  0  0
  9 10  1  0  0  0  0
  9 32  1  0  0  0  0
  9 33  1  0  0  0  0
 10 17  2  0  0  0  0
 10 11  1  0  0  0  0
 11 12  2  0  0  0  0
 11 34  1  0  0  0  0
 12 13  1  0  0  0  0
 12 35  1  0  0  0  0
 13 14  1  0  0  0  0
 13 17  1  0  0  0  0
 14 15  1  0  0  0  0
 14 16  1  0  0  0  0
 14 36  1  0  0  0  0
 15 37  1  0  0  0  0
 15 38  1  0  0  0  0
 15 39  1  0  0  0  0
 16 40  1  0  0  0  0
 16 41  1  0  0  0  0
 16 42  1  0  0  0  0
 18 19  2  0  0  0  0
 18 20  1  0  0  0  0
M  CHG  1  20  -1
M  END
> <s_m_source_file>
AV-unprocessed.smi

> <i_m_source_file_index>
2892

> <i_lp_mmshare_version>
43012

> <i_f3d_flags>
0

> <s_epik_input>
W0NIM11bQ0gyXVtDQEhdKFtDSDNdKVtDQEBIXShDKD1PKVtPSF0pW05IXUMoPU8pW0NIMl1jMVtjSF1bY0hdbihuMSlbQ0hdKFtDSDNdKVtDSDNd

> <s_epik_cmdline>
J2VwaWtfcHl0aG9uJywgJy1waCcsICc3LjAnLCAnLXRuJywgJzgnLCAnLW1hJywgJzIwMCcsICctbWV0YWxfYmluZGluZycsICctaW1hZScsICc8aW5maWxlLm1hZT4nLCAnLW9tYWUnLCAnPG91dGZpbGUubWFlPic=

> <r_lp_tautomer_probability>
1

> <r_epik_Ionization_Penalty>
0.000286846

> <r_epik_Ionization_Penalty_Charging>
0.000224481

> <r_epik_Ionization_Penalty_Neutral>
6.23655e-05

> <r_epik_State_Penalty>
-0

> <r_epik_Charging_Adjusted_Penalty>
0.000224481

> <i_epik_Tot_Q>
-1

> <i_epik_Tot_abs_Q>
1

> <r_epik_Metal_State_Penalty>
-0

> <b_epik_Metal_Only>
0

> <s_lp_Force_Field>
OPLS_2005

> <r_lp_Energy>
13.0415

> <b_lp_Chiralities_Consistent>
1

> <s_lp_Variant>
AV-unprocessed.smi:2892-3

> <Gold.Version>
5.8.1

> <Gold.Id.Protein>
6NUR|6NUR_protein|mol2

> <Gold.PLP.Fitness>
47.5519

> <Gold.PLP.PLP>
-35.9418

> <Gold.PLP.part.hbond>
-3.9305

> <Gold.PLP.part.metal>
0.0000

> <Gold.PLP.part.buried>
-5.5268

> <Gold.PLP.part.nonpolar>
-28.0804

> <Gold.PLP.part.repulsive>
0.1751

> <Gold.PLP.ligand.clash>
0.0000

> <Gold.PLP.ligand.torsion>
1.1787

> <Gold.PLP.Chemscore.Hbond>
4.5996

> <Gold.PLP.Chemscore.CHOScore>
0.0000

> <Gold.PLP.Chemscore.Metal>
0.0000

> <Gold.Chemscore.Hbonds>
donor molecule, donor type, donor heavy atom, donor atom, acceptor molecule, acceptor atom, score
      P1  H  6896  6908       L1     8  1.00
      P1  H  6931  6943       L1    17  0.19
      P1  H  6934  6947       L1    17  0.71
      P1  H  7997  8010       L1    19  2.00

> <Gold.PLP.Chemscore.Internal.Correction>
0.1687

> <Gold.Rescore>
     Score         DG    S(hbond)    S(metal)    S(lipo)     H(rot)  DE(clash)    DE(int)     intcor
     17.95     -20.65       3.42        0.00      84.17       2.39       0.04       2.66       ----

> <Gold.Chemscore.Fitness>
17.9516

> <Gold.Chemscore.DG>
-20.6468

> <Gold.Chemscore.ZeroCoef>
-5.4800

> <Gold.Chemscore.Hbond>
3.4215

> <Gold.Chemscore.Metal>
0.0000

> <Gold.Chemscore.Lipo>
84.1731

> <Gold.Chemscore.Internal_Hbond>
0.0000

> <Gold.Chemscore.DEClash>
0.0363

> <Gold.Chemscore.DEInternal>
2.6590

> <Gold.Chemscore.Rot>
2.3865

> <Gold.Chemscore.Internal.Correction>
   9.000000E+99

> <Gold.Chemscore.Hbonds>
donor molecule, donor type, donor heavy atom, donor atom, acceptor molecule, acceptor atom, score
      P1  H  6896  6908       L1     8  0.93
      P1  H  6931  6943       L1    17  0.15
      P1  H  6934  6947       L1    17  0.66
      P1  H  7997  8010       L1    19  0.97

> <Gold.Chemscore.Hbond.Weighted>
-11.4279

> <Gold.Chemscore.Metal.Weighted>
-0.0000

> <Gold.Chemscore.Lipo.Weighted>
-9.8483

> <Gold.Chemscore.Internal_Hbond.Weighted>
0.0000

> <Gold.Chemscore.DEClash.Weighted>
0.0363

> <Gold.Chemscore.DEInternal.Weighted>
2.6590

> <Gold.Chemscore.Rot.Weighted>
6.1093

> <Gold.Chemscore.Internal.Correction.Weighted>
   9.000000E+99

> <Gold.Protein.RotatedTorsions>
[ 6907 6896 6895 6894 ] final -135.30 input  -60.11 | X-H torsion
[ 7974 7965 7964 7962 ] final   81.30 input  175.53 | X-H torsion
[ 8008 7997 7996 7995 ] final   38.71 input   59.86 | X-H torsion
[ 10167 10162 10161 10158 ] final  162.97 input  -65.29 | X-H torsion
[ 10718 10713 10712 10709 ] final   25.21 input   66.30 | X-H torsion
[ 10763 10752 10751 10750 ] final    4.66 input  -60.55 | X-H torsion
[ 11005 11000 10999 10996 ] final -121.72 input  -57.11 | X-H torsion

> <Gold.Protein.ActiveResidues>
 VAL166  LYS551  ARG553  GLY616  TRP617  ASP618  TYR619  PRO620  LYS621  CYS622 
 ASP623  PHE694  ASN695  SER759  ASP760  ASP761  ALA762  ILE779  LEU786  VAL792 
 PHE793  MET794  SER795  GLU796  ALA797  LYS798  CYS799  TRP800  GLU811  SER814 

> <Gold.Protein.RotatedAtoms>
  150.9962  133.6101  159.2701 H   0  0  0  0  0  0  0  0  0  0  0  0  # atno 6907 bound_to 6896
  151.3304  135.0839  159.9346 H   0  0  0  0  0  0  0  0  0  0  0  0  # atno 6908 bound_to 6896
  152.5260  133.9592  159.7763 H   0  0  0  0  0  0  0  0  0  0  0  0  # atno 6909 bound_to 6896
  145.6400  139.2423  143.2036 H   0  0  0  0  0  0  0  0  0  0  0  0  # atno 7974 bound_to 7965
  155.2247  140.3333  155.4311 H   0  0  0  0  0  0  0  0  0  0  0  0  # atno 8008 bound_to 7997
  156.2319  140.1854  156.7267 H   0  0  0  0  0  0  0  0  0  0  0  0  # atno 8009 bound_to 7997
  154.5992  140.0626  156.9331 H   0  0  0  0  0  0  0  0  0  0  0  0  # atno 8010 bound_to 7997
  139.4867  144.4384  151.8983 H   0  0  0  0  0  0  0  0  0  0  0  0  # atno 10167 bound_to 10162
  157.1903  130.6843  149.6147 H   0  0  0  0  0  0  0  0  0  0  0  0  # atno 10718 bound_to 10713
  153.2686  135.6930  153.7504 H   0  0  0  0  0  0  0  0  0  0  0  0  # atno 10763 bound_to 10752
  153.6536  135.3372  155.3108 H   0  0  0  0  0  0  0  0  0  0  0  0  # atno 10764 bound_to 10752
  154.8456  135.4460  154.1701 H   0  0  0  0  0  0  0  0  0  0  0  0  # atno 10765 bound_to 10752
  141.0049  134.0349  157.3490 H   0  0  0  0  0  0  0  0  0  0  0  0  # atno 11005 bound_to 11000
  146.1288  140.7212  142.9422 LP  0  0  0  0  0  0  0  0  0  0  0  0  # atno 17320 bound_to 7965
  144.7161  140.4214  143.7043 LP  0  0  0  0  0  0  0  0  0  0  0  0  # atno 17321 bound_to 7965
  140.3834  144.2707  150.5906 LP  0  0  0  0  0  0  0  0  0  0  0  0  # atno 17342 bound_to 10162
  140.5212  143.2265  151.8386 LP  0  0  0  0  0  0  0  0  0  0  0  0  # atno 17343 bound_to 10162
  155.9712  130.4617  150.6118 LP  0  0  0  0  0  0  0  0  0  0  0  0  # atno 17370 bound_to 10713
  157.3867  131.0789  151.1430 LP  0  0  0  0  0  0  0  0  0  0  0  0  # atno 17371 bound_to 10713
  139.9058  135.0179  156.7478 LP  0  0  0  0  0  0  0  0  0  0  0  0  # atno 17394 bound_to 11000
  140.6829  133.9458  155.7921 LP  0  0  0  0  0  0  0  0  0  0  0  0  # atno 17395 bound_to 11000

$$$$
