AV-unprocessed.smi:2278|AV-procd|sdf|9179|dock2
  -GOLD-   2272012393D 1   1.00000     0.00000
 Structure written by MMmdl.
 46 47  0  0  0  0  0  0  0  0  2 V2000
  152.0981  143.3617  161.7178 C   0  0  0  0  0  0  0  0  0  0  0  0
  151.8645  142.9826  160.2662 C   0  0  0  0  0  0  0  0  0  0  0  0
  151.1258  143.8999  159.5135 N   0  0  0  0  0  0  0  0  0  0  0  0
  150.8831  143.6630  158.2662 C   0  0  0  0  0  0  0  0  0  0  0  0
  151.3470  142.4990  157.6305 N   0  0  0  0  0  0  0  0  0  0  0  0
  151.0126  142.3651  156.2012 C   0  0  0  0  0  0  0  0  0  0  0  0
  150.3031  141.0308  155.8758 C   0  0  2  0  0  0  0  0  0  0  0  0
  151.3010  140.0791  155.5657 O   0  0  0  0  0  0  0  0  0  0  0  0
  149.3294  141.1227  154.6803 C   0  0  0  0  0  0  0  0  0  0  0  0
  148.1508  141.9797  154.9661 N   0  3  2  0  0  0  0  0  0  0  0  0
  147.4609  141.5853  156.2212 C   0  0  0  0  0  0  0  0  0  0  0  0
  146.3324  142.5706  156.5687 C   0  0  0  0  0  0  0  0  0  0  0  0
  145.3201  142.6904  155.4173 C   0  0  1  0  0  0  0  0  0  0  0  0
  144.2068  143.6965  155.7414 C   0  0  0  0  0  0  0  0  0  0  0  0
  146.0654  143.0624  154.1246 C   0  0  0  0  0  0  0  0  0  0  0  0
  147.1991  142.0670  153.8265 C   0  0  0  0  0  0  0  0  0  0  0  0
  152.0649  141.5471  158.2952 C   0  0  0  0  0  0  0  0  0  0  0  0
  152.4672  140.5280  157.7309 O   0  0  0  0  0  0  0  0  0  0  0  0
  152.3363  141.8319  159.7135 C   0  0  0  0  0  0  0  0  0  0  0  0
  153.1518  140.7996  160.4823 C   0  0  0  0  0  0  0  0  0  0  0  0
  151.6853  142.6027  162.3829 H   0  0  0  0  0  0  0  0  0  0  0  0
  151.6226  144.3126  161.9619 H   0  0  0  0  0  0  0  0  0  0  0  0
  153.1651  143.4598  161.9196 H   0  0  0  0  0  0  0  0  0  0  0  0
  150.3133  144.3465  157.6341 H   0  0  0  0  0  0  0  0  0  0  0  0
  150.4032  143.2022  155.8557 H   0  0  0  0  0  0  0  0  0  0  0  0
  151.9297  142.4416  155.6129 H   0  0  0  0  0  0  0  0  0  0  0  0
  149.7853  140.6813  156.7682 H   0  0  0  0  0  0  0  0  0  0  0  0
  150.9839  139.2196  155.7993 H   0  0  0  0  0  0  0  0  0  0  0  0
  149.8288  141.5126  153.7937 H   0  0  0  0  0  0  0  0  0  0  0  0
  149.0035  140.1129  154.4250 H   0  0  0  0  0  0  0  0  0  0  0  0
  147.0618  140.5748  156.1172 H   0  0  0  0  0  0  0  0  0  0  0  0
  148.1768  141.5609  157.0439 H   0  0  0  0  0  0  0  0  0  0  0  0
  145.8271  142.2426  157.4780 H   0  0  0  0  0  0  0  0  0  0  0  0
  146.7601  143.5499  156.7897 H   0  0  0  0  0  0  0  0  0  0  0  0
  144.8534  141.7148  155.2719 H   0  0  0  0  0  0  0  0  0  0  0  0
  144.6096  144.6969  155.9025 H   0  0  0  0  0  0  0  0  0  0  0  0
  143.6662  143.4065  156.6428 H   0  0  0  0  0  0  0  0  0  0  0  0
  143.4824  143.7564  154.9288 H   0  0  0  0  0  0  0  0  0  0  0  0
  145.3686  143.0844  153.2857 H   0  0  0  0  0  0  0  0  0  0  0  0
  146.4779  144.0688  154.2095 H   0  0  0  0  0  0  0  0  0  0  0  0
  147.7158  142.3830  152.9212 H   0  0  0  0  0  0  0  0  0  0  0  0
  146.7837  141.0789  153.6215 H   0  0  0  0  0  0  0  0  0  0  0  0
  154.1294  140.6709  160.0167 H   0  0  0  0  0  0  0  0  0  0  0  0
  152.6427  139.8354  160.4734 H   0  0  0  0  0  0  0  0  0  0  0  0
  153.3191  141.0718  161.5230 H   0  0  0  0  0  0  0  0  0  0  0  0
  148.5128  142.9096  155.1251 H   0  0  0  0  0  0  0  0  0  0  0  0
  1  2  1  0  0  0  0
  1 21  1  0  0  0  0
  1 22  1  0  0  0  0
  1 23  1  0  0  0  0
  2 19  2  0  0  0  0
  2  3  1  0  0  0  0
  3  4  2  0  0  0  0
  4  5  1  0  0  0  0
  4 24  1  0  0  0  0
  5  6  1  0  0  0  0
  5 17  1  0  0  0  0
  6  7  1  0  0  0  0
  6 25  1  0  0  0  0
  6 26  1  0  0  0  0
  7  8  1  0  0  0  0
  7  9  1  0  0  0  0
  7 27  1  0  0  0  0
  8 28  1  0  0  0  0
  9 10  1  0  0  0  0
  9 29  1  0  0  0  0
  9 30  1  0  0  0  0
 10 16  1  0  0  0  0
 10 11  1  0  0  0  0
 10 46  1  0  0  0  0
 11 12  1  0  0  0  0
 11 31  1  0  0  0  0
 11 32  1  0  0  0  0
 12 13  1  0  0  0  0
 12 33  1  0  0  0  0
 12 34  1  0  0  0  0
 13 14  1  0  0  0  0
 13 15  1  0  0  0  0
 13 35  1  0  0  0  0
 14 36  1  0  0  0  0
 14 37  1  0  0  0  0
 14 38  1  0  0  0  0
 15 16  1  0  0  0  0
 15 39  1  0  0  0  0
 15 40  1  0  0  0  0
 16 41  1  0  0  0  0
 16 42  1  0  0  0  0
 17 18  2  0  0  0  0
 17 19  1  0  0  0  0
 19 20  1  0  0  0  0
 20 43  1  0  0  0  0
 20 44  1  0  0  0  0
 20 45  1  0  0  0  0
M  CHG  1  10   1
M  END
> <s_m_source_file>
AV-unprocessed.smi

> <i_m_source_file_index>
2278

> <i_lp_mmshare_version>
43012

> <i_f3d_flags>
0

> <s_epik_input>
W0NIM11jMW5bY0hdbihjKD1PKWMxW0NIM10pW0NIMl1bQ0BIXShbT0hdKVtDSDJdTjJbQ0gyXVtDSDJdW0NIXShbQ0gzXSlbQ0gyXVtDSDJdMg==

> <s_epik_cmdline>
J2VwaWtfcHl0aG9uJywgJy1waCcsICc3LjAnLCAnLXRuJywgJzgnLCAnLW1hJywgJzIwMCcsICctbWV0YWxfYmluZGluZycsICctaW1hZScsICc8aW5maWxlLm1hZT4nLCAnLW9tYWUnLCAnPG91dGZpbGUubWFlPic=

> <r_lp_tautomer_probability>
1

> <r_epik_Ionization_Penalty>
0.00139489

> <r_epik_Ionization_Penalty_Charging>
0.00136819

> <r_epik_Ionization_Penalty_Neutral>
2.66975e-05

> <r_epik_State_Penalty>
0.000910892

> <r_epik_Charging_Adjusted_Penalty>
0.00227908

> <i_epik_Tot_Q>
1

> <i_epik_Tot_abs_Q>
1

> <r_epik_Metal_State_Penalty>
-0

> <b_epik_Metal_Only>
0

> <s_lp_Force_Field>
OPLS_2005

> <r_lp_Energy>
28.1947

> <b_lp_Chiralities_Consistent>
1

> <s_lp_Variant>
AV-unprocessed.smi:2278-1

> <Gold.Version>
5.8.1

> <Gold.Id.Protein>
6NUR|6NUR_protein|mol2

> <Gold.PLP.Fitness>
54.9293

> <Gold.PLP.PLP>
-41.1051

> <Gold.PLP.part.hbond>
-3.0000

> <Gold.PLP.part.metal>
0.0000

> <Gold.PLP.part.buried>
-5.3080

> <Gold.PLP.part.nonpolar>
-30.4480

> <Gold.PLP.part.repulsive>
0.1741

> <Gold.PLP.ligand.clash>
0.0034

> <Gold.PLP.ligand.torsion>
0.4450

> <Gold.PLP.Chemscore.Hbond>
3.8736

> <Gold.PLP.Chemscore.CHOScore>
1.0000

> <Gold.PLP.Chemscore.Metal>
0.0000

> <Gold.Chemscore.Hbonds>
donor molecule, donor type, donor heavy atom, donor atom, acceptor molecule, acceptor atom, score
      L1  H    10    46       P1  8028  2.00
      P1  H  7989  7998       L1     8  0.34
      P1  H  7997  8008       L1    18  0.44
      L1  C     4    24       P1  8028  1.00
      L1  C     4    24       P1  8029  0.01

> <Gold.PLP.Chemscore.Internal.Correction>
0.0969

> <Gold.Rescore>
     Score         DG    S(hbond)    S(metal)    S(lipo)     H(rot)  DE(clash)    DE(int)     intcor
     14.55     -17.90       2.53        0.00      82.03       2.20       0.19       3.16       ----

> <Gold.Chemscore.Fitness>
14.5530

> <Gold.Chemscore.DG>
-17.8997

> <Gold.Chemscore.ZeroCoef>
-5.4800

> <Gold.Chemscore.Hbond>
2.5302

> <Gold.Chemscore.Metal>
0.0000

> <Gold.Chemscore.Lipo>
82.0269

> <Gold.Chemscore.Internal_Hbond>
0.0000

> <Gold.Chemscore.DEClash>
0.1877

> <Gold.Chemscore.DEInternal>
3.1590

> <Gold.Chemscore.Rot>
2.1986

> <Gold.Chemscore.Internal.Correction>
   9.000000E+99

> <Gold.Chemscore.Hbonds>
donor molecule, donor type, donor heavy atom, donor atom, acceptor molecule, acceptor atom, score
      L1  H    10    46       P1  8028  1.00
      P1  H  7989  7998       L1     8  0.04
      P1  H  7997  8008       L1    18  0.44

> <Gold.Chemscore.Hbond.Weighted>
-8.4510

> <Gold.Chemscore.Metal.Weighted>
-0.0000

> <Gold.Chemscore.Lipo.Weighted>
-9.5971

> <Gold.Chemscore.Internal_Hbond.Weighted>
0.0000

> <Gold.Chemscore.DEClash.Weighted>
0.1877

> <Gold.Chemscore.DEInternal.Weighted>
3.1590

> <Gold.Chemscore.Rot.Weighted>
5.6285

> <Gold.Chemscore.Internal.Correction.Weighted>
   9.000000E+99

> <Gold.Protein.RotatedTorsions>
[ 6907 6896 6895 6894 ] final  133.79 input  -60.11 | X-H torsion
[ 7974 7965 7964 7962 ] final -154.57 input  175.53 | X-H torsion
[ 8008 7997 7996 7995 ] final  -65.27 input   59.86 | X-H torsion
[ 10167 10162 10161 10158 ] final  110.85 input  -65.29 | X-H torsion
[ 10718 10713 10712 10709 ] final -113.15 input   66.30 | X-H torsion
[ 10763 10752 10751 10750 ] final  147.80 input  -60.55 | X-H torsion
[ 11005 11000 10999 10996 ] final -150.06 input  -57.11 | X-H torsion

> <Gold.Protein.ActiveResidues>
 VAL166  LYS551  ARG553  GLY616  TRP617  ASP618  TYR619  PRO620  LYS621  CYS622 
 ASP623  PHE694  ASN695  SER759  ASP760  ASP761  ALA762  ILE779  LEU786  VAL792 
 PHE793  MET794  SER795  GLU796  ALA797  LYS798  CYS799  TRP800  GLU811  SER814 

> <Gold.Protein.RotatedAtoms>
  152.3182  133.5825  159.5725 H   0  0  0  0  0  0  0  0  0  0  0  0  # atno 6907 bound_to 6896
  150.7357  134.0051  159.3660 H   0  0  0  0  0  0  0  0  0  0  0  0  # atno 6908 bound_to 6896
  151.7938  135.0729  160.0442 H   0  0  0  0  0  0  0  0  0  0  0  0  # atno 6909 bound_to 6896
  144.7683  140.4370  143.5926 H   0  0  0  0  0  0  0  0  0  0  0  0  # atno 7974 bound_to 7965
  154.4662  140.0936  156.7025 H   0  0  0  0  0  0  0  0  0  0  0  0  # atno 8008 bound_to 7997
  155.4853  140.3469  155.4328 H   0  0  0  0  0  0  0  0  0  0  0  0  # atno 8009 bound_to 7997
  156.0959  140.1409  156.9519 H   0  0  0  0  0  0  0  0  0  0  0  0  # atno 8010 bound_to 7997
  139.6657  144.7127  151.1782 H   0  0  0  0  0  0  0  0  0  0  0  0  # atno 10167 bound_to 10162
  156.0749  130.5958  150.8604 H   0  0  0  0  0  0  0  0  0  0  0  0  # atno 10718 bound_to 10713
  154.0444  135.2887  155.3350 H   0  0  0  0  0  0  0  0  0  0  0  0  # atno 10763 bound_to 10752
  154.6909  135.5227  153.8394 H   0  0  0  0  0  0  0  0  0  0  0  0  # atno 10764 bound_to 10752
  153.0587  135.6605  154.0645 H   0  0  0  0  0  0  0  0  0  0  0  0  # atno 10765 bound_to 10752
  140.7441  134.3480  157.5141 H   0  0  0  0  0  0  0  0  0  0  0  0  # atno 11005 bound_to 11000
  145.6402  139.1549  143.2920 LP  0  0  0  0  0  0  0  0  0  0  0  0  # atno 17320 bound_to 7965
  146.1809  140.6499  142.9190 LP  0  0  0  0  0  0  0  0  0  0  0  0  # atno 17321 bound_to 7965
  140.7598  143.5924  150.8783 LP  0  0  0  0  0  0  0  0  0  0  0  0  # atno 17342 bound_to 10162
  139.9585  143.6191  152.3009 LP  0  0  0  0  0  0  0  0  0  0  0  0  # atno 17343 bound_to 10162
  157.5839  131.0946  150.9227 LP  0  0  0  0  0  0  0  0  0  0  0  0  # atno 17370 bound_to 10713
  156.9417  130.5387  149.5280 LP  0  0  0  0  0  0  0  0  0  0  0  0  # atno 17371 bound_to 10713
  139.8800  134.9100  156.3004 LP  0  0  0  0  0  0  0  0  0  0  0  0  # atno 17394 bound_to 11000
  140.9810  133.7267  156.0672 LP  0  0  0  0  0  0  0  0  0  0  0  0  # atno 17395 bound_to 11000

$$$$
