AV-unprocessed.smi:250|AV-procd|sdf|1933|dock5
  -GOLD-   2262021 53D 1   1.00000     0.00000
 Structure written by MMmdl.
 56 60  0  0  0  0  0  0  0  0  1 V2000
  152.1771  145.1796  159.3904 C   0  0  0  0  0  0  0  0  0  0  0  0
  152.2542  143.7574  159.6991 N   0  0  0  0  0  0  0  0  0  0  0  0
  152.1975  143.2199  160.9290 C   0  0  0  0  0  0  0  0  0  0  0  0
  152.0420  143.8312  161.9844 O   0  0  0  0  0  0  0  0  0  0  0  0
  152.3533  141.8974  160.8172 N   0  0  0  0  0  0  0  0  0  0  0  0
  152.6349  141.4876  159.4580 C   0  0  1  0  0  0  0  0  0  0  0  0
  151.9925  140.1429  159.0393 C   0  0  0  0  0  0  0  0  0  0  0  0
  150.7888  140.2794  158.2186 N   0  0  0  0  0  0  0  0  0  0  0  0
  150.1382  139.1185  157.9487 C   0  0  0  0  0  0  0  0  0  0  0  0
  149.8956  138.2845  158.9933 N   0  0  0  0  0  0  0  0  0  0  0  0
  149.2558  137.1276  158.8040 C   0  0  0  0  0  0  0  0  0  0  0  0
  148.7796  136.6146  157.6691 N   0  0  0  0  0  0  0  0  0  0  0  0
  149.0235  137.4411  156.6122 C   0  0  0  0  0  0  0  0  0  0  0  0
  149.6929  138.6982  156.6588 C   0  0  0  0  0  0  0  0  0  0  0  0
  149.7700  139.2297  155.3755 N   0  0  0  0  0  0  0  0  0  0  0  0
  149.1745  138.3474  154.6218 C   0  0  0  0  0  0  0  0  0  0  0  0
  148.6796  137.2483  155.2849 N   0  0  0  0  0  0  0  0  0  0  0  0
  147.9834  136.1131  154.6950 C   0  0  0  0  0  0  0  0  0  0  0  0
  148.7426  134.7507  154.7477 C   0  0  0  0  0  0  0  0  0  0  0  0
  150.1765  134.9929  154.1961 C   0  0  0  0  0  0  0  0  0  0  0  0
  150.9770  135.7468  155.0850 O   0  0  0  0  0  0  0  0  0  0  0  0
  148.8313  134.2263  156.2053 C   0  0  0  0  0  0  0  0  0  0  0  0
  149.3965  132.7958  156.2964 C   0  0  0  0  0  0  0  0  0  0  0  0
  148.6196  131.9118  155.4977 O   0  0  0  0  0  0  0  0  0  0  0  0
  148.6201  132.2603  154.1187 C   0  0  0  0  0  0  0  0  0  0  0  0
  148.0017  133.6579  153.9334 C   0  0  0  0  0  0  0  0  0  0  0  0
  150.7786  141.3354  157.2146 C   0  0  0  0  0  0  0  0  0  0  0  0
  150.9625  142.6836  157.9063 C   0  0  0  0  0  0  0  0  0  0  0  0
  152.3122  142.7524  158.6454 C   0  0  1  0  0  0  0  0  0  0  0  0
  153.7163  141.3399  159.4408 H   0  0  0  0  0  0  0  0  0  0  0  0
  153.1191  142.9657  157.9425 H   0  0  0  0  0  0  0  0  0  0  0  0
  152.9073  145.7407  159.9748 H   0  0  0  0  0  0  0  0  0  0  0  0
  151.1828  145.5644  159.6193 H   0  0  0  0  0  0  0  0  0  0  0  0
  152.3782  145.3637  158.3347 H   0  0  0  0  0  0  0  0  0  0  0  0
  152.3586  141.2558  161.5968 H   0  0  0  0  0  0  0  0  0  0  0  0
  152.7162  139.5811  158.4474 H   0  0  0  0  0  0  0  0  0  0  0  0
  151.7984  139.5408  159.9278 H   0  0  0  0  0  0  0  0  0  0  0  0
  149.1030  136.5276  159.6888 H   0  0  0  0  0  0  0  0  0  0  0  0
  149.0752  138.4773  153.5538 H   0  0  0  0  0  0  0  0  0  0  0  0
  147.0201  136.0281  155.1994 H   0  0  0  0  0  0  0  0  0  0  0  0
  147.7525  136.3681  153.6597 H   0  0  0  0  0  0  0  0  0  0  0  0
  150.6762  134.0412  154.0129 H   0  0  0  0  0  0  0  0  0  0  0  0
  150.1686  135.5180  153.2428 H   0  0  0  0  0  0  0  0  0  0  0  0
  150.7984  136.6644  154.9452 H   0  0  0  0  0  0  0  0  0  0  0  0
  149.4274  134.9036  156.8179 H   0  0  0  0  0  0  0  0  0  0  0  0
  147.8406  134.2014  156.6576 H   0  0  0  0  0  0  0  0  0  0  0  0
  150.4441  132.7518  155.9988 H   0  0  0  0  0  0  0  0  0  0  0  0
  149.3568  132.4504  157.3295 H   0  0  0  0  0  0  0  0  0  0  0  0
  149.6307  132.2080  153.7132 H   0  0  0  0  0  0  0  0  0  0  0  0
  148.0306  131.5211  153.5764 H   0  0  0  0  0  0  0  0  0  0  0  0
  146.9636  133.5915  154.2559 H   0  0  0  0  0  0  0  0  0  0  0  0
  147.9703  133.9162  152.8746 H   0  0  0  0  0  0  0  0  0  0  0  0
  151.5721  141.1651  156.4860 H   0  0  0  0  0  0  0  0  0  0  0  0
  149.8293  141.3398  156.6777 H   0  0  0  0  0  0  0  0  0  0  0  0
  150.8952  143.4918  157.1776 H   0  0  0  0  0  0  0  0  0  0  0  0
  150.1371  142.8311  158.6055 H   0  0  0  0  0  0  0  0  0  0  0  0
  1  2  1  0  0  0  0
  1 32  1  0  0  0  0
  1 33  1  0  0  0  0
  1 34  1  0  0  0  0
  2 29  1  0  0  0  0
  2  3  1  0  0  0  0
  3  4  2  0  0  0  0
  3  5  1  0  0  0  0
  5  6  1  0  0  0  0
  5 35  1  0  0  0  0
  6 30  1  0  0  0  0
  6 29  1  0  0  0  0
  6  7  1  0  0  0  0
  7  8  1  0  0  0  0
  7 36  1  0  0  0  0
  7 37  1  0  0  0  0
  8  9  1  0  0  0  0
  8 27  1  0  0  0  0
  9 14  1  0  0  0  0
  9 10  2  0  0  0  0
 10 11  1  0  0  0  0
 11 12  2  0  0  0  0
 11 38  1  0  0  0  0
 12 13  1  0  0  0  0
 13 17  1  0  0  0  0
 13 14  2  0  0  0  0
 14 15  1  0  0  0  0
 15 16  2  0  0  0  0
 16 17  1  0  0  0  0
 16 39  1  0  0  0  0
 17 18  1  0  0  0  0
 18 19  1  0  0  0  0
 18 40  1  0  0  0  0
 18 41  1  0  0  0  0
 19 26  1  0  0  0  0
 19 20  1  0  0  0  0
 19 22  1  0  0  0  0
 20 21  1  0  0  0  0
 20 42  1  0  0  0  0
 20 43  1  0  0  0  0
 21 44  1  0  0  0  0
 22 23  1  0  0  0  0
 22 45  1  0  0  0  0
 22 46  1  0  0  0  0
 23 24  1  0  0  0  0
 23 47  1  0  0  0  0
 23 48  1  0  0  0  0
 24 25  1  0  0  0  0
 25 26  1  0  0  0  0
 25 49  1  0  0  0  0
 25 50  1  0  0  0  0
 26 51  1  0  0  0  0
 26 52  1  0  0  0  0
 27 28  1  0  0  0  0
 27 53  1  0  0  0  0
 27 54  1  0  0  0  0
 28 29  1  0  0  0  0
 28 55  1  0  0  0  0
 28 56  1  0  0  0  0
 29 31  1  0  0  0  0
M  END
> <s_m_source_file>
AV-unprocessed.smi

> <i_m_source_file_index>
250

> <i_lp_mmshare_version>
43012

> <i_f3d_flags>
0

> <s_epik_input>
Tz1DKFtOSF0xKU4oW0NIM10pW0NASF0oW0NASF0xMilbQ0gyXVtDSDJdTihbQ0gyXTIpYyhuW2NIXW4zKWMoYzM0KW5bY0hdbjRbQ0gyXUM1KFtDSDJdW09IXSlbQ0gyXVtDSDJdT1tDSDJdW0NIMl01

> <s_epik_cmdline>
J2VwaWtfcHl0aG9uJywgJy1waCcsICc3LjAnLCAnLXRuJywgJzgnLCAnLW1hJywgJzIwMCcsICctbWV0YWxfYmluZGluZycsICctaW1hZScsICc8aW5maWxlLm1hZT4nLCAnLW9tYWUnLCAnPG91dGZpbGUubWFlPic=

> <r_lp_tautomer_probability>
1

> <r_epik_Ionization_Penalty>
0.00229024

> <r_epik_Ionization_Penalty_Charging>
0

> <r_epik_Ionization_Penalty_Neutral>
0.00229024

> <r_epik_State_Penalty>
0.0013961

> <r_epik_Charging_Adjusted_Penalty>
0.0013961

> <i_epik_Tot_Q>
0

> <i_epik_Tot_abs_Q>
0

> <r_epik_Metal_State_Penalty>
-0

> <b_epik_Metal_Only>
0

> <s_lp_Force_Field>
OPLS_2005

> <r_lp_Energy>
68.1887

> <b_lp_Chiralities_Consistent>
1

> <s_lp_Variant>
AV-unprocessed.smi:250-4

> <Gold.Version>
5.8.1

> <Gold.Id.Protein>
6NUR|6NUR_protein|mol2

> <Gold.PLP.Fitness>
45.6448

> <Gold.PLP.PLP>
-42.2084

> <Gold.PLP.part.hbond>
-2.0000

> <Gold.PLP.part.metal>
0.0000

> <Gold.PLP.part.buried>
-7.5827

> <Gold.PLP.part.nonpolar>
-33.7130

> <Gold.PLP.part.repulsive>
0.3227

> <Gold.PLP.ligand.clash>
0.0000

> <Gold.PLP.ligand.torsion>
0.6724

> <Gold.PLP.Chemscore.Hbond>
1.0000

> <Gold.PLP.Chemscore.CHOScore>
0.5021

> <Gold.PLP.Chemscore.Metal>
0.0000

> <Gold.Chemscore.Hbonds>
donor molecule, donor type, donor heavy atom, donor atom, acceptor molecule, acceptor atom, score
      P1  H 10752 10765       L1    21  0.83
      L1  C    16    39       P1  7948  0.29
      L1  C    16    39       P1  7957  0.08

> <Gold.PLP.Chemscore.Internal.Correction>
0.2748

> <Gold.Rescore>
     Score         DG    S(hbond)    S(metal)    S(lipo)     H(rot)  DE(clash)    DE(int)     intcor
      8.26     -12.93       0.92        0.00      85.87       2.22       0.07       4.60       ----

> <Gold.Chemscore.Fitness>
8.2581

> <Gold.Chemscore.DG>
-12.9269

> <Gold.Chemscore.ZeroCoef>
-5.4800

> <Gold.Chemscore.Hbond>
0.9208

> <Gold.Chemscore.Metal>
0.0000

> <Gold.Chemscore.Lipo>
85.8726

> <Gold.Chemscore.Internal_Hbond>
0.0000

> <Gold.Chemscore.DEClash>
0.0654

> <Gold.Chemscore.DEInternal>
4.6034

> <Gold.Chemscore.Rot>
2.2170

> <Gold.Chemscore.Internal.Correction>
   9.000000E+99

> <Gold.Chemscore.Hbonds>
donor molecule, donor type, donor heavy atom, donor atom, acceptor molecule, acceptor atom, score
      P1  H 10752 10765       L1    21  0.43

> <Gold.Chemscore.Hbond.Weighted>
-3.0755

> <Gold.Chemscore.Metal.Weighted>
-0.0000

> <Gold.Chemscore.Lipo.Weighted>
-10.0471

> <Gold.Chemscore.Internal_Hbond.Weighted>
0.0000

> <Gold.Chemscore.DEClash.Weighted>
0.0654

> <Gold.Chemscore.DEInternal.Weighted>
4.6034

> <Gold.Chemscore.Rot.Weighted>
5.6756

> <Gold.Chemscore.Internal.Correction.Weighted>
   9.000000E+99

> <Gold.Protein.RotatedTorsions>
[ 6907 6896 6895 6894 ] final  -29.58 input  -60.11 | X-H torsion
[ 7974 7965 7964 7962 ] final   79.00 input  175.53 | X-H torsion
[ 8008 7997 7996 7995 ] final  -40.35 input   59.86 | X-H torsion
[ 10167 10162 10161 10158 ] final   63.08 input  -65.29 | X-H torsion
[ 10718 10713 10712 10709 ] final  163.56 input   66.30 | X-H torsion
[ 10763 10752 10751 10750 ] final -158.87 input  -60.55 | X-H torsion
[ 11005 11000 10999 10996 ] final  139.62 input  -57.11 | X-H torsion

> <Gold.Protein.ActiveResidues>
 VAL166  LYS551  ARG553  GLY616  TRP617  ASP618  TYR619  PRO620  LYS621  CYS622 
 ASP623  PHE694  ASN695  SER759  ASP760  ASP761  ALA762  ILE779  LEU786  VAL792 
 PHE793  MET794  SER795  GLU796  ALA797  LYS798  CYS799  TRP800  GLU811  SER814 

> <Gold.Protein.RotatedAtoms>
  151.1173  135.0060  159.8521 H   0  0  0  0  0  0  0  0  0  0  0  0  # atno 6907 bound_to 6896
  152.5446  134.1765  159.8628 H   0  0  0  0  0  0  0  0  0  0  0  0  # atno 6908 bound_to 6896
  151.1820  133.4674  159.2627 H   0  0  0  0  0  0  0  0  0  0  0  0  # atno 6909 bound_to 6896
  145.6698  139.2493  143.1875 H   0  0  0  0  0  0  0  0  0  0  0  0  # atno 7974 bound_to 7965
  154.4013  140.1528  156.3012 H   0  0  0  0  0  0  0  0  0  0  0  0  # atno 8008 bound_to 7997
  155.8699  140.3449  155.5792 H   0  0  0  0  0  0  0  0  0  0  0  0  # atno 8009 bound_to 7997
  155.7786  140.0840  157.2061 H   0  0  0  0  0  0  0  0  0  0  0  0  # atno 8010 bound_to 7997
  140.1369  144.4590  150.6833 H   0  0  0  0  0  0  0  0  0  0  0  0  # atno 10167 bound_to 10162
  157.1067  131.0457  151.2475 H   0  0  0  0  0  0  0  0  0  0  0  0  # atno 10718 bound_to 10713
  154.7521  135.3095  154.8537 H   0  0  0  0  0  0  0  0  0  0  0  0  # atno 10763 bound_to 10752
  153.9322  135.6784  153.4749 H   0  0  0  0  0  0  0  0  0  0  0  0  # atno 10764 bound_to 10752
  153.1118  135.4863  154.8976 H   0  0  0  0  0  0  0  0  0  0  0  0  # atno 10765 bound_to 10752
  140.0268  134.9371  157.0584 H   0  0  0  0  0  0  0  0  0  0  0  0  # atno 11005 bound_to 11000
  146.1055  140.7492  142.9528 LP  0  0  0  0  0  0  0  0  0  0  0  0  # atno 17320 bound_to 7965
  144.7061  140.3855  143.7117 LP  0  0  0  0  0  0  0  0  0  0  0  0  # atno 17321 bound_to 7965
  140.6784  143.2315  151.5448 LP  0  0  0  0  0  0  0  0  0  0  0  0  # atno 17342 bound_to 10162
  139.5491  144.2441  152.1498 LP  0  0  0  0  0  0  0  0  0  0  0  0  # atno 17343 bound_to 10162
  157.4594  130.7644  149.7222 LP  0  0  0  0  0  0  0  0  0  0  0  0  # atno 17370 bound_to 10713
  155.9860  130.3978  150.3233 LP  0  0  0  0  0  0  0  0  0  0  0  0  # atno 17371 bound_to 10713
  140.4293  134.1798  155.7167 LP  0  0  0  0  0  0  0  0  0  0  0  0  # atno 17394 bound_to 11000
  141.1807  133.8419  157.1266 LP  0  0  0  0  0  0  0  0  0  0  0  0  # atno 17395 bound_to 11000

$$$$
