AV-unprocessed.smi:227|AV-procd|sdf|1734|dock10
  -GOLD-   2262020233D 1   1.00000     0.00000
 Structure written by MMmdl.
 54 58  0  0  0  0  0  0  0  0  1 V2000
  150.7195  137.8547  153.0005 O   0  0  0  0  0  0  0  0  0  0  0  0
  150.8863  137.2465  154.2648 C   0  0  0  0  0  0  0  0  0  0  0  0
  149.8546  137.7772  155.2937 C   0  0  1  0  0  0  0  0  0  0  0  0
  149.0845  136.6043  155.9704 C   0  0  0  0  0  0  0  0  0  0  0  0
  148.0514  136.0066  155.1361 N   0  0  0  0  0  0  0  0  0  0  0  0
  146.8784  136.5996  154.7301 C   0  0  0  0  0  0  0  0  0  0  0  0
  146.1120  135.8585  153.9792 N   0  0  0  0  0  0  0  0  0  0  0  0
  146.7958  134.6534  153.8648 C   0  0  0  0  0  0  0  0  0  0  0  0
  146.5460  133.4165  153.1973 C   0  0  0  0  0  0  0  0  0  0  0  0
  145.4481  133.1498  152.4353 N   0  0  0  0  0  0  0  0  0  0  0  0
  144.3188  134.0675  152.3822 C   0  0  1  0  0  0  0  0  0  0  0  0
  144.8370  135.2456  151.5342 C   0  0  0  0  0  0  0  0  0  0  0  0
  145.7556  134.5158  150.5422 C   0  0  0  0  0  0  0  0  0  0  0  0
  145.5780  133.0452  150.9870 C   0  0  2  0  0  0  0  0  0  0  0  0
  144.1887  132.4920  150.5959 C   0  0  2  0  0  0  0  0  0  0  0  0
  143.7813  132.5764  149.1125 C   0  0  0  0  0  0  0  0  0  0  0  0
  142.5268  131.9613  148.9108 O   0  0  0  0  0  0  0  0  0  0  0  0
  143.2832  133.2808  151.5579 C   0  0  0  0  0  0  0  0  0  0  0  0
  147.4671  132.4295  153.3583 N   0  0  0  0  0  0  0  0  0  0  0  0
  148.5627  132.6330  154.0933 C   0  0  0  0  0  0  0  0  0  0  0  0
  148.9312  133.7323  154.7501 N   0  0  0  0  0  0  0  0  0  0  0  0
  148.0109  134.7274  154.6072 C   0  0  0  0  0  0  0  0  0  0  0  0
  150.5132  138.7411  156.3312 C   0  0  2  0  0  0  0  0  0  0  0  0
  149.8537  140.1153  156.4121 C   0  0  0  0  0  0  0  0  0  0  0  0
  150.5416  140.9216  155.3101 C   0  0  0  0  0  0  0  0  0  0  0  0
  151.7693  140.2534  155.0450 O   0  0  0  0  0  0  0  0  0  0  0  0
  151.9365  139.2011  155.9833 C   0  0  0  0  0  0  0  0  0  0  0  0
  151.0576  137.2702  152.3391 H   0  0  0  0  0  0  0  0  0  0  0  0
  150.8190  136.1641  154.1589 H   0  0  0  0  0  0  0  0  0  0  0  0
  151.9069  137.4684  154.5674 H   0  0  0  0  0  0  0  0  0  0  0  0
  149.1186  138.3540  154.7320 H   0  0  0  0  0  0  0  0  0  0  0  0
  149.7661  135.8176  156.2887 H   0  0  0  0  0  0  0  0  0  0  0  0
  148.6128  136.9424  156.8933 H   0  0  0  0  0  0  0  0  0  0  0  0
  146.6100  137.6096  155.0047 H   0  0  0  0  0  0  0  0  0  0  0  0
  143.9100  134.3727  153.3434 H   0  0  0  0  0  0  0  0  0  0  0  0
  144.0340  135.7969  151.0439 H   0  0  0  0  0  0  0  0  0  0  0  0
  145.4075  135.9483  152.1428 H   0  0  0  0  0  0  0  0  0  0  0  0
  145.4995  134.6982  149.5000 H   0  0  0  0  0  0  0  0  0  0  0  0
  146.7886  134.8375  150.6804 H   0  0  0  0  0  0  0  0  0  0  0  0
  146.3855  132.3956  150.6479 H   0  0  0  0  0  0  0  0  0  0  0  0
  144.1563  131.4411  150.8901 H   0  0  0  0  0  0  0  0  0  0  0  0
  143.7030  133.6210  148.8103 H   0  0  0  0  0  0  0  0  0  0  0  0
  144.5218  132.1206  148.4564 H   0  0  0  0  0  0  0  0  0  0  0  0
  141.8490  132.5958  149.0868 H   0  0  0  0  0  0  0  0  0  0  0  0
  142.7136  132.5991  152.1910 H   0  0  0  0  0  0  0  0  0  0  0  0
  142.5749  133.9353  151.0485 H   0  0  0  0  0  0  0  0  0  0  0  0
  149.2411  131.7956  154.1643 H   0  0  0  0  0  0  0  0  0  0  0  0
  150.5156  138.2597  157.3097 H   0  0  0  0  0  0  0  0  0  0  0  0
  148.7705  140.1216  156.3122 H   0  0  0  0  0  0  0  0  0  0  0  0
  150.0823  140.5630  157.3805 H   0  0  0  0  0  0  0  0  0  0  0  0
  149.9429  140.9310  154.3988 H   0  0  0  0  0  0  0  0  0  0  0  0
  150.7139  141.9545  155.6139 H   0  0  0  0  0  0  0  0  0  0  0  0
  152.4170  139.6131  156.8725 H   0  0  0  0  0  0  0  0  0  0  0  0
  152.6002  138.4281  155.6039 H   0  0  0  0  0  0  0  0  0  0  0  0
  1  2  1  0  0  0  0
  1 28  1  0  0  0  0
  2  3  1  0  0  0  0
  2 29  1  0  0  0  0
  2 30  1  0  0  0  0
  3  4  1  0  0  0  0
  3 23  1  0  0  0  0
  3 31  1  0  0  0  0
  4  5  1  0  0  0  0
  4 32  1  0  0  0  0
  4 33  1  0  0  0  0
  5 22  1  0  0  0  0
  5  6  1  0  0  0  0
  6  7  2  0  0  0  0
  6 34  1  0  0  0  0
  7  8  1  0  0  0  0
  8 22  2  0  0  0  0
  8  9  1  0  0  0  0
  9 10  1  0  0  0  0
  9 19  2  0  0  0  0
 10 14  1  0  0  0  0
 10 11  1  0  0  0  0
 11 18  1  0  0  0  0
 11 12  1  0  0  0  0
 11 35  1  0  0  0  0
 12 13  1  0  0  0  0
 12 36  1  0  0  0  0
 12 37  1  0  0  0  0
 13 14  1  0  0  0  0
 13 38  1  0  0  0  0
 13 39  1  0  0  0  0
 14 15  1  0  0  0  0
 14 40  1  0  0  0  0
 15 16  1  0  0  0  0
 15 18  1  0  0  0  0
 15 41  1  0  0  0  0
 16 17  1  0  0  0  0
 16 42  1  0  0  0  0
 16 43  1  0  0  0  0
 17 44  1  0  0  0  0
 18 45  1  0  0  0  0
 18 46  1  0  0  0  0
 19 20  1  0  0  0  0
 20 21  2  0  0  0  0
 20 47  1  0  0  0  0
 21 22  1  0  0  0  0
 23 27  1  0  0  0  0
 23 24  1  0  0  0  0
 23 48  1  0  0  0  0
 24 25  1  0  0  0  0
 24 49  1  0  0  0  0
 24 50  1  0  0  0  0
 25 26  1  0  0  0  0
 25 51  1  0  0  0  0
 25 52  1  0  0  0  0
 26 27  1  0  0  0  0
 27 53  1  0  0  0  0
 27 54  1  0  0  0  0
M  END
> <s_m_source_file>
AV-unprocessed.smi

> <i_m_source_file_index>
227

> <i_lp_mmshare_version>
43012

> <i_f3d_flags>
0

> <s_epik_input>
W0NIMl0xT1tDSDJdW0NIMl1bQ0BIXTFbQ0BIXShbQ0gyXVtPSF0pW0NIMl1uKFtjSF1uMiljKGMyMyluW2NIXW5jM04oW0NASF00NSlbQ0BASF0oW0NIMl1bQ0gyXTQpW0NASF0oW0NIMl01KVtDSDJdW09IXQ==

> <s_epik_cmdline>
J2VwaWtfcHl0aG9uJywgJy1waCcsICc3LjAnLCAnLXRuJywgJzgnLCAnLW1hJywgJzIwMCcsICctbWV0YWxfYmluZGluZycsICctaW1hZScsICc8aW5maWxlLm1hZT4nLCAnLW9tYWUnLCAnPG91dGZpbGUubWFlPic=

> <r_lp_tautomer_probability>
1

> <r_epik_Ionization_Penalty>
0.0055791

> <r_epik_Ionization_Penalty_Charging>
0

> <r_epik_Ionization_Penalty_Neutral>
0.0055791

> <r_epik_State_Penalty>
0.00401299

> <r_epik_Charging_Adjusted_Penalty>
0.00401299

> <i_epik_Tot_Q>
0

> <i_epik_Tot_abs_Q>
0

> <r_epik_Metal_State_Penalty>
-0

> <b_epik_Metal_Only>
0

> <s_lp_Force_Field>
OPLS_2005

> <r_lp_Energy>
91.5897

> <b_lp_Chiralities_Consistent>
1

> <s_lp_Variant>
AV-unprocessed.smi:227-8

> <Gold.Version>
5.8.1

> <Gold.Id.Protein>
6NUR|6NUR_protein|mol2

> <Gold.PLP.Fitness>
44.8036

> <Gold.PLP.PLP>
-38.3149

> <Gold.PLP.part.hbond>
-7.0000

> <Gold.PLP.part.metal>
0.0000

> <Gold.PLP.part.buried>
-3.0570

> <Gold.PLP.part.nonpolar>
-28.3927

> <Gold.PLP.part.repulsive>
0.3802

> <Gold.PLP.ligand.clash>
0.0000

> <Gold.PLP.ligand.torsion>
2.5054

> <Gold.PLP.Chemscore.Hbond>
3.7840

> <Gold.PLP.Chemscore.CHOScore>
0.0000

> <Gold.PLP.Chemscore.Metal>
0.0000

> <Gold.Chemscore.Hbonds>
donor molecule, donor type, donor heavy atom, donor atom, acceptor molecule, acceptor atom, score
      L1  H     1    28       P1  7949  1.00
      L1  H    17    44       P1 10186  0.98
      P1  H  7989  7998       L1    26  0.31
      P1  H 10785 10796       L1    17  0.85

> <Gold.PLP.Chemscore.Internal.Correction>
0.1475

> <Gold.Rescore>
     Score         DG    S(hbond)    S(metal)    S(lipo)     H(rot)  DE(clash)    DE(int)     intcor
     10.08     -16.08       3.08        0.00      81.64       3.61       1.33       4.68       ----

> <Gold.Chemscore.Fitness>
10.0824

> <Gold.Chemscore.DG>
-16.0842

> <Gold.Chemscore.ZeroCoef>
-5.4800

> <Gold.Chemscore.Hbond>
3.0799

> <Gold.Chemscore.Metal>
0.0000

> <Gold.Chemscore.Lipo>
81.6365

> <Gold.Chemscore.Internal_Hbond>
0.0000

> <Gold.Chemscore.DEClash>
1.3263

> <Gold.Chemscore.DEInternal>
4.6755

> <Gold.Chemscore.Rot>
3.6071

> <Gold.Chemscore.Internal.Correction>
   9.000000E+99

> <Gold.Chemscore.Hbonds>
donor molecule, donor type, donor heavy atom, donor atom, acceptor molecule, acceptor atom, score
      L1  H     1    28       P1  7949  0.24
      L1  H    17    44       P1 10186  0.91
      P1  H  7989  7998       L1    26  0.01
      P1  H 10785 10796       L1    17  0.14

> <Gold.Chemscore.Hbond.Weighted>
-10.2870

> <Gold.Chemscore.Metal.Weighted>
-0.0000

> <Gold.Chemscore.Lipo.Weighted>
-9.5515

> <Gold.Chemscore.Internal_Hbond.Weighted>
0.0000

> <Gold.Chemscore.DEClash.Weighted>
1.3263

> <Gold.Chemscore.DEInternal.Weighted>
4.6755

> <Gold.Chemscore.Rot.Weighted>
9.2342

> <Gold.Chemscore.Internal.Correction.Weighted>
   9.000000E+99

> <Gold.Protein.RotatedTorsions>
[ 6907 6896 6895 6894 ] final   99.01 input  -60.11 | X-H torsion
[ 7974 7965 7964 7962 ] final -165.81 input  175.53 | X-H torsion
[ 8008 7997 7996 7995 ] final  121.91 input   59.86 | X-H torsion
[ 10167 10162 10161 10158 ] final -138.01 input  -65.29 | X-H torsion
[ 10718 10713 10712 10709 ] final  169.45 input   66.30 | X-H torsion
[ 10763 10752 10751 10750 ] final  157.75 input  -60.55 | X-H torsion
[ 11005 11000 10999 10996 ] final   -1.23 input  -57.11 | X-H torsion

> <Gold.Protein.ActiveResidues>
 VAL166  LYS551  ARG553  GLY616  TRP617  ASP618  TYR619  PRO620  LYS621  CYS622 
 ASP623  PHE694  ASN695  SER759  ASP760  ASP761  ALA762  ILE779  LEU786  VAL792 
 PHE793  MET794  SER795  GLU796  ALA797  LYS798  CYS799  TRP800  GLU811  SER814 

> <Gold.Protein.RotatedAtoms>
  152.5399  134.0494  159.8102 H   0  0  0  0  0  0  0  0  0  0  0  0  # atno 6907 bound_to 6896
  151.0638  133.5515  159.2639 H   0  0  0  0  0  0  0  0  0  0  0  0  # atno 6908 bound_to 6896
  151.2404  135.0595  159.9076 H   0  0  0  0  0  0  0  0  0  0  0  0  # atno 6909 bound_to 6896
  144.7261  140.2760  143.6243 H   0  0  0  0  0  0  0  0  0  0  0  0  # atno 7974 bound_to 7965
  156.2706  140.2797  156.1384 H   0  0  0  0  0  0  0  0  0  0  0  0  # atno 8008 bound_to 7997
  155.0980  140.0389  157.2706 H   0  0  0  0  0  0  0  0  0  0  0  0  # atno 8009 bound_to 7997
  154.6838  140.2614  155.6887 H   0  0  0  0  0  0  0  0  0  0  0  0  # atno 8010 bound_to 7997
  139.8521  143.7185  152.2657 H   0  0  0  0  0  0  0  0  0  0  0  0  # atno 10167 bound_to 10162
  157.0224  131.0236  151.2770 H   0  0  0  0  0  0  0  0  0  0  0  0  # atno 10718 bound_to 10713
  154.2051  135.2788  155.2977 H   0  0  0  0  0  0  0  0  0  0  0  0  # atno 10763 bound_to 10752
  154.5823  135.5585  153.7200 H   0  0  0  0  0  0  0  0  0  0  0  0  # atno 10764 bound_to 10752
  153.0078  135.6348  154.2190 H   0  0  0  0  0  0  0  0  0  0  0  0  # atno 10765 bound_to 10752
  140.6450  133.9455  155.8347 H   0  0  0  0  0  0  0  0  0  0  0  0  # atno 11005 bound_to 11000
  145.7996  139.1959  143.2055 LP  0  0  0  0  0  0  0  0  0  0  0  0  # atno 17320 bound_to 7965
  146.0687  140.7892  142.9699 LP  0  0  0  0  0  0  0  0  0  0  0  0  # atno 17321 bound_to 7965
  139.7455  144.7548  151.0586 LP  0  0  0  0  0  0  0  0  0  0  0  0  # atno 17342 bound_to 10162
  140.7786  143.4921  150.9879 LP  0  0  0  0  0  0  0  0  0  0  0  0  # atno 17343 bound_to 10162
  157.5239  130.8016  149.7840 LP  0  0  0  0  0  0  0  0  0  0  0  0  # atno 17370 bound_to 10713
  156.0097  130.3839  150.2305 LP  0  0  0  0  0  0  0  0  0  0  0  0  # atno 17371 bound_to 10713
  141.0579  134.0390  157.3698 LP  0  0  0  0  0  0  0  0  0  0  0  0  # atno 17394 bound_to 11000
  139.9066  135.0181  156.7512 LP  0  0  0  0  0  0  0  0  0  0  0  0  # atno 17395 bound_to 11000

$$$$
