AV-unprocessed.smi:1423|AV-procd|sdf|5796|dock7
  -GOLD-   22720 5443D 1   1.00000     0.00000
 Structure written by MMmdl.
 44 45  0  0  0  0  0  0  0  0  2 V2000
  154.5402  140.6524  160.7531 C   0  0  0  0  0  0  0  0  0  0  0  0
  154.1225  141.9883  160.4948 O   0  0  0  0  0  0  0  0  0  0  0  0
  153.1464  142.1969  159.5421 C   0  0  0  0  0  0  0  0  0  0  0  0
  152.7306  143.5175  159.2812 C   0  0  0  0  0  0  0  0  0  0  0  0
  151.7330  143.7400  158.3129 C   0  0  0  0  0  0  0  0  0  0  0  0
  151.1733  142.6281  157.6385 C   0  0  0  0  0  0  0  0  0  0  0  0
  150.1700  142.7140  156.6342 N   0  0  0  0  0  0  0  0  0  0  0  0
  149.5818  141.7224  155.9429 C   0  0  0  0  0  0  0  0  0  0  0  0
  149.8294  140.5232  156.0626 O   0  0  0  0  0  0  0  0  0  0  0  0
  148.6826  142.2051  155.0728 N   0  0  0  0  0  0  0  0  0  0  0  0
  147.8566  141.3951  154.1772 C   0  0  2  0  0  0  0  0  0  0  0  0
  146.9403  142.2646  153.2924 C   0  0  0  0  0  0  0  0  0  0  0  0
  145.8014  142.9107  154.0999 C   0  0  0  0  0  0  0  0  0  0  0  0
  145.0083  141.8803  154.8218 N   0  3  2  0  0  0  0  0  0  0  0  0
  143.8067  142.4349  155.4973 C   0  0  0  0  0  0  0  0  0  0  0  0
  142.8417  141.3523  155.9926 C   0  0  0  0  0  0  0  0  0  0  0  0
  142.4339  140.4537  155.0937 N   0  0  0  0  0  0  0  0  0  0  0  0
  142.4566  141.3317  157.1603 O   0  0  0  0  0  0  0  0  0  0  0  0
  145.8598  141.0834  155.7411 C   0  0  0  0  0  0  0  0  0  0  0  0
  147.0081  140.3941  154.9811 C   0  0  0  0  0  0  0  0  0  0  0  0
  151.6696  141.3484  157.9639 C   0  0  0  0  0  0  0  0  0  0  0  0
  152.6257  141.1281  158.8902 N   0  0  0  0  0  0  0  0  0  0  0  0
  155.3018  140.6575  161.5328 H   0  0  0  0  0  0  0  0  0  0  0  0
  154.9783  140.1938  159.8655 H   0  0  0  0  0  0  0  0  0  0  0  0
  153.7124  140.0348  161.1038 H   0  0  0  0  0  0  0  0  0  0  0  0
  153.1725  144.3471  159.8130 H   0  0  0  0  0  0  0  0  0  0  0  0
  151.4316  144.7543  158.1048 H   0  0  0  0  0  0  0  0  0  0  0  0
  149.9015  143.6523  156.3768 H   0  0  0  0  0  0  0  0  0  0  0  0
  148.5442  143.2046  155.0432 H   0  0  0  0  0  0  0  0  0  0  0  0
  148.5273  140.8242  153.5322 H   0  0  0  0  0  0  0  0  0  0  0  0
  147.5166  143.0338  152.7770 H   0  0  0  0  0  0  0  0  0  0  0  0
  146.5075  141.6412  152.5088 H   0  0  0  0  0  0  0  0  0  0  0  0
  146.2051  143.6304  154.8138 H   0  0  0  0  0  0  0  0  0  0  0  0
  145.1594  143.4720  153.4206 H   0  0  0  0  0  0  0  0  0  0  0  0
  144.1101  143.0056  156.3761 H   0  0  0  0  0  0  0  0  0  0  0  0
  143.2915  143.1319  154.8340 H   0  0  0  0  0  0  0  0  0  0  0  0
  141.8015  139.7141  155.3643 H   0  0  0  0  0  0  0  0  0  0  0  0
  142.7644  140.5127  154.1408 H   0  0  0  0  0  0  0  0  0  0  0  0
  146.2547  141.7305  156.5259 H   0  0  0  0  0  0  0  0  0  0  0  0
  145.2553  140.3217  156.2347 H   0  0  0  0  0  0  0  0  0  0  0  0
  146.5859  139.6566  154.2970 H   0  0  0  0  0  0  0  0  0  0  0  0
  147.6373  139.8358  155.6755 H   0  0  0  0  0  0  0  0  0  0  0  0
  151.2842  140.4691  157.4681 H   0  0  0  0  0  0  0  0  0  0  0  0
  144.6617  141.2352  154.1255 H   0  0  0  0  0  0  0  0  0  0  0  0
  1  2  1  0  0  0  0
  1 23  1  0  0  0  0
  1 24  1  0  0  0  0
  1 25  1  0  0  0  0
  2  3  1  0  0  0  0
  3 22  1  0  0  0  0
  3  4  2  0  0  0  0
  4  5  1  0  0  0  0
  4 26  1  0  0  0  0
  5  6  2  0  0  0  0
  5 27  1  0  0  0  0
  6  7  1  0  0  0  0
  6 21  1  0  0  0  0
  7  8  1  0  0  0  0
  7 28  1  0  0  0  0
  8  9  2  0  0  0  0
  8 10  1  0  0  0  0
 10 11  1  0  0  0  0
 10 29  1  0  0  0  0
 11 20  1  0  0  0  0
 11 12  1  0  0  0  0
 11 30  1  0  0  0  0
 12 13  1  0  0  0  0
 12 31  1  0  0  0  0
 12 32  1  0  0  0  0
 13 14  1  0  0  0  0
 13 33  1  0  0  0  0
 13 34  1  0  0  0  0
 14 15  1  0  0  0  0
 14 19  1  0  0  0  0
 14 44  1  0  0  0  0
 15 16  1  0  0  0  0
 15 35  1  0  0  0  0
 15 36  1  0  0  0  0
 16 17  1  0  0  0  0
 16 18  2  0  0  0  0
 17 37  1  0  0  0  0
 17 38  1  0  0  0  0
 19 20  1  0  0  0  0
 19 39  1  0  0  0  0
 19 40  1  0  0  0  0
 20 41  1  0  0  0  0
 20 42  1  0  0  0  0
 21 22  2  0  0  0  0
 21 43  1  0  0  0  0
M  CHG  1  14   1
M  END
> <s_m_source_file>
AV-unprocessed.smi

> <i_m_source_file_index>
1423

> <i_lp_mmshare_version>
43012

> <i_f3d_flags>
0

> <s_epik_input>
W0NIM11PYzFbY0hdW2NIXWMoW2NIXW4xKVtOSF1DKD1PKVtOSF1bQ0hdMltDSDJdW0NIMl1OKFtDSDJdW0NIMl0yKVtDSDJdQyg9TylbTkgyXQ==

> <s_epik_cmdline>
J2VwaWtfcHl0aG9uJywgJy1waCcsICc3LjAnLCAnLXRuJywgJzgnLCAnLW1hJywgJzIwMCcsICctbWV0YWxfYmluZGluZycsICctaW1hZScsICc8aW5maWxlLm1hZT4nLCAnLW9tYWUnLCAnPG91dGZpbGUubWFlPic=

> <r_lp_tautomer_probability>
1

> <r_epik_Ionization_Penalty>
0.838963

> <r_epik_Ionization_Penalty_Charging>
0.838844

> <r_epik_Ionization_Penalty_Neutral>
0.0001192

> <r_epik_State_Penalty>
0.8734

> <r_epik_Charging_Adjusted_Penalty>
1.71224

> <i_epik_Tot_Q>
1

> <i_epik_Tot_abs_Q>
1

> <r_epik_Metal_State_Penalty>
0.890706

> <b_epik_Metal_Only>
0

> <s_lp_Force_Field>
OPLS_2005

> <r_lp_Energy>
16.4792

> <b_lp_Chiralities_Consistent>
1

> <s_lp_Variant>
AV-unprocessed.smi:1423-3

> <Gold.Version>
5.8.1

> <Gold.Id.Protein>
6NUR|6NUR_protein|mol2

> <Gold.PLP.Fitness>
51.0918

> <Gold.PLP.PLP>
-36.3148

> <Gold.PLP.part.hbond>
-4.0196

> <Gold.PLP.part.metal>
0.0000

> <Gold.PLP.part.buried>
-5.9989

> <Gold.PLP.part.nonpolar>
-27.0155

> <Gold.PLP.part.repulsive>
0.2820

> <Gold.PLP.ligand.clash>
0.0000

> <Gold.PLP.ligand.torsion>
0.0872

> <Gold.PLP.Chemscore.Hbond>
4.9760

> <Gold.PLP.Chemscore.CHOScore>
0.0000

> <Gold.PLP.Chemscore.Metal>
0.0000

> <Gold.Chemscore.Hbonds>
donor molecule, donor type, donor heavy atom, donor atom, acceptor molecule, acceptor atom, score
      L1  H     7    28       P1  8028  1.00
      L1  H    10    29       P1  8028  1.00
      L1  H    14    44       P1 10175  1.95
      L1  H    17    38       P1 10175  1.00

> <Gold.PLP.Chemscore.Internal.Correction>
0.0234

> <Gold.Rescore>
     Score         DG    S(hbond)    S(metal)    S(lipo)     H(rot)  DE(clash)    DE(int)     intcor
     17.58     -21.31       3.73        0.00      79.87       2.33       1.51       2.22       ----

> <Gold.Chemscore.Fitness>
17.5836

> <Gold.Chemscore.DG>
-21.3131

> <Gold.Chemscore.ZeroCoef>
-5.4800

> <Gold.Chemscore.Hbond>
3.7263

> <Gold.Chemscore.Metal>
0.0000

> <Gold.Chemscore.Lipo>
79.8684

> <Gold.Chemscore.Internal_Hbond>
0.0000

> <Gold.Chemscore.DEClash>
1.5068

> <Gold.Chemscore.DEInternal>
2.2226

> <Gold.Chemscore.Rot>
2.3271

> <Gold.Chemscore.Internal.Correction>
   9.000000E+99

> <Gold.Chemscore.Hbonds>
donor molecule, donor type, donor heavy atom, donor atom, acceptor molecule, acceptor atom, score
      L1  H     7    28       P1  8028  0.96
      L1  H    10    29       P1  8028  0.95
      L1  H    14    44       P1 10175  0.60
      L1  H    17    38       P1 10175  0.88

> <Gold.Chemscore.Hbond.Weighted>
-12.4458

> <Gold.Chemscore.Metal.Weighted>
-0.0000

> <Gold.Chemscore.Lipo.Weighted>
-9.3446

> <Gold.Chemscore.Internal_Hbond.Weighted>
0.0000

> <Gold.Chemscore.DEClash.Weighted>
1.5068

> <Gold.Chemscore.DEInternal.Weighted>
2.2226

> <Gold.Chemscore.Rot.Weighted>
5.9573

> <Gold.Chemscore.Internal.Correction.Weighted>
   9.000000E+99

> <Gold.Protein.RotatedTorsions>
[ 6907 6896 6895 6894 ] final  147.60 input  -60.11 | X-H torsion
[ 7974 7965 7964 7962 ] final -162.65 input  175.53 | X-H torsion
[ 8008 7997 7996 7995 ] final   73.64 input   59.86 | X-H torsion
[ 10167 10162 10161 10158 ] final -153.81 input  -65.29 | X-H torsion
[ 10718 10713 10712 10709 ] final   95.13 input   66.30 | X-H torsion
[ 10763 10752 10751 10750 ] final -107.85 input  -60.55 | X-H torsion
[ 11005 11000 10999 10996 ] final  -24.86 input  -57.11 | X-H torsion

> <Gold.Protein.ActiveResidues>
 VAL166  LYS551  ARG553  GLY616  TRP617  ASP618  TYR619  PRO620  LYS621  CYS622 
 ASP623  PHE694  ASN695  SER759  ASP760  ASP761  ALA762  ILE779  LEU786  VAL792 
 PHE793  MET794  SER795  GLU796  ALA797  LYS798  CYS799  TRP800  GLU811  SER814 

> <Gold.Protein.RotatedAtoms>
  152.1526  133.4531  159.4820 H   0  0  0  0  0  0  0  0  0  0  0  0  # atno 6907 bound_to 6896
  150.6897  134.2170  159.4391 H   0  0  0  0  0  0  0  0  0  0  0  0  # atno 6908 bound_to 6896
  152.0068  134.9898  160.0617 H   0  0  0  0  0  0  0  0  0  0  0  0  # atno 6909 bound_to 6896
  144.7350  140.3221  143.6169 H   0  0  0  0  0  0  0  0  0  0  0  0  # atno 7974 bound_to 7965
  155.7867  140.3480  155.5327 H   0  0  0  0  0  0  0  0  0  0  0  0  # atno 8008 bound_to 7997
  155.8675  140.0981  157.1593 H   0  0  0  0  0  0  0  0  0  0  0  0  # atno 8009 bound_to 7997
  154.4015  140.1347  156.4024 H   0  0  0  0  0  0  0  0  0  0  0  0  # atno 8010 bound_to 7997
  139.7066  143.9177  152.2451 H   0  0  0  0  0  0  0  0  0  0  0  0  # atno 10167 bound_to 10162
  157.6941  131.0535  150.4292 H   0  0  0  0  0  0  0  0  0  0  0  0  # atno 10718 bound_to 10713
  154.8100  135.4659  154.0492 H   0  0  0  0  0  0  0  0  0  0  0  0  # atno 10763 bound_to 10752
  153.1930  135.6858  153.8335 H   0  0  0  0  0  0  0  0  0  0  0  0  # atno 10764 bound_to 10752
  153.7846  135.3252  155.3347 H   0  0  0  0  0  0  0  0  0  0  0  0  # atno 10765 bound_to 10752
  140.8885  133.7605  156.0390 H   0  0  0  0  0  0  0  0  0  0  0  0  # atno 11005 bound_to 11000
  145.7558  139.1808  143.2295 LP  0  0  0  0  0  0  0  0  0  0  0  0  # atno 17320 bound_to 7965
  146.1025  140.7526  142.9542 LP  0  0  0  0  0  0  0  0  0  0  0  0  # atno 17321 bound_to 7965
  139.9034  144.6898  150.8640 LP  0  0  0  0  0  0  0  0  0  0  0  0  # atno 17342 bound_to 10162
  140.7723  143.3497  151.2040 LP  0  0  0  0  0  0  0  0  0  0  0  0  # atno 17343 bound_to 10162
  156.4660  130.4042  149.6547 LP  0  0  0  0  0  0  0  0  0  0  0  0  # atno 17370 bound_to 10713
  156.3644  130.7498  151.2474 LP  0  0  0  0  0  0  0  0  0  0  0  0  # atno 17371 bound_to 10713
  140.8376  134.3104  157.5326 LP  0  0  0  0  0  0  0  0  0  0  0  0  # atno 17394 bound_to 11000
  139.8727  134.9398  156.3752 LP  0  0  0  0  0  0  0  0  0  0  0  0  # atno 17395 bound_to 11000

$$$$
