AV-unprocessed.smi:2371|AV-procd|sdf|9437|dock2
  -GOLD-   2272013 63D 1   1.00000     0.00000
 Structure written by MMmdl.
 35 36  0  0  0  0  0  0  0  0  1 V2000
  150.7201  140.3956  155.5744 C   0  0  0  0  0  0  0  0  0  0  0  0
  149.4729  140.3814  154.8057 N   0  0  0  0  0  0  0  0  0  0  0  0
  148.7599  141.5873  154.7016 C   0  0  0  0  0  0  0  0  0  0  0  0
  147.6114  141.6676  154.0158 C   0  0  0  0  0  0  0  0  0  0  0  0
  147.1091  140.4756  153.3752 C   0  0  0  0  0  0  0  0  0  0  0  0
  147.7779  139.2982  153.4681 C   0  0  0  0  0  0  0  0  0  0  0  0
  147.3694  138.0885  152.8775 N   0  0  0  0  0  0  0  0  0  0  0  0
  146.1319  137.6000  152.6729 C   0  0  0  0  0  0  0  0  0  0  0  0
  145.0748  138.1434  152.9917 O   0  0  0  0  0  0  0  0  0  0  0  0
  146.1875  136.4040  152.0707 N   0  0  0  0  0  0  0  0  0  0  0  0
  145.0326  135.5826  151.7265 C   0  0  0  0  0  0  0  0  0  0  0  0
  145.4180  134.4305  150.7835 C   0  0  1  0  0  0  0  0  0  0  0  0
  146.2714  133.3478  151.4448 C   0  0  0  0  0  0  0  0  0  0  0  0
  145.9147  132.0804  150.6799 C   0  0  0  0  0  0  0  0  0  0  0  0
  144.7247  132.4885  149.8086 C   0  0  0  0  0  0  0  0  0  0  0  0
  144.2679  133.7081  150.3728 O   0  0  0  0  0  0  0  0  0  0  0  0
  149.0444  139.2219  154.2234 C   0  0  0  0  0  0  0  0  0  0  0  0
  149.6920  138.1777  154.3324 O   0  0  0  0  0  0  0  0  0  0  0  0
  150.9590  141.3823  155.9726 H   0  0  0  0  0  0  0  0  0  0  0  0
  151.5594  140.0866  154.9495 H   0  0  0  0  0  0  0  0  0  0  0  0
  150.6555  139.7103  156.4208 H   0  0  0  0  0  0  0  0  0  0  0  0
  149.1999  142.4335  155.2089 H   0  0  0  0  0  0  0  0  0  0  0  0
  147.0735  142.6015  153.9446 H   0  0  0  0  0  0  0  0  0  0  0  0
  146.1911  140.5729  152.8204 H   0  0  0  0  0  0  0  0  0  0  0  0
  148.1316  137.4960  152.5816 H   0  0  0  0  0  0  0  0  0  0  0  0
  147.0958  136.0237  151.8481 H   0  0  0  0  0  0  0  0  0  0  0  0
  144.5736  135.1901  152.6353 H   0  0  0  0  0  0  0  0  0  0  0  0
  144.2864  136.2214  151.2533 H   0  0  0  0  0  0  0  0  0  0  0  0
  145.9333  134.8105  149.8990 H   0  0  0  0  0  0  0  0  0  0  0  0
  147.3361  133.5797  151.4068 H   0  0  0  0  0  0  0  0  0  0  0  0
  145.9927  133.2297  152.4928 H   0  0  0  0  0  0  0  0  0  0  0  0
  146.7440  131.7240  150.0684 H   0  0  0  0  0  0  0  0  0  0  0  0
  145.6415  131.2831  151.3720 H   0  0  0  0  0  0  0  0  0  0  0  0
  145.0448  132.6670  148.7809 H   0  0  0  0  0  0  0  0  0  0  0  0
  143.9354  131.7365  149.7939 H   0  0  0  0  0  0  0  0  0  0  0  0
  1  2  1  0  0  0  0
  1 19  1  0  0  0  0
  1 20  1  0  0  0  0
  1 21  1  0  0  0  0
  2 17  1  0  0  0  0
  2  3  1  0  0  0  0
  3  4  2  0  0  0  0
  3 22  1  0  0  0  0
  4  5  1  0  0  0  0
  4 23  1  0  0  0  0
  5  6  2  0  0  0  0
  5 24  1  0  0  0  0
  6  7  1  0  0  0  0
  6 17  1  0  0  0  0
  7  8  1  0  0  0  0
  7 25  1  0  0  0  0
  8  9  2  0  0  0  0
  8 10  1  0  0  0  0
 10 11  1  0  0  0  0
 10 26  1  0  0  0  0
 11 12  1  0  0  0  0
 11 27  1  0  0  0  0
 11 28  1  0  0  0  0
 12 16  1  0  0  0  0
 12 13  1  0  0  0  0
 12 29  1  0  0  0  0
 13 14  1  0  0  0  0
 13 30  1  0  0  0  0
 13 31  1  0  0  0  0
 14 15  1  0  0  0  0
 14 32  1  0  0  0  0
 14 33  1  0  0  0  0
 15 16  1  0  0  0  0
 15 34  1  0  0  0  0
 15 35  1  0  0  0  0
 17 18  2  0  0  0  0
M  END
> <s_m_source_file>
AV-unprocessed.smi

> <i_m_source_file_index>
2371

> <i_lp_mmshare_version>
43012

> <i_f3d_flags>
0

> <s_epik_input>
W0NIM11uMVtjSF1bY0hdW2NIXWMoYzE9TylbTkhdQyg9TylbTkhdW0NIMl1bQ0BASF0yW0NIMl1bQ0gyXVtDSDJdTzI=

> <s_epik_cmdline>
J2VwaWtfcHl0aG9uJywgJy1waCcsICc3LjAnLCAnLXRuJywgJzgnLCAnLW1hJywgJzIwMCcsICctbWV0YWxfYmluZGluZycsICctaW1hZScsICc8aW5maWxlLm1hZT4nLCAnLW9tYWUnLCAnPG91dGZpbGUubWFlPic=

> <r_lp_tautomer_probability>
1

> <r_epik_Ionization_Penalty>
2.36512e-05

> <r_epik_Ionization_Penalty_Charging>
4.84074e-06

> <r_epik_Ionization_Penalty_Neutral>
1.88105e-05

> <r_epik_State_Penalty>
-0

> <r_epik_Charging_Adjusted_Penalty>
4.84074e-06

> <i_epik_Tot_Q>
0

> <i_epik_Tot_abs_Q>
0

> <r_epik_Metal_State_Penalty>
-0

> <b_epik_Metal_Only>
0

> <s_lp_Force_Field>
OPLS_2005

> <r_lp_Energy>
29.3434

> <b_lp_Chiralities_Consistent>
1

> <s_lp_Variant>
AV-unprocessed.smi:2371-2

> <Gold.Version>
5.8.1

> <Gold.Id.Protein>
6NUR|6NUR_protein|mol2

> <Gold.PLP.Fitness>
40.7203

> <Gold.PLP.PLP>
-32.4039

> <Gold.PLP.part.hbond>
-2.0000

> <Gold.PLP.part.metal>
0.0000

> <Gold.PLP.part.buried>
-3.5775

> <Gold.PLP.part.nonpolar>
-30.2217

> <Gold.PLP.part.repulsive>
3.0953

> <Gold.PLP.ligand.clash>
0.0000

> <Gold.PLP.ligand.torsion>
0.3333

> <Gold.PLP.Chemscore.Hbond>
1.9920

> <Gold.PLP.Chemscore.CHOScore>
1.0000

> <Gold.PLP.Chemscore.Metal>
0.0000

> <Gold.Chemscore.Hbonds>
donor molecule, donor type, donor heavy atom, donor atom, acceptor molecule, acceptor atom, score
      L1  H     7    25       P1  7948  1.00
      L1  H    10    26       P1  7948  0.99
      L1  C     3    22       P1  8028  1.00

> <Gold.PLP.Chemscore.Internal.Correction>
0.0072

> <Gold.Rescore>
     Score         DG    S(hbond)    S(metal)    S(lipo)     H(rot)  DE(clash)    DE(int)     intcor
     15.52     -17.60       1.96        0.00      75.06       1.25       1.71       0.36       ----

> <Gold.Chemscore.Fitness>
15.5248

> <Gold.Chemscore.DG>
-17.6032

> <Gold.Chemscore.ZeroCoef>
-5.4800

> <Gold.Chemscore.Hbond>
1.9566

> <Gold.Chemscore.Metal>
0.0000

> <Gold.Chemscore.Lipo>
75.0650

> <Gold.Chemscore.Internal_Hbond>
0.0000

> <Gold.Chemscore.DEClash>
1.7147

> <Gold.Chemscore.DEInternal>
0.3637

> <Gold.Chemscore.Rot>
1.2478

> <Gold.Chemscore.Internal.Correction>
   9.000000E+99

> <Gold.Chemscore.Hbonds>
donor molecule, donor type, donor heavy atom, donor atom, acceptor molecule, acceptor atom, score
      L1  H     7    25       P1  7948  1.00
      L1  H    10    26       P1  7948  0.93

> <Gold.Chemscore.Hbond.Weighted>
-6.5350

> <Gold.Chemscore.Metal.Weighted>
-0.0000

> <Gold.Chemscore.Lipo.Weighted>
-8.7826

> <Gold.Chemscore.Internal_Hbond.Weighted>
0.0000

> <Gold.Chemscore.DEClash.Weighted>
1.7147

> <Gold.Chemscore.DEInternal.Weighted>
0.3637

> <Gold.Chemscore.Rot.Weighted>
3.1944

> <Gold.Chemscore.Internal.Correction.Weighted>
   9.000000E+99

> <Gold.Protein.RotatedTorsions>
[ 6907 6896 6895 6894 ] final   92.13 input  -60.11 | X-H torsion
[ 7974 7965 7964 7962 ] final -171.40 input  175.53 | X-H torsion
[ 8008 7997 7996 7995 ] final   10.84 input   59.86 | X-H torsion
[ 10167 10162 10161 10158 ] final  121.97 input  -65.29 | X-H torsion
[ 10718 10713 10712 10709 ] final   -5.47 input   66.30 | X-H torsion
[ 10763 10752 10751 10750 ] final -122.57 input  -60.55 | X-H torsion
[ 11005 11000 10999 10996 ] final  -27.91 input  -57.11 | X-H torsion

> <Gold.Protein.ActiveResidues>
 VAL166  LYS551  ARG553  GLY616  TRP617  ASP618  TYR619  PRO620  LYS621  CYS622 
 ASP623  PHE694  ASN695  SER759  ASP760  ASP761  ALA762  ILE779  LEU786  VAL792 
 PHE793  MET794  SER795  GLU796  ALA797  LYS798  CYS799  TRP800  GLU811  SER814 

> <Gold.Protein.RotatedAtoms>
  152.5452  134.1550  159.8533 H   0  0  0  0  0  0  0  0  0  0  0  0  # atno 6907 bound_to 6896
  151.1573  133.4861  159.2602 H   0  0  0  0  0  0  0  0  0  0  0  0  # atno 6908 bound_to 6896
  151.1409  135.0190  159.8680 H   0  0  0  0  0  0  0  0  0  0  0  0  # atno 6909 bound_to 6896
  144.7157  140.1928  143.6346 H   0  0  0  0  0  0  0  0  0  0  0  0  # atno 7974 bound_to 7965
  154.7988  140.2848  155.5936 H   0  0  0  0  0  0  0  0  0  0  0  0  # atno 8008 bound_to 7997
  156.2974  140.2590  156.2781 H   0  0  0  0  0  0  0  0  0  0  0  0  # atno 8009 bound_to 7997
  154.9582  140.0378  157.2167 H   0  0  0  0  0  0  0  0  0  0  0  0  # atno 8010 bound_to 7997
  139.5887  144.7017  151.3344 H   0  0  0  0  0  0  0  0  0  0  0  0  # atno 10167 bound_to 10162
  156.7461  130.5224  149.5814 H   0  0  0  0  0  0  0  0  0  0  0  0  # atno 10718 bound_to 10713
  154.8692  135.4128  154.2803 H   0  0  0  0  0  0  0  0  0  0  0  0  # atno 10763 bound_to 10752
  153.3697  135.7007  153.6653 H   0  0  0  0  0  0  0  0  0  0  0  0  # atno 10764 bound_to 10752
  153.5519  135.3627  155.2735 H   0  0  0  0  0  0  0  0  0  0  0  0  # atno 10765 bound_to 10752
  140.9162  133.7429  156.0738 H   0  0  0  0  0  0  0  0  0  0  0  0  # atno 11005 bound_to 11000
  145.8752  139.2293  143.1637 LP  0  0  0  0  0  0  0  0  0  0  0  0  # atno 17320 bound_to 7965
  146.0047  140.8489  143.0001 LP  0  0  0  0  0  0  0  0  0  0  0  0  # atno 17321 bound_to 7965
  140.7154  143.7280  150.7645 LP  0  0  0  0  0  0  0  0  0  0  0  0  # atno 17342 bound_to 10162
  140.0831  143.4950  152.2520 LP  0  0  0  0  0  0  0  0  0  0  0  0  # atno 17343 bound_to 10162
  156.1432  130.6259  151.0496 LP  0  0  0  0  0  0  0  0  0  0  0  0  # atno 17370 bound_to 10713
  157.6797  131.0841  150.7401 LP  0  0  0  0  0  0  0  0  0  0  0  0  # atno 17371 bound_to 10713
  140.8047  134.3468  157.5429 LP  0  0  0  0  0  0  0  0  0  0  0  0  # atno 17394 bound_to 11000
  139.8766  134.9219  156.3286 LP  0  0  0  0  0  0  0  0  0  0  0  0  # atno 17395 bound_to 11000

$$$$
