#       Name:                AV-unprocessed.smi:2212
#       Creating user name   scv26
#       Creation time:       Fri Mar 27 12:17:15 2020


#       File generated by GOLD software.
#

@<TRIPOS>MOLECULE
AV-unprocessed.smi:2212
    38    39     1
SMALL
NO_CHARGES


@<TRIPOS>ATOM
      1 ****        -1.8655   2.0446  -1.7921 C.3            1 S1                 0.0000
      2 ****        -2.2706   1.0564  -0.8540 O.3            1 S1                 0.0000
      3 ****        -1.7919  -0.2676  -1.0937 C.3            1 S1                 0.0000
      4 ****        -0.2621  -0.3568  -0.9961 C.3            1 S1                 0.0000
      5 ****         0.2049   0.1160   0.3009 N.am           1 S1                 0.0000
      6 ****         1.4808   0.1138   0.7083 C.2            1 S1                 0.0000
      7 ****         2.3623  -0.3130  -0.0413 O.2            1 S1                 0.0000
      8 ****         1.6565   0.6038   1.9563 N.pl3          1 S1                -1.0000
      9 ****         2.8884   0.6527   2.4884 C.2            1 S1                 0.0000
     10 ****         3.6731   1.7288   2.5689 N.2            1 S1                 0.0000
     11 ****         4.8348   1.3049   3.1955 C.2            1 S1                 0.0000
     12 ****         4.6978  -0.0270   3.4769 C.2            1 S1                 0.0000
     13 ****         3.4728  -0.4488   3.0393 O.3            1 S1                 0.0000
     14 ****        -2.6225  -1.2364  -0.2307 C.3            1 S1                 0.0000
     15 ****        -2.7769  -2.1369  -1.4575 C.3            1 S1                 0.0000
     16 ****        -2.4938  -0.9004  -2.3122 C.3            1 S1                 0.0000
     17 ****        -2.3844   2.9779  -1.5744 H              1 S1                 0.0000
     18 ****        -2.1107   1.7602  -2.8156 H              1 S1                 0.0000
     19 ****        -0.7964   2.2470  -1.7297 H              1 S1                 0.0000
     20 ****         0.0627  -1.3901  -1.1275 H              1 S1                 0.0000
     21 ****         0.2209   0.2125  -1.7905 H              1 S1                 0.0000
     22 ****        -0.4923   0.4762   0.9361 H              1 S1                 0.0000
     23 ****         5.6570   1.9773   3.3900 H              1 S1                 0.0000
     24 ****         5.3279  -0.7657   3.9487 H              1 S1                 0.0000
     25 ****        -2.0817  -1.6935   0.5986 H              1 S1                 0.0000
     26 ****        -3.5733  -0.8136   0.0989 H              1 S1                 0.0000
     27 ****        -1.9934  -2.8929  -1.5302 H              1 S1                 0.0000
     28 ****        -3.7706  -2.5659  -1.5881 H              1 S1                 0.0000
     29 ****        -3.4077  -0.3801  -2.6044 H              1 S1                 0.0000
     30 ****        -1.8455  -1.0832  -3.1696 H              1 S1                 0.0000
     31 ****        -3.2701   1.0252  -0.8547 LP             1 S1                 0.0000
     32 ****        -1.9467   1.3402   0.0485 LP             1 S1                 0.0000
     33 ****         2.1233  -0.6558  -0.9498 LP             1 S1                 0.0000
     34 ****         3.3160  -0.3162   0.2594 LP             1 S1                 0.0000
     35 ****         0.8705   0.9291   2.4820 LP             1 S1                 0.0000
     36 ****         3.4658   2.6515   2.2440 LP             1 S1                 0.0000
     37 ****         3.5749  -1.1705   2.3547 LP             1 S1                 0.0000
     38 ****         2.9261  -0.7898   3.8041 LP             1 S1                 0.0000
@<TRIPOS>BOND
    1    1    2 1     
    2    1   17 1     
    3    1   18 1     
    4    1   19 1     
    5    2    3 1     
    6    3   16 1     
    7    3    4 1     
    8    3   14 1     
    9    4    5 1     
   10    4   20 1     
   11    4   21 1     
   12    5   22 1     
   13    5    6 am    
   14    6    8 1     
   15    6    7 2     
   16    8    9 1     
   17    9   13 1     
   18    9   10 2     
   19   10   11 1     
   20   11   23 1     
   21   11   12 2     
   22   12   24 1     
   23   12   13 1     
   24   14   15 1     
   25   14   25 1     
   26   14   26 1     
   27   15   16 1     
   28   15   27 1     
   29   15   28 1     
   30   16   29 1     
   31   16   30 1     
   32    2   31 1     
   33    2   32 1     
   34    7   33 1     
   35    7   34 1     
   36    8   35 1     
   37   10   36 1     
   38   13   37 1     
   39   13   38 1     
@<TRIPOS>SUBSTRUCTURE
      1 S1             1
@<TRIPOS>SET
LONE_PAIRS      STATIC     ATOMS    <user>   **** ""
8 31 32 33 34 35 36 37 38
DONOR_HYDROGENS      STATIC     ATOMS    <user>   **** ""
1 22
ATOM$BLUE        STATIC     ATOMS    COLORGROUP SYSTEM
8 31 32 33 34 35 36 37 38
ATOM$RED        STATIC     ATOMS    COLORGROUP SYSTEM
1 22
