AV-unprocessed.smi:790|AV-procd|sdf|3740|dock1
  -GOLD-   22720 1173D 1   1.00000     0.00000
 Structure written by MMmdl.
 38 40  0  0  0  0  0  0  0  0  1 V2000
  150.7778  140.7668  156.4169 O   0  0  0  0  0  0  0  0  0  0  0  0
  150.2821  141.8872  156.2981 C   0  0  0  0  0  0  0  0  0  0  0  0
  150.5239  142.9351  157.1040 N   0  0  0  0  0  0  0  0  0  0  0  0
  151.3566  142.9902  158.2537 C   0  0  0  0  0  0  0  0  0  0  0  0
  151.5987  144.1658  159.0048 C   0  0  0  0  0  0  0  0  0  0  0  0
  152.4593  144.0957  160.1172 C   0  0  0  0  0  0  0  0  0  0  0  0
  153.0514  142.8572  160.4330 C   0  0  0  0  0  0  0  0  0  0  0  0
  152.8416  141.7327  159.7167 N   0  0  0  0  0  0  0  0  0  0  0  0
  152.0163  141.8080  158.6508 C   0  0  0  0  0  0  0  0  0  0  0  0
  149.4371  142.2204  155.3136 N   0  0  0  0  0  0  0  0  0  0  0  0
  148.9960  141.3207  154.2500 C   0  0  2  0  0  0  0  0  0  0  0  0
  147.6477  141.7399  153.6116 C   0  0  2  0  0  0  0  0  0  0  0  0
  146.5629  141.9800  154.6837 C   0  0  0  0  0  0  0  0  0  0  0  0
  146.2871  140.5579  155.2070 C   0  0  0  0  0  0  0  0  0  0  0  0
  147.2233  139.6894  154.3441 C   0  0  1  0  0  0  0  0  0  0  0  0
  147.1730  140.4238  153.0092 C   0  0  0  0  0  0  0  0  0  0  0  0
  148.6870  139.9044  154.7999 C   0  0  1  0  0  0  0  0  0  0  0  0
  149.6642  138.8369  154.2705 C   0  0  0  0  0  0  0  0  0  0  0  0
  150.9961  139.2906  154.3861 O   0  0  0  0  0  0  0  0  0  0  0  0
  150.1108  143.8134  156.8264 H   0  0  0  0  0  0  0  0  0  0  0  0
  151.1567  145.1148  158.7436 H   0  0  0  0  0  0  0  0  0  0  0  0
  152.6641  144.9730  160.7128 H   0  0  0  0  0  0  0  0  0  0  0  0
  153.7162  142.7689  161.2796 H   0  0  0  0  0  0  0  0  0  0  0  0
  151.8740  140.8896  158.0998 H   0  0  0  0  0  0  0  0  0  0  0  0
  149.0813  143.1648  155.2876 H   0  0  0  0  0  0  0  0  0  0  0  0
  149.7632  141.2635  153.4746 H   0  0  0  0  0  0  0  0  0  0  0  0
  147.7406  142.5594  152.8985 H   0  0  0  0  0  0  0  0  0  0  0  0
  146.8701  142.6673  155.4717 H   0  0  0  0  0  0  0  0  0  0  0  0
  145.6633  142.3945  154.2269 H   0  0  0  0  0  0  0  0  0  0  0  0
  146.4929  140.4580  156.2732 H   0  0  0  0  0  0  0  0  0  0  0  0
  145.2436  140.2869  155.0426 H   0  0  0  0  0  0  0  0  0  0  0  0
  146.9194  138.6430  154.3038 H   0  0  0  0  0  0  0  0  0  0  0  0
  146.1694  140.4780  152.5833 H   0  0  0  0  0  0  0  0  0  0  0  0
  147.8533  140.0199  152.2581 H   0  0  0  0  0  0  0  0  0  0  0  0
  148.7371  139.8942  155.8904 H   0  0  0  0  0  0  0  0  0  0  0  0
  149.5565  137.8934  154.8055 H   0  0  0  0  0  0  0  0  0  0  0  0
  149.4636  138.6338  153.2181 H   0  0  0  0  0  0  0  0  0  0  0  0
  151.5768  138.5775  154.1686 H   0  0  0  0  0  0  0  0  0  0  0  0
  1  2  2  0  0  0  0
  2  3  1  0  0  0  0
  2 10  1  0  0  0  0
  3  4  1  0  0  0  0
  3 20  1  0  0  0  0
  4  9  1  0  0  0  0
  4  5  2  0  0  0  0
  5  6  1  0  0  0  0
  5 21  1  0  0  0  0
  6  7  2  0  0  0  0
  6 22  1  0  0  0  0
  7  8  1  0  0  0  0
  7 23  1  0  0  0  0
  8  9  2  0  0  0  0
  9 24  1  0  0  0  0
 10 11  1  0  0  0  0
 10 25  1  0  0  0  0
 11 17  1  0  0  0  0
 11 12  1  0  0  0  0
 11 26  1  0  0  0  0
 12 16  1  0  0  0  0
 12 13  1  0  0  0  0
 12 27  1  0  0  0  0
 13 14  1  0  0  0  0
 13 28  1  0  0  0  0
 13 29  1  0  0  0  0
 14 15  1  0  0  0  0
 14 30  1  0  0  0  0
 14 31  1  0  0  0  0
 15 16  1  0  0  0  0
 15 17  1  0  0  0  0
 15 32  1  0  0  0  0
 16 33  1  0  0  0  0
 16 34  1  0  0  0  0
 17 18  1  0  0  0  0
 17 35  1  0  0  0  0
 18 19  1  0  0  0  0
 18 36  1  0  0  0  0
 18 37  1  0  0  0  0
 19 38  1  0  0  0  0
M  END
> <s_m_source_file>
AV-unprocessed.smi

> <i_m_source_file_index>
790

> <i_lp_mmshare_version>
43012

> <i_f3d_flags>
0

> <s_epik_input>
W0NIMl0xW0NIMl1bQ0BASF0oW0NIMl0yKVtDQEBIXShbQ0gyXVtPSF0pW0NAQEhdKFtDQEhdMTIpW05IXUMoPU8pW05IXWMzW2NIXVtjSF1bY0hdbltjSF0z

> <s_epik_cmdline>
J2VwaWtfcHl0aG9uJywgJy1waCcsICc3LjAnLCAnLXRuJywgJzgnLCAnLW1hJywgJzIwMCcsICctbWV0YWxfYmluZGluZycsICctaW1hZScsICc8aW5maWxlLm1hZT4nLCAnLW9tYWUnLCAnPG91dGZpbGUubWFlPic=

> <r_epik_Ionization_Penalty>
0.00497582

> <r_epik_Ionization_Penalty_Charging>
0

> <r_epik_Ionization_Penalty_Neutral>
0.00497582

> <r_epik_State_Penalty>
0.00358602

> <r_epik_Charging_Adjusted_Penalty>
0.00358602

> <i_epik_Tot_Q>
0

> <i_epik_Tot_abs_Q>
0

> <r_epik_Metal_State_Penalty>
-0

> <b_epik_Metal_Only>
0

> <s_lp_Force_Field>
OPLS_2005

> <r_lp_Energy>
50.978

> <b_lp_Chiralities_Consistent>
1

> <s_lp_Variant>
AV-unprocessed.smi:790-1

> <Gold.Version>
5.8.1

> <Gold.Id.Protein>
6NUR|6NUR_protein|mol2

> <Gold.PLP.Fitness>
47.0670

> <Gold.PLP.PLP>
-38.9183

> <Gold.PLP.part.hbond>
-3.0000

> <Gold.PLP.part.metal>
0.0000

> <Gold.PLP.part.buried>
-5.1167

> <Gold.PLP.part.nonpolar>
-30.7032

> <Gold.PLP.part.repulsive>
0.2335

> <Gold.PLP.ligand.clash>
0.0000

> <Gold.PLP.ligand.torsion>
0.4001

> <Gold.PLP.Chemscore.Hbond>
2.9760

> <Gold.PLP.Chemscore.CHOScore>
0.0000

> <Gold.PLP.Chemscore.Metal>
0.0000

> <Gold.Chemscore.Hbonds>
donor molecule, donor type, donor heavy atom, donor atom, acceptor molecule, acceptor atom, score
      L1  H     3    20       P1  8028  0.96
      L1  H    10    25       P1  8028  1.00
      P1  H  7989  7998       L1    19  1.00

> <Gold.PLP.Chemscore.Internal.Correction>
0.0210

> <Gold.Rescore>
     Score         DG    S(hbond)    S(metal)    S(lipo)     H(rot)  DE(clash)    DE(int)     intcor
     19.40     -22.55       2.82        0.00     104.17       1.78       0.06       3.09       ----

> <Gold.Chemscore.Fitness>
19.4017

> <Gold.Chemscore.DG>
-22.5491

> <Gold.Chemscore.ZeroCoef>
-5.4800

> <Gold.Chemscore.Hbond>
2.8246

> <Gold.Chemscore.Metal>
0.0000

> <Gold.Chemscore.Lipo>
104.1656

> <Gold.Chemscore.Internal_Hbond>
0.0000

> <Gold.Chemscore.DEClash>
0.0565

> <Gold.Chemscore.DEInternal>
3.0909

> <Gold.Chemscore.Rot>
1.7783

> <Gold.Chemscore.Internal.Correction>
   9.000000E+99

> <Gold.Chemscore.Hbonds>
donor molecule, donor type, donor heavy atom, donor atom, acceptor molecule, acceptor atom, score
      L1  H     3    20       P1  8028  0.92
      L1  H    10    25       P1  8028  0.98
      P1  H  7989  7998       L1    19  0.60

> <Gold.Chemscore.Hbond.Weighted>
-9.4343

> <Gold.Chemscore.Metal.Weighted>
-0.0000

> <Gold.Chemscore.Lipo.Weighted>
-12.1874

> <Gold.Chemscore.Internal_Hbond.Weighted>
0.0000

> <Gold.Chemscore.DEClash.Weighted>
0.0565

> <Gold.Chemscore.DEInternal.Weighted>
3.0909

> <Gold.Chemscore.Rot.Weighted>
4.5525

> <Gold.Chemscore.Internal.Correction.Weighted>
   9.000000E+99

> <Gold.Protein.RotatedTorsions>
[ 6907 6896 6895 6894 ] final   17.62 input  -60.11 | X-H torsion
[ 7974 7965 7964 7962 ] final   82.54 input  175.53 | X-H torsion
[ 8008 7997 7996 7995 ] final -137.03 input   59.86 | X-H torsion
[ 10167 10162 10161 10158 ] final -162.91 input  -65.29 | X-H torsion
[ 10718 10713 10712 10709 ] final -168.87 input   66.30 | X-H torsion
[ 10763 10752 10751 10750 ] final  -66.92 input  -60.55 | X-H torsion
[ 11005 11000 10999 10996 ] final   53.64 input  -57.11 | X-H torsion

> <Gold.Protein.ActiveResidues>
 VAL166  LYS551  ARG553  GLY616  TRP617  ASP618  TYR619  PRO620  LYS621  CYS622 
 ASP623  PHE694  ASN695  SER759  ASP760  ASP761  ALA762  ILE779  LEU786  VAL792 
 PHE793  MET794  SER795  GLU796  ALA797  LYS798  CYS799  TRP800  GLU811  SER814 

> <Gold.Protein.RotatedAtoms>
  151.8525  135.0553  160.0460 H   0  0  0  0  0  0  0  0  0  0  0  0  # atno 6907 bound_to 6896
  152.2726  133.5391  159.5456 H   0  0  0  0  0  0  0  0  0  0  0  0  # atno 6908 bound_to 6896
  150.7157  134.0593  159.3868 H   0  0  0  0  0  0  0  0  0  0  0  0  # atno 6909 bound_to 6896
  145.6237  139.2391  143.2124 H   0  0  0  0  0  0  0  0  0  0  0  0  # atno 7974 bound_to 7965
  155.4051  140.0508  157.3035 H   0  0  0  0  0  0  0  0  0  0  0  0  # atno 8008 bound_to 7997
  154.4972  140.2143  155.9382 H   0  0  0  0  0  0  0  0  0  0  0  0  # atno 8009 bound_to 7997
  156.1421  140.3152  155.8517 H   0  0  0  0  0  0  0  0  0  0  0  0  # atno 8010 bound_to 7997
  139.6358  144.0352  152.2053 H   0  0  0  0  0  0  0  0  0  0  0  0  # atno 10167 bound_to 10162
  156.7032  130.9204  151.3082 H   0  0  0  0  0  0  0  0  0  0  0  0  # atno 10718 bound_to 10713
  154.3668  135.6104  153.5719 H   0  0  0  0  0  0  0  0  0  0  0  0  # atno 10763 bound_to 10752
  152.9791  135.5828  154.4568 H   0  0  0  0  0  0  0  0  0  0  0  0  # atno 10764 bound_to 10752
  154.4315  135.2848  155.1886 H   0  0  0  0  0  0  0  0  0  0  0  0  # atno 10765 bound_to 10752
  140.0751  134.5416  155.9005 H   0  0  0  0  0  0  0  0  0  0  0  0  # atno 11005 bound_to 11000
  146.1411  140.7057  142.9367 LP  0  0  0  0  0  0  0  0  0  0  0  0  # atno 17320 bound_to 7965
  144.7221  140.4406  143.7000 LP  0  0  0  0  0  0  0  0  0  0  0  0  # atno 17321 bound_to 7965
  140.0029  144.6280  150.7714 LP  0  0  0  0  0  0  0  0  0  0  0  0  # atno 17342 bound_to 10162
  140.7465  143.2891  151.3380 LP  0  0  0  0  0  0  0  0  0  0  0  0  # atno 17343 bound_to 10162
  157.6965  130.9287  150.0659 LP  0  0  0  0  0  0  0  0  0  0  0  0  # atno 17370 bound_to 10713
  156.1714  130.3646  149.9160 LP  0  0  0  0  0  0  0  0  0  0  0  0  # atno 17371 bound_to 10713
  141.2026  133.6626  156.6017 LP  0  0  0  0  0  0  0  0  0  0  0  0  # atno 17394 bound_to 11000
  140.3570  134.7720  157.4507 LP  0  0  0  0  0  0  0  0  0  0  0  0  # atno 17395 bound_to 11000

$$$$
