AV-unprocessed.smi:2179|AV-procd|sdf|8858|dock2
  -GOLD-   2272012 53D 1   1.00000     0.00000
 Structure written by MMmdl.
 47 48  0  0  0  0  0  0  0  0  1 V2000
  145.0414  134.9500  150.9331 C   0  0  0  0  0  0  0  0  0  0  0  0
  144.9244  136.1070  151.9190 C   0  0  0  0  0  0  0  0  0  0  0  0
  143.8167  136.4742  152.3105 O   0  0  0  0  0  0  0  0  0  0  0  0
  146.0765  136.6698  152.3141 N   0  0  0  0  0  0  0  0  0  0  0  0
  146.1816  137.7805  153.2537 C   0  0  0  0  0  0  0  0  0  0  0  0
  146.8182  139.0250  152.6027 C   0  0  0  0  0  0  0  0  0  0  0  0
  147.6837  139.7414  153.5328 N   0  0  0  0  0  0  0  0  0  0  0  0
  147.2949  140.7238  154.3611 C   0  0  0  0  0  0  0  0  0  0  0  0
  146.1432  141.1564  154.4104 O   0  0  0  0  0  0  0  0  0  0  0  0
  148.3480  141.2232  155.3070 C   0  0  0  0  0  0  0  0  0  0  0  0
  149.7236  141.1406  155.0001 C   0  0  0  0  0  0  0  0  0  0  0  0
  150.6637  141.6325  155.9255 C   0  0  0  0  0  0  0  0  0  0  0  0
  150.2075  142.2070  157.1356 C   0  0  0  0  0  0  0  0  0  0  0  0
  151.1318  142.6962  158.0839 N   0  0  0  0  0  0  0  0  0  0  0  0
  151.9358  141.6939  158.7757 C   0  0  0  0  0  0  0  0  0  0  0  0
  152.5914  142.3056  160.0269 C   0  0  1  0  0  0  0  0  0  0  0  0
  153.5501  141.3236  160.7088 C   0  0  0  0  0  0  0  0  0  0  0  0
  153.3369  143.4655  159.6588 O   0  0  0  0  0  0  0  0  0  0  0  0
  152.5759  144.4837  159.0054 C   0  0  2  0  0  0  0  0  0  0  0  0
  151.6132  145.1997  159.9694 C   0  0  0  0  0  0  0  0  0  0  0  0
  151.8790  143.9088  157.7568 C   0  0  0  0  0  0  0  0  0  0  0  0
  148.8855  142.2943  157.4232 N   0  0  0  0  0  0  0  0  0  0  0  0
  147.9876  141.8219  156.5328 C   0  0  0  0  0  0  0  0  0  0  0  0
  145.6027  134.1272  151.3765 H   0  0  0  0  0  0  0  0  0  0  0  0
  145.5540  135.2715  150.0261 H   0  0  0  0  0  0  0  0  0  0  0  0
  144.0549  134.5783  150.6538 H   0  0  0  0  0  0  0  0  0  0  0  0
  146.9396  136.3050  151.9377 H   0  0  0  0  0  0  0  0  0  0  0  0
  145.1628  138.0257  153.5545 H   0  0  0  0  0  0  0  0  0  0  0  0
  146.6982  137.4810  154.1673 H   0  0  0  0  0  0  0  0  0  0  0  0
  147.3857  138.7564  151.7110 H   0  0  0  0  0  0  0  0  0  0  0  0
  146.0319  139.7027  152.2655 H   0  0  0  0  0  0  0  0  0  0  0  0
  148.6434  139.4324  153.5865 H   0  0  0  0  0  0  0  0  0  0  0  0
  150.0665  140.7037  154.0733 H   0  0  0  0  0  0  0  0  0  0  0  0
  151.7170  141.5476  155.7038 H   0  0  0  0  0  0  0  0  0  0  0  0
  151.3421  140.8306  159.0717 H   0  0  0  0  0  0  0  0  0  0  0  0
  152.7020  141.3295  158.0902 H   0  0  0  0  0  0  0  0  0  0  0  0
  151.8198  142.5771  160.7478 H   0  0  0  0  0  0  0  0  0  0  0  0
  153.0277  140.4203  161.0252 H   0  0  0  0  0  0  0  0  0  0  0  0
  154.0024  141.7723  161.5936 H   0  0  0  0  0  0  0  0  0  0  0  0
  154.3560  141.0274  160.0367 H   0  0  0  0  0  0  0  0  0  0  0  0
  153.2949  145.2306  158.6680 H   0  0  0  0  0  0  0  0  0  0  0  0
  151.1478  146.0571  159.4826 H   0  0  0  0  0  0  0  0  0  0  0  0
  152.1444  145.5678  160.8471 H   0  0  0  0  0  0  0  0  0  0  0  0
  150.8090  144.5490  160.3120 H   0  0  0  0  0  0  0  0  0  0  0  0
  152.6252  143.6642  156.9999 H   0  0  0  0  0  0  0  0  0  0  0  0
  151.2202  144.6644  157.3267 H   0  0  0  0  0  0  0  0  0  0  0  0
  146.9506  141.9192  156.8195 H   0  0  0  0  0  0  0  0  0  0  0  0
  1  2  1  0  0  0  0
  1 24  1  0  0  0  0
  1 25  1  0  0  0  0
  1 26  1  0  0  0  0
  2  3  2  0  0  0  0
  2  4  1  0  0  0  0
  4  5  1  0  0  0  0
  4 27  1  0  0  0  0
  5  6  1  0  0  0  0
  5 28  1  0  0  0  0
  5 29  1  0  0  0  0
  6  7  1  0  0  0  0
  6 30  1  0  0  0  0
  6 31  1  0  0  0  0
  7  8  1  0  0  0  0
  7 32  1  0  0  0  0
  8  9  2  0  0  0  0
  8 10  1  0  0  0  0
 10 23  1  0  0  0  0
 10 11  2  0  0  0  0
 11 12  1  0  0  0  0
 11 33  1  0  0  0  0
 12 13  2  0  0  0  0
 12 34  1  0  0  0  0
 13 14  1  0  0  0  0
 13 22  1  0  0  0  0
 14 21  1  0  0  0  0
 14 15  1  0  0  0  0
 15 16  1  0  0  0  0
 15 35  1  0  0  0  0
 15 36  1  0  0  0  0
 16 17  1  0  0  0  0
 16 18  1  0  0  0  0
 16 37  1  0  0  0  0
 17 38  1  0  0  0  0
 17 39  1  0  0  0  0
 17 40  1  0  0  0  0
 18 19  1  0  0  0  0
 19 20  1  0  0  0  0
 19 21  1  0  0  0  0
 19 41  1  0  0  0  0
 20 42  1  0  0  0  0
 20 43  1  0  0  0  0
 20 44  1  0  0  0  0
 21 45  1  0  0  0  0
 21 46  1  0  0  0  0
 22 23  2  0  0  0  0
 23 47  1  0  0  0  0
M  END
> <s_m_source_file>
AV-unprocessed.smi

> <i_m_source_file_index>
2179

> <i_lp_mmshare_version>
43012

> <i_f3d_flags>
0

> <s_epik_input>
W0NIM11DKD1PKVtOSF1bQ0gyXVtDSDJdW05IXUMoPU8pYzFbY0hdW2NIXWMobltjSF0xKU4yW0NIMl1bQ0BASF0oW0NIM10pT1tDQEBIXShbQ0gzXSlbQ0gyXTI=

> <s_epik_cmdline>
J2VwaWtfcHl0aG9uJywgJy1waCcsICc3LjAnLCAnLXRuJywgJzgnLCAnLW1hJywgJzIwMCcsICctbWV0YWxfYmluZGluZycsICctaW1hZScsICc8aW5maWxlLm1hZT4nLCAnLW9tYWUnLCAnPG91dGZpbGUubWFlPic=

> <r_lp_tautomer_probability>
1

> <r_epik_Ionization_Penalty>
2.00433e-05

> <r_epik_Ionization_Penalty_Charging>
0

> <r_epik_Ionization_Penalty_Neutral>
2.00433e-05

> <r_epik_State_Penalty>
-0

> <r_epik_Charging_Adjusted_Penalty>
0

> <i_epik_Tot_Q>
0

> <i_epik_Tot_abs_Q>
0

> <r_epik_Metal_State_Penalty>
-0

> <b_epik_Metal_Only>
0

> <s_lp_Force_Field>
OPLS_2005

> <r_lp_Energy>
19.9446

> <b_lp_Chiralities_Consistent>
1

> <s_lp_Variant>
AV-unprocessed.smi:2179-3

> <Gold.Version>
5.8.1

> <Gold.Id.Protein>
6NUR|6NUR_protein|mol2

> <Gold.PLP.Fitness>
47.6649

> <Gold.PLP.PLP>
-46.0108

> <Gold.PLP.part.hbond>
-1.9839

> <Gold.PLP.part.metal>
0.0000

> <Gold.PLP.part.buried>
-6.0085

> <Gold.PLP.part.nonpolar>
-39.5215

> <Gold.PLP.part.repulsive>
0.8917

> <Gold.PLP.ligand.clash>
0.0000

> <Gold.PLP.ligand.torsion>
0.8812

> <Gold.PLP.Chemscore.Hbond>
1.0000

> <Gold.PLP.Chemscore.CHOScore>
0.0000

> <Gold.PLP.Chemscore.Metal>
0.0000

> <Gold.Chemscore.Hbonds>
donor molecule, donor type, donor heavy atom, donor atom, acceptor molecule, acceptor atom, score
      L1  H     4    27       P1  7948  1.00

> <Gold.PLP.Chemscore.Internal.Correction>
0.4164

> <Gold.Rescore>
     Score         DG    S(hbond)    S(metal)    S(lipo)     H(rot)  DE(clash)    DE(int)     intcor
     16.21     -17.18       1.00        0.00     112.23       1.86       0.03       0.93       ----

> <Gold.Chemscore.Fitness>
16.2145

> <Gold.Chemscore.DG>
-17.1786

> <Gold.Chemscore.ZeroCoef>
-5.4800

> <Gold.Chemscore.Hbond>
0.9955

> <Gold.Chemscore.Metal>
0.0000

> <Gold.Chemscore.Lipo>
112.2347

> <Gold.Chemscore.Internal_Hbond>
0.0000

> <Gold.Chemscore.DEClash>
0.0347

> <Gold.Chemscore.DEInternal>
0.9294

> <Gold.Chemscore.Rot>
1.8586

> <Gold.Chemscore.Internal.Correction>
   9.000000E+99

> <Gold.Chemscore.Hbonds>
donor molecule, donor type, donor heavy atom, donor atom, acceptor molecule, acceptor atom, score
      L1  H     4    27       P1  7948  0.94

> <Gold.Chemscore.Hbond.Weighted>
-3.3250

> <Gold.Chemscore.Metal.Weighted>
-0.0000

> <Gold.Chemscore.Lipo.Weighted>
-13.1315

> <Gold.Chemscore.Internal_Hbond.Weighted>
0.0000

> <Gold.Chemscore.DEClash.Weighted>
0.0347

> <Gold.Chemscore.DEInternal.Weighted>
0.9294

> <Gold.Chemscore.Rot.Weighted>
4.7579

> <Gold.Chemscore.Internal.Correction.Weighted>
   9.000000E+99

> <Gold.Protein.RotatedTorsions>
[ 6907 6896 6895 6894 ] final   51.12 input  -60.11 | X-H torsion
[ 7974 7965 7964 7962 ] final   -5.66 input  175.53 | X-H torsion
[ 8008 7997 7996 7995 ] final  -82.85 input   59.86 | X-H torsion
[ 10167 10162 10161 10158 ] final    3.87 input  -65.29 | X-H torsion
[ 10718 10713 10712 10709 ] final  -44.17 input   66.30 | X-H torsion
[ 10763 10752 10751 10750 ] final  104.50 input  -60.55 | X-H torsion
[ 11005 11000 10999 10996 ] final  -95.68 input  -57.11 | X-H torsion

> <Gold.Protein.ActiveResidues>
 VAL166  LYS551  ARG553  GLY616  TRP617  ASP618  TYR619  PRO620  LYS621  CYS622 
 ASP623  PHE694  ASN695  SER759  ASP760  ASP761  ALA762  ILE779  LEU786  VAL792 
 PHE793  MET794  SER795  GLU796  ALA797  LYS798  CYS799  TRP800  GLU811  SER814 

> <Gold.Protein.RotatedAtoms>
  152.3092  134.7518  160.0340 H   0  0  0  0  0  0  0  0  0  0  0  0  # atno 6907 bound_to 6896
  151.8004  133.3364  159.3533 H   0  0  0  0  0  0  0  0  0  0  0  0  # atno 6908 bound_to 6896
  150.7312  134.5689  159.5924 H   0  0  0  0  0  0  0  0  0  0  0  0  # atno 6909 bound_to 6896
  146.2348  140.2055  142.8334 H   0  0  0  0  0  0  0  0  0  0  0  0  # atno 7974 bound_to 7965
  154.6129  140.0627  156.9517 H   0  0  0  0  0  0  0  0  0  0  0  0  # atno 8008 bound_to 7997
  155.1943  140.3310  155.4335 H   0  0  0  0  0  0  0  0  0  0  0  0  # atno 8009 bound_to 7997
  156.2387  140.1875  156.7031 H   0  0  0  0  0  0  0  0  0  0  0  0  # atno 8010 bound_to 7997
  140.6564  143.7417  150.7660 H   0  0  0  0  0  0  0  0  0  0  0  0  # atno 10167 bound_to 10162
  156.2414  130.4180  149.8756 H   0  0  0  0  0  0  0  0  0  0  0  0  # atno 10718 bound_to 10713
  153.3668  135.3941  155.1759 H   0  0  0  0  0  0  0  0  0  0  0  0  # atno 10763 bound_to 10752
  154.8688  135.3693  154.5029 H   0  0  0  0  0  0  0  0  0  0  0  0  # atno 10764 bound_to 10752
  153.5493  135.7083  153.5659 H   0  0  0  0  0  0  0  0  0  0  0  0  # atno 10765 bound_to 10752
  141.1434  133.8044  157.0469 H   0  0  0  0  0  0  0  0  0  0  0  0  # atno 11005 bound_to 11000
  144.9748  140.8403  143.5433 LP  0  0  0  0  0  0  0  0  0  0  0  0  # atno 17320 bound_to 7965
  145.2040  139.2237  143.5178 LP  0  0  0  0  0  0  0  0  0  0  0  0  # atno 17321 bound_to 7965
  140.1078  143.4728  152.2388 LP  0  0  0  0  0  0  0  0  0  0  0  0  # atno 17342 bound_to 10162
  139.5787  144.7500  151.3696 LP  0  0  0  0  0  0  0  0  0  0  0  0  # atno 17343 bound_to 10162
  156.6337  130.8676  151.3500 LP  0  0  0  0  0  0  0  0  0  0  0  0  # atno 17370 bound_to 10713
  157.7177  130.9517  150.1316 LP  0  0  0  0  0  0  0  0  0  0  0  0  # atno 17371 bound_to 10713
  140.0657  134.9730  157.1381 LP  0  0  0  0  0  0  0  0  0  0  0  0  # atno 17394 bound_to 11000
  140.3783  134.2314  155.7172 LP  0  0  0  0  0  0  0  0  0  0  0  0  # atno 17395 bound_to 11000

$$$$
