#       Name:                AV-unprocessed.smi:2822
#       Creating user name   scv26
#       Creation time:       Fri Mar 27 15:31:42 2020


#       File generated by GOLD software.
#

@<TRIPOS>MOLECULE
AV-unprocessed.smi:2822
    43    45     1
SMALL
NO_CHARGES


@<TRIPOS>ATOM
      1 ****        -5.3003  -0.2468   1.1684 Cl             1 S1                 0.0000
      2 ****        -4.4563   1.2602   1.2528 C.ar           1 S1                 0.0000
      3 ****        -5.1786   2.4701   1.2009 C.ar           1 S1                 0.0000
      4 ****        -4.5966   3.6864   1.2567 N.ar           1 S1                 0.0000
      5 ****        -3.2531   3.7356   1.3701 C.ar           1 S1                 0.0000
      6 ****        -2.4367   2.5883   1.4309 C.ar           1 S1                 0.0000
      7 ****        -3.0483   1.3140   1.3697 C.ar           1 S1                 0.0000
      8 ****        -2.3126   0.1205   1.4205 N.pl3          1 S1                 0.0000
      9 ****        -0.8615   0.1275   1.3226 C.3            1 S1                 0.0000
     10 ****        -0.3020  -1.3008   1.1696 C.3            1 S1                 0.0000
     11 ****         1.2371  -1.3544   1.1891 C.3            1 S1                 0.0000
     12 ****         1.8138  -0.7994  -0.0580 N.4            1 S1                 1.0000
     13 ****         3.2988  -0.8098  -0.0398 C.3            1 S1                 0.0000
     14 ****         3.8758  -0.1527  -1.3033 C.3            1 S1                 0.0000
     15 ****         3.3377  -0.8356  -2.5664 C.3            1 S1                 0.0000
     16 ****         1.8035  -0.8321  -2.5505 C.3            1 S1                 0.0000
     17 ****         1.2520  -1.4728  -1.2604 C.3            1 S1                 0.0000
     18 ****        -0.2870  -1.4127  -1.2280 C.3            1 S1                 0.0000
     19 ****        -0.7813  -1.9528  -0.0069 O.3            1 S1                 0.0000
     20 ****        -6.2548   2.4611   1.1104 H              1 S1                 0.0000
     21 ****        -2.8130   4.7209   1.4145 H              1 S1                 0.0000
     22 ****        -1.3679   2.7059   1.5258 H              1 S1                 0.0000
     23 ****        -2.7998  -0.7599   1.3248 H              1 S1                 0.0000
     24 ****        -0.5454   0.7639   0.4965 H              1 S1                 0.0000
     25 ****        -0.4615   0.5756   2.2330 H              1 S1                 0.0000
     26 ****        -0.6610  -1.8846   2.0183 H              1 S1                 0.0000
     27 ****         1.6208  -0.8086   2.0520 H              1 S1                 0.0000
     28 ****         1.5628  -2.3900   1.3013 H              1 S1                 0.0000
     29 ****         3.6563  -0.2782   0.8428 H              1 S1                 0.0000
     30 ****         3.6562  -1.8376   0.0429 H              1 S1                 0.0000
     31 ****         3.6172   0.9069  -1.3186 H              1 S1                 0.0000
     32 ****         4.9648  -0.2059  -1.2866 H              1 S1                 0.0000
     33 ****         3.7069  -0.3260  -3.4570 H              1 S1                 0.0000
     34 ****         3.7046  -1.8615  -2.6176 H              1 S1                 0.0000
     35 ****         1.4447   0.1947  -2.6370 H              1 S1                 0.0000
     36 ****         1.4262  -1.3647  -3.4245 H              1 S1                 0.0000
     37 ****         1.5561  -2.5210  -1.2330 H              1 S1                 0.0000
     38 ****        -0.6461  -0.3932  -1.3706 H              1 S1                 0.0000
     39 ****        -0.6988  -1.9982  -2.0504 H              1 S1                 0.0000
     40 ****         1.5291   0.1685  -0.1068 H              1 S1                 0.0000
     41 ****        -5.1428   4.5230   1.2154 LP             1 S1                 0.0000
     42 ****        -1.7789  -1.8842  -0.0168 LP             1 S1                 0.0000
     43 ****        -0.5139  -2.9153   0.0392 LP             1 S1                 0.0000
@<TRIPOS>BOND
    1    1    2 1     
    2    2    7 ar    
    3    2    3 ar    
    4    3    4 ar    
    5    3   20 1     
    6    4    5 ar    
    7    5    6 ar    
    8    5   21 1     
    9    6    7 ar    
   10    6   22 1     
   11    7    8 1     
   12    8    9 1     
   13    8   23 1     
   14    9   10 1     
   15    9   24 1     
   16    9   25 1     
   17   10   19 1     
   18   10   11 1     
   19   10   26 1     
   20   11   12 1     
   21   11   27 1     
   22   11   28 1     
   23   12   17 1     
   24   12   13 1     
   25   12   40 1     
   26   13   14 1     
   27   13   29 1     
   28   13   30 1     
   29   14   15 1     
   30   14   31 1     
   31   14   32 1     
   32   15   16 1     
   33   15   33 1     
   34   15   34 1     
   35   16   17 1     
   36   16   35 1     
   37   16   36 1     
   38   17   18 1     
   39   17   37 1     
   40   18   19 1     
   41   18   38 1     
   42   18   39 1     
   43    4   41 1     
   44   19   42 1     
   45   19   43 1     
@<TRIPOS>SUBSTRUCTURE
      1 S1             1
@<TRIPOS>SET
LONE_PAIRS      STATIC     ATOMS    <user>   **** ""
3 41 42 43
DONOR_HYDROGENS      STATIC     ATOMS    <user>   **** ""
2 23 40
ATOM$BLUE        STATIC     ATOMS    COLORGROUP SYSTEM
3 41 42 43
ATOM$RED        STATIC     ATOMS    COLORGROUP SYSTEM
2 23 40
