AV-unprocessed.smi:3018|AV-procd|sdf|11484|dock8
  -GOLD-   2272016423D 1   1.00000     0.00000
 Structure written by MMmdl.
 44 45  0  0  0  0  0  0  0  0  2 V2000
  150.9250  139.4163  155.1299 C   0  0  0  0  0  0  0  0  0  0  0  0
  152.0728  138.6641  155.8146 C   0  0  0  0  0  0  0  0  0  0  0  0
  152.0221  138.7721  157.3500 C   0  0  1  0  0  0  0  0  0  0  0  0
  151.4134  140.0185  157.6835 O   0  0  0  0  0  0  0  0  0  0  0  0
  152.2592  140.9968  158.2824 C   0  0  0  0  0  0  0  0  0  0  0  0
  152.5124  140.5613  159.7360 C   0  0  0  0  0  0  0  0  0  0  0  0
  153.3437  141.6057  160.4986 C   0  0  0  0  0  0  0  0  0  0  0  0
  152.6750  142.9889  160.4529 C   0  0  0  0  0  0  0  0  0  0  0  0
  152.4119  143.4306  159.0045 C   0  0  0  0  0  0  0  0  0  0  0  0
  151.5836  142.3829  158.2430 C   0  0  0  0  0  0  0  0  0  0  0  0
  151.2087  137.6203  157.9594 C   0  0  0  0  0  0  0  0  0  0  0  0
  151.7482  136.8172  158.7205 O   0  0  0  0  0  0  0  0  0  0  0  0
  149.9140  137.5576  157.6105 N   0  0  0  0  0  0  0  0  0  0  0  0
  148.9412  136.5931  158.1185 C   0  0  0  0  0  0  0  0  0  0  0  0
  148.7408  136.7234  159.6420 C   0  0  0  0  0  0  0  0  0  0  0  0
  147.2946  136.6099  160.0508 C   0  0  0  0  0  0  0  0  0  0  0  0
  146.4561  135.7386  159.6280 N   0  0  0  0  0  0  0  0  0  0  0  0
  145.3248  136.0727  160.2696 N   0  0  0  0  0  0  0  0  0  0  0  0
  145.4994  137.1299  161.0658 C   0  0  0  0  0  0  0  0  0  0  0  0
  144.6054  137.6166  161.7547 O   0  0  0  0  0  0  0  0  0  0  0  0
  146.7865  137.5003  160.9435 N   0  5  0  0  0  0  0  0  0  0  0  0
  144.4787  135.5434  160.1191 H   0  0  0  0  0  0  0  0  0  0  0  0
  150.9984  139.3316  154.0455 H   0  0  0  0  0  0  0  0  0  0  0  0
  150.9432  140.4767  155.3825 H   0  0  0  0  0  0  0  0  0  0  0  0
  149.9559  139.0163  155.4297 H   0  0  0  0  0  0  0  0  0  0  0  0
  152.0487  137.6162  155.5118 H   0  0  0  0  0  0  0  0  0  0  0  0
  153.0192  139.0663  155.4492 H   0  0  0  0  0  0  0  0  0  0  0  0
  153.0441  138.7329  157.7296 H   0  0  0  0  0  0  0  0  0  0  0  0
  153.2225  141.0468  157.7731 H   0  0  0  0  0  0  0  0  0  0  0  0
  151.5599  140.4112  160.2462 H   0  0  0  0  0  0  0  0  0  0  0  0
  153.0250  139.5988  159.7496 H   0  0  0  0  0  0  0  0  0  0  0  0
  153.4766  141.2915  161.5341 H   0  0  0  0  0  0  0  0  0  0  0  0
  154.3418  141.6672  160.0627 H   0  0  0  0  0  0  0  0  0  0  0  0
  151.7329  142.9571  161.0015 H   0  0  0  0  0  0  0  0  0  0  0  0
  153.3028  143.7235  160.9583 H   0  0  0  0  0  0  0  0  0  0  0  0
  151.8947  144.3903  158.9974 H   0  0  0  0  0  0  0  0  0  0  0  0
  153.3620  143.5869  158.4920 H   0  0  0  0  0  0  0  0  0  0  0  0
  151.4439  142.7139  157.2143 H   0  0  0  0  0  0  0  0  0  0  0  0
  150.5877  142.3162  158.6830 H   0  0  0  0  0  0  0  0  0  0  0  0
  149.5648  138.2594  156.9746 H   0  0  0  0  0  0  0  0  0  0  0  0
  147.9951  136.7970  157.6173 H   0  0  0  0  0  0  0  0  0  0  0  0
  149.2063  135.5684  157.8509 H   0  0  0  0  0  0  0  0  0  0  0  0
  149.3315  135.9664  160.1594 H   0  0  0  0  0  0  0  0  0  0  0  0
  149.1364  137.6848  159.9725 H   0  0  0  0  0  0  0  0  0  0  0  0
  1  2  1  0  0  0  0
  1 23  1  0  0  0  0
  1 24  1  0  0  0  0
  1 25  1  0  0  0  0
  2  3  1  0  0  0  0
  2 26  1  0  0  0  0
  2 27  1  0  0  0  0
  3  4  1  0  0  0  0
  3 11  1  0  0  0  0
  3 28  1  0  0  0  0
  4  5  1  0  0  0  0
  5 10  1  0  0  0  0
  5  6  1  0  0  0  0
  5 29  1  0  0  0  0
  6  7  1  0  0  0  0
  6 30  1  0  0  0  0
  6 31  1  0  0  0  0
  7  8  1  0  0  0  0
  7 32  1  0  0  0  0
  7 33  1  0  0  0  0
  8  9  1  0  0  0  0
  8 34  1  0  0  0  0
  8 35  1  0  0  0  0
  9 10  1  0  0  0  0
  9 36  1  0  0  0  0
  9 37  1  0  0  0  0
 10 38  1  0  0  0  0
 10 39  1  0  0  0  0
 11 12  2  0  0  0  0
 11 13  1  0  0  0  0
 13 14  1  0  0  0  0
 13 40  1  0  0  0  0
 14 15  1  0  0  0  0
 14 41  1  0  0  0  0
 14 42  1  0  0  0  0
 15 16  1  0  0  0  0
 15 43  1  0  0  0  0
 15 44  1  0  0  0  0
 16 21  1  0  0  0  0
 16 17  2  0  0  0  0
 17 18  1  0  0  0  0
 18 22  1  0  0  0  0
 18 19  1  0  0  0  0
 19 20  2  0  0  0  0
 19 21  1  0  0  0  0
M  CHG  1  21  -1
M  END
> <s_m_source_file>
AV-unprocessed.smi

> <i_m_source_file_index>
3018

> <i_lp_mmshare_version>
43012

> <i_f3d_flags>
0

> <s_epik_input>
W0NIMl0xW0NIMl1bQ0gyXVtDSDJdW0NIMl1bQ0hdMU9bQ0BASF0oW0NIMl1bQ0gzXSlDKD1PKVtOSF1bQ0gyXVtDSDJdYzJuW25IXWMoPU8pW25IXTI=

> <s_epik_cmdline>
J2VwaWtfcHl0aG9uJywgJy1waCcsICc3LjAnLCAnLXRuJywgJzgnLCAnLW1hJywgJzIwMCcsICctbWV0YWxfYmluZGluZycsICctaW1hZScsICc8aW5maWxlLm1hZT4nLCAnLW9tYWUnLCAnPG91dGZpbGUubWFlPic=

> <r_lp_tautomer_probability>
1

> <r_epik_Ionization_Penalty>
13.7173

> <r_epik_Ionization_Penalty_Charging>
13.7173

> <r_epik_Ionization_Penalty_Neutral>
5.37575e-06

> <r_epik_State_Penalty>
4.05785

> <r_epik_Charging_Adjusted_Penalty>
17.7751

> <i_epik_Tot_Q>
-1

> <i_epik_Tot_abs_Q>
1

> <r_epik_Metal_State_Penalty>
0.460256

> <b_epik_Metal_Only>
1

> <s_lp_Force_Field>
OPLS_2005

> <r_lp_Energy>
25.1559

> <b_lp_Chiralities_Consistent>
1

> <s_lp_Variant>
AV-unprocessed.smi:3018-6

> <Gold.Version>
5.8.1

> <Gold.Id.Protein>
6NUR|6NUR_protein|mol2

> <Gold.PLP.Fitness>
44.3166

> <Gold.PLP.PLP>
-34.7701

> <Gold.PLP.part.hbond>
-3.0000

> <Gold.PLP.part.metal>
0.0000

> <Gold.PLP.part.buried>
-5.1585

> <Gold.PLP.part.nonpolar>
-27.6186

> <Gold.PLP.part.repulsive>
0.0837

> <Gold.PLP.ligand.clash>
0.0000

> <Gold.PLP.ligand.torsion>
1.7036

> <Gold.PLP.Chemscore.Hbond>
4.2650

> <Gold.PLP.Chemscore.CHOScore>
0.0000

> <Gold.PLP.Chemscore.Metal>
0.0000

> <Gold.Chemscore.Hbonds>
donor molecule, donor type, donor heavy atom, donor atom, acceptor molecule, acceptor atom, score
      P1  H  6896  6907       L1    12  0.72
      P1  H  6934  6947       L1    21  2.00

> <Gold.PLP.Chemscore.Internal.Correction>
0.1588

> <Gold.Rescore>
     Score         DG    S(hbond)    S(metal)    S(lipo)     H(rot)  DE(clash)    DE(int)     intcor
     12.97     -14.74       1.97        0.00      88.05       2.98       0.00       1.77       ----

> <Gold.Chemscore.Fitness>
12.9704

> <Gold.Chemscore.DG>
-14.7448

> <Gold.Chemscore.ZeroCoef>
-5.4800

> <Gold.Chemscore.Hbond>
1.9713

> <Gold.Chemscore.Metal>
0.0000

> <Gold.Chemscore.Lipo>
88.0535

> <Gold.Chemscore.Internal_Hbond>
0.0000

> <Gold.Chemscore.DEClash>
0.0000

> <Gold.Chemscore.DEInternal>
1.7744

> <Gold.Chemscore.Rot>
2.9772

> <Gold.Chemscore.Internal.Correction>
   9.000000E+99

> <Gold.Chemscore.Hbonds>
donor molecule, donor type, donor heavy atom, donor atom, acceptor molecule, acceptor atom, score
      P1  H  6896  6907       L1    12  0.68
      P1  H  6934  6947       L1    21  0.94

> <Gold.Chemscore.Hbond.Weighted>
-6.5842

> <Gold.Chemscore.Metal.Weighted>
-0.0000

> <Gold.Chemscore.Lipo.Weighted>
-10.3023

> <Gold.Chemscore.Internal_Hbond.Weighted>
0.0000

> <Gold.Chemscore.DEClash.Weighted>
0.0000

> <Gold.Chemscore.DEInternal.Weighted>
1.7744

> <Gold.Chemscore.Rot.Weighted>
7.6216

> <Gold.Chemscore.Internal.Correction.Weighted>
   9.000000E+99

> <Gold.Protein.RotatedTorsions>
[ 6907 6896 6895 6894 ] final    3.66 input  -60.11 | X-H torsion
[ 7974 7965 7964 7962 ] final -158.66 input  175.53 | X-H torsion
[ 8008 7997 7996 7995 ] final   98.99 input   59.86 | X-H torsion
[ 10167 10162 10161 10158 ] final -154.24 input  -65.29 | X-H torsion
[ 10718 10713 10712 10709 ] final   42.38 input   66.30 | X-H torsion
[ 10763 10752 10751 10750 ] final  106.89 input  -60.55 | X-H torsion
[ 11005 11000 10999 10996 ] final   -2.94 input  -57.11 | X-H torsion

> <Gold.Protein.ActiveResidues>
 VAL166  LYS551  ARG553  GLY616  TRP617  ASP618  TYR619  PRO620  LYS621  CYS622 
 ASP623  PHE694  ASN695  SER759  ASP760  ASP761  ALA762  ILE779  LEU786  VAL792 
 PHE793  MET794  SER795  GLU796  ALA797  LYS798  CYS799  TRP800  GLU811  SER814 

> <Gold.Protein.RotatedAtoms>
  151.6287  135.1025  160.0116 H   0  0  0  0  0  0  0  0  0  0  0  0  # atno 6907 bound_to 6896
  152.4118  133.6971  159.6413 H   0  0  0  0  0  0  0  0  0  0  0  0  # atno 6908 bound_to 6896
  150.8008  133.8527  159.3251 H   0  0  0  0  0  0  0  0  0  0  0  0  # atno 6909 bound_to 6896
  144.7496  140.3796  143.6058 H   0  0  0  0  0  0  0  0  0  0  0  0  # atno 7974 bound_to 7965
  156.1060  140.3235  155.8006 H   0  0  0  0  0  0  0  0  0  0  0  0  # atno 8008 bound_to 7997
  155.4755  140.0550  157.2991 H   0  0  0  0  0  0  0  0  0  0  0  0  # atno 8009 bound_to 7997
  154.4728  140.2019  155.9967 H   0  0  0  0  0  0  0  0  0  0  0  0  # atno 8010 bound_to 7997
  139.7030  143.9232  152.2437 H   0  0  0  0  0  0  0  0  0  0  0  0  # atno 10167 bound_to 10162
  157.4042  130.7877  149.7375 H   0  0  0  0  0  0  0  0  0  0  0  0  # atno 10718 bound_to 10713
  153.3992  135.3862  155.1976 H   0  0  0  0  0  0  0  0  0  0  0  0  # atno 10763 bound_to 10752
  154.8727  135.3767  154.4640 H   0  0  0  0  0  0  0  0  0  0  0  0  # atno 10764 bound_to 10752
  153.5136  135.7087  153.5830 H   0  0  0  0  0  0  0  0  0  0  0  0  # atno 10765 bound_to 10752
  140.6639  133.9296  155.8453 H   0  0  0  0  0  0  0  0  0  0  0  0  # atno 11005 bound_to 11000
  145.6992  139.1657  143.2603 LP  0  0  0  0  0  0  0  0  0  0  0  0  # atno 17320 bound_to 7965
  146.1428  140.7034  142.9359 LP  0  0  0  0  0  0  0  0  0  0  0  0  # atno 17321 bound_to 7965
  139.9080  144.6873  150.8593 LP  0  0  0  0  0  0  0  0  0  0  0  0  # atno 17342 bound_to 10162
  140.7714  143.3464  151.2102 LP  0  0  0  0  0  0  0  0  0  0  0  0  # atno 17343 bound_to 10162
  155.9832  130.4003  150.3377 LP  0  0  0  0  0  0  0  0  0  0  0  0  # atno 17370 bound_to 10713
  157.1508  131.0320  151.2886 LP  0  0  0  0  0  0  0  0  0  0  0  0  # atno 17371 bound_to 10713
  141.0444  134.0575  157.3862 LP  0  0  0  0  0  0  0  0  0  0  0  0  # atno 17394 bound_to 11000
  139.9004  135.0162  156.7238 LP  0  0  0  0  0  0  0  0  0  0  0  0  # atno 17395 bound_to 11000

$$$$
