#       Name:                AV-unprocessed.smi:2023
#       Creating user name   scv26
#       Creation time:       Fri Mar 27 10:44:33 2020


#       File generated by GOLD software.
#

@<TRIPOS>MOLECULE
AV-unprocessed.smi:2023
    39    40     1
SMALL
NO_CHARGES


@<TRIPOS>ATOM
      1 ****         0.8190   2.6272   2.0038 O.2            1 S1                 0.0000
      2 ****         0.4823   2.0003   0.7152 S.o2           1 S1                 0.0000
      3 ****         0.7173   2.7815  -0.5104 O.2            1 S1                 0.0000
      4 ****         0.9794   0.4643   0.5852 N.pl3          1 S1                -1.0000
      5 ****         2.4018   0.1826   0.5080 C.3            1 S1                 0.0000
      6 ****         2.6416  -1.3421   0.4594 C.3            1 S1                 0.0000
      7 ****         2.1241  -2.0299  -0.8000 C.ar           1 S1                 0.0000
      8 ****         2.9416  -2.1653  -1.9431 C.ar           1 S1                 0.0000
      9 ****         2.4236  -2.8180  -3.0780 C.ar           1 S1                 0.0000
     10 ****         1.1059  -3.3135  -3.0227 C.ar           1 S1                 0.0000
     11 ****         0.3146  -3.1986  -1.9350 N.ar           1 S1                 0.0000
     12 ****         0.8185  -2.5692  -0.8512 C.ar           1 S1                 0.0000
     13 ****        -1.2239   1.6787   0.7734 N.3            1 S1                 0.0000
     14 ****        -2.1216   2.7825   0.3928 C.3            1 S1                 0.0000
     15 ****        -3.5718   2.2943   0.2457 C.3            1 S1                 0.0000
     16 ****        -3.9918   1.6369   1.4309 O.3            1 S1                 0.0000
     17 ****        -3.2050   0.4836   1.6847 C.3            1 S1                 0.0000
     18 ****        -1.7378   0.8825   1.9068 C.3            1 S1                 0.0000
     19 ****         2.8632   0.6472  -0.3640 H              1 S1                 0.0000
     20 ****         2.9283   0.5862   1.3731 H              1 S1                 0.0000
     21 ****         3.7124  -1.5342   0.5346 H              1 S1                 0.0000
     22 ****         2.1942  -1.8174   1.3336 H              1 S1                 0.0000
     23 ****         3.9483  -1.7743  -1.9509 H              1 S1                 0.0000
     24 ****         3.0219  -2.9357  -3.9691 H              1 S1                 0.0000
     25 ****         0.6773  -3.8195  -3.8751 H              1 S1                 0.0000
     26 ****         0.1595  -2.4929   0.0013 H              1 S1                 0.0000
     27 ****        -2.0611   3.5624   1.1528 H              1 S1                 0.0000
     28 ****        -1.7908   3.2238  -0.5470 H              1 S1                 0.0000
     29 ****        -4.2327   3.1406   0.0589 H              1 S1                 0.0000
     30 ****        -3.6687   1.6232  -0.6093 H              1 S1                 0.0000
     31 ****        -3.5920  -0.0196   2.5708 H              1 S1                 0.0000
     32 ****        -3.2930  -0.2222   0.8571 H              1 S1                 0.0000
     33 ****        -1.1387  -0.0163   2.0473 H              1 S1                 0.0000
     34 ****        -1.6449   1.4710   2.8201 H              1 S1                 0.0000
     35 ****         0.3141  -0.2818   0.5584 LP             1 S1                 0.0000
     36 ****        -0.6148  -3.5676  -1.9317 LP             1 S1                 0.0000
     37 ****        -1.2640   1.0394   0.0055 LP             1 S1                 0.0000
     38 ****        -4.9485   1.3635   1.3307 LP             1 S1                 0.0000
     39 ****        -3.9045   2.2675   2.2021 LP             1 S1                 0.0000
@<TRIPOS>BOND
    1    1    2 2     
    2    2    3 2     
    3    2    4 1     
    4    2   13 1     
    5    4    5 1     
    6    5    6 1     
    7    5   19 1     
    8    5   20 1     
    9    6    7 1     
   10    6   21 1     
   11    6   22 1     
   12    7   12 ar    
   13    7    8 ar    
   14    8    9 ar    
   15    8   23 1     
   16    9   10 ar    
   17    9   24 1     
   18   10   11 ar    
   19   10   25 1     
   20   11   12 ar    
   21   12   26 1     
   22   13   18 1     
   23   13   14 1     
   24   14   15 1     
   25   14   27 1     
   26   14   28 1     
   27   15   16 1     
   28   15   29 1     
   29   15   30 1     
   30   16   17 1     
   31   17   18 1     
   32   17   31 1     
   33   17   32 1     
   34   18   33 1     
   35   18   34 1     
   36    4   35 1     
   37   11   36 1     
   38   13   37 1     
   39   16   38 1     
   40   16   39 1     
@<TRIPOS>SUBSTRUCTURE
      1 S1             1
@<TRIPOS>SET
LONE_PAIRS      STATIC     ATOMS    <user>   **** ""
7 1 3 35 36 37 38 39
ATOM$BLUE        STATIC     ATOMS    COLORGROUP SYSTEM
7 1 3 35 36 37 38 39
