AV-unprocessed.smi:1959|AV-procd|sdf|7912|dock7
  -GOLD-   2272010 73D 1   1.00000     0.00000
 Structure written by MMmdl.
 44 45  0  0  0  0  0  0  0  0  1 V2000
  153.9409  141.0173  161.4853 C   0  0  0  0  0  0  0  0  0  0  0  0
  153.3307  141.8053  160.3644 C   0  0  0  0  0  0  0  0  0  0  0  0
  153.4232  143.2031  160.1167 C   0  0  0  0  0  0  0  0  0  0  0  0
  152.6799  143.3957  158.9864 C   0  0  0  0  0  0  0  0  0  0  0  0
  152.3853  144.6529  158.2360 C   0  0  0  0  0  0  0  0  0  0  0  0
  152.1891  142.1563  158.6112 N   0  0  0  0  0  0  0  0  0  0  0  0
  151.3206  141.8051  157.4952 C   0  0  0  0  0  0  0  0  0  0  0  0
  151.7626  140.4936  156.8420 C   0  0  0  0  0  0  0  0  0  0  0  0
  152.7530  139.8966  157.2626 O   0  0  0  0  0  0  0  0  0  0  0  0
  151.0034  140.0486  155.8290 N   0  0  0  0  0  0  0  0  0  0  0  0
  151.1212  138.7438  155.1865 C   0  0  2  0  0  0  0  0  0  0  0  0
  152.5261  138.6046  154.5792 C   0  0  0  0  0  0  0  0  0  0  0  0
  150.0227  138.5962  154.1106 C   0  0  0  0  0  0  0  0  0  0  0  0
  148.6410  138.6426  154.5974 N   0  0  0  0  0  0  0  0  0  0  0  0
  147.6704  138.9169  153.5384 C   0  0  0  0  0  0  0  0  0  0  0  0
  146.2219  138.9070  154.0553 C   0  0  0  0  0  0  0  0  0  0  0  0
  145.9469  137.6646  154.6924 O   0  0  0  0  0  0  0  0  0  0  0  0
  146.8351  137.3980  155.7722 C   0  0  0  0  0  0  0  0  0  0  0  0
  148.2830  137.3886  155.2528 C   0  0  0  0  0  0  0  0  0  0  0  0
  152.5945  141.1844  159.4582 N   0  0  0  0  0  0  0  0  0  0  0  0
  154.5583  140.2034  161.1045 H   0  0  0  0  0  0  0  0  0  0  0  0
  153.1702  140.5830  162.1225 H   0  0  0  0  0  0  0  0  0  0  0  0
  154.5724  141.6475  162.1117 H   0  0  0  0  0  0  0  0  0  0  0  0
  153.9511  143.9527  160.6874 H   0  0  0  0  0  0  0  0  0  0  0  0
  152.8754  145.5073  158.7031 H   0  0  0  0  0  0  0  0  0  0  0  0
  151.3144  144.8536  158.2151 H   0  0  0  0  0  0  0  0  0  0  0  0
  152.7408  144.5852  157.2079 H   0  0  0  0  0  0  0  0  0  0  0  0
  150.2920  141.7160  157.8441 H   0  0  0  0  0  0  0  0  0  0  0  0
  151.3388  142.6135  156.7625 H   0  0  0  0  0  0  0  0  0  0  0  0
  150.2188  140.6183  155.5481 H   0  0  0  0  0  0  0  0  0  0  0  0
  150.9943  137.9497  155.9251 H   0  0  0  0  0  0  0  0  0  0  0  0
  152.6551  137.6299  154.1080 H   0  0  0  0  0  0  0  0  0  0  0  0
  153.2980  138.7005  155.3437 H   0  0  0  0  0  0  0  0  0  0  0  0
  152.7099  139.3678  153.8221 H   0  0  0  0  0  0  0  0  0  0  0  0
  150.1696  139.3329  153.3188 H   0  0  0  0  0  0  0  0  0  0  0  0
  150.1683  137.6271  153.6315 H   0  0  0  0  0  0  0  0  0  0  0  0
  147.8609  139.8932  153.0959 H   0  0  0  0  0  0  0  0  0  0  0  0
  147.7748  138.1804  152.7402 H   0  0  0  0  0  0  0  0  0  0  0  0
  146.0569  139.7277  154.7551 H   0  0  0  0  0  0  0  0  0  0  0  0
  145.5251  139.0460  153.2286 H   0  0  0  0  0  0  0  0  0  0  0  0
  146.7076  138.1490  156.5536 H   0  0  0  0  0  0  0  0  0  0  0  0
  146.5834  136.4324  156.2107 H   0  0  0  0  0  0  0  0  0  0  0  0
  148.4078  136.5584  154.5558 H   0  0  0  0  0  0  0  0  0  0  0  0
  148.9608  137.2000  156.0861 H   0  0  0  0  0  0  0  0  0  0  0  0
  1  2  1  0  0  0  0
  1 21  1  0  0  0  0
  1 22  1  0  0  0  0
  1 23  1  0  0  0  0
  2 20  2  0  0  0  0
  2  3  1  0  0  0  0
  3  4  2  0  0  0  0
  3 24  1  0  0  0  0
  4  5  1  0  0  0  0
  4  6  1  0  0  0  0
  5 25  1  0  0  0  0
  5 26  1  0  0  0  0
  5 27  1  0  0  0  0
  6  7  1  0  0  0  0
  6 20  1  0  0  0  0
  7  8  1  0  0  0  0
  7 28  1  0  0  0  0
  7 29  1  0  0  0  0
  8  9  2  0  0  0  0
  8 10  1  0  0  0  0
 10 11  1  0  0  0  0
 10 30  1  0  0  0  0
 11 12  1  0  0  0  0
 11 13  1  0  0  0  0
 11 31  1  0  0  0  0
 12 32  1  0  0  0  0
 12 33  1  0  0  0  0
 12 34  1  0  0  0  0
 13 14  1  0  0  0  0
 13 35  1  0  0  0  0
 13 36  1  0  0  0  0
 14 19  1  0  0  0  0
 14 15  1  0  0  0  0
 15 16  1  0  0  0  0
 15 37  1  0  0  0  0
 15 38  1  0  0  0  0
 16 17  1  0  0  0  0
 16 39  1  0  0  0  0
 16 40  1  0  0  0  0
 17 18  1  0  0  0  0
 18 19  1  0  0  0  0
 18 41  1  0  0  0  0
 18 42  1  0  0  0  0
 19 43  1  0  0  0  0
 19 44  1  0  0  0  0
M  END
> <s_m_source_file>
AV-unprocessed.smi

> <i_m_source_file_index>
1959

> <i_lp_mmshare_version>
43012

> <i_f3d_flags>
0

> <s_epik_input>
W0NIM11jMVtjSF1jKFtDSDNdKW4objEpW0NIMl1DKD1PKVtOSF1bQ0BIXShbQ0gzXSlbQ0gyXU4yW0NIMl1bQ0gyXU9bQ0gyXVtDSDJdMg==

> <s_epik_cmdline>
J2VwaWtfcHl0aG9uJywgJy1waCcsICc3LjAnLCAnLXRuJywgJzgnLCAnLW1hJywgJzIwMCcsICctbWV0YWxfYmluZGluZycsICctaW1hZScsICc8aW5maWxlLm1hZT4nLCAnLW9tYWUnLCAnPG91dGZpbGUubWFlPic=

> <r_lp_tautomer_probability>
1

> <r_epik_Ionization_Penalty>
0.197284

> <r_epik_Ionization_Penalty_Charging>
0

> <r_epik_Ionization_Penalty_Neutral>
0.197284

> <r_epik_State_Penalty>
0.186684

> <r_epik_Charging_Adjusted_Penalty>
0.186684

> <i_epik_Tot_Q>
0

> <i_epik_Tot_abs_Q>
0

> <r_epik_Metal_State_Penalty>
0.186639

> <b_epik_Metal_Only>
0

> <s_lp_Force_Field>
OPLS_2005

> <r_lp_Energy>
23.1408

> <b_lp_Chiralities_Consistent>
1

> <s_lp_Variant>
AV-unprocessed.smi:1959-1

> <Gold.Version>
5.8.1

> <Gold.Id.Protein>
6NUR|6NUR_protein|mol2

> <Gold.PLP.Fitness>
40.5716

> <Gold.PLP.PLP>
-38.3725

> <Gold.PLP.part.hbond>
-1.0000

> <Gold.PLP.part.metal>
0.0000

> <Gold.PLP.part.buried>
-4.3815

> <Gold.PLP.part.nonpolar>
-32.4353

> <Gold.PLP.part.repulsive>
0.3295

> <Gold.PLP.ligand.clash>
0.0000

> <Gold.PLP.ligand.torsion>
0.4152

> <Gold.PLP.Chemscore.Hbond>
1.0000

> <Gold.PLP.Chemscore.CHOScore>
0.0000

> <Gold.PLP.Chemscore.Metal>
0.0000

> <Gold.Chemscore.Hbonds>
donor molecule, donor type, donor heavy atom, donor atom, acceptor molecule, acceptor atom, score
      P1  H  7997  8010       L1     9  1.00

> <Gold.PLP.Chemscore.Internal.Correction>
0.0294

> <Gold.Rescore>
     Score         DG    S(hbond)    S(metal)    S(lipo)     H(rot)  DE(clash)    DE(int)     intcor
     14.30     -16.69       0.98        0.00     104.80       1.70       0.03       2.36       ----

> <Gold.Chemscore.Fitness>
14.3034

> <Gold.Chemscore.DG>
-16.6877

> <Gold.Chemscore.ZeroCoef>
-5.4800

> <Gold.Chemscore.Hbond>
0.9837

> <Gold.Chemscore.Metal>
0.0000

> <Gold.Chemscore.Lipo>
104.8032

> <Gold.Chemscore.Internal_Hbond>
0.0000

> <Gold.Chemscore.DEClash>
0.0259

> <Gold.Chemscore.DEInternal>
2.3583

> <Gold.Chemscore.Rot>
1.6952

> <Gold.Chemscore.Internal.Correction>
   9.000000E+99

> <Gold.Chemscore.Hbonds>
donor molecule, donor type, donor heavy atom, donor atom, acceptor molecule, acceptor atom, score
      P1  H  7997  8010       L1     9  0.99

> <Gold.Chemscore.Hbond.Weighted>
-3.2855

> <Gold.Chemscore.Metal.Weighted>
-0.0000

> <Gold.Chemscore.Lipo.Weighted>
-12.2620

> <Gold.Chemscore.Internal_Hbond.Weighted>
0.0000

> <Gold.Chemscore.DEClash.Weighted>
0.0259

> <Gold.Chemscore.DEInternal.Weighted>
2.3583

> <Gold.Chemscore.Rot.Weighted>
4.3398

> <Gold.Chemscore.Internal.Correction.Weighted>
   9.000000E+99

> <Gold.Protein.RotatedTorsions>
[ 6907 6896 6895 6894 ] final  -99.45 input  -60.11 | X-H torsion
[ 7974 7965 7964 7962 ] final  -78.68 input  175.53 | X-H torsion
[ 8008 7997 7996 7995 ] final   61.25 input   59.86 | X-H torsion
[ 10167 10162 10161 10158 ] final   65.74 input  -65.29 | X-H torsion
[ 10718 10713 10712 10709 ] final   47.64 input   66.30 | X-H torsion
[ 10763 10752 10751 10750 ] final  170.65 input  -60.55 | X-H torsion
[ 11005 11000 10999 10996 ] final   83.13 input  -57.11 | X-H torsion

> <Gold.Protein.ActiveResidues>
 VAL166  LYS551  ARG553  GLY616  TRP617  ASP618  TYR619  PRO620  LYS621  CYS622 
 ASP623  PHE694  ASN695  SER759  ASP760  ASP761  ALA762  ILE779  LEU786  VAL792 
 PHE793  MET794  SER795  GLU796  ALA797  LYS798  CYS799  TRP800  GLU811  SER814 

> <Gold.Protein.RotatedAtoms>
  150.7080  134.1039  159.3975 H   0  0  0  0  0  0  0  0  0  0  0  0  # atno 6907 bound_to 6896
  151.9026  135.0370  160.0517 H   0  0  0  0  0  0  0  0  0  0  0  0  # atno 6908 bound_to 6896
  152.2402  133.5093  159.5302 H   0  0  0  0  0  0  0  0  0  0  0  0  # atno 6909 bound_to 6896
  145.5833  140.9444  143.1332 H   0  0  0  0  0  0  0  0  0  0  0  0  # atno 7974 bound_to 7965
  155.5953  140.3493  155.4578 H   0  0  0  0  0  0  0  0  0  0  0  0  # atno 8008 bound_to 7997
  156.0270  140.1266  157.0323 H   0  0  0  0  0  0  0  0  0  0  0  0  # atno 8009 bound_to 7997
  154.4337  140.1051  156.6031 H   0  0  0  0  0  0  0  0  0  0  0  0  # atno 8010 bound_to 7997
  140.1080  144.4844  150.6996 H   0  0  0  0  0  0  0  0  0  0  0  0  # atno 10167 bound_to 10162
  157.4605  130.8193  149.7881 H   0  0  0  0  0  0  0  0  0  0  0  0  # atno 10718 bound_to 10713
  154.4007  135.2755  155.2098 H   0  0  0  0  0  0  0  0  0  0  0  0  # atno 10763 bound_to 10752
  154.4126  135.6019  153.5965 H   0  0  0  0  0  0  0  0  0  0  0  0  # atno 10764 bound_to 10752
  152.9831  135.5953  154.4274 H   0  0  0  0  0  0  0  0  0  0  0  0  # atno 10765 bound_to 10752
  139.9041  134.8122  156.2268 H   0  0  0  0  0  0  0  0  0  0  0  0  # atno 11005 bound_to 11000
  144.7384  139.7519  143.7320 LP  0  0  0  0  0  0  0  0  0  0  0  0  # atno 17320 bound_to 7965
  146.1700  139.4847  142.9933 LP  0  0  0  0  0  0  0  0  0  0  0  0  # atno 17321 bound_to 7965
  140.6941  143.2393  151.5048 LP  0  0  0  0  0  0  0  0  0  0  0  0  # atno 17342 bound_to 10162
  139.5635  144.2099  152.1728 LP  0  0  0  0  0  0  0  0  0  0  0  0  # atno 17343 bound_to 10162
  156.0026  130.3872  150.2547 LP  0  0  0  0  0  0  0  0  0  0  0  0  # atno 17370 bound_to 10713
  157.0724  131.0120  151.3185 LP  0  0  0  0  0  0  0  0  0  0  0  0  # atno 17371 bound_to 10713
  141.0371  133.6957  156.1531 LP  0  0  0  0  0  0  0  0  0  0  0  0  # atno 17394 bound_to 11000
  140.7011  134.4563  157.5586 LP  0  0  0  0  0  0  0  0  0  0  0  0  # atno 17395 bound_to 11000

$$$$
