#       Name:                AV-unprocessed.smi:942
#       Creating user name   scv26
#       Creation time:       Fri Mar 27 02:13:13 2020


#       File generated by GOLD software.
#

@<TRIPOS>MOLECULE
AV-unprocessed.smi:942
    45    47     1
SMALL
NO_CHARGES


@<TRIPOS>ATOM
      1 ****        -0.1992   1.3193   0.5211 O.2            1 S1                 0.0000
      2 ****        -0.5388   0.5017  -0.3351 C.2            1 S1                 0.0000
      3 ****         0.3400  -0.1958  -1.0718 N.am           1 S1                 0.0000
      4 ****         1.7919  -0.0835  -0.9638 C.3            1 S1                 0.0000
      5 ****         2.4822  -0.6835  -2.2046 C.3            1 S1                 0.0000
      6 ****         3.2764  -1.8986  -1.7166 C.3            1 S1                 0.0000
      7 ****         3.6029  -1.5834  -0.2600 C.3            1 S1                 0.0000
      8 ****         2.3382  -0.8811   0.2445 C.3            1 S1                 0.0000
      9 ****         2.5493  -0.0695   1.4529 N.pl3          1 S1                 0.0000
     10 ****         1.9492  -0.2454   2.6740 C.2            1 S1                 0.0000
     11 ****         2.4272   0.7439   3.4938 C.2            1 S1                 0.0000
     12 ****         3.3010   1.4816   2.7415 N.pl3          1 S1                 1.0000
     13 ****         3.3751   0.9858   1.5023 C.2            1 S1                 0.0000
     14 ****        -2.0253   0.2337  -0.6021 C.3            1 S1                 0.0000
     15 ****        -2.7476   1.5240  -1.0459 C.3            1 S1                 0.0000
     16 ****        -4.2421   1.2686  -1.2996 C.3            1 S1                 0.0000
     17 ****        -4.9216   0.6672  -0.0593 C.3            1 S1                 0.0000
     18 ****        -4.2069  -0.6137   0.3991 C.3            1 S1                 0.0000
     19 ****        -2.7108  -0.3597   0.6475 C.3            1 S1                 0.0000
     20 ****        -0.0208  -0.8483  -1.7530 H              1 S1                 0.0000
     21 ****         2.0657   0.9714  -0.9032 H              1 S1                 0.0000
     22 ****         1.7848  -0.9528  -2.9994 H              1 S1                 0.0000
     23 ****         3.1705   0.0519  -2.6231 H              1 S1                 0.0000
     24 ****         2.6499  -2.7903  -1.7662 H              1 S1                 0.0000
     25 ****         4.1677  -2.0852  -2.3162 H              1 S1                 0.0000
     26 ****         3.8452  -2.4761   0.3173 H              1 S1                 0.0000
     27 ****         4.4644  -0.9158  -0.2198 H              1 S1                 0.0000
     28 ****         1.6213  -1.6621   0.5069 H              1 S1                 0.0000
     29 ****         1.2393  -1.0376   2.8631 H              1 S1                 0.0000
     30 ****         2.2153   0.9728   4.5281 H              1 S1                 0.0000
     31 ****         3.9785   1.3682   0.6983 H              1 S1                 0.0000
     32 ****        -2.1035  -0.4945  -1.4117 H              1 S1                 0.0000
     33 ****        -2.6418   2.2972  -0.2831 H              1 S1                 0.0000
     34 ****        -2.2873   1.9201  -1.9523 H              1 S1                 0.0000
     35 ****        -4.7362   2.1995  -1.5797 H              1 S1                 0.0000
     36 ****        -4.3585   0.5900  -2.1454 H              1 S1                 0.0000
     37 ****        -4.9169   1.3983   0.7503 H              1 S1                 0.0000
     38 ****        -5.9684   0.4520  -0.2760 H              1 S1                 0.0000
     39 ****        -4.6751  -0.9951   1.3069 H              1 S1                 0.0000
     40 ****        -4.3255  -1.3892  -0.3584 H              1 S1                 0.0000
     41 ****        -2.2263  -1.2943   0.9333 H              1 S1                 0.0000
     42 ****        -2.5995   0.3173   1.4960 H              1 S1                 0.0000
     43 ****         3.8147   2.2891   3.0715 H              1 S1                 0.0000
     44 ****         0.7711   1.4888   0.6936 LP             1 S1                 0.0000
     45 ****        -0.8937   1.8138   1.0436 LP             1 S1                 0.0000
@<TRIPOS>BOND
    1    1    2 2     
    2    2    3 am    
    3    2   14 1     
    4    3    4 1     
    5    3   20 1     
    6    4    8 1     
    7    4    5 1     
    8    4   21 1     
    9    5    6 1     
   10    5   22 1     
   11    5   23 1     
   12    6    7 1     
   13    6   24 1     
   14    6   25 1     
   15    7    8 1     
   16    7   26 1     
   17    7   27 1     
   18    8    9 1     
   19    8   28 1     
   20    9   13 1     
   21    9   10 1     
   22   10   11 2     
   23   10   29 1     
   24   11   12 1     
   25   11   30 1     
   26   12   13 2     
   27   12   43 1     
   28   13   31 1     
   29   14   19 1     
   30   14   15 1     
   31   14   32 1     
   32   15   16 1     
   33   15   33 1     
   34   15   34 1     
   35   16   17 1     
   36   16   35 1     
   37   16   36 1     
   38   17   18 1     
   39   17   37 1     
   40   17   38 1     
   41   18   19 1     
   42   18   39 1     
   43   18   40 1     
   44   19   41 1     
   45   19   42 1     
   46    1   44 1     
   47    1   45 1     
@<TRIPOS>SUBSTRUCTURE
      1 S1             1
@<TRIPOS>SET
LONE_PAIRS      STATIC     ATOMS    <user>   **** ""
2 44 45
DONOR_HYDROGENS      STATIC     ATOMS    <user>   **** ""
2 20 43
ATOM$BLUE        STATIC     ATOMS    COLORGROUP SYSTEM
2 44 45
ATOM$RED        STATIC     ATOMS    COLORGROUP SYSTEM
2 20 43
