AV-unprocessed.smi:2135|AV-procd|sdf|8698|dock4
  -GOLD-   2272011453D 1   1.00000     0.00000
 Structure written by MMmdl.
 42 43  0  0  0  0  0  0  0  0  1 V2000
  151.4494  137.5381  158.1266 C   0  0  0  0  0  0  0  0  0  0  0  0
  151.0309  136.0009  157.2090 S   0  0  0  0  0  0  0  0  0  0  0  0
  152.2803  135.2867  156.9045 O   0  0  0  0  0  0  0  0  0  0  0  0
  149.9577  135.3151  157.9448 O   0  0  0  0  0  0  0  0  0  0  0  0
  150.3508  136.5703  155.7123 N   0  0  0  0  0  0  0  0  0  0  0  0
  148.9074  136.8505  155.6010 C   0  0  0  0  0  0  0  0  0  0  0  0
  148.6393  138.3536  155.4271 C   0  0  0  0  0  0  0  0  0  0  0  0
  149.4582  138.9445  154.2650 C   0  0  0  0  0  0  0  0  0  0  0  0
  150.9685  138.6501  154.4141 C   0  0  1  0  0  0  0  0  0  0  0  0
  151.6663  139.5218  155.4762 C   0  0  0  0  0  0  0  0  0  0  0  0
  152.8936  139.5717  155.5621 O   0  0  0  0  0  0  0  0  0  0  0  0
  150.8553  140.1820  156.3178 N   0  0  0  0  0  0  0  0  0  0  0  0
  151.2969  141.0458  157.4060 C   0  0  0  0  0  0  0  0  0  0  0  0
  151.0169  142.5262  157.1011 C   0  0  0  0  0  0  0  0  0  0  0  0
  151.3883  143.4274  158.2619 C   0  0  0  0  0  0  0  0  0  0  0  0
  151.9399  142.8942  159.4449 C   0  0  0  0  0  0  0  0  0  0  0  0
  152.2639  143.7716  160.4974 C   0  0  0  0  0  0  0  0  0  0  0  0
  152.0213  145.1486  160.3215 C   0  0  0  0  0  0  0  0  0  0  0  0
  151.4933  145.6705  159.1934 N   0  0  0  0  0  0  0  0  0  0  0  0
  151.1854  144.8221  158.1887 C   0  0  0  0  0  0  0  0  0  0  0  0
  151.1875  137.1315  154.6303 C   0  0  0  0  0  0  0  0  0  0  0  0
  151.7257  137.2794  159.1484 H   0  0  0  0  0  0  0  0  0  0  0  0
  150.5887  138.2056  158.1453 H   0  0  0  0  0  0  0  0  0  0  0  0
  152.2941  138.0335  157.6536 H   0  0  0  0  0  0  0  0  0  0  0  0
  148.5150  136.3039  154.7429 H   0  0  0  0  0  0  0  0  0  0  0  0
  148.3796  136.4743  156.4772 H   0  0  0  0  0  0  0  0  0  0  0  0
  147.5768  138.5143  155.2432 H   0  0  0  0  0  0  0  0  0  0  0  0
  148.8593  138.8732  156.3586 H   0  0  0  0  0  0  0  0  0  0  0  0
  149.1038  138.5162  153.3266 H   0  0  0  0  0  0  0  0  0  0  0  0
  149.2787  140.0179  154.1886 H   0  0  0  0  0  0  0  0  0  0  0  0
  151.4410  138.9187  153.4681 H   0  0  0  0  0  0  0  0  0  0  0  0
  149.8583  140.0817  156.1924 H   0  0  0  0  0  0  0  0  0  0  0  0
  150.8170  140.7481  158.3400 H   0  0  0  0  0  0  0  0  0  0  0  0
  152.3674  140.8905  157.5439 H   0  0  0  0  0  0  0  0  0  0  0  0
  151.5740  142.8382  156.2167 H   0  0  0  0  0  0  0  0  0  0  0  0
  149.9614  142.6726  156.8671 H   0  0  0  0  0  0  0  0  0  0  0  0
  152.1108  141.8323  159.5465 H   0  0  0  0  0  0  0  0  0  0  0  0
  152.6879  143.3984  161.4178 H   0  0  0  0  0  0  0  0  0  0  0  0
  152.2578  145.8498  161.1081 H   0  0  0  0  0  0  0  0  0  0  0  0
  150.7621  145.2698  157.3014 H   0  0  0  0  0  0  0  0  0  0  0  0
  152.2386  136.9132  154.8175 H   0  0  0  0  0  0  0  0  0  0  0  0
  150.9416  136.6033  153.7084 H   0  0  0  0  0  0  0  0  0  0  0  0
  1  2  1  0  0  0  0
  1 22  1  0  0  0  0
  1 23  1  0  0  0  0
  1 24  1  0  0  0  0
  2  3  2  0  0  0  0
  2  4  2  0  0  0  0
  2  5  1  0  0  0  0
  5 21  1  0  0  0  0
  5  6  1  0  0  0  0
  6  7  1  0  0  0  0
  6 25  1  0  0  0  0
  6 26  1  0  0  0  0
  7  8  1  0  0  0  0
  7 27  1  0  0  0  0
  7 28  1  0  0  0  0
  8  9  1  0  0  0  0
  8 29  1  0  0  0  0
  8 30  1  0  0  0  0
  9 10  1  0  0  0  0
  9 21  1  0  0  0  0
  9 31  1  0  0  0  0
 10 11  2  0  0  0  0
 10 12  1  0  0  0  0
 12 13  1  0  0  0  0
 12 32  1  0  0  0  0
 13 14  1  0  0  0  0
 13 33  1  0  0  0  0
 13 34  1  0  0  0  0
 14 15  1  0  0  0  0
 14 35  1  0  0  0  0
 14 36  1  0  0  0  0
 15 20  1  0  0  0  0
 15 16  2  0  0  0  0
 16 17  1  0  0  0  0
 16 37  1  0  0  0  0
 17 18  2  0  0  0  0
 17 38  1  0  0  0  0
 18 19  1  0  0  0  0
 18 39  1  0  0  0  0
 19 20  2  0  0  0  0
 20 40  1  0  0  0  0
 21 41  1  0  0  0  0
 21 42  1  0  0  0  0
M  END
> <s_m_source_file>
AV-unprocessed.smi

> <i_m_source_file_index>
2135

> <i_lp_mmshare_version>
43012

> <i_f3d_flags>
0

> <s_epik_input>
W0NIM11TKD1PKSg9TylOMVtDSDJdW0NIMl1bQ0gyXVtDQEhdKFtDSDJdMSlDKD1PKVtOSF1bQ0gyXVtDSDJdYzJbY0hdW2NIXVtjSF1uW2NIXTI=

> <s_epik_cmdline>
J2VwaWtfcHl0aG9uJywgJy1waCcsICc3LjAnLCAnLXRuJywgJzgnLCAnLW1hJywgJzIwMCcsICctbWV0YWxfYmluZGluZycsICctaW1hZScsICc8aW5maWxlLm1hZT4nLCAnLW9tYWUnLCAnPG91dGZpbGUubWFlPic=

> <r_epik_Ionization_Penalty>
0.0134582

> <r_epik_Ionization_Penalty_Charging>
0

> <r_epik_Ionization_Penalty_Neutral>
0.0134582

> <r_epik_State_Penalty>
0.010475

> <r_epik_Charging_Adjusted_Penalty>
0.010475

> <i_epik_Tot_Q>
0

> <i_epik_Tot_abs_Q>
0

> <r_epik_Metal_State_Penalty>
0.0102416

> <b_epik_Metal_Only>
0

> <s_lp_Force_Field>
OPLS_2005

> <r_lp_Energy>
-1.27584

> <b_lp_Chiralities_Consistent>
1

> <s_lp_Variant>
AV-unprocessed.smi:2135-1

> <Gold.Version>
5.8.1

> <Gold.Id.Protein>
6NUR|6NUR_protein|mol2

> <Gold.PLP.Fitness>
52.0420

> <Gold.PLP.PLP>
-41.0190

> <Gold.PLP.part.hbond>
-4.0000

> <Gold.PLP.part.metal>
0.0000

> <Gold.PLP.part.buried>
-5.8997

> <Gold.PLP.part.nonpolar>
-32.0668

> <Gold.PLP.part.repulsive>
0.2314

> <Gold.PLP.ligand.clash>
0.0000

> <Gold.PLP.ligand.torsion>
1.2892

> <Gold.PLP.Chemscore.Hbond>
2.9120

> <Gold.PLP.Chemscore.CHOScore>
0.9243

> <Gold.PLP.Chemscore.Metal>
0.0000

> <Gold.Chemscore.Hbonds>
donor molecule, donor type, donor heavy atom, donor atom, acceptor molecule, acceptor atom, score
      P1  H  6896  6907       L1     4  0.90
      P1  H  7997  8009       L1    11  1.00
      P1  H 10752 10764       L1     3  0.97
      L1  C    20    40       P1  8028  0.91

> <Gold.PLP.Chemscore.Internal.Correction>
2.0924

> <Gold.Rescore>
     Score         DG    S(hbond)    S(metal)    S(lipo)     H(rot)  DE(clash)    DE(int)     intcor
     20.03     -22.43       2.72        0.00     101.34       1.56       0.21       2.20       ----

> <Gold.Chemscore.Fitness>
20.0257

> <Gold.Chemscore.DG>
-22.4295

> <Gold.Chemscore.ZeroCoef>
-5.4800

> <Gold.Chemscore.Hbond>
2.7236

> <Gold.Chemscore.Metal>
0.0000

> <Gold.Chemscore.Lipo>
101.3436

> <Gold.Chemscore.Internal_Hbond>
0.0000

> <Gold.Chemscore.DEClash>
0.2064

> <Gold.Chemscore.DEInternal>
2.1975

> <Gold.Chemscore.Rot>
1.5643

> <Gold.Chemscore.Internal.Correction>
   9.000000E+99

> <Gold.Chemscore.Hbonds>
donor molecule, donor type, donor heavy atom, donor atom, acceptor molecule, acceptor atom, score
      P1  H  6896  6907       L1     4  0.65
      P1  H  7997  8009       L1    11  1.00
      P1  H 10752 10764       L1     3  0.85

> <Gold.Chemscore.Hbond.Weighted>
-9.0969

> <Gold.Chemscore.Metal.Weighted>
-0.0000

> <Gold.Chemscore.Lipo.Weighted>
-11.8572

> <Gold.Chemscore.Internal_Hbond.Weighted>
0.0000

> <Gold.Chemscore.DEClash.Weighted>
0.2064

> <Gold.Chemscore.DEInternal.Weighted>
2.1975

> <Gold.Chemscore.Rot.Weighted>
4.0046

> <Gold.Chemscore.Internal.Correction.Weighted>
   9.000000E+99

> <Gold.Protein.RotatedTorsions>
[ 6907 6896 6895 6894 ] final  -78.04 input  -60.11 | X-H torsion
[ 7974 7965 7964 7962 ] final -169.50 input  175.53 | X-H torsion
[ 8008 7997 7996 7995 ] final -156.96 input   59.86 | X-H torsion
[ 10167 10162 10161 10158 ] final   56.27 input  -65.29 | X-H torsion
[ 10718 10713 10712 10709 ] final  145.50 input   66.30 | X-H torsion
[ 10763 10752 10751 10750 ] final  -30.40 input  -60.55 | X-H torsion
[ 11005 11000 10999 10996 ] final   57.30 input  -57.11 | X-H torsion

> <Gold.Protein.ActiveResidues>
 VAL166  LYS551  ARG553  GLY616  TRP617  ASP618  TYR619  PRO620  LYS621  CYS622 
 ASP623  PHE694  ASN695  SER759  ASP760  ASP761  ALA762  ILE779  LEU786  VAL792 
 PHE793  MET794  SER795  GLU796  ALA797  LYS798  CYS799  TRP800  GLU811  SER814 

> <Gold.Protein.RotatedAtoms>
  150.6983  134.4332  159.5257 H   0  0  0  0  0  0  0  0  0  0  0  0  # atno 6907 bound_to 6896
  152.2055  134.8546  160.0512 H   0  0  0  0  0  0  0  0  0  0  0  0  # atno 6908 bound_to 6896
  151.9451  133.3614  159.4016 H   0  0  0  0  0  0  0  0  0  0  0  0  # atno 6909 bound_to 6896
  144.7184  140.2211  143.6316 H   0  0  0  0  0  0  0  0  0  0  0  0  # atno 7974 bound_to 7965
  155.7252  140.0795  157.2313 H   0  0  0  0  0  0  0  0  0  0  0  0  # atno 8008 bound_to 7997
  154.4040  140.1605  156.2501 H   0  0  0  0  0  0  0  0  0  0  0  0  # atno 8009 bound_to 7997
  155.9160  140.3401  155.6138 H   0  0  0  0  0  0  0  0  0  0  0  0  # atno 8010 bound_to 7997
  140.2105  144.3894  150.6491 H   0  0  0  0  0  0  0  0  0  0  0  0  # atno 10167 bound_to 10162
  157.3445  131.0941  151.1053 H   0  0  0  0  0  0  0  0  0  0  0  0  # atno 10718 bound_to 10713
  153.7804  135.6905  153.4889 H   0  0  0  0  0  0  0  0  0  0  0  0  # atno 10763 bound_to 10752
  153.1815  135.4504  155.0033 H   0  0  0  0  0  0  0  0  0  0  0  0  # atno 10764 bound_to 10752
  154.8084  135.3366  154.7307 H   0  0  0  0  0  0  0  0  0  0  0  0  # atno 10765 bound_to 10752
  140.0463  134.5801  155.9319 H   0  0  0  0  0  0  0  0  0  0  0  0  # atno 11005 bound_to 11000
  145.8500  139.2171  143.1778 LP  0  0  0  0  0  0  0  0  0  0  0  0  # atno 17320 bound_to 7965
  146.0269  140.8295  142.9895 LP  0  0  0  0  0  0  0  0  0  0  0  0  # atno 17321 bound_to 7965
  140.6327  143.2190  151.6461 LP  0  0  0  0  0  0  0  0  0  0  0  0  # atno 17342 bound_to 10162
  139.5182  144.3292  152.0841 LP  0  0  0  0  0  0  0  0  0  0  0  0  # atno 17343 bound_to 10162
  157.2253  130.6500  149.5827 LP  0  0  0  0  0  0  0  0  0  0  0  0  # atno 17370 bound_to 10713
  155.9712  130.4616  150.6116 LP  0  0  0  0  0  0  0  0  0  0  0  0  # atno 17371 bound_to 10713
  141.1908  133.6570  156.5429 LP  0  0  0  0  0  0  0  0  0  0  0  0  # atno 17394 bound_to 11000
  140.3989  134.7374  157.4767 LP  0  0  0  0  0  0  0  0  0  0  0  0  # atno 17395 bound_to 11000

$$$$
