#       Name:                AV-unprocessed.smi:2995
#       Creating user name   scv26
#       Creation time:       Fri Mar 27 16:33:06 2020


#       File generated by GOLD software.
#

@<TRIPOS>MOLECULE
AV-unprocessed.smi:2995
    52    54     1
SMALL
NO_CHARGES


@<TRIPOS>ATOM
      1 ****        -4.4684  -2.8998   0.9578 C.3            1 S1                 0.0000
      2 ****        -5.2852  -1.7780   0.3415 C.ar           1 S1                 0.0000
      3 ****        -6.6399  -1.9947   0.0154 C.ar           1 S1                 0.0000
      4 ****        -7.3755  -0.9371  -0.5523 C.ar           1 S1                 0.0000
      5 ****        -6.8519   0.2817  -0.7945 N.ar           1 S1                 0.0000
      6 ****        -5.5546   0.4869  -0.4835 C.ar           1 S1                 0.0000
      7 ****        -4.7155  -0.5092   0.0761 C.ar           1 S1                 0.0000
      8 ****        -3.3546  -0.2754   0.4196 N.am           1 S1                 0.0000
      9 ****        -2.5005   0.6085  -0.1237 C.2            1 S1                 0.0000
     10 ****        -2.7662   1.3832  -1.0425 O.2            1 S1                 0.0000
     11 ****        -1.2901   0.5292   0.4481 N.am           1 S1                 0.0000
     12 ****        -0.1326   1.3368   0.0747 C.3            1 S1                 0.0000
     13 ****         0.5575   0.7603  -1.1773 C.3            1 S1                 0.0000
     14 ****         1.8527   1.5277  -1.5034 C.3            1 S1                 0.0000
     15 ****         2.7964   1.5455  -0.3516 N.4            1 S1                 1.0000
     16 ****         3.4863   0.2452  -0.0954 C.3            1 S1                 0.0000
     17 ****         4.5611   0.3243   0.9977 C.3            1 S1                 0.0000
     18 ****         5.4616  -0.8921   0.7638 C.3            1 S1                 0.0000
     19 ****         5.3043  -1.2606  -0.7175 C.3            1 S1                 0.0000
     20 ****         4.2872  -0.2727  -1.2988 C.3            1 S1                 0.0000
     21 ****         2.1472   2.1494   0.8452 C.3            1 S1                 0.0000
     22 ****         0.8623   1.3994   1.2464 C.3            1 S1                 0.0000
     23 ****        -5.0637  -3.8055   1.0764 H              1 S1                 0.0000
     24 ****        -4.1012  -2.6065   1.9414 H              1 S1                 0.0000
     25 ****        -3.6128  -3.1393   0.3259 H              1 S1                 0.0000
     26 ****        -7.1111  -2.9499   0.1944 H              1 S1                 0.0000
     27 ****        -8.4147  -1.0726  -0.8135 H              1 S1                 0.0000
     28 ****        -5.2003   1.4882  -0.6732 H              1 S1                 0.0000
     29 ****        -2.9667  -0.9073   1.1045 H              1 S1                 0.0000
     30 ****        -1.1601  -0.1390   1.1939 H              1 S1                 0.0000
     31 ****        -0.4634   2.3547  -0.1414 H              1 S1                 0.0000
     32 ****         0.7786  -0.2976  -1.0315 H              1 S1                 0.0000
     33 ****        -0.1172   0.8123  -2.0325 H              1 S1                 0.0000
     34 ****         2.3242   1.1201  -2.3967 H              1 S1                 0.0000
     35 ****         1.6019   2.5596  -1.7530 H              1 S1                 0.0000
     36 ****         2.7587  -0.5155   0.1897 H              1 S1                 0.0000
     37 ****         5.1483   1.2362   0.8783 H              1 S1                 0.0000
     38 ****         4.1434   0.3266   2.0050 H              1 S1                 0.0000
     39 ****         6.4985  -0.6782   1.0258 H              1 S1                 0.0000
     40 ****         5.1338  -1.7255   1.3864 H              1 S1                 0.0000
     41 ****         6.2535  -1.2113  -1.2522 H              1 S1                 0.0000
     42 ****         4.9333  -2.2825  -0.8063 H              1 S1                 0.0000
     43 ****         3.6581  -0.7428  -2.0554 H              1 S1                 0.0000
     44 ****         4.8195   0.5518  -1.7760 H              1 S1                 0.0000
     45 ****         2.8373   2.2043   1.6860 H              1 S1                 0.0000
     46 ****         1.8966   3.1844   0.6084 H              1 S1                 0.0000
     47 ****         0.3992   1.8999   2.0978 H              1 S1                 0.0000
     48 ****         1.1105   0.3929   1.5853 H              1 S1                 0.0000
     49 ****         3.5351   2.1831  -0.6128 H              1 S1                 0.0000
     50 ****        -7.4079   1.0114  -1.1925 LP             1 S1                 0.0000
     51 ****        -3.6816   1.3862  -1.4451 LP             1 S1                 0.0000
     52 ****        -2.0667   2.0096  -1.3864 LP             1 S1                 0.0000
@<TRIPOS>BOND
    1    1    2 1     
    2    1   23 1     
    3    1   24 1     
    4    1   25 1     
    5    2    7 ar    
    6    2    3 ar    
    7    3    4 ar    
    8    3   26 1     
    9    4    5 ar    
   10    4   27 1     
   11    5    6 ar    
   12    6    7 ar    
   13    6   28 1     
   14    7    8 1     
   15    8    9 am    
   16    8   29 1     
   17    9   10 2     
   18    9   11 am    
   19   11   12 1     
   20   11   30 1     
   21   12   22 1     
   22   12   13 1     
   23   12   31 1     
   24   13   14 1     
   25   13   32 1     
   26   13   33 1     
   27   14   15 1     
   28   14   34 1     
   29   14   35 1     
   30   15   16 1     
   31   15   21 1     
   32   15   49 1     
   33   16   20 1     
   34   16   17 1     
   35   16   36 1     
   36   17   18 1     
   37   17   37 1     
   38   17   38 1     
   39   18   19 1     
   40   18   39 1     
   41   18   40 1     
   42   19   20 1     
   43   19   41 1     
   44   19   42 1     
   45   20   43 1     
   46   20   44 1     
   47   21   22 1     
   48   21   45 1     
   49   21   46 1     
   50   22   47 1     
   51   22   48 1     
   52    5   50 1     
   53   10   51 1     
   54   10   52 1     
@<TRIPOS>SUBSTRUCTURE
      1 S1             1
@<TRIPOS>SET
LONE_PAIRS      STATIC     ATOMS    <user>   **** ""
3 50 51 52
DONOR_HYDROGENS      STATIC     ATOMS    <user>   **** ""
3 29 30 49
ATOM$BLUE        STATIC     ATOMS    COLORGROUP SYSTEM
3 50 51 52
ATOM$RED        STATIC     ATOMS    COLORGROUP SYSTEM
3 29 30 49
