AV-unprocessed.smi:93|AV-procd|sdf|849|dock5
  -GOLD-   2262017293D 1   1.00000     0.00000
 Structure written by MMmdl.
 50 52  0  0  0  0  0  0  0  0  1 V2000
  142.3483  135.8595  153.4572 C   0  0  0  0  0  0  0  0  0  0  0  0
  143.6846  136.2112  152.9892 N   0  0  0  0  0  0  0  0  0  0  0  0
  144.1655  135.6745  151.7095 C   0  0  0  0  0  0  0  0  0  0  0  0
  144.5137  134.1548  151.7169 C   0  0  0  0  0  0  0  0  0  0  0  0
  143.2305  133.2923  151.7007 C   0  0  0  0  0  0  0  0  0  0  0  0
  145.3595  133.8494  150.4516 C   0  0  0  0  0  0  0  0  0  0  0  0
  145.7533  132.4928  150.3750 O   0  0  0  0  0  0  0  0  0  0  0  0
  145.3537  133.8130  152.9767 C   0  0  0  0  0  0  0  0  0  0  0  0
  144.6072  133.9024  154.1747 O   0  0  0  0  0  0  0  0  0  0  0  0
  144.4824  136.9873  153.7749 C   0  0  0  0  0  0  0  0  0  0  0  0
  144.3108  136.9458  155.1229 N   0  0  0  0  0  0  0  0  0  0  0  0
  145.0741  137.6827  155.9333 C   0  0  0  0  0  0  0  0  0  0  0  0
  146.0621  138.5186  155.6141 N   0  0  0  0  0  0  0  0  0  0  0  0
  146.2508  138.5661  154.2649 C   0  0  0  0  0  0  0  0  0  0  0  0
  145.5106  137.8471  153.2813 C   0  0  0  0  0  0  0  0  0  0  0  0
  146.0017  138.1561  152.0167 N   0  0  0  0  0  0  0  0  0  0  0  0
  146.9652  139.0065  152.2390 C   0  0  0  0  0  0  0  0  0  0  0  0
  147.1929  139.2992  153.5637 N   0  0  0  0  0  0  0  0  0  0  0  0
  148.2070  140.1979  154.0948 C   0  0  0  0  0  0  0  0  0  0  0  0
  147.6204  141.4751  154.7416 C   0  0  1  0  0  0  0  0  0  0  0  0
  148.6802  142.2398  155.2910 O   0  0  0  0  0  0  0  0  0  0  0  0
  146.8636  142.3504  153.7511 C   0  0  0  0  0  0  0  0  0  0  0  0
  145.8518  143.0617  154.6393 C   0  0  0  0  0  0  0  0  0  0  0  0
  145.4515  142.0461  155.5436 O   0  0  0  0  0  0  0  0  0  0  0  0
  146.5745  141.2234  155.8480 C   0  0  0  0  0  0  0  0  0  0  0  0
  142.3649  135.5972  154.5156 H   0  0  0  0  0  0  0  0  0  0  0  0
  141.9530  135.0023  152.9123 H   0  0  0  0  0  0  0  0  0  0  0  0
  141.6570  136.6901  153.3163 H   0  0  0  0  0  0  0  0  0  0  0  0
  143.4516  135.8945  150.9160 H   0  0  0  0  0  0  0  0  0  0  0  0
  145.0584  136.2344  151.4297 H   0  0  0  0  0  0  0  0  0  0  0  0
  143.4619  132.2340  151.5786 H   0  0  0  0  0  0  0  0  0  0  0  0
  142.5678  133.5746  150.8822 H   0  0  0  0  0  0  0  0  0  0  0  0
  142.6663  133.3918  152.6280 H   0  0  0  0  0  0  0  0  0  0  0  0
  144.7979  134.0941  149.5495 H   0  0  0  0  0  0  0  0  0  0  0  0
  146.2655  134.4559  150.4293 H   0  0  0  0  0  0  0  0  0  0  0  0
  145.0590  131.9584  150.7290 H   0  0  0  0  0  0  0  0  0  0  0  0
  145.7656  132.8060  152.9018 H   0  0  0  0  0  0  0  0  0  0  0  0
  146.1981  134.4948  153.0756 H   0  0  0  0  0  0  0  0  0  0  0  0
  144.0873  133.1183  154.2636 H   0  0  0  0  0  0  0  0  0  0  0  0
  144.8639  137.5868  156.9884 H   0  0  0  0  0  0  0  0  0  0  0  0
  147.5474  139.4386  151.4379 H   0  0  0  0  0  0  0  0  0  0  0  0
  148.8060  139.6467  154.8211 H   0  0  0  0  0  0  0  0  0  0  0  0
  148.8845  140.4660  153.2833 H   0  0  0  0  0  0  0  0  0  0  0  0
  148.3910  143.1356  155.3738 H   0  0  0  0  0  0  0  0  0  0  0  0
  147.5016  143.0357  153.1914 H   0  0  0  0  0  0  0  0  0  0  0  0
  146.3288  141.7306  153.0301 H   0  0  0  0  0  0  0  0  0  0  0  0
  146.3196  143.8793  155.1900 H   0  0  0  0  0  0  0  0  0  0  0  0
  145.0047  143.4605  154.0813 H   0  0  0  0  0  0  0  0  0  0  0  0
  146.2323  140.1894  155.8648 H   0  0  0  0  0  0  0  0  0  0  0  0
  146.9575  141.4563  156.8427 H   0  0  0  0  0  0  0  0  0  0  0  0
  1  2  1  0  0  0  0
  1 26  1  0  0  0  0
  1 27  1  0  0  0  0
  1 28  1  0  0  0  0
  2  3  1  0  0  0  0
  2 10  1  0  0  0  0
  3  4  1  0  0  0  0
  3 29  1  0  0  0  0
  3 30  1  0  0  0  0
  4  5  1  0  0  0  0
  4  6  1  0  0  0  0
  4  8  1  0  0  0  0
  5 31  1  0  0  0  0
  5 32  1  0  0  0  0
  5 33  1  0  0  0  0
  6  7  1  0  0  0  0
  6 34  1  0  0  0  0
  6 35  1  0  0  0  0
  7 36  1  0  0  0  0
  8  9  1  0  0  0  0
  8 37  1  0  0  0  0
  8 38  1  0  0  0  0
  9 39  1  0  0  0  0
 10 15  1  0  0  0  0
 10 11  2  0  0  0  0
 11 12  1  0  0  0  0
 12 13  2  0  0  0  0
 12 40  1  0  0  0  0
 13 14  1  0  0  0  0
 14 18  1  0  0  0  0
 14 15  2  0  0  0  0
 15 16  1  0  0  0  0
 16 17  2  0  0  0  0
 17 18  1  0  0  0  0
 17 41  1  0  0  0  0
 18 19  1  0  0  0  0
 19 20  1  0  0  0  0
 19 42  1  0  0  0  0
 19 43  1  0  0  0  0
 20 25  1  0  0  0  0
 20 21  1  0  0  0  0
 20 22  1  0  0  0  0
 21 44  1  0  0  0  0
 22 23  1  0  0  0  0
 22 45  1  0  0  0  0
 22 46  1  0  0  0  0
 23 24  1  0  0  0  0
 23 47  1  0  0  0  0
 23 48  1  0  0  0  0
 24 25  1  0  0  0  0
 25 49  1  0  0  0  0
 25 50  1  0  0  0  0
M  END
> <s_m_source_file>
AV-unprocessed.smi

> <i_m_source_file_index>
93

> <i_lp_mmshare_version>
43012

> <i_f3d_flags>
0

> <s_epik_input>
W09IXVtDSDJdQyhbQ0gzXSkoW0NIMl1bT0hdKVtDSDJdTihbQ0gzXSljKG5bY0hdbjEpYyhjMTIpbltjSF1uMltDSDJdW0NAQF0zKFtPSF0pW0NIMl1bQ0gyXU9bQ0gyXTM=

> <s_epik_cmdline>
J2VwaWtfcHl0aG9uJywgJy1waCcsICc3LjAnLCAnLXRuJywgJzgnLCAnLW1hJywgJzIwMCcsICctbWV0YWxfYmluZGluZycsICctaW1hZScsICc8aW5maWxlLm1hZT4nLCAnLW9tYWUnLCAnPG91dGZpbGUubWFlPic=

> <r_lp_tautomer_probability>
1

> <r_epik_Ionization_Penalty>
0.00325397

> <r_epik_Ionization_Penalty_Charging>
0

> <r_epik_Ionization_Penalty_Neutral>
0.00325397

> <r_epik_State_Penalty>
0.00225047

> <r_epik_Charging_Adjusted_Penalty>
0.00225047

> <i_epik_Tot_Q>
0

> <i_epik_Tot_abs_Q>
0

> <r_epik_Metal_State_Penalty>
-0

> <b_epik_Metal_Only>
0

> <s_lp_Force_Field>
OPLS_2005

> <r_lp_Energy>
39.2325

> <b_lp_Chiralities_Consistent>
1

> <s_lp_Variant>
AV-unprocessed.smi:93-1

> <Gold.Version>
5.8.1

> <Gold.Id.Protein>
6NUR|6NUR_protein|mol2

> <Gold.PLP.Fitness>
41.2716

> <Gold.PLP.PLP>
-33.4828

> <Gold.PLP.part.hbond>
-1.9613

> <Gold.PLP.part.metal>
0.0000

> <Gold.PLP.part.buried>
-5.1545

> <Gold.PLP.part.nonpolar>
-26.7437

> <Gold.PLP.part.repulsive>
0.8270

> <Gold.PLP.ligand.clash>
0.0000

> <Gold.PLP.ligand.torsion>
0.7982

> <Gold.PLP.Chemscore.Hbond>
1.9440

> <Gold.PLP.Chemscore.CHOScore>
1.0000

> <Gold.PLP.Chemscore.Metal>
0.0000

> <Gold.Chemscore.Hbonds>
donor molecule, donor type, donor heavy atom, donor atom, acceptor molecule, acceptor atom, score
      L1  H     9    39       P1 10957  1.00
      L1  H    21    44       P1  8028  0.93
      L1  C    17    41       P1  7957  1.00

> <Gold.PLP.Chemscore.Internal.Correction>
0.5532

> <Gold.Rescore>
     Score         DG    S(hbond)    S(metal)    S(lipo)     H(rot)  DE(clash)    DE(int)     intcor
      3.94      -7.45       1.97        0.00      61.28       4.60       0.29       3.22       ----

> <Gold.Chemscore.Fitness>
3.9418

> <Gold.Chemscore.DG>
-7.4453

> <Gold.Chemscore.ZeroCoef>
-5.4800

> <Gold.Chemscore.Hbond>
1.9682

> <Gold.Chemscore.Metal>
0.0000

> <Gold.Chemscore.Lipo>
61.2828

> <Gold.Chemscore.Internal_Hbond>
0.0000

> <Gold.Chemscore.DEClash>
0.2850

> <Gold.Chemscore.DEInternal>
3.2185

> <Gold.Chemscore.Rot>
4.6010

> <Gold.Chemscore.Internal.Correction>
   9.000000E+99

> <Gold.Chemscore.Hbonds>
donor molecule, donor type, donor heavy atom, donor atom, acceptor molecule, acceptor atom, score
      L1  H     9    39       P1 10957  0.93
      L1  H    21    44       P1  8028  0.89

> <Gold.Chemscore.Hbond.Weighted>
-6.5739

> <Gold.Chemscore.Metal.Weighted>
-0.0000

> <Gold.Chemscore.Lipo.Weighted>
-7.1701

> <Gold.Chemscore.Internal_Hbond.Weighted>
0.0000

> <Gold.Chemscore.DEClash.Weighted>
0.2850

> <Gold.Chemscore.DEInternal.Weighted>
3.2185

> <Gold.Chemscore.Rot.Weighted>
11.7787

> <Gold.Chemscore.Internal.Correction.Weighted>
   9.000000E+99

> <Gold.Protein.RotatedTorsions>
[ 6907 6896 6895 6894 ] final  -78.95 input  -60.11 | X-H torsion
[ 7974 7965 7964 7962 ] final  -86.69 input  175.53 | X-H torsion
[ 8008 7997 7996 7995 ] final  -63.57 input   59.86 | X-H torsion
[ 10167 10162 10161 10158 ] final  164.30 input  -65.29 | X-H torsion
[ 10718 10713 10712 10709 ] final   97.21 input   66.30 | X-H torsion
[ 10763 10752 10751 10750 ] final -173.10 input  -60.55 | X-H torsion
[ 11005 11000 10999 10996 ] final  150.68 input  -57.11 | X-H torsion

> <Gold.Protein.ActiveResidues>
 VAL166  LYS551  ARG553  GLY616  TRP617  ASP618  TYR619  PRO620  LYS621  CYS622 
 ASP623  PHE694  ASN695  SER759  ASP760  ASP761  ALA762  ILE779  LEU786  VAL792 
 PHE793  MET794  SER795  GLU796  ALA797  LYS798  CYS799  TRP800  GLU811  SER814 

> <Gold.Protein.RotatedAtoms>
  150.6961  134.4194  159.5197 H   0  0  0  0  0  0  0  0  0  0  0  0  # atno 6907 bound_to 6896
  152.1939  134.8644  160.0524 H   0  0  0  0  0  0  0  0  0  0  0  0  # atno 6908 bound_to 6896
  151.9589  133.3654  159.4065 H   0  0  0  0  0  0  0  0  0  0  0  0  # atno 6909 bound_to 6896
  145.4765  140.9558  143.1888 H   0  0  0  0  0  0  0  0  0  0  0  0  # atno 7974 bound_to 7965
  154.4562  140.0972  156.6762 H   0  0  0  0  0  0  0  0  0  0  0  0  # atno 8008 bound_to 7997
  155.5133  140.3477  155.4374 H   0  0  0  0  0  0  0  0  0  0  0  0  # atno 8009 bound_to 7997
  156.0781  140.1366  156.9735 H   0  0  0  0  0  0  0  0  0  0  0  0  # atno 8010 bound_to 7997
  139.4887  144.4249  151.9141 H   0  0  0  0  0  0  0  0  0  0  0  0  # atno 10167 bound_to 10162
  157.6916  131.0602  150.4609 H   0  0  0  0  0  0  0  0  0  0  0  0  # atno 10718 bound_to 10713
  154.6117  135.2865  155.0425 H   0  0  0  0  0  0  0  0  0  0  0  0  # atno 10763 bound_to 10752
  154.1652  135.6481  153.4999 H   0  0  0  0  0  0  0  0  0  0  0  0  # atno 10764 bound_to 10752
  153.0198  135.5388  154.6873 H   0  0  0  0  0  0  0  0  0  0  0  0  # atno 10765 bound_to 10752
  140.1153  134.8898  157.1994 H   0  0  0  0  0  0  0  0  0  0  0  0  # atno 11005 bound_to 11000
  144.7914  139.6321  143.7111 LP  0  0  0  0  0  0  0  0  0  0  0  0  # atno 17320 bound_to 7965
  146.2366  139.5917  142.9519 LP  0  0  0  0  0  0  0  0  0  0  0  0  # atno 17321 bound_to 7965
  140.3695  144.2873  150.5922 LP  0  0  0  0  0  0  0  0  0  0  0  0  # atno 17342 bound_to 10162
  140.5331  143.2239  151.8206 LP  0  0  0  0  0  0  0  0  0  0  0  0  # atno 17343 bound_to 10162
  156.4953  130.4104  149.6383 LP  0  0  0  0  0  0  0  0  0  0  0  0  # atno 17370 bound_to 10713
  156.3378  130.7366  151.2306 LP  0  0  0  0  0  0  0  0  0  0  0  0  # atno 17371 bound_to 10713
  140.3037  134.3102  155.7283 LP  0  0  0  0  0  0  0  0  0  0  0  0  # atno 17394 bound_to 11000
  141.2139  133.7608  156.9677 LP  0  0  0  0  0  0  0  0  0  0  0  0  # atno 17395 bound_to 11000

$$$$
