AV-unprocessed.smi:3151|AV-procd|sdf|12015|dock1
  -GOLD-   2272017423D 1   1.00000     0.00000
 Structure written by MMmdl.
 36 37  0  0  0  0  0  0  0  0  2 V2000
  150.1476  141.2767  158.6167 O   0  0  0  0  0  0  0  0  0  0  0  0
  150.1960  142.3451  158.0064 C   0  0  0  0  0  0  0  0  0  0  0  0
  151.5465  142.9943  157.6853 C   0  0  0  0  0  0  0  0  0  0  0  0
  152.3194  143.4534  158.9395 C   0  0  0  0  0  0  0  0  0  0  0  0
  152.5800  142.3505  159.9750 C   0  0  0  0  0  0  0  0  0  0  0  0
  152.7792  143.0733  161.3147 C   0  0  0  0  0  0  0  0  0  0  0  0
  152.2783  144.5107  161.1122 C   0  0  0  0  0  0  0  0  0  0  0  0
  151.5854  144.5244  159.7484 C   0  0  0  0  0  0  0  0  0  0  0  0
  149.1024  142.9990  157.5849 N   0  0  0  0  0  0  0  0  0  0  0  0
  147.7316  142.5543  157.8050 C   0  0  0  0  0  0  0  0  0  0  0  0
  147.4503  141.2186  157.0974 C   0  0  0  0  0  0  0  0  0  0  0  0
  147.0154  141.4219  155.7149 N   0  0  0  0  0  0  0  0  0  0  0  0
  147.6574  142.1341  154.7348 C   0  0  0  0  0  0  0  0  0  0  0  0
  146.8732  142.0482  153.6131 C   0  0  0  0  0  0  0  0  0  0  0  0
  145.7865  141.2891  153.9567 N   0  3  0  0  0  0  0  0  0  0  0  0
  145.8745  140.9099  155.2357 C   0  0  0  0  0  0  0  0  0  0  0  0
  152.1444  142.2678  157.1340 H   0  0  0  0  0  0  0  0  0  0  0  0
  151.3961  143.8415  157.0141 H   0  0  0  0  0  0  0  0  0  0  0  0
  153.2811  143.8722  158.6368 H   0  0  0  0  0  0  0  0  0  0  0  0
  151.7103  141.6955  160.0459 H   0  0  0  0  0  0  0  0  0  0  0  0
  153.4362  141.7285  159.7121 H   0  0  0  0  0  0  0  0  0  0  0  0
  152.2271  142.5682  162.1081 H   0  0  0  0  0  0  0  0  0  0  0  0
  153.8311  143.0778  161.6027 H   0  0  0  0  0  0  0  0  0  0  0  0
  151.6140  144.8361  161.9132 H   0  0  0  0  0  0  0  0  0  0  0  0
  153.1293  145.1932  161.0956 H   0  0  0  0  0  0  0  0  0  0  0  0
  151.6194  145.5059  159.2743 H   0  0  0  0  0  0  0  0  0  0  0  0
  150.5363  144.2495  159.8692 H   0  0  0  0  0  0  0  0  0  0  0  0
  149.2299  143.8691  157.0882 H   0  0  0  0  0  0  0  0  0  0  0  0
  147.5376  142.4699  158.8758 H   0  0  0  0  0  0  0  0  0  0  0  0
  147.0576  143.3246  157.4286 H   0  0  0  0  0  0  0  0  0  0  0  0
  148.3442  140.5936  157.0813 H   0  0  0  0  0  0  0  0  0  0  0  0
  146.6731  140.6541  157.6153 H   0  0  0  0  0  0  0  0  0  0  0  0
  148.5990  142.6361  154.9039 H   0  0  0  0  0  0  0  0  0  0  0  0
  147.0032  142.4601  152.6227 H   0  0  0  0  0  0  0  0  0  0  0  0
  145.1636  140.3096  155.7757 H   0  0  0  0  0  0  0  0  0  0  0  0
  145.0246  141.0487  153.3350 H   0  0  0  0  0  0  0  0  0  0  0  0
  1  2  2  0  0  0  0
  2  3  1  0  0  0  0
  2  9  1  0  0  0  0
  3  4  1  0  0  0  0
  3 17  1  0  0  0  0
  3 18  1  0  0  0  0
  4  8  1  0  0  0  0
  4  5  1  0  0  0  0
  4 19  1  0  0  0  0
  5  6  1  0  0  0  0
  5 20  1  0  0  0  0
  5 21  1  0  0  0  0
  6  7  1  0  0  0  0
  6 22  1  0  0  0  0
  6 23  1  0  0  0  0
  7  8  1  0  0  0  0
  7 24  1  0  0  0  0
  7 25  1  0  0  0  0
  8 26  1  0  0  0  0
  8 27  1  0  0  0  0
  9 10  1  0  0  0  0
  9 28  1  0  0  0  0
 10 11  1  0  0  0  0
 10 29  1  0  0  0  0
 10 30  1  0  0  0  0
 11 12  1  0  0  0  0
 11 31  1  0  0  0  0
 11 32  1  0  0  0  0
 12 16  1  0  0  0  0
 12 13  1  0  0  0  0
 13 14  2  0  0  0  0
 13 33  1  0  0  0  0
 14 15  1  0  0  0  0
 14 34  1  0  0  0  0
 15 16  2  0  0  0  0
 15 36  1  0  0  0  0
 16 35  1  0  0  0  0
M  CHG  1  15   1
M  END
> <s_m_source_file>
AV-unprocessed.smi

> <i_m_source_file_index>
3151

> <i_lp_mmshare_version>
43012

> <i_f3d_flags>
0

> <s_epik_input>
W0NIMl0xW0NIMl1bQ0gyXVtDSDJdW0NIXTFbQ0gyXUMoPU8pW05IXVtDSDJdW0NIMl1uMltjSF1bY0hdbltjSF0y

> <s_epik_cmdline>
J2VwaWtfcHl0aG9uJywgJy1waCcsICc3LjAnLCAnLXRuJywgJzgnLCAnLW1hJywgJzIwMCcsICctbWV0YWxfYmluZGluZycsICctaW1hZScsICc8aW5maWxlLm1hZT4nLCAnLW9tYWUnLCAnPG91dGZpbGUubWFlPic=

> <r_lp_tautomer_probability>
1

> <r_epik_Ionization_Penalty>
0.269485

> <r_epik_Ionization_Penalty_Charging>
0

> <r_epik_Ionization_Penalty_Neutral>
0.269485

> <r_epik_State_Penalty>
0.261564

> <r_epik_Charging_Adjusted_Penalty>
0.261564

> <i_epik_Tot_Q>
1

> <i_epik_Tot_abs_Q>
1

> <r_epik_Metal_State_Penalty>
0.546677

> <b_epik_Metal_Only>
0

> <s_lp_Force_Field>
OPLS_2005

> <r_lp_Energy>
22.4511

> <b_lp_Chiralities_Consistent>
1

> <s_lp_Variant>
AV-unprocessed.smi:3151-1

> <Gold.Version>
5.8.1

> <Gold.Id.Protein>
6NUR|6NUR_protein|mol2

> <Gold.PLP.Fitness>
45.1389

> <Gold.PLP.PLP>
-33.5987

> <Gold.PLP.part.hbond>
-2.0000

> <Gold.PLP.part.metal>
0.0000

> <Gold.PLP.part.buried>
-5.3566

> <Gold.PLP.part.nonpolar>
-26.2912

> <Gold.PLP.part.repulsive>
0.0579

> <Gold.PLP.ligand.clash>
0.0000

> <Gold.PLP.ligand.torsion>
0.2372

> <Gold.PLP.Chemscore.Hbond>
3.0000

> <Gold.PLP.Chemscore.CHOScore>
0.9969

> <Gold.PLP.Chemscore.Metal>
0.0000

> <Gold.Chemscore.Hbonds>
donor molecule, donor type, donor heavy atom, donor atom, acceptor molecule, acceptor atom, score
      L1  H     9    28       P1  8028  0.93
      L1  H    15    36       P1 10175  2.00
      L1  C    13    33       P1  8028  0.92

> <Gold.PLP.Chemscore.Internal.Correction>
0.0238

> <Gold.Rescore>
     Score         DG    S(hbond)    S(metal)    S(lipo)     H(rot)  DE(clash)    DE(int)     intcor
     15.53     -16.80       1.90        0.00      88.09       2.08       0.11       1.17       ----

> <Gold.Chemscore.Fitness>
15.5259

> <Gold.Chemscore.DG>
-16.8042

> <Gold.Chemscore.ZeroCoef>
-5.4800

> <Gold.Chemscore.Hbond>
1.8971

> <Gold.Chemscore.Metal>
0.0000

> <Gold.Chemscore.Lipo>
88.0858

> <Gold.Chemscore.Internal_Hbond>
0.0000

> <Gold.Chemscore.DEClash>
0.1109

> <Gold.Chemscore.DEInternal>
1.1675

> <Gold.Chemscore.Rot>
2.0774

> <Gold.Chemscore.Internal.Correction>
   9.000000E+99

> <Gold.Chemscore.Hbonds>
donor molecule, donor type, donor heavy atom, donor atom, acceptor molecule, acceptor atom, score
      L1  H     9    28       P1  8028  0.40
      L1  H    15    36       P1 10175  0.45

> <Gold.Chemscore.Hbond.Weighted>
-6.3364

> <Gold.Chemscore.Metal.Weighted>
-0.0000

> <Gold.Chemscore.Lipo.Weighted>
-10.3060

> <Gold.Chemscore.Internal_Hbond.Weighted>
0.0000

> <Gold.Chemscore.DEClash.Weighted>
0.1109

> <Gold.Chemscore.DEInternal.Weighted>
1.1675

> <Gold.Chemscore.Rot.Weighted>
5.3183

> <Gold.Chemscore.Internal.Correction.Weighted>
   9.000000E+99

> <Gold.Protein.RotatedTorsions>
[ 6907 6896 6895 6894 ] final    5.76 input  -60.11 | X-H torsion
[ 7974 7965 7964 7962 ] final  -27.32 input  175.53 | X-H torsion
[ 8008 7997 7996 7995 ] final   72.15 input   59.86 | X-H torsion
[ 10167 10162 10161 10158 ] final  151.57 input  -65.29 | X-H torsion
[ 10718 10713 10712 10709 ] final   47.65 input   66.30 | X-H torsion
[ 10763 10752 10751 10750 ] final  -32.76 input  -60.55 | X-H torsion
[ 11005 11000 10999 10996 ] final -138.95 input  -57.11 | X-H torsion

> <Gold.Protein.ActiveResidues>
 VAL166  LYS551  ARG553  GLY616  TRP617  ASP618  TYR619  PRO620  LYS621  CYS622 
 ASP623  PHE694  ASN695  SER759  ASP760  ASP761  ALA762  ILE779  LEU786  VAL792 
 PHE793  MET794  SER795  GLU796  ALA797  LYS798  CYS799  TRP800  GLU811  SER814 

> <Gold.Protein.RotatedAtoms>
  151.6627  135.0987  160.0182 H   0  0  0  0  0  0  0  0  0  0  0  0  # atno 6907 bound_to 6896
  152.3937  133.6712  159.6267 H   0  0  0  0  0  0  0  0  0  0  0  0  # atno 6908 bound_to 6896
  150.7848  133.8827  159.3331 H   0  0  0  0  0  0  0  0  0  0  0  0  # atno 6909 bound_to 6896
  146.1366  140.5136  142.8670 H   0  0  0  0  0  0  0  0  0  0  0  0  # atno 7974 bound_to 7965
  155.7645  140.3486  155.5215 H   0  0  0  0  0  0  0  0  0  0  0  0  # atno 8008 bound_to 7997
  155.8881  140.1013  157.1459 H   0  0  0  0  0  0  0  0  0  0  0  0  # atno 8009 bound_to 7997
  154.4031  140.1309  156.4268 H   0  0  0  0  0  0  0  0  0  0  0  0  # atno 8010 bound_to 7997
  139.4839  144.5429  151.7533 H   0  0  0  0  0  0  0  0  0  0  0  0  # atno 10167 bound_to 10162
  157.4607  130.8194  149.7883 H   0  0  0  0  0  0  0  0  0  0  0  0  # atno 10718 bound_to 10713
  153.8191  135.6876  153.4829 H   0  0  0  0  0  0  0  0  0  0  0  0  # atno 10763 bound_to 10752
  153.1580  135.4591  154.9730 H   0  0  0  0  0  0  0  0  0  0  0  0  # atno 10764 bound_to 10752
  154.7935  135.3310  154.7665 H   0  0  0  0  0  0  0  0  0  0  0  0  # atno 10765 bound_to 10752
  140.8567  134.2219  157.4730 H   0  0  0  0  0  0  0  0  0  0  0  0  # atno 11005 bound_to 11000
  144.7746  140.5712  143.6647 LP  0  0  0  0  0  0  0  0  0  0  0  0  # atno 17320 bound_to 7965
  145.5143  139.1478  143.3587 LP  0  0  0  0  0  0  0  0  0  0  0  0  # atno 17321 bound_to 7965
  140.4972  144.1223  150.5963 LP  0  0  0  0  0  0  0  0  0  0  0  0  # atno 17342 bound_to 10162
  140.4104  143.2659  151.9840 LP  0  0  0  0  0  0  0  0  0  0  0  0  # atno 17343 bound_to 10162
  156.0027  130.3871  150.2544 LP  0  0  0  0  0  0  0  0  0  0  0  0  # atno 17370 bound_to 10713
  157.0722  131.0120  151.3186 LP  0  0  0  0  0  0  0  0  0  0  0  0  # atno 17371 bound_to 10713
  139.8705  134.9709  156.4720 LP  0  0  0  0  0  0  0  0  0  0  0  0  # atno 17394 bound_to 11000
  140.8729  133.7975  155.9384 LP  0  0  0  0  0  0  0  0  0  0  0  0  # atno 17395 bound_to 11000

$$$$
