AV-unprocessed.smi:610|AV-procd|sdf|3058|dock9
  -GOLD-   2262023583D 1   1.00000     0.00000
 Structure written by MMmdl.
 38 39  0  0  0  0  0  0  0  0  2 V2000
  146.5933  135.6499  156.1085 C   0  0  0  0  0  0  0  0  0  0  0  0
  146.3661  135.5474  154.5934 C   0  0  1  0  0  0  0  0  0  0  0  0
  144.8668  135.5177  154.2427 C   0  0  0  0  0  0  0  0  0  0  0  0
  144.6281  135.1013  152.8566 N   0  0  0  0  0  0  0  0  0  0  0  0
  145.5157  135.1478  151.8124 C   0  0  0  0  0  0  0  0  0  0  0  0
  144.8523  134.6656  150.7137 C   0  0  0  0  0  0  0  0  0  0  0  0
  143.5897  134.3428  151.1339 N   0  3  0  0  0  0  0  0  0  0  0  0
  143.4557  134.6072  152.4376 C   0  0  0  0  0  0  0  0  0  0  0  0
  147.0121  136.6717  153.9201 N   0  0  0  0  0  0  0  0  0  0  0  0
  146.7072  137.9707  154.0833 C   0  0  0  0  0  0  0  0  0  0  0  0
  145.7979  138.3456  154.8247 O   0  0  0  0  0  0  0  0  0  0  0  0
  147.5398  139.0115  153.2927 C   0  0  0  0  0  0  0  0  0  0  0  0
  147.5614  138.7102  151.8665 N   0  0  0  0  0  0  0  0  0  0  0  0
  146.9830  140.4434  153.5097 C   0  0  0  0  0  0  0  0  0  0  0  0
  148.1148  141.2779  154.1211 C   0  0  0  0  0  0  0  0  0  0  0  0
  149.0611  140.2631  154.7528 C   0  0  0  0  0  0  0  0  0  0  0  0
  149.0026  139.0716  153.7979 C   0  0  0  0  0  0  0  0  0  0  0  0
  146.1266  134.8150  156.6318 H   0  0  0  0  0  0  0  0  0  0  0  0
  146.1742  136.5722  156.5126 H   0  0  0  0  0  0  0  0  0  0  0  0
  147.6569  135.6335  156.3493 H   0  0  0  0  0  0  0  0  0  0  0  0
  146.8085  134.6100  154.2509 H   0  0  0  0  0  0  0  0  0  0  0  0
  144.3395  134.8122  154.8864 H   0  0  0  0  0  0  0  0  0  0  0  0
  144.4070  136.4951  154.3999 H   0  0  0  0  0  0  0  0  0  0  0  0
  146.5259  135.5143  151.9257 H   0  0  0  0  0  0  0  0  0  0  0  0
  145.1757  134.5314  149.6917 H   0  0  0  0  0  0  0  0  0  0  0  0
  142.5726  134.4556  153.0326 H   0  0  0  0  0  0  0  0  0  0  0  0
  147.7579  136.4516  153.2754 H   0  0  0  0  0  0  0  0  0  0  0  0
  148.1920  139.3501  151.4049 H   0  0  0  0  0  0  0  0  0  0  0  0
  147.9492  137.7878  151.7315 H   0  0  0  0  0  0  0  0  0  0  0  0
  146.6222  140.9041  152.5886 H   0  0  0  0  0  0  0  0  0  0  0  0
  146.1348  140.4408  154.1968 H   0  0  0  0  0  0  0  0  0  0  0  0
  148.6377  141.8170  153.3300 H   0  0  0  0  0  0  0  0  0  0  0  0
  147.7519  142.0147  154.8384 H   0  0  0  0  0  0  0  0  0  0  0  0
  150.0718  140.6522  154.8783 H   0  0  0  0  0  0  0  0  0  0  0  0
  148.6903  139.9728  155.7368 H   0  0  0  0  0  0  0  0  0  0  0  0
  149.3351  138.1520  154.2822 H   0  0  0  0  0  0  0  0  0  0  0  0
  149.6942  139.2538  152.9732 H   0  0  0  0  0  0  0  0  0  0  0  0
  142.8615  133.9582  150.5450 H   0  0  0  0  0  0  0  0  0  0  0  0
  1  2  1  0  0  0  0
  1 18  1  0  0  0  0
  1 19  1  0  0  0  0
  1 20  1  0  0  0  0
  2  3  1  0  0  0  0
  2  9  1  0  0  0  0
  2 21  1  0  0  0  0
  3  4  1  0  0  0  0
  3 22  1  0  0  0  0
  3 23  1  0  0  0  0
  4  8  1  0  0  0  0
  4  5  1  0  0  0  0
  5  6  2  0  0  0  0
  5 24  1  0  0  0  0
  6  7  1  0  0  0  0
  6 25  1  0  0  0  0
  7  8  2  0  0  0  0
  7 38  1  0  0  0  0
  8 26  1  0  0  0  0
  9 10  1  0  0  0  0
  9 27  1  0  0  0  0
 10 11  2  0  0  0  0
 10 12  1  0  0  0  0
 12 17  1  0  0  0  0
 12 13  1  0  0  0  0
 12 14  1  0  0  0  0
 13 28  1  0  0  0  0
 13 29  1  0  0  0  0
 14 15  1  0  0  0  0
 14 30  1  0  0  0  0
 14 31  1  0  0  0  0
 15 16  1  0  0  0  0
 15 32  1  0  0  0  0
 15 33  1  0  0  0  0
 16 17  1  0  0  0  0
 16 34  1  0  0  0  0
 16 35  1  0  0  0  0
 17 36  1  0  0  0  0
 17 37  1  0  0  0  0
M  CHG  1   7   1
M  END
> <s_m_source_file>
AV-unprocessed.smi

> <i_m_source_file_index>
610

> <i_lp_mmshare_version>
43012

> <i_f3d_flags>
0

> <s_epik_input>
W2NIXTFuW2NIXVtjSF1uMVtDSDJdW0NAQEhdKFtDSDNdKVtOSF1DKD1PKUMyKFtOSDJdKVtDSDJdW0NIMl1bQ0gyXVtDSDJdMg==

> <s_epik_cmdline>
J2VwaWtfcHl0aG9uJywgJy1waCcsICc3LjAnLCAnLXRuJywgJzgnLCAnLW1hJywgJzIwMCcsICctbWV0YWxfYmluZGluZycsICctaW1hZScsICc8aW5maWxlLm1hZT4nLCAnLW9tYWUnLCAnPG91dGZpbGUubWFlPic=

> <r_epik_Ionization_Penalty>
1.50287

> <r_epik_Ionization_Penalty_Charging>
0

> <r_epik_Ionization_Penalty_Neutral>
1.50287

> <r_epik_State_Penalty>
1.57152

> <r_epik_Charging_Adjusted_Penalty>
1.57152

> <i_epik_Tot_Q>
1

> <i_epik_Tot_abs_Q>
1

> <r_epik_Metal_State_Penalty>
1.8522

> <b_epik_Metal_Only>
0

> <s_lp_Force_Field>
OPLS_2005

> <r_lp_Energy>
23.5797

> <b_lp_Chiralities_Consistent>
1

> <s_lp_Variant>
AV-unprocessed.smi:610-6

> <Gold.Version>
5.8.1

> <Gold.Id.Protein>
6NUR|6NUR_protein|mol2

> <Gold.PLP.Fitness>
40.4709

> <Gold.PLP.PLP>
-23.4850

> <Gold.PLP.part.hbond>
-4.4344

> <Gold.PLP.part.metal>
0.0000

> <Gold.PLP.part.buried>
-1.5208

> <Gold.PLP.part.nonpolar>
-17.9557

> <Gold.PLP.part.repulsive>
0.0649

> <Gold.PLP.ligand.clash>
0.0000

> <Gold.PLP.ligand.torsion>
0.5107

> <Gold.PLP.Chemscore.Hbond>
4.9913

> <Gold.PLP.Chemscore.CHOScore>
1.0000

> <Gold.PLP.Chemscore.Metal>
0.0000

> <Gold.Chemscore.Hbonds>
donor molecule, donor type, donor heavy atom, donor atom, acceptor molecule, acceptor atom, score
      L1  H     7    38       P1 10186  1.21
      L1  H     9    27       P1  7948  1.00
      L1  H    13    28       P1  7957  1.00
      L1  H    13    29       P1  7948  1.00
      L1  C     5    24       P1  7948  1.00

> <Gold.PLP.Chemscore.Internal.Correction>
0.0335

> <Gold.Rescore>
     Score         DG    S(hbond)    S(metal)    S(lipo)     H(rot)  DE(clash)    DE(int)     intcor
     16.22     -18.33       3.86        0.00      43.74       2.02       0.04       2.07       ----

> <Gold.Chemscore.Fitness>
16.2238

> <Gold.Chemscore.DG>
-18.3317

> <Gold.Chemscore.ZeroCoef>
-5.4800

> <Gold.Chemscore.Hbond>
3.8601

> <Gold.Chemscore.Metal>
0.0000

> <Gold.Chemscore.Lipo>
43.7416

> <Gold.Chemscore.Internal_Hbond>
0.0000

> <Gold.Chemscore.DEClash>
0.0354

> <Gold.Chemscore.DEInternal>
2.0725

> <Gold.Chemscore.Rot>
2.0152

> <Gold.Chemscore.Internal.Correction>
   9.000000E+99

> <Gold.Chemscore.Hbonds>
donor molecule, donor type, donor heavy atom, donor atom, acceptor molecule, acceptor atom, score
      L1  H     7    38       P1 10186  0.53
      L1  H     9    27       P1  7948  1.00
      L1  H    13    28       P1  7957  0.85
      L1  H    13    29       P1  7948  1.00

> <Gold.Chemscore.Hbond.Weighted>
-12.8929

> <Gold.Chemscore.Metal.Weighted>
-0.0000

> <Gold.Chemscore.Lipo.Weighted>
-5.1178

> <Gold.Chemscore.Internal_Hbond.Weighted>
0.0000

> <Gold.Chemscore.DEClash.Weighted>
0.0354

> <Gold.Chemscore.DEInternal.Weighted>
2.0725

> <Gold.Chemscore.Rot.Weighted>
5.1589

> <Gold.Chemscore.Internal.Correction.Weighted>
   9.000000E+99

> <Gold.Protein.RotatedTorsions>
[ 6907 6896 6895 6894 ] final  -15.05 input  -60.11 | X-H torsion
[ 7974 7965 7964 7962 ] final   20.33 input  175.53 | X-H torsion
[ 8008 7997 7996 7995 ] final -147.49 input   59.86 | X-H torsion
[ 10167 10162 10161 10158 ] final  -72.65 input  -65.29 | X-H torsion
[ 10718 10713 10712 10709 ] final  -33.77 input   66.30 | X-H torsion
[ 10763 10752 10751 10750 ] final   36.91 input  -60.55 | X-H torsion
[ 11005 11000 10999 10996 ] final -135.53 input  -57.11 | X-H torsion

> <Gold.Protein.ActiveResidues>
 VAL166  LYS551  ARG553  GLY616  TRP617  ASP618  TYR619  PRO620  LYS621  CYS622 
 ASP623  PHE694  ASN695  SER759  ASP760  ASP761  ALA762  ILE779  LEU786  VAL792 
 PHE793  MET794  SER795  GLU796  ALA797  LYS798  CYS799  TRP800  GLU811  SER814 

> <Gold.Protein.RotatedAtoms>
  151.3300  135.0839  159.9334 H   0  0  0  0  0  0  0  0  0  0  0  0  # atno 6907 bound_to 6896
  152.5237  133.9553  159.7701 H   0  0  0  0  0  0  0  0  0  0  0  0  # atno 6908 bound_to 6896
  150.9889  133.6116  159.2741 H   0  0  0  0  0  0  0  0  0  0  0  0  # atno 6909 bound_to 6896
  146.2115  139.8185  142.8685 H   0  0  0  0  0  0  0  0  0  0  0  0  # atno 7974 bound_to 7965
  155.5765  140.0639  157.2794 H   0  0  0  0  0  0  0  0  0  0  0  0  # atno 8008 bound_to 7997
  154.4345  140.1860  156.0978 H   0  0  0  0  0  0  0  0  0  0  0  0  # atno 8009 bound_to 7997
  156.0337  140.3303  155.7171 H   0  0  0  0  0  0  0  0  0  0  0  0  # atno 8010 bound_to 7997
  140.5174  143.2336  151.7488 H   0  0  0  0  0  0  0  0  0  0  0  0  # atno 10167 bound_to 10162
  156.3586  130.4320  149.7643 H   0  0  0  0  0  0  0  0  0  0  0  0  # atno 10718 bound_to 10713
  153.0058  135.6292  154.2060 H   0  0  0  0  0  0  0  0  0  0  0  0  # atno 10763 bound_to 10752
  154.1803  135.2813  155.3055 H   0  0  0  0  0  0  0  0  0  0  0  0  # atno 10764 bound_to 10752
  154.5839  135.5638  153.7272 H   0  0  0  0  0  0  0  0  0  0  0  0  # atno 10765 bound_to 10752
  140.8889  134.1837  157.4541 H   0  0  0  0  0  0  0  0  0  0  0  0  # atno 11005 bound_to 11000
  145.3121  141.0222  143.3549 LP  0  0  0  0  0  0  0  0  0  0  0  0  # atno 17320 bound_to 7965
  144.8928  139.4751  143.6669 LP  0  0  0  0  0  0  0  0  0  0  0  0  # atno 17321 bound_to 7965
  139.4913  144.4303  151.9879 LP  0  0  0  0  0  0  0  0  0  0  0  0  # atno 17342 bound_to 10162
  140.3398  144.3217  150.5969 LP  0  0  0  0  0  0  0  0  0  0  0  0  # atno 17343 bound_to 10162
  156.4816  130.8043  151.3057 LP  0  0  0  0  0  0  0  0  0  0  0  0  # atno 17370 bound_to 10713
  157.7470  131.0004  150.2924 LP  0  0  0  0  0  0  0  0  0  0  0  0  # atno 17371 bound_to 10713
  139.8727  134.9850  156.5262 LP  0  0  0  0  0  0  0  0  0  0  0  0  # atno 17394 bound_to 11000
  140.8371  133.8234  155.9039 LP  0  0  0  0  0  0  0  0  0  0  0  0  # atno 17395 bound_to 11000

$$$$
