AV-unprocessed.smi:1501|AV-procd|sdf|6065|dock1
  -GOLD-   22720 6183D 1   1.00000     0.00000
 Structure written by MMmdl.
 49 50  0  0  0  0  0  0  0  0  1 V2000
  151.8704  137.7917  159.0175 C   0  0  0  0  0  0  0  0  0  0  0  0
  151.6636  138.9044  158.0052 C   0  0  0  0  0  0  0  0  0  0  0  0
  151.7736  140.1806  158.5252 N   0  0  0  0  0  0  0  0  0  0  0  0
  151.5808  141.2739  157.6896 C   0  0  0  0  0  0  0  0  0  0  0  0
  151.6930  142.5117  158.3223 N   0  0  0  0  0  0  0  0  0  0  0  0
  152.5965  142.6757  159.4611 C   0  0  0  0  0  0  0  0  0  0  0  0
  152.2216  143.9099  160.2986 C   0  0  0  0  0  0  0  0  0  0  0  0
  152.2066  145.0639  159.4690 O   0  0  0  0  0  0  0  0  0  0  0  0
  151.2411  144.9461  158.4326 C   0  0  0  0  0  0  0  0  0  0  0  0
  151.5846  143.7427  157.5382 C   0  0  0  0  0  0  0  0  0  0  0  0
  151.3284  141.1573  156.4174 N   0  0  0  0  0  0  0  0  0  0  0  0
  151.2268  139.8894  155.8258 C   0  0  0  0  0  0  0  0  0  0  0  0
  151.0046  139.7788  154.6209 O   0  0  0  0  0  0  0  0  0  0  0  0
  151.3999  138.7050  156.6921 C   0  0  0  0  0  0  0  0  0  0  0  0
  151.2525  137.3187  156.0720 C   0  0  0  0  0  0  0  0  0  0  0  0
  150.0562  136.5430  156.6566 C   0  0  0  0  0  0  0  0  0  0  0  0
  150.1380  135.0304  156.4272 C   0  0  0  0  0  0  0  0  0  0  0  0
  150.3184  134.2556  157.3675 O   0  0  0  0  0  0  0  0  0  0  0  0
  150.0041  134.6221  155.1564 N   0  0  0  0  0  0  0  0  0  0  0  0
  150.0374  133.2312  154.7149 C   0  0  0  0  0  0  0  0  0  0  0  0
  148.6548  132.7238  154.2522 C   0  0  0  0  0  0  0  0  0  0  0  0
  148.5765  131.1931  154.3455 C   0  0  0  0  0  0  0  0  0  0  0  0
  148.3023  133.2005  152.8326 C   0  0  0  0  0  0  0  0  0  0  0  0
  151.9818  140.2739  159.5086 H   0  0  0  0  0  0  0  0  0  0  0  0
  152.6618  137.1184  158.6872 H   0  0  0  0  0  0  0  0  0  0  0  0
  150.9535  137.2147  159.1400 H   0  0  0  0  0  0  0  0  0  0  0  0
  152.1517  138.1844  159.9955 H   0  0  0  0  0  0  0  0  0  0  0  0
  153.6185  142.7719  159.0914 H   0  0  0  0  0  0  0  0  0  0  0  0
  152.5694  141.7894  160.0971 H   0  0  0  0  0  0  0  0  0  0  0  0
  151.2490  143.7759  160.7749 H   0  0  0  0  0  0  0  0  0  0  0  0
  152.9493  144.0565  161.0966 H   0  0  0  0  0  0  0  0  0  0  0  0
  150.2419  144.8412  158.8585 H   0  0  0  0  0  0  0  0  0  0  0  0
  151.2411  145.8629  157.8432 H   0  0  0  0  0  0  0  0  0  0  0  0
  150.8257  143.6507  156.7606 H   0  0  0  0  0  0  0  0  0  0  0  0
  152.5336  143.9188  157.0296 H   0  0  0  0  0  0  0  0  0  0  0  0
  152.1759  136.7550  156.2158 H   0  0  0  0  0  0  0  0  0  0  0  0
  151.1406  137.4128  154.9919 H   0  0  0  0  0  0  0  0  0  0  0  0
  149.9875  136.7296  157.7293 H   0  0  0  0  0  0  0  0  0  0  0  0
  149.1272  136.9060  156.2155 H   0  0  0  0  0  0  0  0  0  0  0  0
  149.8585  135.3238  154.4449 H   0  0  0  0  0  0  0  0  0  0  0  0
  150.7551  133.1534  153.8976 H   0  0  0  0  0  0  0  0  0  0  0  0
  150.4237  132.6025  155.5191 H   0  0  0  0  0  0  0  0  0  0  0  0
  147.9013  133.1250  154.9315 H   0  0  0  0  0  0  0  0  0  0  0  0
  149.3041  130.7172  153.6870 H   0  0  0  0  0  0  0  0  0  0  0  0
  147.5865  130.8319  154.0649 H   0  0  0  0  0  0  0  0  0  0  0  0
  148.7730  130.8512  155.3620 H   0  0  0  0  0  0  0  0  0  0  0  0
  149.0348  132.8503  152.1048 H   0  0  0  0  0  0  0  0  0  0  0  0
  148.2656  134.2884  152.7720 H   0  0  0  0  0  0  0  0  0  0  0  0
  147.3249  132.8272  152.5258 H   0  0  0  0  0  0  0  0  0  0  0  0
  1 25  1  0  0  0  0
  1 26  1  0  0  0  0
  1 27  1  0  0  0  0
  1  2  1  0  0  0  0
  2 14  2  0  0  0  0
  2  3  1  0  0  0  0
  3 24  1  0  0  0  0
  3  4  1  0  0  0  0
  4  5  1  0  0  0  0
  4 11  2  0  0  0  0
  5 10  1  0  0  0  0
  5  6  1  0  0  0  0
  6  7  1  0  0  0  0
  6 28  1  0  0  0  0
  6 29  1  0  0  0  0
  7  8  1  0  0  0  0
  7 30  1  0  0  0  0
  7 31  1  0  0  0  0
  8  9  1  0  0  0  0
  9 10  1  0  0  0  0
  9 32  1  0  0  0  0
  9 33  1  0  0  0  0
 10 34  1  0  0  0  0
 10 35  1  0  0  0  0
 11 12  1  0  0  0  0
 12 13  2  0  0  0  0
 12 14  1  0  0  0  0
 14 15  1  0  0  0  0
 15 16  1  0  0  0  0
 15 36  1  0  0  0  0
 15 37  1  0  0  0  0
 16 17  1  0  0  0  0
 16 38  1  0  0  0  0
 16 39  1  0  0  0  0
 17 18  2  0  0  0  0
 17 19  1  0  0  0  0
 19 20  1  0  0  0  0
 19 40  1  0  0  0  0
 20 21  1  0  0  0  0
 20 41  1  0  0  0  0
 20 42  1  0  0  0  0
 21 22  1  0  0  0  0
 21 23  1  0  0  0  0
 21 43  1  0  0  0  0
 22 44  1  0  0  0  0
 22 45  1  0  0  0  0
 22 46  1  0  0  0  0
 23 47  1  0  0  0  0
 23 48  1  0  0  0  0
 23 49  1  0  0  0  0
M  END
> <s_m_source_file>
AV-unprocessed.smi

> <i_m_source_file_index>
1501

> <i_lp_mmshare_version>
43012

> <i_f3d_flags>
0

> <s_epik_input>
W0NIMl0xW0NIMl1PW0NIMl1bQ0gyXU4xYyhuYzJbQ0gzXSlbbkhdYyg9TyljMltDSDJdW0NIMl1DKD1PKVtOSF1bQ0gyXVtDSF0oW0NIM10pW0NIM10=

> <s_epik_cmdline>
J2VwaWtfcHl0aG9uJywgJy1waCcsICc3LjAnLCAnLXRuJywgJzgnLCAnLW1hJywgJzIwMCcsICctbWV0YWxfYmluZGluZycsICctaW1hZScsICc8aW5maWxlLm1hZT4nLCAnLW9tYWUnLCAnPG91dGZpbGUubWFlPic=

> <r_lp_tautomer_probability>
0.108306

> <r_epik_Ionization_Penalty>
0.0740208

> <r_epik_Ionization_Penalty_Charging>
0.0617106

> <r_epik_Ionization_Penalty_Neutral>
0.0123101

> <r_epik_State_Penalty>
1.70915

> <r_epik_Charging_Adjusted_Penalty>
1.77086

> <i_epik_Tot_Q>
0

> <i_epik_Tot_abs_Q>
0

> <r_epik_Metal_State_Penalty>
2.68075

> <b_epik_Metal_Only>
0

> <s_lp_Force_Field>
OPLS_2005

> <r_lp_Energy>
26.7913

> <b_lp_Chiralities_Consistent>
1

> <s_lp_Variant>
AV-unprocessed.smi:1501-2

> <Gold.Version>
5.8.1

> <Gold.Id.Protein>
6NUR|6NUR_protein|mol2

> <Gold.PLP.Fitness>
45.0121

> <Gold.PLP.PLP>
-40.7750

> <Gold.PLP.part.hbond>
-2.0000

> <Gold.PLP.part.metal>
0.0000

> <Gold.PLP.part.buried>
-7.0431

> <Gold.PLP.part.nonpolar>
-31.8148

> <Gold.PLP.part.repulsive>
0.3409

> <Gold.PLP.ligand.clash>
0.0000

> <Gold.PLP.ligand.torsion>
0.6305

> <Gold.PLP.Chemscore.Hbond>
1.7040

> <Gold.PLP.Chemscore.CHOScore>
0.0000

> <Gold.PLP.Chemscore.Metal>
0.0000

> <Gold.Chemscore.Hbonds>
donor molecule, donor type, donor heavy atom, donor atom, acceptor molecule, acceptor atom, score
      P1  H  6896  6908       L1    18  0.74
      P1  H  7989  7998       L1    13  1.00

> <Gold.PLP.Chemscore.Internal.Correction>
0.3861

> <Gold.Rescore>
     Score         DG    S(hbond)    S(metal)    S(lipo)     H(rot)  DE(clash)    DE(int)     intcor
     17.00     -17.64       1.89        0.00      90.02       1.83       0.00       0.64       ----

> <Gold.Chemscore.Fitness>
16.9992

> <Gold.Chemscore.DG>
-17.6425

> <Gold.Chemscore.ZeroCoef>
-5.4800

> <Gold.Chemscore.Hbond>
1.8932

> <Gold.Chemscore.Metal>
0.0000

> <Gold.Chemscore.Lipo>
90.0245

> <Gold.Chemscore.Internal_Hbond>
0.0000

> <Gold.Chemscore.DEClash>
0.0004

> <Gold.Chemscore.DEInternal>
0.6429

> <Gold.Chemscore.Rot>
1.8335

> <Gold.Chemscore.Internal.Correction>
   9.000000E+99

> <Gold.Chemscore.Hbonds>
donor molecule, donor type, donor heavy atom, donor atom, acceptor molecule, acceptor atom, score
      P1  H  6896  6908       L1    18  0.71
      P1  H  7989  7998       L1    13  0.99

> <Gold.Chemscore.Hbond.Weighted>
-6.3234

> <Gold.Chemscore.Metal.Weighted>
-0.0000

> <Gold.Chemscore.Lipo.Weighted>
-10.5329

> <Gold.Chemscore.Internal_Hbond.Weighted>
0.0000

> <Gold.Chemscore.DEClash.Weighted>
0.0004

> <Gold.Chemscore.DEInternal.Weighted>
0.6429

> <Gold.Chemscore.Rot.Weighted>
4.6938

> <Gold.Chemscore.Internal.Correction.Weighted>
   9.000000E+99

> <Gold.Protein.RotatedTorsions>
[ 6907 6896 6895 6894 ] final  120.37 input  -60.11 | X-H torsion
[ 7974 7965 7964 7962 ] final -148.13 input  175.53 | X-H torsion
[ 8008 7997 7996 7995 ] final  -36.75 input   59.86 | X-H torsion
[ 10167 10162 10161 10158 ] final -102.98 input  -65.29 | X-H torsion
[ 10718 10713 10712 10709 ] final -109.29 input   66.30 | X-H torsion
[ 10763 10752 10751 10750 ] final  -35.19 input  -60.55 | X-H torsion
[ 11005 11000 10999 10996 ] final   78.99 input  -57.11 | X-H torsion

> <Gold.Protein.ActiveResidues>
 VAL166  LYS551  ARG553  GLY616  TRP617  ASP618  TYR619  PRO620  LYS621  CYS622 
 ASP623  PHE694  ASN695  SER759  ASP760  ASP761  ALA762  ILE779  LEU786  VAL792 
 PHE793  MET794  SER795  GLU796  ALA797  LYS798  CYS799  TRP800  GLU811  SER814 

> <Gold.Protein.RotatedAtoms>
  152.4403  133.7436  159.6654 H   0  0  0  0  0  0  0  0  0  0  0  0  # atno 6907 bound_to 6896
  150.8293  133.8108  159.3111 H   0  0  0  0  0  0  0  0  0  0  0  0  # atno 6908 bound_to 6896
  151.5767  135.1062  160.0059 H   0  0  0  0  0  0  0  0  0  0  0  0  # atno 6909 bound_to 6896
  144.8049  140.5236  143.5682 H   0  0  0  0  0  0  0  0  0  0  0  0  # atno 7974 bound_to 7965
  154.4067  140.1622  156.2424 H   0  0  0  0  0  0  0  0  0  0  0  0  # atno 8008 bound_to 7997
  155.9189  140.3422  155.6134 H   0  0  0  0  0  0  0  0  0  0  0  0  # atno 8009 bound_to 7997
  155.7246  140.0772  157.2306 H   0  0  0  0  0  0  0  0  0  0  0  0  # atno 8010 bound_to 7997
  140.2249  143.3649  152.0938 H   0  0  0  0  0  0  0  0  0  0  0  0  # atno 10167 bound_to 10162
  156.0529  130.5756  150.8079 H   0  0  0  0  0  0  0  0  0  0  0  0  # atno 10718 bound_to 10713
  153.8592  135.6841  153.4784 H   0  0  0  0  0  0  0  0  0  0  0  0  # atno 10763 bound_to 10752
  153.1352  135.4681  154.9408 H   0  0  0  0  0  0  0  0  0  0  0  0  # atno 10764 bound_to 10752
  154.7766  135.3255  154.8027 H   0  0  0  0  0  0  0  0  0  0  0  0  # atno 10765 bound_to 10752
  139.9190  134.7807  156.1721 H   0  0  0  0  0  0  0  0  0  0  0  0  # atno 11005 bound_to 11000
  145.5463  139.1476  143.3419 LP  0  0  0  0  0  0  0  0  0  0  0  0  # atno 17320 bound_to 7965
  146.2338  140.5602  142.8964 LP  0  0  0  0  0  0  0  0  0  0  0  0  # atno 17321 bound_to 7965
  139.5131  144.6927  151.5716 LP  0  0  0  0  0  0  0  0  0  0  0  0  # atno 17342 bound_to 10162
  140.6228  143.9226  150.6540 LP  0  0  0  0  0  0  0  0  0  0  0  0  # atno 17343 bound_to 10162
  157.5472  131.0943  150.9746 LP  0  0  0  0  0  0  0  0  0  0  0  0  # atno 17370 bound_to 10713
  157.0014  130.5601  149.5312 LP  0  0  0  0  0  0  0  0  0  0  0  0  # atno 17371 bound_to 10713
  141.0694  133.6804  156.2110 LP  0  0  0  0  0  0  0  0  0  0  0  0  # atno 17394 bound_to 11000
  140.6531  134.5046  157.5579 LP  0  0  0  0  0  0  0  0  0  0  0  0  # atno 17395 bound_to 11000

$$$$
