AV-unprocessed.smi:142|AV-procd|sdf|1190|dock1
  -GOLD-   2262018343D 1   1.00000     0.00000
 Structure written by MMmdl.
 52 55  0  0  0  0  0  0  0  0  1 V2000
  152.8319  138.4912  159.4873 C   0  0  0  0  0  0  0  0  0  0  0  0
  152.1991  139.0565  158.2086 C   0  0  1  0  0  0  0  0  0  0  0  0
  150.9736  138.3189  157.9100 N   0  0  0  0  0  0  0  0  0  0  0  0
  150.9168  137.0215  157.5729 C   0  0  0  0  0  0  0  0  0  0  0  0
  151.9064  136.2890  157.5375 O   0  0  0  0  0  0  0  0  0  0  0  0
  149.5255  136.4759  157.2222 C   0  0  0  0  0  0  0  0  0  0  0  0
  148.9443  135.6632  158.3125 N   0  0  0  0  0  0  0  0  0  0  0  0
  148.6101  134.3094  158.0596 C   0  0  0  0  0  0  0  0  0  0  0  0
  148.8018  133.7984  156.9552 O   0  0  0  0  0  0  0  0  0  0  0  0
  148.0299  133.5838  159.1840 C   0  0  0  0  0  0  0  0  0  0  0  0
  147.7007  132.2888  159.0415 F   0  0  0  0  0  0  0  0  0  0  0  0
  147.8205  134.1915  160.3699 C   0  0  0  0  0  0  0  0  0  0  0  0
  148.1327  135.5197  160.5964 N   0  0  0  0  0  0  0  0  0  0  0  0
  147.8803  136.1734  161.9375 C   0  0  2  0  0  0  0  0  0  0  0  0
  147.2079  135.1807  162.8922 C   0  0  0  0  0  0  0  0  0  0  0  0
  145.7419  135.4843  162.6715 C   0  0  0  0  0  0  0  0  0  0  0  0
  145.7723  136.9909  162.4400 C   0  0  0  0  0  0  0  0  0  0  0  0
  147.0022  137.2490  161.7665 O   0  0  0  0  0  0  0  0  0  0  0  0
  148.7141  136.2858  159.5631 C   0  0  0  0  0  0  0  0  0  0  0  0
  149.0142  137.4679  159.7476 O   0  0  0  0  0  0  0  0  0  0  0  0
  151.9743  140.5613  158.3289 C   0  0  0  0  0  0  0  0  0  0  0  0
  151.4040  141.3043  157.2697 C   0  0  0  0  0  0  0  0  0  0  0  0
  151.2064  142.6922  157.3975 C   0  0  0  0  0  0  0  0  0  0  0  0
  151.5719  143.3517  158.5880 C   0  0  0  0  0  0  0  0  0  0  0  0
  151.3774  144.7420  158.7213 C   0  0  0  0  0  0  0  0  0  0  0  0
  151.7440  145.3943  159.9147 C   0  0  0  0  0  0  0  0  0  0  0  0
  152.3054  144.6599  160.9773 C   0  0  0  0  0  0  0  0  0  0  0  0
  152.5020  143.2710  160.8495 C   0  0  0  0  0  0  0  0  0  0  0  0
  152.1369  142.6125  159.6568 C   0  0  0  0  0  0  0  0  0  0  0  0
  152.3325  141.2227  159.5230 C   0  0  0  0  0  0  0  0  0  0  0  0
  153.7835  138.9785  159.7007 H   0  0  0  0  0  0  0  0  0  0  0  0
  153.0245  137.4220  159.3925 H   0  0  0  0  0  0  0  0  0  0  0  0
  152.1822  138.6383  160.3509 H   0  0  0  0  0  0  0  0  0  0  0  0
  152.8996  138.8831  157.3892 H   0  0  0  0  0  0  0  0  0  0  0  0
  150.1114  138.8442  157.9207 H   0  0  0  0  0  0  0  0  0  0  0  0
  148.8880  137.3199  156.9558 H   0  0  0  0  0  0  0  0  0  0  0  0
  149.5833  135.8867  156.3050 H   0  0  0  0  0  0  0  0  0  0  0  0
  147.3934  133.6018  161.1672 H   0  0  0  0  0  0  0  0  0  0  0  0
  148.8481  136.5398  162.2839 H   0  0  0  0  0  0  0  0  0  0  0  0
  147.4860  134.1468  162.6848 H   0  0  0  0  0  0  0  0  0  0  0  0
  147.5000  135.4280  163.9136 H   0  0  0  0  0  0  0  0  0  0  0  0
  145.3794  134.9702  161.7804 H   0  0  0  0  0  0  0  0  0  0  0  0
  145.1121  135.1949  163.5131 H   0  0  0  0  0  0  0  0  0  0  0  0
  144.9179  137.3446  161.8626 H   0  0  0  0  0  0  0  0  0  0  0  0
  145.7803  137.5196  163.3939 H   0  0  0  0  0  0  0  0  0  0  0  0
  151.1146  140.8156  156.3509 H   0  0  0  0  0  0  0  0  0  0  0  0
  150.7732  143.2462  156.5775 H   0  0  0  0  0  0  0  0  0  0  0  0
  150.9475  145.3132  157.9113 H   0  0  0  0  0  0  0  0  0  0  0  0
  151.5945  146.4592  160.0147 H   0  0  0  0  0  0  0  0  0  0  0  0
  152.5861  145.1620  161.8915 H   0  0  0  0  0  0  0  0  0  0  0  0
  152.9343  142.7155  161.6693 H   0  0  0  0  0  0  0  0  0  0  0  0
  152.7636  140.6598  160.3386 H   0  0  0  0  0  0  0  0  0  0  0  0
  1  2  1  0  0  0  0
  1 31  1  0  0  0  0
  1 32  1  0  0  0  0
  1 33  1  0  0  0  0
  2  3  1  0  0  0  0
  2 21  1  0  0  0  0
  2 34  1  0  0  0  0
  3  4  1  0  0  0  0
  3 35  1  0  0  0  0
  4  5  2  0  0  0  0
  4  6  1  0  0  0  0
  6  7  1  0  0  0  0
  6 36  1  0  0  0  0
  6 37  1  0  0  0  0
  7 19  1  0  0  0  0
  7  8  1  0  0  0  0
  8  9  2  0  0  0  0
  8 10  1  0  0  0  0
 10 11  1  0  0  0  0
 10 12  2  0  0  0  0
 12 13  1  0  0  0  0
 12 38  1  0  0  0  0
 13 14  1  0  0  0  0
 13 19  1  0  0  0  0
 14 18  1  0  0  0  0
 14 15  1  0  0  0  0
 14 39  1  0  0  0  0
 15 16  1  0  0  0  0
 15 40  1  0  0  0  0
 15 41  1  0  0  0  0
 16 17  1  0  0  0  0
 16 42  1  0  0  0  0
 16 43  1  0  0  0  0
 17 18  1  0  0  0  0
 17 44  1  0  0  0  0
 17 45  1  0  0  0  0
 19 20  2  0  0  0  0
 21 30  1  0  0  0  0
 21 22  2  0  0  0  0
 22 23  1  0  0  0  0
 22 46  1  0  0  0  0
 23 24  2  0  0  0  0
 23 47  1  0  0  0  0
 24 29  1  0  0  0  0
 24 25  1  0  0  0  0
 25 26  2  0  0  0  0
 25 48  1  0  0  0  0
 26 27  1  0  0  0  0
 26 49  1  0  0  0  0
 27 28  2  0  0  0  0
 27 50  1  0  0  0  0
 28 29  1  0  0  0  0
 28 51  1  0  0  0  0
 29 30  2  0  0  0  0
 30 52  1  0  0  0  0
M  END
> <s_m_source_file>
AV-unprocessed.smi

> <i_m_source_file_index>
142

> <i_lp_mmshare_version>
43012

> <i_f3d_flags>
0

> <s_epik_input>
W2NIXTFbY0hdW2NIXVtjSF1jKGMxMilbY0hdYyhbY0hdW2NIXTIpW0NASF0oW0NIM10pW05IXUMoPU8pW0NIMl1uM2MoPU8pYyhGKVtjSF1uKGMzPU8pW0NAQEhdNFtDSDJdW0NIMl1bQ0gyXU80

> <s_epik_cmdline>
J2VwaWtfcHl0aG9uJywgJy1waCcsICc3LjAnLCAnLXRuJywgJzgnLCAnLW1hJywgJzIwMCcsICctbWV0YWxfYmluZGluZycsICctaW1hZScsICc8aW5maWxlLm1hZT4nLCAnLW9tYWUnLCAnPG91dGZpbGUubWFlPic=

> <r_lp_tautomer_probability>
1

> <r_epik_Ionization_Penalty>
3.35688e-08

> <r_epik_Ionization_Penalty_Charging>
3.59856e-09

> <r_epik_Ionization_Penalty_Neutral>
2.99702e-08

> <r_epik_State_Penalty>
-0

> <r_epik_Charging_Adjusted_Penalty>
3.59856e-09

> <i_epik_Tot_Q>
0

> <i_epik_Tot_abs_Q>
0

> <r_epik_Metal_State_Penalty>
-0

> <b_epik_Metal_Only>
0

> <s_epik_Chemistry_Notes>
This compound contains an acetal/aminal-like group ( X-CH(R)-Y where X, Y are N, S, or O) that may be acid/base labile, releasing an aldehyde.

> <s_lp_Force_Field>
OPLS_2005

> <r_lp_Energy>
30.4955

> <b_lp_Chiralities_Consistent>
1

> <s_lp_Variant>
AV-unprocessed.smi:142-2

> <Gold.Version>
5.8.1

> <Gold.Id.Protein>
6NUR|6NUR_protein|mol2

> <Gold.PLP.Fitness>
61.5239

> <Gold.PLP.PLP>
-58.6846

> <Gold.PLP.part.hbond>
-3.8046

> <Gold.PLP.part.metal>
0.0000

> <Gold.PLP.part.buried>
-8.7501

> <Gold.PLP.part.nonpolar>
-47.0145

> <Gold.PLP.part.repulsive>
0.0494

> <Gold.PLP.ligand.clash>
0.0000

> <Gold.PLP.ligand.torsion>
0.2899

> <Gold.PLP.Chemscore.Hbond>
1.1136

> <Gold.PLP.Chemscore.CHOScore>
0.0000

> <Gold.PLP.Chemscore.Metal>
0.0000

> <Gold.Chemscore.Hbonds>
donor molecule, donor type, donor heavy atom, donor atom, acceptor molecule, acceptor atom, score
      P1  H  6931  6943       L1    20  0.12
      P1  H  6934  6947       L1    18  0.91

> <Gold.PLP.Chemscore.Internal.Correction>
0.0783

> <Gold.Rescore>
     Score         DG    S(hbond)    S(metal)    S(lipo)     H(rot)  DE(clash)    DE(int)     intcor
     16.90     -21.21       1.12        0.00     146.47       2.02       0.12       4.18       ----

> <Gold.Chemscore.Fitness>
16.9047

> <Gold.Chemscore.DG>
-21.2057

> <Gold.Chemscore.ZeroCoef>
-5.4800

> <Gold.Chemscore.Hbond>
1.1239

> <Gold.Chemscore.Metal>
0.0000

> <Gold.Chemscore.Lipo>
146.4666

> <Gold.Chemscore.Internal_Hbond>
0.0000

> <Gold.Chemscore.DEClash>
0.1206

> <Gold.Chemscore.DEInternal>
4.1804

> <Gold.Chemscore.Rot>
2.0175

> <Gold.Chemscore.Internal.Correction>
   9.000000E+99

> <Gold.Chemscore.Hbonds>
donor molecule, donor type, donor heavy atom, donor atom, acceptor molecule, acceptor atom, score
      P1  H  6931  6943       L1    20  0.12
      P1  H  6934  6947       L1    18  0.81

> <Gold.Chemscore.Hbond.Weighted>
-3.7539

> <Gold.Chemscore.Metal.Weighted>
-0.0000

> <Gold.Chemscore.Lipo.Weighted>
-17.1366

> <Gold.Chemscore.Internal_Hbond.Weighted>
0.0000

> <Gold.Chemscore.DEClash.Weighted>
0.1206

> <Gold.Chemscore.DEInternal.Weighted>
4.1804

> <Gold.Chemscore.Rot.Weighted>
5.1648

> <Gold.Chemscore.Internal.Correction.Weighted>
   9.000000E+99

> <Gold.Protein.RotatedTorsions>
[ 6907 6896 6895 6894 ] final  134.54 input  -60.11 | X-H torsion
[ 7974 7965 7964 7962 ] final   23.14 input  175.53 | X-H torsion
[ 8008 7997 7996 7995 ] final  137.58 input   59.86 | X-H torsion
[ 10167 10162 10161 10158 ] final   97.89 input  -65.29 | X-H torsion
[ 10718 10713 10712 10709 ] final  -77.69 input   66.30 | X-H torsion
[ 10763 10752 10751 10750 ] final -111.28 input  -60.55 | X-H torsion
[ 11005 11000 10999 10996 ] final -125.94 input  -57.11 | X-H torsion

> <Gold.Protein.ActiveResidues>
 VAL166  LYS551  ARG553  GLY616  TRP617  ASP618  TYR619  PRO620  LYS621  CYS622 
 ASP623  PHE694  ASN695  SER759  ASP760  ASP761  ALA762  ILE779  LEU786  VAL792 
 PHE793  MET794  SER795  GLU796  ALA797  LYS798  CYS799  TRP800  GLU811  SER814 

> <Gold.Protein.RotatedAtoms>
  152.3102  133.5744  159.5675 H   0  0  0  0  0  0  0  0  0  0  0  0  # atno 6907 bound_to 6896
  150.7319  134.0164  159.3695 H   0  0  0  0  0  0  0  0  0  0  0  0  # atno 6908 bound_to 6896
  151.8057  135.0696  160.0457 H   0  0  0  0  0  0  0  0  0  0  0  0  # atno 6909 bound_to 6896
  146.1998  139.7786  142.8770 H   0  0  0  0  0  0  0  0  0  0  0  0  # atno 7974 bound_to 7965
  156.3001  140.2415  156.3933 H   0  0  0  0  0  0  0  0  0  0  0  0  # atno 8008 bound_to 7997
  154.8593  140.0420  157.1675 H   0  0  0  0  0  0  0  0  0  0  0  0  # atno 8009 bound_to 7997
  154.8913  140.2963  155.5373 H   0  0  0  0  0  0  0  0  0  0  0  0  # atno 8010 bound_to 7997
  139.7759  144.6906  151.0090 H   0  0  0  0  0  0  0  0  0  0  0  0  # atno 10167 bound_to 10162
  156.0138  130.4498  150.3383 H   0  0  0  0  0  0  0  0  0  0  0  0  # atno 10718 bound_to 10713
  154.8292  135.4533  154.1015 H   0  0  0  0  0  0  0  0  0  0  0  0  # atno 10763 bound_to 10752
  153.2303  135.6904  153.7904 H   0  0  0  0  0  0  0  0  0  0  0  0  # atno 10764 bound_to 10752
  153.7289  135.3330  155.3258 H   0  0  0  0  0  0  0  0  0  0  0  0  # atno 10765 bound_to 10752
  140.9721  134.0790  157.3858 H   0  0  0  0  0  0  0  0  0  0  0  0  # atno 11005 bound_to 11000
  145.3524  141.0310  143.3331 LP  0  0  0  0  0  0  0  0  0  0  0  0  # atno 17320 bound_to 7965
  144.8657  139.5111  143.6791 LP  0  0  0  0  0  0  0  0  0  0  0  0  # atno 17321 bound_to 7965
  140.7816  143.4536  151.0377 LP  0  0  0  0  0  0  0  0  0  0  0  0  # atno 17342 bound_to 10162
  139.8219  143.7809  152.3177 LP  0  0  0  0  0  0  0  0  0  0  0  0  # atno 17343 bound_to 10162
  157.1479  131.0313  151.2898 LP  0  0  0  0  0  0  0  0  0  0  0  0  # atno 17370 bound_to 10713
  157.4417  130.7548  149.7075 LP  0  0  0  0  0  0  0  0  0  0  0  0  # atno 17371 bound_to 10713
  139.8916  135.0120  156.6802 LP  0  0  0  0  0  0  0  0  0  0  0  0  # atno 17394 bound_to 11000
  140.7313  133.9057  155.8213 LP  0  0  0  0  0  0  0  0  0  0  0  0  # atno 17395 bound_to 11000

$$$$
