AV-unprocessed.smi:232|AV-procd|sdf|1773|dock5
  -GOLD-   2262020313D 1   1.00000     0.00000
 Structure written by MMmdl.
 52 55  0  0  0  0  0  0  0  0  1 V2000
  151.7959  145.1638  160.0638 C   0  0  0  0  0  0  0  0  0  0  0  0
  151.9323  144.1701  158.9039 C   0  0  0  0  0  0  0  0  0  0  0  0
  151.9634  142.6987  159.3663 C   0  0  2  0  0  0  0  0  0  0  0  0
  153.3121  142.2555  159.9505 C   0  0  0  0  0  0  0  0  0  0  0  0
  153.4264  140.7696  159.5883 C   0  0  0  0  0  0  0  0  0  0  0  0
  152.1550  140.4639  158.7861 C   0  0  2  0  0  0  0  0  0  0  0  0
  152.3669  139.4176  157.6787 C   0  0  0  0  0  0  0  0  0  0  0  0
  151.7157  141.7579  158.2792 N   0  0  0  0  0  0  0  0  0  0  0  0
  150.4700  141.7684  157.7493 C   0  0  0  0  0  0  0  0  0  0  0  0
  149.4137  142.2280  158.4719 N   0  0  0  0  0  0  0  0  0  0  0  0
  148.1897  142.2331  157.9340 C   0  0  0  0  0  0  0  0  0  0  0  0
  147.8094  141.8329  156.7182 N   0  0  0  0  0  0  0  0  0  0  0  0
  148.8696  141.3687  155.9958 C   0  0  0  0  0  0  0  0  0  0  0  0
  150.2211  141.2998  156.4335 C   0  0  0  0  0  0  0  0  0  0  0  0
  151.0234  140.7692  155.4316 N   0  0  0  0  0  0  0  0  0  0  0  0
  150.1913  140.5367  154.4529 C   0  0  0  0  0  0  0  0  0  0  0  0
  148.8797  140.8699  154.7055 N   0  0  0  0  0  0  0  0  0  0  0  0
  147.7578  140.7201  153.7959 C   0  0  0  0  0  0  0  0  0  0  0  0
  146.7764  139.6201  154.2459 C   0  0  1  0  0  0  0  0  0  0  0  0
  145.4670  140.1545  154.2939 O   0  0  0  0  0  0  0  0  0  0  0  0
  146.7857  138.4066  153.2976 C   0  0  2  0  0  0  0  0  0  0  0  0
  146.5635  138.7543  151.8243 C   0  0  0  0  0  0  0  0  0  0  0  0
  146.0286  137.4503  151.2796 C   0  0  0  0  0  0  0  0  0  0  0  0
  145.1436  136.9760  152.4275 C   0  0  0  0  0  0  0  0  0  0  0  0
  145.7175  137.5159  153.6156 O   0  0  0  0  0  0  0  0  0  0  0  0
  151.7467  146.1872  159.6911 H   0  0  0  0  0  0  0  0  0  0  0  0
  152.6443  145.1019  160.7454 H   0  0  0  0  0  0  0  0  0  0  0  0
  150.8884  144.9747  160.6381 H   0  0  0  0  0  0  0  0  0  0  0  0
  151.0938  144.3241  158.2239 H   0  0  0  0  0  0  0  0  0  0  0  0
  152.8325  144.3974  158.3312 H   0  0  0  0  0  0  0  0  0  0  0  0
  151.2002  142.5529  160.1327 H   0  0  0  0  0  0  0  0  0  0  0  0
  154.1348  142.8052  159.4908 H   0  0  0  0  0  0  0  0  0  0  0  0
  153.3609  142.4256  161.0264 H   0  0  0  0  0  0  0  0  0  0  0  0
  154.3209  140.6089  158.9849 H   0  0  0  0  0  0  0  0  0  0  0  0
  153.5034  140.1334  160.4705 H   0  0  0  0  0  0  0  0  0  0  0  0
  151.3975  140.0915  159.4782 H   0  0  0  0  0  0  0  0  0  0  0  0
  152.7380  138.4812  158.0953 H   0  0  0  0  0  0  0  0  0  0  0  0
  153.0900  139.7639  156.9394 H   0  0  0  0  0  0  0  0  0  0  0  0
  151.4363  139.1961  157.1556 H   0  0  0  0  0  0  0  0  0  0  0  0
  147.4022  142.6123  158.5685 H   0  0  0  0  0  0  0  0  0  0  0  0
  150.5126  140.1127  153.5127 H   0  0  0  0  0  0  0  0  0  0  0  0
  147.2455  141.6790  153.7081 H   0  0  0  0  0  0  0  0  0  0  0  0
  148.1557  140.4904  152.8068 H   0  0  0  0  0  0  0  0  0  0  0  0
  147.0412  139.2916  155.2518 H   0  0  0  0  0  0  0  0  0  0  0  0
  145.0850  140.0901  153.4318 H   0  0  0  0  0  0  0  0  0  0  0  0
  147.7208  137.8524  153.3984 H   0  0  0  0  0  0  0  0  0  0  0  0
  145.8107  139.5375  151.7213 H   0  0  0  0  0  0  0  0  0  0  0  0
  147.4731  139.0855  151.3225 H   0  0  0  0  0  0  0  0  0  0  0  0
  145.4864  137.5651  150.3409 H   0  0  0  0  0  0  0  0  0  0  0  0
  146.8477  136.7478  151.1198 H   0  0  0  0  0  0  0  0  0  0  0  0
  144.1344  137.3749  152.3209 H   0  0  0  0  0  0  0  0  0  0  0  0
  145.0752  135.8891  152.4763 H   0  0  0  0  0  0  0  0  0  0  0  0
  1  2  1  0  0  0  0
  1 26  1  0  0  0  0
  1 27  1  0  0  0  0
  1 28  1  0  0  0  0
  2  3  1  0  0  0  0
  2 29  1  0  0  0  0
  2 30  1  0  0  0  0
  3  8  1  0  0  0  0
  3  4  1  0  0  0  0
  3 31  1  0  0  0  0
  4  5  1  0  0  0  0
  4 32  1  0  0  0  0
  4 33  1  0  0  0  0
  5  6  1  0  0  0  0
  5 34  1  0  0  0  0
  5 35  1  0  0  0  0
  6  7  1  0  0  0  0
  6  8  1  0  0  0  0
  6 36  1  0  0  0  0
  7 37  1  0  0  0  0
  7 38  1  0  0  0  0
  7 39  1  0  0  0  0
  8  9  1  0  0  0  0
  9 14  1  0  0  0  0
  9 10  2  0  0  0  0
 10 11  1  0  0  0  0
 11 12  2  0  0  0  0
 11 40  1  0  0  0  0
 12 13  1  0  0  0  0
 13 17  1  0  0  0  0
 13 14  2  0  0  0  0
 14 15  1  0  0  0  0
 15 16  2  0  0  0  0
 16 17  1  0  0  0  0
 16 41  1  0  0  0  0
 17 18  1  0  0  0  0
 18 19  1  0  0  0  0
 18 42  1  0  0  0  0
 18 43  1  0  0  0  0
 19 20  1  0  0  0  0
 19 21  1  0  0  0  0
 19 44  1  0  0  0  0
 20 45  1  0  0  0  0
 21 25  1  0  0  0  0
 21 22  1  0  0  0  0
 21 46  1  0  0  0  0
 22 23  1  0  0  0  0
 22 47  1  0  0  0  0
 22 48  1  0  0  0  0
 23 24  1  0  0  0  0
 23 49  1  0  0  0  0
 23 50  1  0  0  0  0
 24 25  1  0  0  0  0
 24 51  1  0  0  0  0
 24 52  1  0  0  0  0
M  END
> <s_m_source_file>
AV-unprocessed.smi

> <i_m_source_file_index>
232

> <i_lp_mmshare_version>
43012

> <i_f3d_flags>
0

> <s_epik_input>
W0NIM11bQ0gyXVtDQEBIXTFbQ0gyXVtDSDJdW0NAQEhdKFtDSDNdKU4xYyhuW2NIXW4yKWMoYzIzKW5bY0hdbjNbQ0gyXVtDQEhdKFtPSF0pW0NAQEhdNFtDSDJdW0NIMl1bQ0gyXU80

> <s_epik_cmdline>
J2VwaWtfcHl0aG9uJywgJy1waCcsICc3LjAnLCAnLXRuJywgJzgnLCAnLW1hJywgJzIwMCcsICctbWV0YWxfYmluZGluZycsICctaW1hZScsICc8aW5maWxlLm1hZT4nLCAnLW9tYWUnLCAnPG91dGZpbGUubWFlPic=

> <r_lp_tautomer_probability>
1

> <r_epik_Ionization_Penalty>
0.00258048

> <r_epik_Ionization_Penalty_Charging>
0

> <r_epik_Ionization_Penalty_Neutral>
0.00258048

> <r_epik_State_Penalty>
0.00168551

> <r_epik_Charging_Adjusted_Penalty>
0.00168551

> <i_epik_Tot_Q>
0

> <i_epik_Tot_abs_Q>
0

> <r_epik_Metal_State_Penalty>
-0

> <b_epik_Metal_Only>
0

> <s_lp_Force_Field>
OPLS_2005

> <r_lp_Energy>
51.2688

> <b_lp_Chiralities_Consistent>
1

> <s_lp_Variant>
AV-unprocessed.smi:232-7

> <Gold.Version>
5.8.1

> <Gold.Id.Protein>
6NUR|6NUR_protein|mol2

> <Gold.PLP.Fitness>
47.9606

> <Gold.PLP.PLP>
-45.4302

> <Gold.PLP.part.hbond>
-2.0000

> <Gold.PLP.part.metal>
0.0000

> <Gold.PLP.part.buried>
-0.0912

> <Gold.PLP.part.nonpolar>
-45.0657

> <Gold.PLP.part.repulsive>
0.4831

> <Gold.PLP.ligand.clash>
0.0000

> <Gold.PLP.ligand.torsion>
1.6299

> <Gold.PLP.Chemscore.Hbond>
0.8960

> <Gold.PLP.Chemscore.CHOScore>
1.0000

> <Gold.PLP.Chemscore.Metal>
0.0000

> <Gold.Chemscore.Hbonds>
donor molecule, donor type, donor heavy atom, donor atom, acceptor molecule, acceptor atom, score
      L1  H    20    45       P1 10175  0.88
      L1  C    16    41       P1  7957  1.00

> <Gold.PLP.Chemscore.Internal.Correction>
0.1021

> <Gold.Rescore>
     Score         DG    S(hbond)    S(metal)    S(lipo)     H(rot)  DE(clash)    DE(int)     intcor
     12.47     -15.46       0.96        0.00     110.97       2.43       1.22       1.77       ----

> <Gold.Chemscore.Fitness>
12.4738

> <Gold.Chemscore.DG>
-15.4576

> <Gold.Chemscore.ZeroCoef>
-5.4800

> <Gold.Chemscore.Hbond>
0.9597

> <Gold.Chemscore.Metal>
0.0000

> <Gold.Chemscore.Lipo>
110.9654

> <Gold.Chemscore.Internal_Hbond>
0.0000

> <Gold.Chemscore.DEClash>
1.2177

> <Gold.Chemscore.DEInternal>
1.7661

> <Gold.Chemscore.Rot>
2.4260

> <Gold.Chemscore.Internal.Correction>
   9.000000E+99

> <Gold.Chemscore.Hbonds>
donor molecule, donor type, donor heavy atom, donor atom, acceptor molecule, acceptor atom, score
      L1  H    20    45       P1 10175  0.87

> <Gold.Chemscore.Hbond.Weighted>
-3.2054

> <Gold.Chemscore.Metal.Weighted>
-0.0000

> <Gold.Chemscore.Lipo.Weighted>
-12.9830

> <Gold.Chemscore.Internal_Hbond.Weighted>
0.0000

> <Gold.Chemscore.DEClash.Weighted>
1.2177

> <Gold.Chemscore.DEInternal.Weighted>
1.7661

> <Gold.Chemscore.Rot.Weighted>
6.2107

> <Gold.Chemscore.Internal.Correction.Weighted>
   9.000000E+99

> <Gold.Protein.RotatedTorsions>
[ 6907 6896 6895 6894 ] final  -39.32 input  -60.11 | X-H torsion
[ 7974 7965 7964 7962 ] final   14.93 input  175.53 | X-H torsion
[ 8008 7997 7996 7995 ] final  -23.19 input   59.86 | X-H torsion
[ 10167 10162 10161 10158 ] final  131.52 input  -65.29 | X-H torsion
[ 10718 10713 10712 10709 ] final -103.44 input   66.30 | X-H torsion
[ 10763 10752 10751 10750 ] final -122.52 input  -60.55 | X-H torsion
[ 11005 11000 10999 10996 ] final -179.00 input  -57.11 | X-H torsion

> <Gold.Protein.ActiveResidues>
 VAL166  LYS551  ARG553  GLY616  TRP617  ASP618  TYR619  PRO620  LYS621  CYS622 
 ASP623  PHE694  ASN695  SER759  ASP760  ASP761  ALA762  ILE779  LEU786  VAL792 
 PHE793  MET794  SER795  GLU796  ALA797  LYS798  CYS799  TRP800  GLU811  SER814 

> <Gold.Protein.RotatedAtoms>
  150.9918  134.9251  159.7903 H   0  0  0  0  0  0  0  0  0  0  0  0  # atno 6907 bound_to 6896
  152.5253  134.3272  159.9179 H   0  0  0  0  0  0  0  0  0  0  0  0  # atno 6908 bound_to 6896
  151.3277  133.3972  159.2694 H   0  0  0  0  0  0  0  0  0  0  0  0  # atno 6909 bound_to 6896
  146.2292  139.8969  142.8545 H   0  0  0  0  0  0  0  0  0  0  0  0  # atno 7974 bound_to 7965
  154.4599  140.1987  156.0273 H   0  0  0  0  0  0  0  0  0  0  0  0  # atno 8008 bound_to 7997
  156.0820  140.3270  155.7678 H   0  0  0  0  0  0  0  0  0  0  0  0  # atno 8009 bound_to 7997
  155.5095  140.0560  157.2916 H   0  0  0  0  0  0  0  0  0  0  0  0  # atno 8010 bound_to 7997
  139.5380  144.6702  151.4719 H   0  0  0  0  0  0  0  0  0  0  0  0  # atno 10167 bound_to 10162
  156.0265  130.5467  150.7253 H   0  0  0  0  0  0  0  0  0  0  0  0  # atno 10718 bound_to 10713
  154.8691  135.4130  154.2795 H   0  0  0  0  0  0  0  0  0  0  0  0  # atno 10763 bound_to 10752
  153.3690  135.7007  153.6658 H   0  0  0  0  0  0  0  0  0  0  0  0  # atno 10764 bound_to 10752
  153.5527  135.3625  155.2738 H   0  0  0  0  0  0  0  0  0  0  0  0  # atno 10765 bound_to 10752
  140.4235  134.6584  157.4676 H   0  0  0  0  0  0  0  0  0  0  0  0  # atno 11005 bound_to 11000
  145.2362  140.9992  143.3962 LP  0  0  0  0  0  0  0  0  0  0  0  0  # atno 17320 bound_to 7965
  144.9490  139.4104  143.6412 LP  0  0  0  0  0  0  0  0  0  0  0  0  # atno 17321 bound_to 7965
  140.6597  143.8525  150.6874 LP  0  0  0  0  0  0  0  0  0  0  0  0  # atno 17342 bound_to 10162
  140.1915  143.4032  152.1859 LP  0  0  0  0  0  0  0  0  0  0  0  0  # atno 17343 bound_to 10162
  157.4859  131.0906  151.0483 LP  0  0  0  0  0  0  0  0  0  0  0  0  # atno 17370 bound_to 10713
  157.0903  130.5939  149.5438 LP  0  0  0  0  0  0  0  0  0  0  0  0  # atno 17371 bound_to 10713
  140.0184  134.6585  155.9276 LP  0  0  0  0  0  0  0  0  0  0  0  0  # atno 17394 bound_to 11000
  141.1774  133.6542  156.4885 LP  0  0  0  0  0  0  0  0  0  0  0  0  # atno 17395 bound_to 11000

$$$$
