AV-unprocessed.smi:189|AV-procd|sdf|1489|dock1
  -GOLD-   2262019303D 1   1.00000     0.00000
 Structure written by MMmdl.
 53 57  0  0  0  0  0  0  0  0  1 V2000
  149.7337  138.6996  154.0923 C   0  0  0  0  0  0  0  0  0  0  0  0
  150.7136  139.6229  154.8424 C   0  0  2  0  0  0  0  0  0  0  0  0
  151.4326  138.9817  156.0354 C   0  0  0  0  0  0  0  0  0  0  0  0
  151.9701  140.1950  156.8084 C   0  0  2  0  0  0  0  0  0  0  0  0
  151.8470  140.0983  158.3391 C   0  0  0  0  0  0  0  0  0  0  0  0
  152.2980  141.3990  159.0391 C   0  0  0  0  0  0  0  0  0  0  0  0
  151.9281  142.6878  158.2685 C   0  0  0  0  0  0  0  0  0  0  0  0
  150.7807  142.4644  157.2728 C   0  0  0  0  0  0  0  0  0  0  0  0
  151.1980  141.4007  156.2254 C   0  0  2  0  0  0  0  0  0  0  0  0
  150.1466  140.8733  155.3500 N   0  0  0  0  0  0  0  0  0  0  0  0
  148.8813  140.8296  155.8389 C   0  0  0  0  0  0  0  0  0  0  0  0
  148.5757  140.0863  156.9360 N   0  0  0  0  0  0  0  0  0  0  0  0
  147.3214  140.0567  157.3959 C   0  0  0  0  0  0  0  0  0  0  0  0
  146.2416  140.6779  156.9163 N   0  0  0  0  0  0  0  0  0  0  0  0
  146.5467  141.4217  155.8141 C   0  0  0  0  0  0  0  0  0  0  0  0
  147.8322  141.5569  155.2205 C   0  0  0  0  0  0  0  0  0  0  0  0
  147.7659  142.4029  154.1214 N   0  0  0  0  0  0  0  0  0  0  0  0
  146.5076  142.7447  154.0635 C   0  0  0  0  0  0  0  0  0  0  0  0
  145.7011  142.1891  155.0321 N   0  0  0  0  0  0  0  0  0  0  0  0
  144.2679  142.3824  155.1870 C   0  0  0  0  0  0  0  0  0  0  0  0
  143.8497  143.8717  155.2016 C   0  0  2  0  0  0  0  0  0  0  0  0
  144.0125  144.4092  153.9005 O   0  0  0  0  0  0  0  0  0  0  0  0
  144.6411  144.7347  156.1811 C   0  0  0  0  0  0  0  0  0  0  0  0
  143.6223  145.7793  156.6140 C   0  0  0  0  0  0  0  0  0  0  0  0
  142.4317  145.0185  156.7229 O   0  0  0  0  0  0  0  0  0  0  0  0
  142.3885  144.0930  155.6413 C   0  0  0  0  0  0  0  0  0  0  0  0
  150.2637  137.8563  153.6495 H   0  0  0  0  0  0  0  0  0  0  0  0
  149.2325  139.2342  153.2848 H   0  0  0  0  0  0  0  0  0  0  0  0
  148.9669  138.2897  154.7500 H   0  0  0  0  0  0  0  0  0  0  0  0
  151.4747  139.9217  154.1196 H   0  0  0  0  0  0  0  0  0  0  0  0
  150.7304  138.4130  156.6457 H   0  0  0  0  0  0  0  0  0  0  0  0
  152.2246  138.2997  155.7250 H   0  0  0  0  0  0  0  0  0  0  0  0
  153.0251  140.3232  156.5616 H   0  0  0  0  0  0  0  0  0  0  0  0
  150.8076  139.8989  158.6021 H   0  0  0  0  0  0  0  0  0  0  0  0
  152.4208  139.2515  158.7163 H   0  0  0  0  0  0  0  0  0  0  0  0
  151.8576  141.4277  160.0363 H   0  0  0  0  0  0  0  0  0  0  0  0
  153.3778  141.3795  159.1908 H   0  0  0  0  0  0  0  0  0  0  0  0
  151.6735  143.4813  158.9718 H   0  0  0  0  0  0  0  0  0  0  0  0
  152.8014  143.0413  157.7187 H   0  0  0  0  0  0  0  0  0  0  0  0
  149.9025  142.1600  157.8417 H   0  0  0  0  0  0  0  0  0  0  0  0
  150.5172  143.3971  156.7736 H   0  0  0  0  0  0  0  0  0  0  0  0
  151.8868  141.9074  155.5474 H   0  0  0  0  0  0  0  0  0  0  0  0
  147.1594  139.4459  158.2715 H   0  0  0  0  0  0  0  0  0  0  0  0
  146.1292  143.4094  153.3007 H   0  0  0  0  0  0  0  0  0  0  0  0
  143.7560  141.8509  154.3838 H   0  0  0  0  0  0  0  0  0  0  0  0
  143.9627  141.8995  156.1165 H   0  0  0  0  0  0  0  0  0  0  0  0
  143.7147  143.7698  153.2717 H   0  0  0  0  0  0  0  0  0  0  0  0
  144.9302  144.1476  157.0537 H   0  0  0  0  0  0  0  0  0  0  0  0
  145.5482  145.1667  155.7560 H   0  0  0  0  0  0  0  0  0  0  0  0
  143.8837  146.2590  157.5575 H   0  0  0  0  0  0  0  0  0  0  0  0
  143.5006  146.5511  155.8520 H   0  0  0  0  0  0  0  0  0  0  0  0
  141.7751  144.5017  154.8366 H   0  0  0  0  0  0  0  0  0  0  0  0
  141.9112  143.1722  155.9781 H   0  0  0  0  0  0  0  0  0  0  0  0
  1  2  1  0  0  0  0
  1 27  1  0  0  0  0
  1 28  1  0  0  0  0
  1 29  1  0  0  0  0
  2 10  1  0  0  0  0
  2  3  1  0  0  0  0
  2 30  1  0  0  0  0
  3  4  1  0  0  0  0
  3 31  1  0  0  0  0
  3 32  1  0  0  0  0
  4  9  1  0  0  0  0
  4  5  1  0  0  0  0
  4 33  1  0  0  0  0
  5  6  1  0  0  0  0
  5 34  1  0  0  0  0
  5 35  1  0  0  0  0
  6  7  1  0  0  0  0
  6 36  1  0  0  0  0
  6 37  1  0  0  0  0
  7  8  1  0  0  0  0
  7 38  1  0  0  0  0
  7 39  1  0  0  0  0
  8  9  1  0  0  0  0
  8 40  1  0  0  0  0
  8 41  1  0  0  0  0
  9 10  1  0  0  0  0
  9 42  1  0  0  0  0
 10 11  1  0  0  0  0
 11 16  1  0  0  0  0
 11 12  2  0  0  0  0
 12 13  1  0  0  0  0
 13 14  2  0  0  0  0
 13 43  1  0  0  0  0
 14 15  1  0  0  0  0
 15 19  1  0  0  0  0
 15 16  2  0  0  0  0
 16 17  1  0  0  0  0
 17 18  2  0  0  0  0
 18 19  1  0  0  0  0
 18 44  1  0  0  0  0
 19 20  1  0  0  0  0
 20 21  1  0  0  0  0
 20 45  1  0  0  0  0
 20 46  1  0  0  0  0
 21 26  1  0  0  0  0
 21 22  1  0  0  0  0
 21 23  1  0  0  0  0
 22 47  1  0  0  0  0
 23 24  1  0  0  0  0
 23 48  1  0  0  0  0
 23 49  1  0  0  0  0
 24 25  1  0  0  0  0
 24 50  1  0  0  0  0
 24 51  1  0  0  0  0
 25 26  1  0  0  0  0
 26 52  1  0  0  0  0
 26 53  1  0  0  0  0
M  END
> <s_m_source_file>
AV-unprocessed.smi

> <i_m_source_file_index>
189

> <i_lp_mmshare_version>
43012

> <i_f3d_flags>
0

> <s_epik_input>
W0NIMl0xW0NIMl1bQ0gyXVtDSDJdW0NASF0oW0NASF0xMilOKFtDQEhdKFtDSDNdKVtDSDJdMiljKG5bY0hdbjMpYyhjMzQpbltjSF1uNFtDSDJdW0NAQF01KFtPSF0pW0NIMl1bQ0gyXU9bQ0gyXTU=

> <s_epik_cmdline>
J2VwaWtfcHl0aG9uJywgJy1waCcsICc3LjAnLCAnLXRuJywgJzgnLCAnLW1hJywgJzIwMCcsICctbWV0YWxfYmluZGluZycsICctaW1hZScsICc8aW5maWxlLm1hZT4nLCAnLW9tYWUnLCAnPG91dGZpbGUubWFlPic=

> <r_lp_tautomer_probability>
1

> <r_epik_Ionization_Penalty>
0.00594261

> <r_epik_Ionization_Penalty_Charging>
0

> <r_epik_Ionization_Penalty_Neutral>
0.00594261

> <r_epik_State_Penalty>
0.00429776

> <r_epik_Charging_Adjusted_Penalty>
0.00429776

> <i_epik_Tot_Q>
0

> <i_epik_Tot_abs_Q>
0

> <r_epik_Metal_State_Penalty>
-0

> <b_epik_Metal_Only>
0

> <s_lp_Force_Field>
OPLS_2005

> <r_lp_Energy>
67.2452

> <b_lp_Chiralities_Consistent>
1

> <s_lp_Variant>
AV-unprocessed.smi:189-15

> <Gold.Version>
5.8.1

> <Gold.Id.Protein>
6NUR|6NUR_protein|mol2

> <Gold.PLP.Fitness>
39.0085

> <Gold.PLP.PLP>
-36.3057

> <Gold.PLP.part.hbond>
-1.9912

> <Gold.PLP.part.metal>
0.0000

> <Gold.PLP.part.buried>
-5.5864

> <Gold.PLP.part.nonpolar>
-30.2704

> <Gold.PLP.part.repulsive>
1.2821

> <Gold.PLP.ligand.clash>
0.0000

> <Gold.PLP.ligand.torsion>
0.1662

> <Gold.PLP.Chemscore.Hbond>
1.0000

> <Gold.PLP.Chemscore.CHOScore>
0.0000

> <Gold.PLP.Chemscore.Metal>
0.0000

> <Gold.Chemscore.Hbonds>
donor molecule, donor type, donor heavy atom, donor atom, acceptor molecule, acceptor atom, score
      L1  H    22    47       P1 10174  1.00

> <Gold.PLP.Chemscore.Internal.Correction>
0.0353

> <Gold.Rescore>
     Score         DG    S(hbond)    S(metal)    S(lipo)     H(rot)  DE(clash)    DE(int)     intcor
     13.72     -14.14       0.98        0.00      90.54       2.03       0.15       0.28       ----

> <Gold.Chemscore.Fitness>
13.7177

> <Gold.Chemscore.DG>
-14.1402

> <Gold.Chemscore.ZeroCoef>
-5.4800

> <Gold.Chemscore.Hbond>
0.9769

> <Gold.Chemscore.Metal>
0.0000

> <Gold.Chemscore.Lipo>
90.5424

> <Gold.Chemscore.Internal_Hbond>
0.0000

> <Gold.Chemscore.DEClash>
0.1460

> <Gold.Chemscore.DEInternal>
0.2765

> <Gold.Chemscore.Rot>
2.0297

> <Gold.Chemscore.Internal.Correction>
   9.000000E+99

> <Gold.Chemscore.Hbonds>
donor molecule, donor type, donor heavy atom, donor atom, acceptor molecule, acceptor atom, score
      L1  H    22    47       P1 10174  0.82

> <Gold.Chemscore.Hbond.Weighted>
-3.2627

> <Gold.Chemscore.Metal.Weighted>
-0.0000

> <Gold.Chemscore.Lipo.Weighted>
-10.5935

> <Gold.Chemscore.Internal_Hbond.Weighted>
0.0000

> <Gold.Chemscore.DEClash.Weighted>
0.1460

> <Gold.Chemscore.DEInternal.Weighted>
0.2765

> <Gold.Chemscore.Rot.Weighted>
5.1960

> <Gold.Chemscore.Internal.Correction.Weighted>
   9.000000E+99

> <Gold.Protein.RotatedTorsions>
[ 6907 6896 6895 6894 ] final   86.77 input  -60.11 | X-H torsion
[ 7974 7965 7964 7962 ] final -126.99 input  175.53 | X-H torsion
[ 8008 7997 7996 7995 ] final  -89.25 input   59.86 | X-H torsion
[ 10167 10162 10161 10158 ] final  116.50 input  -65.29 | X-H torsion
[ 10718 10713 10712 10709 ] final  -14.35 input   66.30 | X-H torsion
[ 10763 10752 10751 10750 ] final  129.22 input  -60.55 | X-H torsion
[ 11005 11000 10999 10996 ] final  148.43 input  -57.11 | X-H torsion

> <Gold.Protein.ActiveResidues>
 VAL166  LYS551  ARG553  GLY616  TRP617  ASP618  TYR619  PRO620  LYS621  CYS622 
 ASP623  PHE694  ASN695  SER759  ASP760  ASP761  ALA762  ILE779  LEU786  VAL792 
 PHE793  MET794  SER795  GLU796  ALA797  LYS798  CYS799  TRP800  GLU811  SER814 

> <Gold.Protein.RotatedAtoms>
  152.5400  134.2379  159.8850 H   0  0  0  0  0  0  0  0  0  0  0  0  # atno 6907 bound_to 6896
  151.2348  133.4424  159.2612 H   0  0  0  0  0  0  0  0  0  0  0  0  # atno 6908 bound_to 6896
  151.0682  134.9794  159.8351 H   0  0  0  0  0  0  0  0  0  0  0  0  # atno 6909 bound_to 6896
  144.9817  140.7646  143.4608 H   0  0  0  0  0  0  0  0  0  0  0  0  # atno 7974 bound_to 7965
  154.6843  140.0544  157.0298 H   0  0  0  0  0  0  0  0  0  0  0  0  # atno 8008 bound_to 7997
  155.0907  140.3219  155.4556 H   0  0  0  0  0  0  0  0  0  0  0  0  # atno 8009 bound_to 7997
  156.2705  140.2048  156.6034 H   0  0  0  0  0  0  0  0  0  0  0  0  # atno 8010 bound_to 7997
  139.6242  144.7106  151.2568 H   0  0  0  0  0  0  0  0  0  0  0  0  # atno 10167 bound_to 10162
  156.6172  130.4865  149.6178 H   0  0  0  0  0  0  0  0  0  0  0  0  # atno 10718 bound_to 10713
  153.7383  135.3228  155.3299 H   0  0  0  0  0  0  0  0  0  0  0  0  # atno 10763 bound_to 10752
  154.8303  135.4538  154.1053 H   0  0  0  0  0  0  0  0  0  0  0  0  # atno 10764 bound_to 10752
  153.2220  135.6949  153.8071 H   0  0  0  0  0  0  0  0  0  0  0  0  # atno 10765 bound_to 10752
  140.0959  134.9013  157.1722 H   0  0  0  0  0  0  0  0  0  0  0  0  # atno 11005 bound_to 11000
  145.2412  139.2072  143.4992 LP  0  0  0  0  0  0  0  0  0  0  0  0  # atno 17320 bound_to 7965
  146.3409  140.2307  142.8593 LP  0  0  0  0  0  0  0  0  0  0  0  0  # atno 17321 bound_to 7965
  140.7401  143.6598  150.8174 LP  0  0  0  0  0  0  0  0  0  0  0  0  # atno 17342 bound_to 10162
  140.0213  143.5539  152.2799 LP  0  0  0  0  0  0  0  0  0  0  0  0  # atno 17343 bound_to 10162
  156.2341  130.6812  151.1492 LP  0  0  0  0  0  0  0  0  0  0  0  0  # atno 17370 bound_to 10713
  157.7238  131.0664  150.6023 LP  0  0  0  0  0  0  0  0  0  0  0  0  # atno 17371 bound_to 10713
  140.3287  134.2834  155.7232 LP  0  0  0  0  0  0  0  0  0  0  0  0  # atno 17394 bound_to 11000
  141.2092  133.7756  157.0013 LP  0  0  0  0  0  0  0  0  0  0  0  0  # atno 17395 bound_to 11000

$$$$
