AV-unprocessed.smi:618|AV-procd|sdf|3084|dock3
  -GOLD-   22720 0 03D 1   1.00000     0.00000
 Structure written by MMmdl.
 40 42  0  0  0  0  0  0  0  0  1 V2000
  145.4694  137.9462  153.9067 O   0  0  0  0  0  0  0  0  0  0  0  0
  146.4575  137.5323  153.3005 C   0  0  0  0  0  0  0  0  0  0  0  0
  147.6692  138.0974  153.3898 N   0  0  0  0  0  0  0  0  0  0  0  0
  147.9902  139.2632  154.2062 C   0  0  0  0  0  0  0  0  0  0  0  0
  149.3023  139.9373  153.7507 C   0  0  2  0  0  0  0  0  0  0  0  0
  150.5563  139.3052  154.3999 C   0  0  0  0  0  0  0  0  0  0  0  0
  150.6827  139.7204  155.7847 N   0  0  0  0  0  0  0  0  0  0  0  0
  151.8647  139.2806  156.4892 C   0  0  0  0  0  0  0  0  0  0  0  0
  151.9292  140.1875  157.7304 C   0  0  0  0  0  0  0  0  0  0  0  0
  151.0582  141.4083  157.3604 C   0  0  0  0  0  0  0  0  0  0  0  0
  150.7229  141.1533  155.8895 C   0  0  2  0  0  0  0  0  0  0  0  0
  149.4309  141.7735  155.3420 C   0  0  0  0  0  0  0  0  0  0  0  0
  149.2713  141.3553  153.9826 O   0  0  0  0  0  0  0  0  0  0  0  0
  146.4792  136.4588  152.4923 N   0  0  0  0  0  0  0  0  0  0  0  0
  145.3953  135.6195  152.1188 C   0  0  0  0  0  0  0  0  0  0  0  0
  144.3395  135.4473  153.0375 C   0  0  0  0  0  0  0  0  0  0  0  0
  143.2645  134.6047  152.6960 C   0  0  0  0  0  0  0  0  0  0  0  0
  143.2934  133.9551  151.4468 C   0  0  0  0  0  0  0  0  0  0  0  0
  144.3034  134.0953  150.5628 N   0  0  0  0  0  0  0  0  0  0  0  0
  145.3300  134.9074  150.8955 C   0  0  0  0  0  0  0  0  0  0  0  0
  148.4277  137.6876  152.8647 H   0  0  0  0  0  0  0  0  0  0  0  0
  147.1547  139.9603  154.1500 H   0  0  0  0  0  0  0  0  0  0  0  0
  148.0647  138.9693  155.2546 H   0  0  0  0  0  0  0  0  0  0  0  0
  149.3885  139.7999  152.6723 H   0  0  0  0  0  0  0  0  0  0  0  0
  150.5133  138.2176  154.3344 H   0  0  0  0  0  0  0  0  0  0  0  0
  151.4418  139.6161  153.8437 H   0  0  0  0  0  0  0  0  0  0  0  0
  151.8107  138.2219  156.7440 H   0  0  0  0  0  0  0  0  0  0  0  0
  152.7508  139.4359  155.8715 H   0  0  0  0  0  0  0  0  0  0  0  0
  151.5218  139.6820  158.6067 H   0  0  0  0  0  0  0  0  0  0  0  0
  152.9575  140.4720  157.9552 H   0  0  0  0  0  0  0  0  0  0  0  0
  150.1516  141.4200  157.9672 H   0  0  0  0  0  0  0  0  0  0  0  0
  151.5772  142.3560  157.5062 H   0  0  0  0  0  0  0  0  0  0  0  0
  151.5564  141.5266  155.2906 H   0  0  0  0  0  0  0  0  0  0  0  0
  148.5665  141.4747  155.9359 H   0  0  0  0  0  0  0  0  0  0  0  0
  149.4831  142.8616  155.3775 H   0  0  0  0  0  0  0  0  0  0  0  0
  147.3850  136.1814  152.1434 H   0  0  0  0  0  0  0  0  0  0  0  0
  144.3482  135.9563  153.9902 H   0  0  0  0  0  0  0  0  0  0  0  0
  142.4378  134.4582  153.3754 H   0  0  0  0  0  0  0  0  0  0  0  0
  142.4862  133.3008  151.1520 H   0  0  0  0  0  0  0  0  0  0  0  0
  146.1201  134.9596  150.1627 H   0  0  0  0  0  0  0  0  0  0  0  0
  1  2  2  0  0  0  0
  2  3  1  0  0  0  0
  2 14  1  0  0  0  0
  3  4  1  0  0  0  0
  3 21  1  0  0  0  0
  4  5  1  0  0  0  0
  4 22  1  0  0  0  0
  4 23  1  0  0  0  0
  5 13  1  0  0  0  0
  5  6  1  0  0  0  0
  5 24  1  0  0  0  0
  6  7  1  0  0  0  0
  6 25  1  0  0  0  0
  6 26  1  0  0  0  0
  7 11  1  0  0  0  0
  7  8  1  0  0  0  0
  8  9  1  0  0  0  0
  8 27  1  0  0  0  0
  8 28  1  0  0  0  0
  9 10  1  0  0  0  0
  9 29  1  0  0  0  0
  9 30  1  0  0  0  0
 10 11  1  0  0  0  0
 10 31  1  0  0  0  0
 10 32  1  0  0  0  0
 11 12  1  0  0  0  0
 11 33  1  0  0  0  0
 12 13  1  0  0  0  0
 12 34  1  0  0  0  0
 12 35  1  0  0  0  0
 14 15  1  0  0  0  0
 14 36  1  0  0  0  0
 15 20  1  0  0  0  0
 15 16  2  0  0  0  0
 16 17  1  0  0  0  0
 16 37  1  0  0  0  0
 17 18  2  0  0  0  0
 17 38  1  0  0  0  0
 18 19  1  0  0  0  0
 18 39  1  0  0  0  0
 19 20  2  0  0  0  0
 20 40  1  0  0  0  0
M  END
> <s_m_source_file>
AV-unprocessed.smi

> <i_m_source_file_index>
618

> <i_lp_mmshare_version>
43012

> <i_f3d_flags>
0

> <s_epik_input>
W2NIXTFuW2NIXVtjSF1bY0hdYzFbTkhdQyg9TylbTkhdW0NIMl1bQ0BIXShbQ0gyXTIpT1tDSDJdW0NAQEhdKE4yMylbQ0gyXVtDSDJdW0NIMl0z

> <s_epik_cmdline>
J2VwaWtfcHl0aG9uJywgJy1waCcsICc3LjAnLCAnLXRuJywgJzgnLCAnLW1hJywgJzIwMCcsICctbWV0YWxfYmluZGluZycsICctaW1hZScsICc8aW5maWxlLm1hZT4nLCAnLW9tYWUnLCAnPG91dGZpbGUubWFlPic=

> <r_epik_Ionization_Penalty>
1.07277

> <r_epik_Ionization_Penalty_Charging>
0

> <r_epik_Ionization_Penalty_Neutral>
1.07277

> <r_epik_State_Penalty>
1.13623

> <r_epik_Charging_Adjusted_Penalty>
1.13623

> <i_epik_Tot_Q>
0

> <i_epik_Tot_abs_Q>
0

> <r_epik_Metal_State_Penalty>
1.13277

> <b_epik_Metal_Only>
0

> <s_lp_Force_Field>
OPLS_2005

> <r_lp_Energy>
52.4513

> <b_lp_Chiralities_Consistent>
1

> <s_lp_Variant>
AV-unprocessed.smi:618-11

> <Gold.Version>
5.8.1

> <Gold.Id.Protein>
6NUR|6NUR_protein|mol2

> <Gold.PLP.Fitness>
38.6092

> <Gold.PLP.PLP>
-26.9593

> <Gold.PLP.part.hbond>
-4.0000

> <Gold.PLP.part.metal>
0.0000

> <Gold.PLP.part.buried>
3.2454

> <Gold.PLP.part.nonpolar>
-26.9237

> <Gold.PLP.part.repulsive>
0.7268

> <Gold.PLP.ligand.clash>
0.0000

> <Gold.PLP.ligand.torsion>
0.6610

> <Gold.PLP.Chemscore.Hbond>
2.6960

> <Gold.PLP.Chemscore.CHOScore>
1.6254

> <Gold.PLP.Chemscore.Metal>
0.0000

> <Gold.Chemscore.Hbonds>
donor molecule, donor type, donor heavy atom, donor atom, acceptor molecule, acceptor atom, score
      L1  H     3    21       P1  7948  0.91
      L1  H    14    36       P1  7948  1.00
      P1  H  8011  8017       L1    13  0.75
      L1  C    18    39       P1 10186  0.62
      L1  C    20    40       P1  7921  1.00

> <Gold.PLP.Chemscore.Internal.Correction>
0.0077

> <Gold.Rescore>
     Score         DG    S(hbond)    S(metal)    S(lipo)     H(rot)  DE(clash)    DE(int)     intcor
     16.39     -20.11       2.66        0.00      76.51       1.25       1.82       1.90       ----

> <Gold.Chemscore.Fitness>
16.3929

> <Gold.Chemscore.DG>
-20.1145

> <Gold.Chemscore.ZeroCoef>
-5.4800

> <Gold.Chemscore.Hbond>
2.6565

> <Gold.Chemscore.Metal>
0.0000

> <Gold.Chemscore.Lipo>
76.5120

> <Gold.Chemscore.Internal_Hbond>
0.0000

> <Gold.Chemscore.DEClash>
1.8219

> <Gold.Chemscore.DEInternal>
1.8997

> <Gold.Chemscore.Rot>
1.2461

> <Gold.Chemscore.Internal.Correction>
   9.000000E+99

> <Gold.Chemscore.Hbonds>
donor molecule, donor type, donor heavy atom, donor atom, acceptor molecule, acceptor atom, score
      L1  H     3    21       P1  7948  0.90
      L1  H    14    36       P1  7948  0.97
      P1  H  8011  8017       L1    13  0.60

> <Gold.Chemscore.Hbond.Weighted>
-8.8727

> <Gold.Chemscore.Metal.Weighted>
-0.0000

> <Gold.Chemscore.Lipo.Weighted>
-8.9519

> <Gold.Chemscore.Internal_Hbond.Weighted>
0.0000

> <Gold.Chemscore.DEClash.Weighted>
1.8219

> <Gold.Chemscore.DEInternal.Weighted>
1.8997

> <Gold.Chemscore.Rot.Weighted>
3.1901

> <Gold.Chemscore.Internal.Correction.Weighted>
   9.000000E+99

> <Gold.Protein.RotatedTorsions>
[ 6907 6896 6895 6894 ] final  117.99 input  -60.11 | X-H torsion
[ 7974 7965 7964 7962 ] final  -98.74 input  175.53 | X-H torsion
[ 8008 7997 7996 7995 ] final -114.34 input   59.86 | X-H torsion
[ 10167 10162 10161 10158 ] final -145.54 input  -65.29 | X-H torsion
[ 10718 10713 10712 10709 ] final  112.62 input   66.30 | X-H torsion
[ 10763 10752 10751 10750 ] final   88.47 input  -60.55 | X-H torsion
[ 11005 11000 10999 10996 ] final -178.69 input  -57.11 | X-H torsion

> <Gold.Protein.ActiveResidues>
 VAL166  LYS551  ARG553  GLY616  TRP617  ASP618  TYR619  PRO620  LYS621  CYS622 
 ASP623  PHE694  ASN695  SER759  ASP760  ASP761  ALA762  ILE779  LEU786  VAL792 
 PHE793  MET794  SER795  GLU796  ALA797  LYS798  CYS799  TRP800  GLU811  SER814 

> <Gold.Protein.RotatedAtoms>
  152.4574  133.7751  159.6819 H   0  0  0  0  0  0  0  0  0  0  0  0  # atno 6907 bound_to 6896
  150.8505  133.7784  159.3033 H   0  0  0  0  0  0  0  0  0  0  0  0  # atno 6908 bound_to 6896
  151.5381  135.1071  159.9971 H   0  0  0  0  0  0  0  0  0  0  0  0  # atno 6909 bound_to 6896
  145.3167  140.9412  143.2739 H   0  0  0  0  0  0  0  0  0  0  0  0  # atno 7974 bound_to 7965
  155.0347  140.0392  157.2487 H   0  0  0  0  0  0  0  0  0  0  0  0  # atno 8008 bound_to 7997
  154.7267  140.2722  155.6469 H   0  0  0  0  0  0  0  0  0  0  0  0  # atno 8009 bound_to 7997
  156.2831  140.2692  156.1954 H   0  0  0  0  0  0  0  0  0  0  0  0  # atno 8010 bound_to 7997
  139.7796  143.8120  152.2637 H   0  0  0  0  0  0  0  0  0  0  0  0  # atno 10167 bound_to 10162
  157.6382  131.0970  150.6922 H   0  0  0  0  0  0  0  0  0  0  0  0  # atno 10718 bound_to 10713
  153.1772  135.4506  154.9980 H   0  0  0  0  0  0  0  0  0  0  0  0  # atno 10763 bound_to 10752
  154.8006  135.3254  154.7562 H   0  0  0  0  0  0  0  0  0  0  0  0  # atno 10764 bound_to 10752
  153.8031  135.6961  153.4907 H   0  0  0  0  0  0  0  0  0  0  0  0  # atno 10765 bound_to 10752
  140.4270  134.6554  157.4693 H   0  0  0  0  0  0  0  0  0  0  0  0  # atno 11005 bound_to 11000
  144.8972  139.4696  143.6650 LP  0  0  0  0  0  0  0  0  0  0  0  0  # atno 17320 bound_to 7965
  146.3098  139.7705  142.9029 LP  0  0  0  0  0  0  0  0  0  0  0  0  # atno 17321 bound_to 7965
  139.8178  144.7308  150.9612 LP  0  0  0  0  0  0  0  0  0  0  0  0  # atno 17342 bound_to 10162
  140.7818  143.4188  151.0875 LP  0  0  0  0  0  0  0  0  0  0  0  0  # atno 17343 bound_to 10162
  156.7250  130.4692  149.5513 LP  0  0  0  0  0  0  0  0  0  0  0  0  # atno 17370 bound_to 10713
  156.1640  130.6393  151.0754 LP  0  0  0  0  0  0  0  0  0  0  0  0  # atno 17371 bound_to 10713
  140.0161  134.6618  155.9308 LP  0  0  0  0  0  0  0  0  0  0  0  0  # atno 17394 bound_to 11000
  141.1761  133.6540  156.4835 LP  0  0  0  0  0  0  0  0  0  0  0  0  # atno 17395 bound_to 11000

$$$$
