#       Name:                AV-unprocessed.smi:3328
#       Creating user name   scv26
#       Creation time:       Fri Mar 27 19:14:48 2020


#       File generated by GOLD software.
#

@<TRIPOS>MOLECULE
AV-unprocessed.smi:3328
    44    45     1
SMALL
NO_CHARGES


@<TRIPOS>ATOM
      1 ****        -1.5366  -4.2835  -0.7701 C.3            1 S1                 0.0000
      2 ****        -1.4633  -2.7844  -0.7301 C.2            1 S1                 0.0000
      3 ****        -0.4996  -1.9410  -1.3518 C.2            1 S1                 0.0000
      4 ****        -0.7174  -0.6570  -1.1235 N.2            1 S1                 0.0000
      5 ****        -1.8201  -0.6325  -0.3448 N.pl3          1 S1                 0.0000
      6 ****        -2.3598   0.6414   0.1059 C.3            1 S1                 0.0000
      7 ****        -1.7965   1.1195   1.4692 C.3            1 S1                 0.0000
      8 ****        -2.0954   0.1381   2.6139 C.3            1 S1                 0.0000
      9 ****        -0.3521   1.3182   1.4278 N.3            1 S1                 0.0000
     10 ****         0.0285   2.5281   0.7121 C.3            1 S1                 0.0000
     11 ****         1.5602   2.5994   0.5902 C.3            1 S1                 0.0000
     12 ****         2.0839   1.5895  -0.3292 N.am           1 S1                 0.0000
     13 ****         2.8275   0.4465   0.1735 C.3            1 S1                 0.0000
     14 ****         3.0903  -0.4400  -1.0527 C.3            1 S1                 0.0000
     15 ****         2.6442   0.3756  -2.2717 C.3            1 S1                 0.0000
     16 ****         1.9770   1.5967  -1.6628 C.2            1 S1                 0.0000
     17 ****         1.4200   2.4587  -2.3411 O.2            1 S1                 0.0000
     18 ****        -2.2960  -1.9034  -0.0997 C.2            1 S1                 0.0000
     19 ****        -0.5442  -4.7350  -0.7797 H              1 S1                 0.0000
     20 ****        -2.0593  -4.6360  -1.6593 H              1 S1                 0.0000
     21 ****        -2.0638  -4.6867   0.0949 H              1 S1                 0.0000
     22 ****         0.3465  -2.2228  -1.9607 H              1 S1                 0.0000
     23 ****        -2.2007   1.3852  -0.6749 H              1 S1                 0.0000
     24 ****        -3.4421   0.5331   0.1848 H              1 S1                 0.0000
     25 ****        -2.2654   2.0710   1.7241 H              1 S1                 0.0000
     26 ****        -3.1650  -0.0590   2.6889 H              1 S1                 0.0000
     27 ****        -1.7706   0.5438   3.5727 H              1 S1                 0.0000
     28 ****        -1.5896  -0.8179   2.4738 H              1 S1                 0.0000
     29 ****         0.0114   1.3656   2.3688 H              1 S1                 0.0000
     30 ****        -0.4244   2.5644  -0.2776 H              1 S1                 0.0000
     31 ****        -0.3394   3.3935   1.2641 H              1 S1                 0.0000
     32 ****         1.8494   3.5854   0.2236 H              1 S1                 0.0000
     33 ****         2.0274   2.4927   1.5704 H              1 S1                 0.0000
     34 ****         3.7622   0.7860   0.6214 H              1 S1                 0.0000
     35 ****         2.2558  -0.0854   0.9352 H              1 S1                 0.0000
     36 ****         4.1420  -0.7201  -1.1219 H              1 S1                 0.0000
     37 ****         2.5116  -1.3616  -0.9834 H              1 S1                 0.0000
     38 ****         3.4941   0.6848  -2.8809 H              1 S1                 0.0000
     39 ****         1.9450  -0.1778  -2.8994 H              1 S1                 0.0000
     40 ****        -3.1771  -2.0736   0.5014 H              1 S1                 0.0000
     41 ****        -0.1844   0.1220  -1.4538 LP             1 S1                 0.0000
     42 ****         0.0357   0.5391   0.9352 LP             1 S1                 0.0000
     43 ****         0.9931   3.2462  -1.8966 LP             1 S1                 0.0000
     44 ****         1.3942   2.3719  -3.3370 LP             1 S1                 0.0000
@<TRIPOS>BOND
    1    1    2 1     
    2    1   19 1     
    3    1   20 1     
    4    1   21 1     
    5    2   18 2     
    6    2    3 1     
    7    3    4 2     
    8    3   22 1     
    9    4    5 1     
   10    5    6 1     
   11    5   18 1     
   12    6    7 1     
   13    6   23 1     
   14    6   24 1     
   15    7    8 1     
   16    7    9 1     
   17    7   25 1     
   18    8   26 1     
   19    8   27 1     
   20    8   28 1     
   21    9   10 1     
   22    9   29 1     
   23   10   11 1     
   24   10   30 1     
   25   10   31 1     
   26   11   12 1     
   27   11   32 1     
   28   11   33 1     
   29   12   16 am    
   30   12   13 1     
   31   13   14 1     
   32   13   34 1     
   33   13   35 1     
   34   14   15 1     
   35   14   36 1     
   36   14   37 1     
   37   15   16 1     
   38   15   38 1     
   39   15   39 1     
   40   16   17 2     
   41   18   40 1     
   42    4   41 1     
   43    9   42 1     
   44   17   43 1     
   45   17   44 1     
@<TRIPOS>SUBSTRUCTURE
      1 S1             1
@<TRIPOS>SET
LONE_PAIRS      STATIC     ATOMS    <user>   **** ""
4 41 42 43 44
DONOR_HYDROGENS      STATIC     ATOMS    <user>   **** ""
1 29
ATOM$BLUE        STATIC     ATOMS    COLORGROUP SYSTEM
4 41 42 43 44
ATOM$RED        STATIC     ATOMS    COLORGROUP SYSTEM
1 29
