AV-unprocessed.smi:35|AV-procd|sdf|255|dock4
  -GOLD-   2262016 13D 1   1.00000     0.00000
 Structure written by MMmdl.
 29 30  0  0  0  0  0  0  0  0  1 V2000
  140.5900  134.7950  153.7607 O   0  0  0  0  0  0  0  0  0  0  0  0
  141.6997  135.3225  153.7291 C   0  0  0  0  0  0  0  0  0  0  0  0
  142.8496  134.5608  153.9548 N   0  0  0  0  0  0  0  0  0  0  0  0
  144.1584  135.0466  153.9431 C   0  0  0  0  0  0  0  0  0  0  0  0
  145.1017  134.2827  154.1439 O   0  0  0  0  0  0  0  0  0  0  0  0
  144.3367  136.4240  153.6838 N   0  0  0  0  0  0  0  0  0  0  0  0
  145.7512  136.9753  153.6678 C   0  0  2  0  0  0  0  0  0  0  0  0
  145.7880  138.2027  154.3361 O   0  0  0  0  0  0  0  0  0  0  0  0
  145.9541  139.2657  153.4026 C   0  0  1  0  0  0  0  0  0  0  0  0
  146.5293  140.5204  154.0820 C   0  0  0  0  0  0  0  0  0  0  0  0
  145.5087  141.4767  154.2722 O   0  0  0  0  0  0  0  0  0  0  0  0
  146.8365  138.6334  152.3199 C   0  0  1  0  0  0  0  0  0  0  0  0
  148.1987  138.6265  152.7080 O   0  0  0  0  0  0  0  0  0  0  0  0
  146.2987  137.2111  152.2379 C   0  0  2  0  0  0  0  0  0  0  0  0
  145.3103  137.1371  151.2245 O   0  0  0  0  0  0  0  0  0  0  0  0
  143.2217  137.2212  153.4529 C   0  0  0  0  0  0  0  0  0  0  0  0
  141.9585  136.7339  153.4661 C   0  0  0  0  0  0  0  0  0  0  0  0
  140.5054  138.0331  153.1131 Br  0  0  0  0  0  0  0  0  0  0  0  0
  142.7228  133.5765  154.1401 H   0  0  0  0  0  0  0  0  0  0  0  0
  146.3506  136.2723  154.2494 H   0  0  0  0  0  0  0  0  0  0  0  0
  144.9884  139.4989  152.9504 H   0  0  0  0  0  0  0  0  0  0  0  0
  147.0015  140.2773  155.0345 H   0  0  0  0  0  0  0  0  0  0  0  0
  147.2890  140.9770  153.4469 H   0  0  0  0  0  0  0  0  0  0  0  0
  144.7301  141.1785  153.8271 H   0  0  0  0  0  0  0  0  0  0  0  0
  146.7612  139.1666  151.3711 H   0  0  0  0  0  0  0  0  0  0  0  0
  148.6333  137.9119  152.2682 H   0  0  0  0  0  0  0  0  0  0  0  0
  147.0770  136.4802  152.0139 H   0  0  0  0  0  0  0  0  0  0  0  0
  144.9803  138.0089  151.0681 H   0  0  0  0  0  0  0  0  0  0  0  0
  143.3416  138.2746  153.2531 H   0  0  0  0  0  0  0  0  0  0  0  0
  1  2  2  0  0  0  0
  2 17  1  0  0  0  0
  2  3  1  0  0  0  0
  3 19  1  0  0  0  0
  3  4  1  0  0  0  0
  4  5  2  0  0  0  0
  4  6  1  0  0  0  0
  6  7  1  0  0  0  0
  6 16  1  0  0  0  0
  7 14  1  0  0  0  0
  7  8  1  0  0  0  0
  7 20  1  0  0  0  0
  8  9  1  0  0  0  0
  9 10  1  0  0  0  0
  9 12  1  0  0  0  0
  9 21  1  0  0  0  0
 10 11  1  0  0  0  0
 10 22  1  0  0  0  0
 10 23  1  0  0  0  0
 11 24  1  0  0  0  0
 12 13  1  0  0  0  0
 12 14  1  0  0  0  0
 12 25  1  0  0  0  0
 13 26  1  0  0  0  0
 14 15  1  0  0  0  0
 14 27  1  0  0  0  0
 15 28  1  0  0  0  0
 16 17  2  0  0  0  0
 16 29  1  0  0  0  0
 17 18  1  0  0  0  0
M  END
> <s_m_source_file>
AV-unprocessed.smi

> <i_m_source_file_index>
35

> <i_lp_mmshare_version>
43012

> <i_f3d_flags>
0

> <s_epik_input>
Tz1jMVtuSF1jKD1PKW4oW2NIXWMxQnIpW0NAQEhdMk9bQ0BASF0oW0NIMl1bT0hdKVtDQEBIXShbT0hdKVtDQEhdMltPSF0=

> <s_epik_cmdline>
J2VwaWtfcHl0aG9uJywgJy1waCcsICc3LjAnLCAnLXRuJywgJzgnLCAnLW1hJywgJzIwMCcsICctbWV0YWxfYmluZGluZycsICctaW1hZScsICc8aW5maWxlLm1hZT4nLCAnLW9tYWUnLCAnPG91dGZpbGUubWFlPic=

> <r_lp_tautomer_probability>
0.999537

> <r_epik_Ionization_Penalty>
0.10812

> <r_epik_Ionization_Penalty_Charging>
0.108119

> <r_epik_Ionization_Penalty_Neutral>
4.93006e-07

> <r_epik_State_Penalty>
0.0979238

> <r_epik_Charging_Adjusted_Penalty>
0.206043

> <i_epik_Tot_Q>
0

> <i_epik_Tot_abs_Q>
0

> <r_epik_Metal_State_Penalty>
3.07911

> <b_epik_Metal_Only>
0

> <s_epik_Chemistry_Notes>
This compound contains an acetal/aminal-like group ( X-CH(R)-Y where X, Y are N, S, or O) that may be acid/base labile, releasing an aldehyde.

> <s_lp_Force_Field>
OPLS_2005

> <r_lp_Energy>
34.1394

> <b_lp_Chiralities_Consistent>
1

> <s_lp_Variant>
AV-unprocessed.smi:35-9

> <Gold.Version>
5.8.1

> <Gold.Id.Protein>
6NUR|6NUR_protein|mol2

> <Gold.PLP.Fitness>
36.6734

> <Gold.PLP.PLP>
-22.3258

> <Gold.PLP.part.hbond>
-6.0401

> <Gold.PLP.part.metal>
0.0000

> <Gold.PLP.part.buried>
-0.7416

> <Gold.PLP.part.nonpolar>
-17.1207

> <Gold.PLP.part.repulsive>
0.4177

> <Gold.PLP.ligand.clash>
0.0000

> <Gold.PLP.ligand.torsion>
1.0669

> <Gold.PLP.Chemscore.Hbond>
4.4713

> <Gold.PLP.Chemscore.CHOScore>
1.0000

> <Gold.PLP.Chemscore.Metal>
0.0000

> <Gold.Chemscore.Hbonds>
donor molecule, donor type, donor heavy atom, donor atom, acceptor molecule, acceptor atom, score
      L1  H     3    19       P1 10957  1.00
      L1  H    11    24       P1 10175  1.00
      L1  H    13    26       P1  7948  1.00
      L1  H    15    28       P1 10171  0.59
      P1  H 11000 11005       L1     1  0.99
      L1  C    16    29       P1 10175  1.00

> <Gold.PLP.Chemscore.Internal.Correction>
0.0676

> <Gold.Rescore>
     Score         DG    S(hbond)    S(metal)    S(lipo)     H(rot)  DE(clash)    DE(int)     intcor
     11.56     -15.18       4.32        0.00      40.02       3.67       2.56       1.06       ----

> <Gold.Chemscore.Fitness>
11.5648

> <Gold.Chemscore.DG>
-15.1818

> <Gold.Chemscore.ZeroCoef>
-5.4800

> <Gold.Chemscore.Hbond>
4.3157

> <Gold.Chemscore.Metal>
0.0000

> <Gold.Chemscore.Lipo>
40.0250

> <Gold.Chemscore.Internal_Hbond>
0.0000

> <Gold.Chemscore.DEClash>
2.5580

> <Gold.Chemscore.DEInternal>
1.0590

> <Gold.Chemscore.Rot>
3.6701

> <Gold.Chemscore.Internal.Correction>
   9.000000E+99

> <Gold.Chemscore.Hbonds>
donor molecule, donor type, donor heavy atom, donor atom, acceptor molecule, acceptor atom, score
      L1  H     3    19       P1 10957  1.00
      L1  H    11    24       P1 10175  0.60
      L1  H    13    26       P1  7948  0.99
      L1  H    15    28       P1 10171  0.60
      P1  H 10995 11001       L1     1  0.01
      P1  H 11000 11005       L1     1  0.47

> <Gold.Chemscore.Hbond.Weighted>
-14.4143

> <Gold.Chemscore.Metal.Weighted>
-0.0000

> <Gold.Chemscore.Lipo.Weighted>
-4.6829

> <Gold.Chemscore.Internal_Hbond.Weighted>
0.0000

> <Gold.Chemscore.DEClash.Weighted>
2.5580

> <Gold.Chemscore.DEInternal.Weighted>
1.0590

> <Gold.Chemscore.Rot.Weighted>
9.3955

> <Gold.Chemscore.Internal.Correction.Weighted>
   9.000000E+99

> <Gold.Protein.RotatedTorsions>
[ 6907 6896 6895 6894 ] final  -52.39 input  -60.11 | X-H torsion
[ 7974 7965 7964 7962 ] final  -52.07 input  175.53 | X-H torsion
[ 8008 7997 7996 7995 ] final   46.21 input   59.86 | X-H torsion
[ 10167 10162 10161 10158 ] final   45.67 input  -65.29 | X-H torsion
[ 10718 10713 10712 10709 ] final  113.38 input   66.30 | X-H torsion
[ 10763 10752 10751 10750 ] final -121.22 input  -60.55 | X-H torsion
[ 11005 11000 10999 10996 ] final   30.09 input  -57.11 | X-H torsion

> <Gold.Protein.ActiveResidues>
 VAL166  LYS551  ARG553  GLY616  TRP617  ASP618  TYR619  PRO620  LYS621  CYS622 
 ASP623  PHE694  ASN695  SER759  ASP760  ASP761  ALA762  ILE779  LEU786  VAL792 
 PHE793  MET794  SER795  GLU796  ALA797  LYS798  CYS799  TRP800  GLU811  SER814 

> <Gold.Protein.RotatedAtoms>
  150.8522  134.7851  159.7017 H   0  0  0  0  0  0  0  0  0  0  0  0  # atno 6907 bound_to 6896
  152.4584  134.5237  159.9800 H   0  0  0  0  0  0  0  0  0  0  0  0  # atno 6908 bound_to 6896
  151.5356  133.3403  159.2961 H   0  0  0  0  0  0  0  0  0  0  0  0  # atno 6909 bound_to 6896
  145.9121  140.7906  142.9690 H   0  0  0  0  0  0  0  0  0  0  0  0  # atno 7974 bound_to 7965
  155.3487  140.3412  155.4239 H   0  0  0  0  0  0  0  0  0  0  0  0  # atno 8008 bound_to 7997
  156.1775  140.1652  156.8371 H   0  0  0  0  0  0  0  0  0  0  0  0  # atno 8009 bound_to 7997
  154.5298  140.0748  156.8307 H   0  0  0  0  0  0  0  0  0  0  0  0  # atno 8010 bound_to 7997
  140.3218  144.2696  150.6181 H   0  0  0  0  0  0  0  0  0  0  0  0  # atno 10167 bound_to 10162
  157.6341  131.0983  150.7033 H   0  0  0  0  0  0  0  0  0  0  0  0  # atno 10718 bound_to 10713
  154.8663  135.4175  154.2585 H   0  0  0  0  0  0  0  0  0  0  0  0  # atno 10763 bound_to 10752
  153.3517  135.6999  153.6789 H   0  0  0  0  0  0  0  0  0  0  0  0  # atno 10764 bound_to 10752
  153.5726  135.3588  155.2816 H   0  0  0  0  0  0  0  0  0  0  0  0  # atno 10765 bound_to 10752
  140.2980  134.2789  155.7760 H   0  0  0  0  0  0  0  0  0  0  0  0  # atno 11005 bound_to 11000
  144.6744  140.1841  143.7403 LP  0  0  0  0  0  0  0  0  0  0  0  0  # atno 17320 bound_to 7965
  145.8659  139.2246  143.1689 LP  0  0  0  0  0  0  0  0  0  0  0  0  # atno 17321 bound_to 7965
  140.5477  143.2212  151.7980 LP  0  0  0  0  0  0  0  0  0  0  0  0  # atno 17342 bound_to 10162
  139.4873  144.4518  151.9645 LP  0  0  0  0  0  0  0  0  0  0  0  0  # atno 17343 bound_to 10162
  156.7367  130.4726  149.5487 LP  0  0  0  0  0  0  0  0  0  0  0  0  # atno 17370 bound_to 10713
  156.1566  130.6346  151.0665 LP  0  0  0  0  0  0  0  0  0  0  0  0  # atno 17371 bound_to 10713
  141.2133  133.7628  156.9724 LP  0  0  0  0  0  0  0  0  0  0  0  0  # atno 17394 bound_to 11000
  140.1135  134.9462  157.2100 LP  0  0  0  0  0  0  0  0  0  0  0  0  # atno 17395 bound_to 11000

$$$$
