AV-unprocessed.smi:2510|AV-procd|sdf|9874|dock3
  -GOLD-   2272013503D 1   1.00000     0.00000
 Structure written by MMmdl.
 48 49  0  0  0  0  0  0  0  0  1 V2000
  147.1774  141.7115  153.9868 C   0  0  0  0  0  0  0  0  0  0  0  0
  148.3463  140.7966  153.5852 C   0  0  0  0  0  0  0  0  0  0  0  0
  148.9115  139.8504  154.6831 C   0  0  0  0  0  0  0  0  0  0  0  0
  149.0810  140.7132  155.9578 C   0  0  0  0  0  0  0  0  0  0  0  0
  150.1854  141.7820  155.8757 C   0  0  0  0  0  0  0  0  0  0  0  0
  148.1883  138.4944  154.9457 C   0  0  1  0  0  0  0  0  0  0  0  0
  147.4636  137.9648  153.7894 N   0  0  0  0  0  0  0  0  0  0  0  0
  146.1289  137.9855  153.6519 C   0  0  0  0  0  0  0  0  0  0  0  0
  145.3689  138.4672  154.4919 O   0  0  0  0  0  0  0  0  0  0  0  0
  145.5623  137.3719  152.3710 C   0  0  0  0  0  0  0  0  0  0  0  0
  145.8153  135.8879  152.3477 C   0  0  0  0  0  0  0  0  0  0  0  0
  145.5324  134.9633  151.2984 C   0  0  0  0  0  0  0  0  0  0  0  0
  145.9662  133.7606  151.7803 C   0  0  0  0  0  0  0  0  0  0  0  0
  145.9714  132.3989  151.1736 C   0  0  0  0  0  0  0  0  0  0  0  0
  146.4598  134.0074  153.0404 N   0  0  0  0  0  0  0  0  0  0  0  0
  146.3710  135.3016  153.3994 N   0  0  0  0  0  0  0  0  0  0  0  0
  149.5555  137.8121  155.1347 C   0  0  1  0  0  0  0  0  0  0  0  0
  149.7715  136.3708  154.6788 C   0  0  0  0  0  0  0  0  0  0  0  0
  150.1447  138.9733  154.3210 C   0  0  2  0  0  0  0  0  0  0  0  0
  151.3618  139.5089  154.8204 O   0  0  0  0  0  0  0  0  0  0  0  0
  152.4597  138.6226  154.6906 C   0  0  0  0  0  0  0  0  0  0  0  0
  146.8535  133.3119  153.6583 H   0  0  0  0  0  0  0  0  0  0  0  0
  146.9075  142.3700  153.1610 H   0  0  0  0  0  0  0  0  0  0  0  0
  147.4226  142.3437  154.8381 H   0  0  0  0  0  0  0  0  0  0  0  0
  146.2894  141.1319  154.2397 H   0  0  0  0  0  0  0  0  0  0  0  0
  147.9976  140.2218  152.7265 H   0  0  0  0  0  0  0  0  0  0  0  0
  149.1500  141.4204  153.1934 H   0  0  0  0  0  0  0  0  0  0  0  0
  148.1478  141.2237  156.1955 H   0  0  0  0  0  0  0  0  0  0  0  0
  149.2742  140.0747  156.8207 H   0  0  0  0  0  0  0  0  0  0  0  0
  150.2181  142.3667  156.7951 H   0  0  0  0  0  0  0  0  0  0  0  0
  150.0172  142.4778  155.0544 H   0  0  0  0  0  0  0  0  0  0  0  0
  151.1717  141.3389  155.7404 H   0  0  0  0  0  0  0  0  0  0  0  0
  147.6054  138.4714  155.8673 H   0  0  0  0  0  0  0  0  0  0  0  0
  148.0138  137.5553  153.0482 H   0  0  0  0  0  0  0  0  0  0  0  0
  144.4956  137.5928  152.3087 H   0  0  0  0  0  0  0  0  0  0  0  0
  146.0280  137.8457  151.5061 H   0  0  0  0  0  0  0  0  0  0  0  0
  145.0868  135.1590  150.3342 H   0  0  0  0  0  0  0  0  0  0  0  0
  145.3317  132.3635  150.2915 H   0  0  0  0  0  0  0  0  0  0  0  0
  145.6089  131.6541  151.8826 H   0  0  0  0  0  0  0  0  0  0  0  0
  146.9795  132.1162  150.8697 H   0  0  0  0  0  0  0  0  0  0  0  0
  149.8492  137.9182  156.1803 H   0  0  0  0  0  0  0  0  0  0  0  0
  149.6651  136.2676  153.5986 H   0  0  0  0  0  0  0  0  0  0  0  0
  149.0518  135.6993  155.1474 H   0  0  0  0  0  0  0  0  0  0  0  0
  150.7675  136.0165  154.9427 H   0  0  0  0  0  0  0  0  0  0  0  0
  150.2097  138.7122  153.2644 H   0  0  0  0  0  0  0  0  0  0  0  0
  153.3673  139.1138  155.0412 H   0  0  0  0  0  0  0  0  0  0  0  0
  152.6146  138.3330  153.6504 H   0  0  0  0  0  0  0  0  0  0  0  0
  152.3172  137.7229  155.2888 H   0  0  0  0  0  0  0  0  0  0  0  0
  1  2  1  0  0  0  0
  1 23  1  0  0  0  0
  1 24  1  0  0  0  0
  1 25  1  0  0  0  0
  2  3  1  0  0  0  0
  2 26  1  0  0  0  0
  2 27  1  0  0  0  0
  3 19  1  0  0  0  0
  3  4  1  0  0  0  0
  3  6  1  0  0  0  0
  4  5  1  0  0  0  0
  4 28  1  0  0  0  0
  4 29  1  0  0  0  0
  5 30  1  0  0  0  0
  5 31  1  0  0  0  0
  5 32  1  0  0  0  0
  6  7  1  0  0  0  0
  6 17  1  0  0  0  0
  6 33  1  0  0  0  0
  7  8  1  0  0  0  0
  7 34  1  0  0  0  0
  8  9  2  0  0  0  0
  8 10  1  0  0  0  0
 10 11  1  0  0  0  0
 10 35  1  0  0  0  0
 10 36  1  0  0  0  0
 11 16  2  0  0  0  0
 11 12  1  0  0  0  0
 12 13  2  0  0  0  0
 12 37  1  0  0  0  0
 13 14  1  0  0  0  0
 13 15  1  0  0  0  0
 14 38  1  0  0  0  0
 14 39  1  0  0  0  0
 14 40  1  0  0  0  0
 15 22  1  0  0  0  0
 15 16  1  0  0  0  0
 17 18  1  0  0  0  0
 17 19  1  0  0  0  0
 17 41  1  0  0  0  0
 18 42  1  0  0  0  0
 18 43  1  0  0  0  0
 18 44  1  0  0  0  0
 19 20  1  0  0  0  0
 19 45  1  0  0  0  0
 20 21  1  0  0  0  0
 21 46  1  0  0  0  0
 21 47  1  0  0  0  0
 21 48  1  0  0  0  0
M  END
> <s_m_source_file>
AV-unprocessed.smi

> <i_m_source_file_index>
2510

> <i_lp_mmshare_version>
43012

> <i_f3d_flags>
0

> <s_epik_input>
W0NIM11PW0NAQEhdMVtDQEhdKFtDSDNdKVtDQEBIXShDMShbQ0gyXVtDSDNdKVtDSDJdW0NIM10pW05IXUMoPU8pW0NIMl1jMltjSF1jKFtDSDNdKVtuSF1uMg==

> <s_epik_cmdline>
J2VwaWtfcHl0aG9uJywgJy1waCcsICc3LjAnLCAnLXRuJywgJzgnLCAnLW1hJywgJzIwMCcsICctbWV0YWxfYmluZGluZycsICctaW1hZScsICc8aW5maWxlLm1hZT4nLCAnLW9tYWUnLCAnPG91dGZpbGUubWFlPic=

> <r_lp_tautomer_probability>
0.5

> <r_epik_Ionization_Penalty>
9.73156e-05

> <r_epik_Ionization_Penalty_Charging>
0

> <r_epik_Ionization_Penalty_Neutral>
9.73156e-05

> <r_epik_State_Penalty>
0.41068

> <r_epik_Charging_Adjusted_Penalty>
0.41068

> <i_epik_Tot_Q>
0

> <i_epik_Tot_abs_Q>
0

> <r_epik_Metal_State_Penalty>
0.410699

> <b_epik_Metal_Only>
0

> <s_lp_Force_Field>
OPLS_2005

> <r_lp_Energy>
25.9502

> <b_lp_Chiralities_Consistent>
1

> <s_lp_Variant>
AV-unprocessed.smi:2510-5

> <Gold.Version>
5.8.1

> <Gold.Id.Protein>
6NUR|6NUR_protein|mol2

> <Gold.PLP.Fitness>
34.9409

> <Gold.PLP.PLP>
-29.8106

> <Gold.PLP.part.hbond>
-2.0000

> <Gold.PLP.part.metal>
0.0000

> <Gold.PLP.part.buried>
-0.3758

> <Gold.PLP.part.nonpolar>
-28.9185

> <Gold.PLP.part.repulsive>
0.6747

> <Gold.PLP.ligand.clash>
0.0000

> <Gold.PLP.ligand.torsion>
0.6638

> <Gold.PLP.Chemscore.Hbond>
1.9500

> <Gold.PLP.Chemscore.CHOScore>
0.0000

> <Gold.PLP.Chemscore.Metal>
0.0000

> <Gold.Chemscore.Hbonds>
donor molecule, donor type, donor heavy atom, donor atom, acceptor molecule, acceptor atom, score
      L1  H     7    34       P1  7948  1.00
      P1  H  7989  7998       L1    20  0.95

> <Gold.PLP.Chemscore.Internal.Correction>
0.6079

> <Gold.Rescore>
     Score         DG    S(hbond)    S(metal)    S(lipo)     H(rot)  DE(clash)    DE(int)     intcor
     10.69     -15.77       1.33        0.00      89.45       1.81       2.05       3.03       ----

> <Gold.Chemscore.Fitness>
10.6938

> <Gold.Chemscore.DG>
-15.7685

> <Gold.Chemscore.ZeroCoef>
-5.4800

> <Gold.Chemscore.Hbond>
1.3345

> <Gold.Chemscore.Metal>
0.0000

> <Gold.Chemscore.Lipo>
89.4475

> <Gold.Chemscore.Internal_Hbond>
0.0000

> <Gold.Chemscore.DEClash>
2.0454

> <Gold.Chemscore.DEInternal>
3.0293

> <Gold.Chemscore.Rot>
1.8102

> <Gold.Chemscore.Internal.Correction>
   9.000000E+99

> <Gold.Chemscore.Hbonds>
donor molecule, donor type, donor heavy atom, donor atom, acceptor molecule, acceptor atom, score
      L1  H     7    34       P1  7948  0.96
      P1  H  7989  7998       L1    20  0.11

> <Gold.Chemscore.Hbond.Weighted>
-4.4573

> <Gold.Chemscore.Metal.Weighted>
-0.0000

> <Gold.Chemscore.Lipo.Weighted>
-10.4654

> <Gold.Chemscore.Internal_Hbond.Weighted>
0.0000

> <Gold.Chemscore.DEClash.Weighted>
2.0454

> <Gold.Chemscore.DEInternal.Weighted>
3.0293

> <Gold.Chemscore.Rot.Weighted>
4.6341

> <Gold.Chemscore.Internal.Correction.Weighted>
   9.000000E+99

> <Gold.Protein.RotatedTorsions>
[ 6907 6896 6895 6894 ] final -172.66 input  -60.11 | X-H torsion
[ 7974 7965 7964 7962 ] final -152.53 input  175.53 | X-H torsion
[ 8008 7997 7996 7995 ] final -153.11 input   59.86 | X-H torsion
[ 10167 10162 10161 10158 ] final   84.39 input  -65.29 | X-H torsion
[ 10718 10713 10712 10709 ] final   68.59 input   66.30 | X-H torsion
[ 10763 10752 10751 10750 ] final -126.26 input  -60.55 | X-H torsion
[ 11005 11000 10999 10996 ] final  176.63 input  -57.11 | X-H torsion

> <Gold.Protein.ActiveResidues>
 VAL166  LYS551  ARG553  GLY616  TRP617  ASP618  TYR619  PRO620  LYS621  CYS622 
 ASP623  PHE694  ASN695  SER759  ASP760  ASP761  ALA762  ILE779  LEU786  VAL792 
 PHE793  MET794  SER795  GLU796  ALA797  LYS798  CYS799  TRP800  GLU811  SER814 

> <Gold.Protein.RotatedAtoms>
  151.5435  133.3429  159.2939 H   0  0  0  0  0  0  0  0  0  0  0  0  # atno 6907 bound_to 6896
  150.8521  134.7852  159.7028 H   0  0  0  0  0  0  0  0  0  0  0  0  # atno 6908 bound_to 6896
  152.4564  134.5289  159.9857 H   0  0  0  0  0  0  0  0  0  0  0  0  # atno 6909 bound_to 6896
  144.7789  140.4649  143.5853 H   0  0  0  0  0  0  0  0  0  0  0  0  # atno 7974 bound_to 7965
  155.6658  140.0727  157.2538 H   0  0  0  0  0  0  0  0  0  0  0  0  # atno 8008 bound_to 7997
  154.4133  140.1708  156.1876 H   0  0  0  0  0  0  0  0  0  0  0  0  # atno 8009 bound_to 7997
  155.9659  140.3366  155.6535 H   0  0  0  0  0  0  0  0  0  0  0  0  # atno 8010 bound_to 7997
  139.9085  144.6286  150.8562 H   0  0  0  0  0  0  0  0  0  0  0  0  # atno 10167 bound_to 10162
  157.6298  130.9382  150.0399 H   0  0  0  0  0  0  0  0  0  0  0  0  # atno 10718 bound_to 10713
  154.8744  135.4001  154.3402 H   0  0  0  0  0  0  0  0  0  0  0  0  # atno 10763 bound_to 10752
  153.4202  135.7023  153.6304 H   0  0  0  0  0  0  0  0  0  0  0  0  # atno 10764 bound_to 10752
  153.4970  135.3736  155.2491 H   0  0  0  0  0  0  0  0  0  0  0  0  # atno 10765 bound_to 10752
  140.3752  134.6995  157.4417 H   0  0  0  0  0  0  0  0  0  0  0  0  # atno 11005 bound_to 11000
  145.6106  139.1513  143.3078 LP  0  0  0  0  0  0  0  0  0  0  0  0  # atno 17320 bound_to 7965
  146.1986  140.6222  142.9113 LP  0  0  0  0  0  0  0  0  0  0  0  0  # atno 17321 bound_to 7965
  140.7691  143.3383  151.2262 LP  0  0  0  0  0  0  0  0  0  0  0  0  # atno 17342 bound_to 10162
  139.6963  143.9608  152.2884 LP  0  0  0  0  0  0  0  0  0  0  0  0  # atno 17343 bound_to 10162
  156.1494  130.3642  149.9461 LP  0  0  0  0  0  0  0  0  0  0  0  0  # atno 17370 bound_to 10713
  156.7484  130.9106  151.3636 LP  0  0  0  0  0  0  0  0  0  0  0  0  # atno 17371 bound_to 10713
  140.0521  134.6116  155.8850 LP  0  0  0  0  0  0  0  0  0  0  0  0  # atno 17394 bound_to 11000
  141.1941  133.6582  156.5581 LP  0  0  0  0  0  0  0  0  0  0  0  0  # atno 17395 bound_to 11000

$$$$
