AV-unprocessed.smi:2448|AV-procd|sdf|9653|dock7
  -GOLD-   2272013283D 1   1.00000     0.00000
 Structure written by MMmdl.
 37 38  0  0  0  0  0  0  0  0  1 V2000
  149.4071  141.1350  153.2132 O   0  0  0  0  0  0  0  0  0  0  0  0
  148.8643  141.0519  154.5189 C   0  0  1  0  0  0  0  0  0  0  0  0
  150.0041  141.3171  155.5233 C   0  0  0  0  0  0  0  0  0  0  0  0
  151.1539  140.4407  155.2928 N   0  0  0  0  0  0  0  0  0  0  0  0
  152.0031  140.1546  156.4591 C   0  0  1  0  0  0  0  0  0  0  0  0
  151.3280  140.5194  157.8079 C   0  0  0  0  0  0  0  0  0  0  0  0
  151.6804  141.8926  158.3584 C   0  0  0  0  0  0  0  0  0  0  0  0
  152.3356  142.0243  159.6012 C   0  0  0  0  0  0  0  0  0  0  0  0
  152.6450  143.3181  160.0662 C   0  0  0  0  0  0  0  0  0  0  0  0
  152.3526  144.4429  159.3788 N   0  0  0  0  0  0  0  0  0  0  0  0
  151.7361  144.3103  158.1850 C   0  0  0  0  0  0  0  0  0  0  0  0
  151.3821  143.0641  157.6306 C   0  0  0  0  0  0  0  0  0  0  0  0
  152.4270  138.6707  156.4324 C   0  0  0  0  0  0  0  0  0  0  0  0
  153.1350  138.4206  155.3299 F   0  0  0  0  0  0  0  0  0  0  0  0
  153.1925  138.3883  157.4867 F   0  0  0  0  0  0  0  0  0  0  0  0
  151.3574  137.8743  156.4472 F   0  0  0  0  0  0  0  0  0  0  0  0
  147.6705  142.0150  154.6503 C   0  0  0  0  0  0  0  0  0  0  0  0
  146.5016  141.4248  153.8551 C   0  0  0  0  0  0  0  0  0  0  0  0
  146.6119  139.6218  153.9709 S   0  0  0  0  0  0  0  0  0  0  0  0
  148.2757  139.6410  154.6911 C   0  0  0  0  0  0  0  0  0  0  0  0
  149.0552  140.4242  152.6993 H   0  0  0  0  0  0  0  0  0  0  0  0
  150.3223  142.3565  155.4339 H   0  0  0  0  0  0  0  0  0  0  0  0
  149.6192  141.1939  156.5335 H   0  0  0  0  0  0  0  0  0  0  0  0
  151.7285  140.8281  154.5509 H   0  0  0  0  0  0  0  0  0  0  0  0
  152.9272  140.7258  156.3661 H   0  0  0  0  0  0  0  0  0  0  0  0
  150.2455  140.4165  157.7220 H   0  0  0  0  0  0  0  0  0  0  0  0
  151.6291  139.8051  158.5744 H   0  0  0  0  0  0  0  0  0  0  0  0
  152.5913  141.1566  160.1915 H   0  0  0  0  0  0  0  0  0  0  0  0
  153.1414  143.4526  161.0160 H   0  0  0  0  0  0  0  0  0  0  0  0
  151.5192  145.2252  157.6537 H   0  0  0  0  0  0  0  0  0  0  0  0
  150.8949  143.0141  156.6680 H   0  0  0  0  0  0  0  0  0  0  0  0
  147.3820  142.0886  155.6999 H   0  0  0  0  0  0  0  0  0  0  0  0
  147.9089  143.0252  154.3150 H   0  0  0  0  0  0  0  0  0  0  0  0
  145.5372  141.7824  154.2158 H   0  0  0  0  0  0  0  0  0  0  0  0
  146.5861  141.7028  152.8042 H   0  0  0  0  0  0  0  0  0  0  0  0
  148.9034  138.8637  154.2536 H   0  0  0  0  0  0  0  0  0  0  0  0
  148.1660  139.4075  155.7507 H   0  0  0  0  0  0  0  0  0  0  0  0
  1  2  1  0  0  0  0
  1 21  1  0  0  0  0
  2 20  1  0  0  0  0
  2  3  1  0  0  0  0
  2 17  1  0  0  0  0
  3  4  1  0  0  0  0
  3 22  1  0  0  0  0
  3 23  1  0  0  0  0
  4  5  1  0  0  0  0
  4 24  1  0  0  0  0
  5  6  1  0  0  0  0
  5 13  1  0  0  0  0
  5 25  1  0  0  0  0
  6  7  1  0  0  0  0
  6 26  1  0  0  0  0
  6 27  1  0  0  0  0
  7 12  1  0  0  0  0
  7  8  2  0  0  0  0
  8  9  1  0  0  0  0
  8 28  1  0  0  0  0
  9 10  2  0  0  0  0
  9 29  1  0  0  0  0
 10 11  1  0  0  0  0
 11 12  2  0  0  0  0
 11 30  1  0  0  0  0
 12 31  1  0  0  0  0
 13 14  1  0  0  0  0
 13 15  1  0  0  0  0
 13 16  1  0  0  0  0
 17 18  1  0  0  0  0
 17 32  1  0  0  0  0
 17 33  1  0  0  0  0
 18 19  1  0  0  0  0
 18 34  1  0  0  0  0
 18 35  1  0  0  0  0
 19 20  1  0  0  0  0
 20 36  1  0  0  0  0
 20 37  1  0  0  0  0
M  END
> <s_m_source_file>
AV-unprocessed.smi

> <i_m_source_file_index>
2448

> <i_lp_mmshare_version>
43012

> <i_f3d_flags>
0

> <s_epik_input>
W0NIMl0xU1tDSDJdW0NIMl1bQ0BAXTEoW09IXSlbQ0gyXVtOSF1bQ0BASF0oQyhGKShGKUYpW0NIMl1jMltjSF1bY0hdbltjSF1bY0hdMg==

> <s_epik_cmdline>
J2VwaWtfcHl0aG9uJywgJy1waCcsICc3LjAnLCAnLXRuJywgJzgnLCAnLW1hJywgJzIwMCcsICctbWV0YWxfYmluZGluZycsICctaW1hZScsICc8aW5maWxlLm1hZT4nLCAnLW9tYWUnLCAnPG91dGZpbGUubWFlPic=

> <r_epik_Ionization_Penalty>
0.187708

> <r_epik_Ionization_Penalty_Charging>
0

> <r_epik_Ionization_Penalty_Neutral>
0.187708

> <r_epik_State_Penalty>
0.22769

> <r_epik_Charging_Adjusted_Penalty>
0.22769

> <i_epik_Tot_Q>
0

> <i_epik_Tot_abs_Q>
0

> <r_epik_Metal_State_Penalty>
0.176206

> <b_epik_Metal_Only>
0

> <s_lp_Force_Field>
OPLS_2005

> <r_lp_Energy>
32.0446

> <b_lp_Chiralities_Consistent>
1

> <s_lp_Variant>
AV-unprocessed.smi:2448-3

> <Gold.Version>
5.8.1

> <Gold.Id.Protein>
6NUR|6NUR_protein|mol2

> <Gold.PLP.Fitness>
43.8966

> <Gold.PLP.PLP>
-41.4420

> <Gold.PLP.part.hbond>
-3.2684

> <Gold.PLP.part.metal>
0.0000

> <Gold.PLP.part.buried>
-2.9552

> <Gold.PLP.part.nonpolar>
-35.5325

> <Gold.PLP.part.repulsive>
0.0043

> <Gold.PLP.ligand.clash>
0.0000

> <Gold.PLP.ligand.torsion>
1.3202

> <Gold.PLP.Chemscore.Hbond>
1.5404

> <Gold.PLP.Chemscore.CHOScore>
0.0000

> <Gold.PLP.Chemscore.Metal>
0.0000

> <Gold.Chemscore.Hbonds>
donor molecule, donor type, donor heavy atom, donor atom, acceptor molecule, acceptor atom, score
      L1  H     1    21       P1  7957  0.46
      P1  H  7989  7998       L1     1  0.06
      P1  H  8011  8017       L1     1  1.00

> <Gold.PLP.Chemscore.Internal.Correction>
0.4736

> <Gold.Rescore>
     Score         DG    S(hbond)    S(metal)    S(lipo)     H(rot)  DE(clash)    DE(int)     intcor
     16.04     -17.57       1.46        0.00     112.18       2.31       0.15       1.37       ----

> <Gold.Chemscore.Fitness>
16.0434

> <Gold.Chemscore.DG>
-17.5673

> <Gold.Chemscore.ZeroCoef>
-5.4800

> <Gold.Chemscore.Hbond>
1.4605

> <Gold.Chemscore.Metal>
0.0000

> <Gold.Chemscore.Lipo>
112.1839

> <Gold.Chemscore.Internal_Hbond>
0.0000

> <Gold.Chemscore.DEClash>
0.1491

> <Gold.Chemscore.DEInternal>
1.3749

> <Gold.Chemscore.Rot>
2.3111

> <Gold.Chemscore.Internal.Correction>
   9.000000E+99

> <Gold.Chemscore.Hbonds>
donor molecule, donor type, donor heavy atom, donor atom, acceptor molecule, acceptor atom, score
      L1  H     1    21       P1  7957  0.46
      P1  H  7989  7998       L1     1  0.03
      P1  H  8011  8017       L1     1  0.84

> <Gold.Chemscore.Hbond.Weighted>
-4.8782

> <Gold.Chemscore.Metal.Weighted>
-0.0000

> <Gold.Chemscore.Lipo.Weighted>
-13.1255

> <Gold.Chemscore.Internal_Hbond.Weighted>
0.0000

> <Gold.Chemscore.DEClash.Weighted>
0.1491

> <Gold.Chemscore.DEInternal.Weighted>
1.3749

> <Gold.Chemscore.Rot.Weighted>
5.9164

> <Gold.Chemscore.Internal.Correction.Weighted>
   9.000000E+99

> <Gold.Protein.RotatedTorsions>
[ 6907 6896 6895 6894 ] final -140.72 input  -60.11 | X-H torsion
[ 7974 7965 7964 7962 ] final   67.43 input  175.53 | X-H torsion
[ 8008 7997 7996 7995 ] final   92.97 input   59.86 | X-H torsion
[ 10167 10162 10161 10158 ] final -113.70 input  -65.29 | X-H torsion
[ 10718 10713 10712 10709 ] final  -53.31 input   66.30 | X-H torsion
[ 10763 10752 10751 10750 ] final  -60.51 input  -60.55 | X-H torsion
[ 11005 11000 10999 10996 ] final  108.33 input  -57.11 | X-H torsion

> <Gold.Protein.ActiveResidues>
 VAL166  LYS551  ARG553  GLY616  TRP617  ASP618  TYR619  PRO620  LYS621  CYS622 
 ASP623  PHE694  ASN695  SER759  ASP760  ASP761  ALA762  ILE779  LEU786  VAL792 
 PHE793  MET794  SER795  GLU796  ALA797  LYS798  CYS799  TRP800  GLU811  SER814 

> <Gold.Protein.RotatedAtoms>
  151.0643  133.5518  159.2631 H   0  0  0  0  0  0  0  0  0  0  0  0  # atno 6907 bound_to 6896
  151.2481  135.0612  159.9061 H   0  0  0  0  0  0  0  0  0  0  0  0  # atno 6908 bound_to 6896
  152.5402  134.0408  159.8120 H   0  0  0  0  0  0  0  0  0  0  0  0  # atno 6909 bound_to 6896
  145.8147  139.3052  143.1078 H   0  0  0  0  0  0  0  0  0  0  0  0  # atno 7974 bound_to 7965
  156.0415  140.3319  155.7249 H   0  0  0  0  0  0  0  0  0  0  0  0  # atno 8008 bound_to 7997
  155.5737  140.0630  157.2818 H   0  0  0  0  0  0  0  0  0  0  0  0  # atno 8009 bound_to 7997
  154.4395  140.1856  156.0894 H   0  0  0  0  0  0  0  0  0  0  0  0  # atno 8010 bound_to 7997
  140.1090  143.4544  152.1764 H   0  0  0  0  0  0  0  0  0  0  0  0  # atno 10167 bound_to 10162
  156.1546  130.4150  149.9890 H   0  0  0  0  0  0  0  0  0  0  0  0  # atno 10718 bound_to 10713
  154.2703  135.6291  153.5308 H   0  0  0  0  0  0  0  0  0  0  0  0  # atno 10763 bound_to 10752
  152.9881  135.5608  154.5607 H   0  0  0  0  0  0  0  0  0  0  0  0  # atno 10764 bound_to 10752
  154.5176  135.2880  155.1265 H   0  0  0  0  0  0  0  0  0  0  0  0  # atno 10765 bound_to 10752
  139.8842  134.9427  156.5955 H   0  0  0  0  0  0  0  0  0  0  0  0  # atno 11005 bound_to 11000
  145.9739  140.8738  143.0148 LP  0  0  0  0  0  0  0  0  0  0  0  0  # atno 17320 bound_to 7965
  144.6753  140.1984  143.7389 LP  0  0  0  0  0  0  0  0  0  0  0  0  # atno 17321 bound_to 7965
  139.5629  144.7417  151.4103 LP  0  0  0  0  0  0  0  0  0  0  0  0  # atno 17342 bound_to 10162
  140.6936  143.7803  150.7292 LP  0  0  0  0  0  0  0  0  0  0  0  0  # atno 17343 bound_to 10162
  156.7737  130.9196  151.3645 LP  0  0  0  0  0  0  0  0  0  0  0  0  # atno 17370 bound_to 10713
  157.6684  130.9029  149.9985 LP  0  0  0  0  0  0  0  0  0  0  0  0  # atno 17371 bound_to 10713
  140.7923  133.8572  155.8656 LP  0  0  0  0  0  0  0  0  0  0  0  0  # atno 17394 bound_to 11000
  140.9666  134.1586  157.4611 LP  0  0  0  0  0  0  0  0  0  0  0  0  # atno 17395 bound_to 11000

$$$$
