AV-unprocessed.smi:2741|AV-procd|sdf|10559|dock8
  -GOLD-   2272015 13D 1   1.00000     0.00000
 Structure written by MMmdl.
 39 40  0  0  0  0  0  0  0  0  1 V2000
  147.7118  142.1227  157.2397 O   0  0  0  0  0  0  0  0  0  0  0  0
  147.9830  141.6816  156.1222 C   0  0  0  0  0  0  0  0  0  0  0  0
  149.4130  141.2402  155.7831 C   0  0  0  0  0  0  0  0  0  0  0  0
  150.3188  141.3038  156.9424 N   0  0  0  0  0  0  0  0  0  0  0  0
  150.6957  142.5829  157.3975 C   0  0  0  0  0  0  0  0  0  0  0  0
  151.5050  142.7747  158.4568 C   0  0  0  0  0  0  0  0  0  0  0  0
  151.9322  144.1682  158.8909 C   0  0  0  0  0  0  0  0  0  0  0  0
  152.5827  144.1334  160.0542 F   0  0  0  0  0  0  0  0  0  0  0  0
  152.7306  144.7286  157.9814 F   0  0  0  0  0  0  0  0  0  0  0  0
  150.8608  144.9464  159.0362 F   0  0  0  0  0  0  0  0  0  0  0  0
  152.0110  141.5815  159.1070 C   0  0  0  0  0  0  0  0  0  0  0  0
  151.6661  140.3509  158.6801 C   0  0  0  0  0  0  0  0  0  0  0  0
  150.7668  140.1588  157.5403 C   0  0  0  0  0  0  0  0  0  0  0  0
  150.4374  139.0393  157.1466 O   0  0  0  0  0  0  0  0  0  0  0  0
  147.0801  141.5671  155.1372 N   0  0  0  0  0  0  0  0  0  0  0  0
  145.6627  141.8909  155.2560 C   0  0  0  0  0  0  0  0  0  0  0  0
  145.3796  143.3746  154.9472 C   0  0  1  0  0  0  0  0  0  0  0  0
  145.8683  143.8221  153.5569 C   0  0  0  0  0  0  0  0  0  0  0  0
  144.7995  144.7759  152.9995 C   0  0  0  0  0  0  0  0  0  0  0  0
  143.8393  145.0419  154.1617 C   0  0  1  0  0  0  0  0  0  0  0  0
  142.5312  145.3379  153.7196 O   0  0  0  0  0  0  0  0  0  0  0  0
  143.8956  143.7603  154.9891 C   0  0  0  0  0  0  0  0  0  0  0  0
  149.4015  140.2266  155.3770 H   0  0  0  0  0  0  0  0  0  0  0  0
  149.7770  141.8693  154.9700 H   0  0  0  0  0  0  0  0  0  0  0  0
  150.2801  143.4036  156.8310 H   0  0  0  0  0  0  0  0  0  0  0  0
  152.6745  141.6741  159.9543 H   0  0  0  0  0  0  0  0  0  0  0  0
  152.0596  139.4839  159.1905 H   0  0  0  0  0  0  0  0  0  0  0  0
  147.3912  141.2030  154.2483 H   0  0  0  0  0  0  0  0  0  0  0  0
  145.0778  141.2475  154.5966 H   0  0  0  0  0  0  0  0  0  0  0  0
  145.3499  141.6556  156.2739 H   0  0  0  0  0  0  0  0  0  0  0  0
  145.8963  143.9915  155.6846 H   0  0  0  0  0  0  0  0  0  0  0  0
  146.8372  144.3165  153.6350 H   0  0  0  0  0  0  0  0  0  0  0  0
  145.9945  142.9733  152.8840 H   0  0  0  0  0  0  0  0  0  0  0  0
  145.2276  145.6963  152.6015 H   0  0  0  0  0  0  0  0  0  0  0  0
  144.2735  144.2803  152.1820 H   0  0  0  0  0  0  0  0  0  0  0  0
  144.2113  145.8755  154.7591 H   0  0  0  0  0  0  0  0  0  0  0  0
  142.3694  146.2592  153.8534 H   0  0  0  0  0  0  0  0  0  0  0  0
  143.2934  142.9807  154.5192 H   0  0  0  0  0  0  0  0  0  0  0  0
  143.5265  143.9026  156.0056 H   0  0  0  0  0  0  0  0  0  0  0  0
  1  2  2  0  0  0  0
  2  3  1  0  0  0  0
  2 15  1  0  0  0  0
  3  4  1  0  0  0  0
  3 23  1  0  0  0  0
  3 24  1  0  0  0  0
  4 13  1  0  0  0  0
  4  5  1  0  0  0  0
  5  6  2  0  0  0  0
  5 25  1  0  0  0  0
  6  7  1  0  0  0  0
  6 11  1  0  0  0  0
  7  8  1  0  0  0  0
  7  9  1  0  0  0  0
  7 10  1  0  0  0  0
 11 12  2  0  0  0  0
 11 26  1  0  0  0  0
 12 13  1  0  0  0  0
 12 27  1  0  0  0  0
 13 14  2  0  0  0  0
 15 16  1  0  0  0  0
 15 28  1  0  0  0  0
 16 17  1  0  0  0  0
 16 29  1  0  0  0  0
 16 30  1  0  0  0  0
 17 22  1  0  0  0  0
 17 18  1  0  0  0  0
 17 31  1  0  0  0  0
 18 19  1  0  0  0  0
 18 32  1  0  0  0  0
 18 33  1  0  0  0  0
 19 20  1  0  0  0  0
 19 34  1  0  0  0  0
 19 35  1  0  0  0  0
 20 21  1  0  0  0  0
 20 22  1  0  0  0  0
 20 36  1  0  0  0  0
 21 37  1  0  0  0  0
 22 38  1  0  0  0  0
 22 39  1  0  0  0  0
M  END
> <s_m_source_file>
AV-unprocessed.smi

> <i_m_source_file_index>
2741

> <i_lp_mmshare_version>
43012

> <i_f3d_flags>
0

> <s_epik_input>
W09IXVtDQEBIXShbQ0gyXTEpW0NIMl1bQ0gyXVtDQEhdMVtDSDJdW05IXUMoPU8pW0NIMl1uMltjSF1jKEMoRikoRilGKVtjSF1bY0hdYzI9Tw==

> <s_epik_cmdline>
J2VwaWtfcHl0aG9uJywgJy1waCcsICc3LjAnLCAnLXRuJywgJzgnLCAnLW1hJywgJzIwMCcsICctbWV0YWxfYmluZGluZycsICctaW1hZScsICc8aW5maWxlLm1hZT4nLCAnLW9tYWUnLCAnPG91dGZpbGUubWFlPic=

> <r_lp_tautomer_probability>
1

> <r_epik_Ionization_Penalty>
1.17551e-06

> <r_epik_Ionization_Penalty_Charging>
1.78841e-08

> <r_epik_Ionization_Penalty_Neutral>
1.15762e-06

> <r_epik_State_Penalty>
-0

> <r_epik_Charging_Adjusted_Penalty>
1.78841e-08

> <i_epik_Tot_Q>
0

> <i_epik_Tot_abs_Q>
0

> <r_epik_Metal_State_Penalty>
-0

> <b_epik_Metal_Only>
0

> <s_lp_Force_Field>
OPLS_2005

> <r_lp_Energy>
32.8711

> <b_lp_Chiralities_Consistent>
1

> <s_lp_Variant>
AV-unprocessed.smi:2741-2

> <Gold.Version>
5.8.1

> <Gold.Id.Protein>
6NUR|6NUR_protein|mol2

> <Gold.PLP.Fitness>
47.7994

> <Gold.PLP.PLP>
-45.9763

> <Gold.PLP.part.hbond>
-1.5369

> <Gold.PLP.part.metal>
0.0000

> <Gold.PLP.part.buried>
-5.1790

> <Gold.PLP.part.nonpolar>
-39.9503

> <Gold.PLP.part.repulsive>
0.1876

> <Gold.PLP.ligand.clash>
0.0000

> <Gold.PLP.ligand.torsion>
0.6115

> <Gold.PLP.Chemscore.Hbond>
0.0000

> <Gold.PLP.Chemscore.CHOScore>
1.0000

> <Gold.PLP.Chemscore.Metal>
0.0000

> <Gold.Chemscore.Hbonds>
donor molecule, donor type, donor heavy atom, donor atom, acceptor molecule, acceptor atom, score
      L1  C     5    25       P1  8028  1.00

> <Gold.PLP.Chemscore.Internal.Correction>
0.0460

> <Gold.Rescore>
     Score         DG    S(hbond)    S(metal)    S(lipo)     H(rot)  DE(clash)    DE(int)     intcor
      8.48      -9.05       0.00        0.00      84.80       2.48       0.10       0.46       ----

> <Gold.Chemscore.Fitness>
8.4845

> <Gold.Chemscore.DG>
-9.0511

> <Gold.Chemscore.ZeroCoef>
-5.4800

> <Gold.Chemscore.Hbond>
0.0000

> <Gold.Chemscore.Metal>
0.0000

> <Gold.Chemscore.Lipo>
84.8017

> <Gold.Chemscore.Internal_Hbond>
0.0000

> <Gold.Chemscore.DEClash>
0.1031

> <Gold.Chemscore.DEInternal>
0.4635

> <Gold.Chemscore.Rot>
2.4807

> <Gold.Chemscore.Internal.Correction>
   9.000000E+99

> <Gold.Chemscore.Hbond.Weighted>
-0.0000

> <Gold.Chemscore.Metal.Weighted>
-0.0000

> <Gold.Chemscore.Lipo.Weighted>
-9.9218

> <Gold.Chemscore.Internal_Hbond.Weighted>
0.0000

> <Gold.Chemscore.DEClash.Weighted>
0.1031

> <Gold.Chemscore.DEInternal.Weighted>
0.4635

> <Gold.Chemscore.Rot.Weighted>
6.3507

> <Gold.Chemscore.Internal.Correction.Weighted>
   9.000000E+99

> <Gold.Protein.RotatedTorsions>
[ 6907 6896 6895 6894 ] final  168.22 input  -60.11 | X-H torsion
[ 7974 7965 7964 7962 ] final   88.65 input  175.53 | X-H torsion
[ 8008 7997 7996 7995 ] final   52.64 input   59.86 | X-H torsion
[ 10167 10162 10161 10158 ] final -175.36 input  -65.29 | X-H torsion
[ 10718 10713 10712 10709 ] final  101.89 input   66.30 | X-H torsion
[ 10763 10752 10751 10750 ] final   -9.66 input  -60.55 | X-H torsion
[ 11005 11000 10999 10996 ] final -103.01 input  -57.11 | X-H torsion

> <Gold.Protein.ActiveResidues>
 VAL166  LYS551  ARG553  GLY616  TRP617  ASP618  TYR619  PRO620  LYS621  CYS622 
 ASP623  PHE694  ASN695  SER759  ASP760  ASP761  ALA762  ILE779  LEU786  VAL792 
 PHE793  MET794  SER795  GLU796  ALA797  LYS798  CYS799  TRP800  GLU811  SER814 

> <Gold.Protein.RotatedAtoms>
  151.8511  133.3440  159.3673 H   0  0  0  0  0  0  0  0  0  0  0  0  # atno 6907 bound_to 6896
  150.7206  134.5298  159.5704 H   0  0  0  0  0  0  0  0  0  0  0  0  # atno 6908 bound_to 6896
  152.2792  134.7848  160.0451 H   0  0  0  0  0  0  0  0  0  0  0  0  # atno 6909 bound_to 6896
  145.5429  139.2290  143.2556 H   0  0  0  0  0  0  0  0  0  0  0  0  # atno 7974 bound_to 7965
  155.4551  140.3459  155.4305 H   0  0  0  0  0  0  0  0  0  0  0  0  # atno 8008 bound_to 7997
  156.1196  140.1483  156.9253 H   0  0  0  0  0  0  0  0  0  0  0  0  # atno 8009 bound_to 7997
  154.4813  140.0869  156.7364 H   0  0  0  0  0  0  0  0  0  0  0  0  # atno 8010 bound_to 7997
  139.5585  144.1929  152.1199 H   0  0  0  0  0  0  0  0  0  0  0  0  # atno 10167 bound_to 10162
  157.6817  131.0738  150.5321 H   0  0  0  0  0  0  0  0  0  0  0  0  # atno 10718 bound_to 10713
  153.4579  135.7016  153.6068 H   0  0  0  0  0  0  0  0  0  0  0  0  # atno 10763 bound_to 10752
  153.4375  135.3788  155.2208 H   0  0  0  0  0  0  0  0  0  0  0  0  # atno 10764 bound_to 10752
  154.8727  135.3966  154.4000 H   0  0  0  0  0  0  0  0  0  0  0  0  # atno 10765 bound_to 10752
  141.1165  133.8605  157.1432 H   0  0  0  0  0  0  0  0  0  0  0  0  # atno 11005 bound_to 11000
  146.1969  140.6250  142.9120 LP  0  0  0  0  0  0  0  0  0  0  0  0  # atno 17320 bound_to 7965
  144.7568  140.5326  143.6763 LP  0  0  0  0  0  0  0  0  0  0  0  0  # atno 17321 bound_to 7965
  140.1438  144.5177  150.6728 LP  0  0  0  0  0  0  0  0  0  0  0  0  # atno 17342 bound_to 10162
  140.6861  143.2351  151.5256 LP  0  0  0  0  0  0  0  0  0  0  0  0  # atno 17343 bound_to 10162
  156.5630  130.4260  149.6054 LP  0  0  0  0  0  0  0  0  0  0  0  0  # atno 17370 bound_to 10713
  156.2805  130.7068  151.1890 LP  0  0  0  0  0  0  0  0  0  0  0  0  # atno 17371 bound_to 10713
  140.0090  134.9996  157.0355 LP  0  0  0  0  0  0  0  0  0  0  0  0  # atno 17394 bound_to 11000
  140.4632  134.1463  155.7194 LP  0  0  0  0  0  0  0  0  0  0  0  0  # atno 17395 bound_to 11000

$$$$
