#       Name:                AV-unprocessed.smi:1797
#       Creating user name   scv26
#       Creation time:       Fri Mar 27 08:50:53 2020


#       File generated by GOLD software.
#

@<TRIPOS>MOLECULE
AV-unprocessed.smi:1797
    36    37     1
SMALL
NO_CHARGES


@<TRIPOS>ATOM
      1 ****         0.3587   7.6530  -0.9084 C.3            1 S1                 0.0000
      2 ****         0.6815   6.2202  -0.6539 C.2            1 S1                 0.0000
      3 ****         1.8793   5.8109  -0.2198 N.2            1 S1                 0.0000
      4 ****         1.9372   4.4342  -0.0579 N.2            1 S1                 0.0000
      5 ****         0.7796   3.8393  -0.3806 C.2            1 S1                 0.0000
      6 ****         0.5398   2.4359  -0.3077 N.am           1 S1                 0.0000
      7 ****         1.3579   1.3958  -0.0380 C.2            1 S1                 0.0000
      8 ****         2.5478   1.5771   0.2143 O.2            1 S1                 0.0000
      9 ****         0.7981   0.1748  -0.0506 N.am           1 S1                 0.0000
     10 ****         1.4905  -1.0781   0.2311 C.3            1 S1                 0.0000
     11 ****         0.6987  -2.2516  -0.3589 C.3            1 S1                 0.0000
     12 ****         1.4121  -3.5874  -0.0959 C.3            1 S1                 0.0000
     13 ****         1.9057  -3.7421   1.3504 C.2            1 S1                 0.0000
     14 ****         2.1897  -4.8595   1.7757 O.2            1 S1                 0.0000
     15 ****         2.0506  -2.6431   2.1115 N.am           1 S1                 0.0000
     16 ****         1.6666  -1.2791   1.7499 C.3            1 S1                 0.0000
     17 ****        -0.4913   4.9334  -0.9015 S.3            1 S1                 0.0000
     18 ****         1.2233   8.2857  -0.7050 H              1 S1                 0.0000
     19 ****        -0.4641   7.9687  -0.2669 H              1 S1                 0.0000
     20 ****         0.0640   7.7891  -1.9491 H              1 S1                 0.0000
     21 ****        -0.4152   2.1707  -0.4998 H              1 S1                 0.0000
     22 ****        -0.1863   0.1112  -0.2688 H              1 S1                 0.0000
     23 ****         2.4730  -1.0570  -0.2449 H              1 S1                 0.0000
     24 ****        -0.3031  -2.2806   0.0727 H              1 S1                 0.0000
     25 ****         0.5677  -2.1143  -1.4329 H              1 S1                 0.0000
     26 ****         0.7523  -4.4188  -0.3466 H              1 S1                 0.0000
     27 ****         2.2804  -3.6704  -0.7505 H              1 S1                 0.0000
     28 ****         2.4076  -2.7735   3.0471 H              1 S1                 0.0000
     29 ****         2.4117  -0.5866   2.1425 H              1 S1                 0.0000
     30 ****         0.7314  -1.0585   2.2664 H              1 S1                 0.0000
     31 ****         2.6448   6.4267  -0.0335 LP             1 S1                 0.0000
     32 ****         2.7474   3.9431   0.2620 LP             1 S1                 0.0000
     33 ****         2.9217   2.5046   0.2217 LP             1 S1                 0.0000
     34 ****         3.1414   0.7971   0.4121 LP             1 S1                 0.0000
     35 ****         2.0986  -5.6586   1.1815 LP             1 S1                 0.0000
     36 ****         2.5118  -4.9696   2.7160 LP             1 S1                 0.0000
@<TRIPOS>BOND
    1    1    2 1     
    2    1   18 1     
    3    1   19 1     
    4    1   20 1     
    5    2   17 1     
    6    2    3 2     
    7    3    4 1     
    8    4    5 2     
    9    5    6 1     
   10    5   17 1     
   11    6    7 am    
   12    6   21 1     
   13    7    8 2     
   14    7    9 am    
   15    9   10 1     
   16    9   22 1     
   17   10   16 1     
   18   10   11 1     
   19   10   23 1     
   20   11   12 1     
   21   11   24 1     
   22   11   25 1     
   23   12   13 1     
   24   12   26 1     
   25   12   27 1     
   26   13   14 2     
   27   13   15 am    
   28   15   16 1     
   29   15   28 1     
   30   16   29 1     
   31   16   30 1     
   32    3   31 1     
   33    4   32 1     
   34    8   33 1     
   35    8   34 1     
   36   14   35 1     
   37   14   36 1     
@<TRIPOS>SUBSTRUCTURE
      1 S1             1
@<TRIPOS>SET
LONE_PAIRS      STATIC     ATOMS    <user>   **** ""
6 31 32 33 34 35 36
DONOR_HYDROGENS      STATIC     ATOMS    <user>   **** ""
3 21 22 28
ATOM$BLUE        STATIC     ATOMS    COLORGROUP SYSTEM
6 31 32 33 34 35 36
ATOM$RED        STATIC     ATOMS    COLORGROUP SYSTEM
3 21 22 28
