AV-unprocessed.smi:2711|AV-procd|sdf|10473|dock5
  -GOLD-   2272014513D 1   1.00000     0.00000
 Structure written by MMmdl.
 33 34  0  0  0  0  0  0  0  0  2 V2000
  154.2808  133.0334  165.3077 C   0  0  0  0  0  0  0  0  0  0  0  0
  154.6145  133.7855  164.0641 C   0  0  0  0  0  0  0  0  0  0  0  0
  155.1098  133.2819  162.8892 C   0  0  0  0  0  0  0  0  0  0  0  0
  155.3179  134.2508  161.9063 N   0  0  0  0  0  0  0  0  0  0  0  0
  154.9857  135.4852  162.2987 C   0  0  0  0  0  0  0  0  0  0  0  0
  155.1164  136.5639  161.5094 N   0  5  0  0  0  0  0  0  0  0  0  0
  154.8316  137.7949  161.9920 C   0  0  0  0  0  0  0  0  0  0  0  0
  154.8269  138.1324  163.1783 O   0  0  0  0  0  0  0  0  0  0  0  0
  154.5325  138.6915  161.0402 N   0  0  0  0  0  0  0  0  0  0  0  0
  154.1840  140.0941  161.2612 C   0  0  0  0  0  0  0  0  0  0  0  0
  153.6703  140.8068  159.9962 C   0  0  0  0  0  0  0  0  0  0  0  0
  153.7922  140.2706  158.8933 O   0  0  0  0  0  0  0  0  0  0  0  0
  153.0767  142.0097  160.1423 N   0  0  0  0  0  0  0  0  0  0  0  0
  152.8620  142.7087  161.4088 C   0  0  0  0  0  0  0  0  0  0  0  0
  151.9381  143.8822  161.0815 C   0  0  0  0  0  0  0  0  0  0  0  0
  152.1966  144.1601  159.6073 C   0  0  0  0  0  0  0  0  0  0  0  0
  152.5492  142.7910  159.0254 C   0  0  0  0  0  0  0  0  0  0  0  0
  154.3942  135.5117  163.9619 S   0  0  0  0  0  0  0  0  0  0  0  0
  153.3154  132.5370  165.2098 H   0  0  0  0  0  0  0  0  0  0  0  0
  154.2322  133.6995  166.1693 H   0  0  0  0  0  0  0  0  0  0  0  0
  155.0333  132.2724  165.5145 H   0  0  0  0  0  0  0  0  0  0  0  0
  155.3439  132.2516  162.6655 H   0  0  0  0  0  0  0  0  0  0  0  0
  154.5560  138.3735  160.0826 H   0  0  0  0  0  0  0  0  0  0  0  0
  153.4035  140.1294  162.0213 H   0  0  0  0  0  0  0  0  0  0  0  0
  155.0462  140.6226  161.6705 H   0  0  0  0  0  0  0  0  0  0  0  0
  152.4212  142.0637  162.1701 H   0  0  0  0  0  0  0  0  0  0  0  0
  153.8209  143.0721  161.7813 H   0  0  0  0  0  0  0  0  0  0  0  0
  150.8992  143.5787  161.2180 H   0  0  0  0  0  0  0  0  0  0  0  0
  152.1181  144.7517  161.7147 H   0  0  0  0  0  0  0  0  0  0  0  0
  151.3468  144.6260  159.1079 H   0  0  0  0  0  0  0  0  0  0  0  0
  153.0515  144.8305  159.5080 H   0  0  0  0  0  0  0  0  0  0  0  0
  153.2692  142.8797  158.2104 H   0  0  0  0  0  0  0  0  0  0  0  0
  151.6569  142.2971  158.6377 H   0  0  0  0  0  0  0  0  0  0  0  0
  1  2  1  0  0  0  0
  1 19  1  0  0  0  0
  1 20  1  0  0  0  0
  1 21  1  0  0  0  0
  2 18  1  0  0  0  0
  2  3  2  0  0  0  0
  3  4  1  0  0  0  0
  3 22  1  0  0  0  0
  4  5  2  0  0  0  0
  5  6  1  0  0  0  0
  5 18  1  0  0  0  0
  6  7  1  0  0  0  0
  7  8  2  0  0  0  0
  7  9  1  0  0  0  0
  9 10  1  0  0  0  0
  9 23  1  0  0  0  0
 10 11  1  0  0  0  0
 10 24  1  0  0  0  0
 10 25  1  0  0  0  0
 11 12  2  0  0  0  0
 11 13  1  0  0  0  0
 13 17  1  0  0  0  0
 13 14  1  0  0  0  0
 14 15  1  0  0  0  0
 14 26  1  0  0  0  0
 14 27  1  0  0  0  0
 15 16  1  0  0  0  0
 15 28  1  0  0  0  0
 15 29  1  0  0  0  0
 16 17  1  0  0  0  0
 16 30  1  0  0  0  0
 16 31  1  0  0  0  0
 17 32  1  0  0  0  0
 17 33  1  0  0  0  0
M  CHG  1   6  -1
M  END
> <s_m_source_file>
AV-unprocessed.smi

> <i_m_source_file_index>
2711

> <i_lp_mmshare_version>
43012

> <i_f3d_flags>
0

> <s_epik_input>
W0NIM11jMVtjSF1uYyhzMSlbTkhdQyg9TylbTkhdW0NIMl1DKD1PKU4yW0NIMl1bQ0gyXVtDSDJdW0NIMl0y

> <s_epik_cmdline>
J2VwaWtfcHl0aG9uJywgJy1waCcsICc3LjAnLCAnLXRuJywgJzgnLCAnLW1hJywgJzIwMCcsICctbWV0YWxfYmluZGluZycsICctaW1hZScsICc8aW5maWxlLm1hZT4nLCAnLW9tYWUnLCAnPG91dGZpbGUubWFlPic=

> <r_lp_tautomer_probability>
1

> <r_epik_Ionization_Penalty>
6.8506

> <r_epik_Ionization_Penalty_Charging>
5.74941

> <r_epik_Ionization_Penalty_Neutral>
1.10119

> <r_epik_State_Penalty>
5.74937

> <r_epik_Charging_Adjusted_Penalty>
11.4988

> <i_epik_Tot_Q>
-1

> <i_epik_Tot_abs_Q>
1

> <r_epik_Metal_State_Penalty>
1.72493

> <b_epik_Metal_Only>
1

> <s_lp_Force_Field>
OPLS_2005

> <r_lp_Energy>
20.4432

> <b_lp_Chiralities_Consistent>
1

> <s_lp_Variant>
AV-unprocessed.smi:2711-2

> <Gold.Version>
5.8.1

> <Gold.Id.Protein>
6NUR|6NUR_protein|mol2

> <Gold.PLP.Fitness>
42.8605

> <Gold.PLP.PLP>
-40.6370

> <Gold.PLP.part.hbond>
-1.0000

> <Gold.PLP.part.metal>
0.0000

> <Gold.PLP.part.buried>
-3.8609

> <Gold.PLP.part.nonpolar>
-35.5037

> <Gold.PLP.part.repulsive>
0.0000

> <Gold.PLP.ligand.clash>
0.0000

> <Gold.PLP.ligand.torsion>
0.2977

> <Gold.PLP.Chemscore.Hbond>
0.9280

> <Gold.PLP.Chemscore.CHOScore>
0.0000

> <Gold.PLP.Chemscore.Metal>
0.0000

> <Gold.Chemscore.Hbonds>
donor molecule, donor type, donor heavy atom, donor atom, acceptor molecule, acceptor atom, score
      P1  H  7997  8009       L1    12  0.90

> <Gold.PLP.Chemscore.Internal.Correction>
0.0348

> <Gold.Rescore>
     Score         DG    S(hbond)    S(metal)    S(lipo)     H(rot)  DE(clash)    DE(int)     intcor
     14.41     -16.24       0.97        0.00      92.81       1.31       0.05       1.78       ----

> <Gold.Chemscore.Fitness>
14.4055

> <Gold.Chemscore.DG>
-16.2395

> <Gold.Chemscore.ZeroCoef>
-5.4800

> <Gold.Chemscore.Hbond>
0.9709

> <Gold.Chemscore.Metal>
0.0000

> <Gold.Chemscore.Lipo>
92.8105

> <Gold.Chemscore.Internal_Hbond>
0.0000

> <Gold.Chemscore.DEClash>
0.0502

> <Gold.Chemscore.DEInternal>
1.7837

> <Gold.Chemscore.Rot>
1.3056

> <Gold.Chemscore.Internal.Correction>
   9.000000E+99

> <Gold.Chemscore.Hbonds>
donor molecule, donor type, donor heavy atom, donor atom, acceptor molecule, acceptor atom, score
      P1  H  7997  8009       L1    12  0.86

> <Gold.Chemscore.Hbond.Weighted>
-3.2429

> <Gold.Chemscore.Metal.Weighted>
-0.0000

> <Gold.Chemscore.Lipo.Weighted>
-10.8588

> <Gold.Chemscore.Internal_Hbond.Weighted>
0.0000

> <Gold.Chemscore.DEClash.Weighted>
0.0502

> <Gold.Chemscore.DEInternal.Weighted>
1.7837

> <Gold.Chemscore.Rot.Weighted>
3.3422

> <Gold.Chemscore.Internal.Correction.Weighted>
   9.000000E+99

> <Gold.Protein.RotatedTorsions>
[ 6907 6896 6895 6894 ] final   92.36 input  -60.11 | X-H torsion
[ 7974 7965 7964 7962 ] final  -11.69 input  175.53 | X-H torsion
[ 8008 7997 7996 7995 ] final  136.58 input   59.86 | X-H torsion
[ 10167 10162 10161 10158 ] final  -90.90 input  -65.29 | X-H torsion
[ 10718 10713 10712 10709 ] final  152.24 input   66.30 | X-H torsion
[ 10763 10752 10751 10750 ] final  120.44 input  -60.55 | X-H torsion
[ 11005 11000 10999 10996 ] final -156.19 input  -57.11 | X-H torsion

> <Gold.Protein.ActiveResidues>
 VAL166  LYS551  ARG553  GLY616  TRP617  ASP618  TYR619  PRO620  LYS621  CYS622 
 ASP623  PHE694  ASN695  SER759  ASP760  ASP761  ALA762  ILE779  LEU786  VAL792 
 PHE793  MET794  SER795  GLU796  ALA797  LYS798  CYS799  TRP800  GLU811  SER814 

> <Gold.Protein.RotatedAtoms>
  152.5452  134.1514  159.8519 H   0  0  0  0  0  0  0  0  0  0  0  0  # atno 6907 bound_to 6896
  151.1541  133.4881  159.2602 H   0  0  0  0  0  0  0  0  0  0  0  0  # atno 6908 bound_to 6896
  151.1442  135.0205  159.8694 H   0  0  0  0  0  0  0  0  0  0  0  0  # atno 6909 bound_to 6896
  146.2178  140.2948  142.8371 H   0  0  0  0  0  0  0  0  0  0  0  0  # atno 7974 bound_to 7965
  156.3004  140.2441  156.3768 H   0  0  0  0  0  0  0  0  0  0  0  0  # atno 8008 bound_to 7997
  154.8738  140.0415  157.1760 H   0  0  0  0  0  0  0  0  0  0  0  0  # atno 8009 bound_to 7997
  154.8768  140.2943  155.5453 H   0  0  0  0  0  0  0  0  0  0  0  0  # atno 8010 bound_to 7997
  140.3503  143.2895  151.9734 H   0  0  0  0  0  0  0  0  0  0  0  0  # atno 10167 bound_to 10162
  157.2604  131.0797  151.1670 H   0  0  0  0  0  0  0  0  0  0  0  0  # atno 10718 bound_to 10713
  153.5986  135.3452  155.2937 H   0  0  0  0  0  0  0  0  0  0  0  0  # atno 10763 bound_to 10752
  154.8640  135.4222  154.2437 H   0  0  0  0  0  0  0  0  0  0  0  0  # atno 10764 bound_to 10752
  153.3261  135.7041  153.7060 H   0  0  0  0  0  0  0  0  0  0  0  0  # atno 10765 bound_to 10752
  140.6783  134.4173  157.5228 H   0  0  0  0  0  0  0  0  0  0  0  0  # atno 11005 bound_to 11000
  144.9100  140.7746  143.5813 LP  0  0  0  0  0  0  0  0  0  0  0  0  # atno 17320 bound_to 7965
  145.2878  139.1894  143.4756 LP  0  0  0  0  0  0  0  0  0  0  0  0  # atno 17321 bound_to 7965
  139.4827  144.6082  151.7483 LP  0  0  0  0  0  0  0  0  0  0  0  0  # atno 17342 bound_to 10162
  140.5225  144.0856  150.6027 LP  0  0  0  0  0  0  0  0  0  0  0  0  # atno 17343 bound_to 10162
  157.3182  130.6924  149.6254 LP  0  0  0  0  0  0  0  0  0  0  0  0  # atno 17370 bound_to 10713
  155.9664  130.4343  150.5044 LP  0  0  0  0  0  0  0  0  0  0  0  0  # atno 17371 bound_to 10713
  139.8960  134.8670  156.2108 LP  0  0  0  0  0  0  0  0  0  0  0  0  # atno 17394 bound_to 11000
  141.0338  133.6974  156.1476 LP  0  0  0  0  0  0  0  0  0  0  0  0  # atno 17395 bound_to 11000

$$$$
