AV-unprocessed.smi:3095|AV-procd|sdf|11792|dock9
  -GOLD-   2272017173D 1   1.00000     0.00000
 Structure written by MMmdl.
 25 26  0  0  0  0  0  0  0  0  2 V2000
  153.5416  142.0007  160.8859 C   0  0  0  0  0  0  0  0  0  0  0  0
  152.7671  142.2301  159.6262 C   0  0  0  0  0  0  0  0  0  0  0  0
  152.2659  143.4243  159.1724 C   0  0  0  0  0  0  0  0  0  0  0  0
  151.4237  143.2417  157.6586 S   0  0  0  0  0  0  0  0  0  0  0  0
  151.8038  141.5234  157.6873 C   0  0  0  0  0  0  0  0  0  0  0  0
  151.3448  140.5748  156.6259 C   0  0  2  0  0  0  0  0  0  0  0  0
  150.3429  139.5333  157.1589 C   0  0  0  0  0  0  0  0  0  0  0  0
  149.9911  138.5806  156.0879 N   0  3  0  0  0  0  0  0  0  0  0  0
  151.1934  137.9548  155.5025 C   0  0  0  0  0  0  0  0  0  0  0  0
  152.1808  139.0379  155.0323 C   0  0  0  0  0  0  0  0  0  0  0  0
  152.4965  139.9064  156.1158 O   0  0  0  0  0  0  0  0  0  0  0  0
  152.4867  141.1561  158.7766 N   0  0  0  0  0  0  0  0  0  0  0  0
  153.6521  142.9213  161.4596 H   0  0  0  0  0  0  0  0  0  0  0  0
  154.5424  141.6262  160.6703 H   0  0  0  0  0  0  0  0  0  0  0  0
  153.0458  141.2715  161.5270 H   0  0  0  0  0  0  0  0  0  0  0  0
  152.3389  144.3969  159.6370 H   0  0  0  0  0  0  0  0  0  0  0  0
  150.8865  141.1604  155.8269 H   0  0  0  0  0  0  0  0  0  0  0  0
  150.7723  138.9841  157.9984 H   0  0  0  0  0  0  0  0  0  0  0  0
  149.4364  140.0190  157.5209 H   0  0  0  0  0  0  0  0  0  0  0  0
  149.3854  137.8632  156.4606 H   0  0  0  0  0  0  0  0  0  0  0  0
  151.6644  137.3149  156.2499 H   0  0  0  0  0  0  0  0  0  0  0  0
  150.8994  137.3154  154.6698 H   0  0  0  0  0  0  0  0  0  0  0  0
  153.0996  138.5767  154.6696 H   0  0  0  0  0  0  0  0  0  0  0  0
  151.7635  139.6118  154.2032 H   0  0  0  0  0  0  0  0  0  0  0  0
  149.5002  139.0802  155.3600 H   0  0  0  0  0  0  0  0  0  0  0  0
  1  2  1  0  0  0  0
  1 13  1  0  0  0  0
  1 14  1  0  0  0  0
  1 15  1  0  0  0  0
  2 12  1  0  0  0  0
  2  3  2  0  0  0  0
  3  4  1  0  0  0  0
  3 16  1  0  0  0  0
  4  5  1  0  0  0  0
  5  6  1  0  0  0  0
  5 12  2  0  0  0  0
  6 11  1  0  0  0  0
  6  7  1  0  0  0  0
  6 17  1  0  0  0  0
  7  8  1  0  0  0  0
  7 18  1  0  0  0  0
  7 19  1  0  0  0  0
  8  9  1  0  0  0  0
  8 20  1  0  0  0  0
  8 25  1  0  0  0  0
  9 10  1  0  0  0  0
  9 21  1  0  0  0  0
  9 22  1  0  0  0  0
 10 11  1  0  0  0  0
 10 23  1  0  0  0  0
 10 24  1  0  0  0  0
M  CHG  1   8   1
M  END
> <s_m_source_file>
AV-unprocessed.smi

> <i_m_source_file_index>
3095

> <i_lp_mmshare_version>
43012

> <i_f3d_flags>
0

> <s_epik_input>
W0NIM11jMVtjSF1zYyhuMSlbQ0BASF0yW0NIMl1bTkhdW0NIMl1bQ0gyXU8y

> <s_epik_cmdline>
J2VwaWtfcHl0aG9uJywgJy1waCcsICc3LjAnLCAnLXRuJywgJzgnLCAnLW1hJywgJzIwMCcsICctbWV0YWxfYmluZGluZycsICctaW1hZScsICc8aW5maWxlLm1hZT4nLCAnLW9tYWUnLCAnPG91dGZpbGUubWFlPic=

> <r_epik_Ionization_Penalty>
0.125709

> <r_epik_Ionization_Penalty_Charging>
0.125708

> <r_epik_Ionization_Penalty_Neutral>
7.00244e-07

> <r_epik_State_Penalty>
0.0155371

> <r_epik_Charging_Adjusted_Penalty>
0.141245

> <i_epik_Tot_Q>
1

> <i_epik_Tot_abs_Q>
1

> <r_epik_Metal_State_Penalty>
0.0155948

> <b_epik_Metal_Only>
0

> <s_lp_Force_Field>
OPLS_2005

> <r_lp_Energy>
6.74862

> <b_lp_Chiralities_Consistent>
1

> <s_lp_Variant>
AV-unprocessed.smi:3095-1

> <Gold.Version>
5.8.1

> <Gold.Id.Protein>
6NUR|6NUR_protein|mol2

> <Gold.PLP.Fitness>
28.1550

> <Gold.PLP.PLP>
-25.2205

> <Gold.PLP.part.hbond>
-1.0000

> <Gold.PLP.part.metal>
0.0000

> <Gold.PLP.part.buried>
-2.6747

> <Gold.PLP.part.nonpolar>
-21.0571

> <Gold.PLP.part.repulsive>
0.0057

> <Gold.PLP.ligand.clash>
0.0000

> <Gold.PLP.ligand.torsion>
0.0378

> <Gold.PLP.Chemscore.Hbond>
1.0000

> <Gold.PLP.Chemscore.CHOScore>
0.0000

> <Gold.PLP.Chemscore.Metal>
0.0000

> <Gold.Chemscore.Hbonds>
donor molecule, donor type, donor heavy atom, donor atom, acceptor molecule, acceptor atom, score
      P1  H  7997  8010       L1    11  1.00

> <Gold.PLP.Chemscore.Internal.Correction>
0.0100

> <Gold.Rescore>
     Score         DG    S(hbond)    S(metal)    S(lipo)     H(rot)  DE(clash)    DE(int)     intcor
     14.97     -15.10       0.97        0.00      76.30       1.00       0.08       0.05       ----

> <Gold.Chemscore.Fitness>
14.9727

> <Gold.Chemscore.DG>
-15.1002

> <Gold.Chemscore.ZeroCoef>
-5.4800

> <Gold.Chemscore.Hbond>
0.9738

> <Gold.Chemscore.Metal>
0.0000

> <Gold.Chemscore.Lipo>
76.3044

> <Gold.Chemscore.Internal_Hbond>
0.0000

> <Gold.Chemscore.DEClash>
0.0758

> <Gold.Chemscore.DEInternal>
0.0517

> <Gold.Chemscore.Rot>
1.0000

> <Gold.Chemscore.Internal.Correction>
   9.000000E+99

> <Gold.Chemscore.Hbonds>
donor molecule, donor type, donor heavy atom, donor atom, acceptor molecule, acceptor atom, score
      P1  H  7997  8010       L1    11  0.90

> <Gold.Chemscore.Hbond.Weighted>
-3.2526

> <Gold.Chemscore.Metal.Weighted>
-0.0000

> <Gold.Chemscore.Lipo.Weighted>
-8.9276

> <Gold.Chemscore.Internal_Hbond.Weighted>
0.0000

> <Gold.Chemscore.DEClash.Weighted>
0.0758

> <Gold.Chemscore.DEInternal.Weighted>
0.0517

> <Gold.Chemscore.Rot.Weighted>
2.5600

> <Gold.Chemscore.Internal.Correction.Weighted>
   9.000000E+99

> <Gold.Protein.RotatedTorsions>
[ 6907 6896 6895 6894 ] final -134.59 input  -60.11 | X-H torsion
[ 7974 7965 7964 7962 ] final  -86.74 input  175.53 | X-H torsion
[ 8008 7997 7996 7995 ] final   71.04 input   59.86 | X-H torsion
[ 10167 10162 10161 10158 ] final   90.76 input  -65.29 | X-H torsion
[ 10718 10713 10712 10709 ] final   61.34 input   66.30 | X-H torsion
[ 10763 10752 10751 10750 ] final -107.10 input  -60.55 | X-H torsion
[ 11005 11000 10999 10996 ] final -136.65 input  -57.11 | X-H torsion

> <Gold.Protein.ActiveResidues>
 VAL166  LYS551  ARG553  GLY616  TRP617  ASP618  TYR619  PRO620  LYS621  CYS622 
 ASP623  PHE694  ASN695  SER759  ASP760  ASP761  ALA762  ILE779  LEU786  VAL792 
 PHE793  MET794  SER795  GLU796  ALA797  LYS798  CYS799  TRP800  GLU811  SER814 

> <Gold.Protein.RotatedAtoms>
  150.9877  133.6181  159.2712 H   0  0  0  0  0  0  0  0  0  0  0  0  # atno 6907 bound_to 6896
  151.3413  135.0863  159.9381 H   0  0  0  0  0  0  0  0  0  0  0  0  # atno 6908 bound_to 6896
  152.5236  133.9488  159.7716 H   0  0  0  0  0  0  0  0  0  0  0  0  # atno 6909 bound_to 6896
  145.4759  140.9558  143.1891 H   0  0  0  0  0  0  0  0  0  0  0  0  # atno 7974 bound_to 7965
  155.7479  140.3489  155.5136 H   0  0  0  0  0  0  0  0  0  0  0  0  # atno 8008 bound_to 7997
  155.9033  140.1038  157.1355 H   0  0  0  0  0  0  0  0  0  0  0  0  # atno 8009 bound_to 7997
  154.4046  140.1282  156.4450 H   0  0  0  0  0  0  0  0  0  0  0  0  # atno 8010 bound_to 7997
  139.8441  144.6626  150.9248 H   0  0  0  0  0  0  0  0  0  0  0  0  # atno 10167 bound_to 10162
  157.5821  130.8989  149.9449 H   0  0  0  0  0  0  0  0  0  0  0  0  # atno 10718 bound_to 10713
  154.8054  135.4687  154.0380 H   0  0  0  0  0  0  0  0  0  0  0  0  # atno 10763 bound_to 10752
  153.1852  135.6847  153.8431 H   0  0  0  0  0  0  0  0  0  0  0  0  # atno 10764 bound_to 10752
  153.7968  135.3235  155.3363 H   0  0  0  0  0  0  0  0  0  0  0  0  # atno 10765 bound_to 10752
  140.8785  134.1961  157.4606 H   0  0  0  0  0  0  0  0  0  0  0  0  # atno 11005 bound_to 11000
  144.7917  139.6314  143.7110 LP  0  0  0  0  0  0  0  0  0  0  0  0  # atno 17320 bound_to 7965
  146.2369  139.5924  142.9517 LP  0  0  0  0  0  0  0  0  0  0  0  0  # atno 17321 bound_to 7965
  140.7795  143.3886  151.1350 LP  0  0  0  0  0  0  0  0  0  0  0  0  # atno 17342 bound_to 10162
  139.7530  143.8750  152.3081 LP  0  0  0  0  0  0  0  0  0  0  0  0  # atno 17343 bound_to 10162
  156.0867  130.3667  150.0473 LP  0  0  0  0  0  0  0  0  0  0  0  0  # atno 17370 bound_to 10713
  156.8611  130.9492  151.3618 LP  0  0  0  0  0  0  0  0  0  0  0  0  # atno 17371 bound_to 10713
  139.8717  134.9807  156.5085 LP  0  0  0  0  0  0  0  0  0  0  0  0  # atno 17394 bound_to 11000
  140.8489  133.8147  155.9149 LP  0  0  0  0  0  0  0  0  0  0  0  0  # atno 17395 bound_to 11000

$$$$
