AV-unprocessed.smi:1278|AV-procd|sdf|5348|dock10
  -GOLD-   22720 4483D 1   1.00000     0.00000
 Structure written by MMmdl.
 39 40  0  0  0  0  0  0  0  0  2 V2000
  149.8745  134.9482  154.3856 C   0  0  0  0  0  0  0  0  0  0  0  0
  150.1004  136.0930  155.3890 C   0  0  1  0  0  0  0  0  0  0  0  0
  151.3730  136.9072  155.0902 C   0  0  0  0  0  0  0  0  0  0  0  0
  151.1773  137.8208  153.8722 C   0  0  0  0  0  0  0  0  0  0  0  0
  149.9271  138.6996  154.0355 C   0  0  0  0  0  0  0  0  0  0  0  0
  148.7186  137.8713  154.2816 N   0  3  2  0  0  0  0  0  0  0  0  0
  147.4741  138.6802  154.2872 C   0  0  0  0  0  0  0  0  0  0  0  0
  146.7401  138.6345  152.9330 C   0  0  0  0  0  0  0  0  0  0  0  0
  146.8120  137.3089  152.3291 N   0  0  0  0  0  0  0  0  0  0  0  0
  145.7619  136.4960  152.1432 C   0  0  0  0  0  0  0  0  0  0  0  0
  144.6142  136.7892  152.4800 O   0  0  0  0  0  0  0  0  0  0  0  0
  146.1309  135.3450  151.5546 N   0  0  0  0  0  0  0  0  0  0  0  0
  145.3122  134.2408  151.1993 C   0  0  0  0  0  0  0  0  0  0  0  0
  144.0099  134.1426  151.4918 N   0  0  0  0  0  0  0  0  0  0  0  0
  143.4557  132.9494  151.0213 C   0  0  0  0  0  0  0  0  0  0  0  0
  144.3571  132.1449  150.3695 C   0  0  0  0  0  0  0  0  0  0  0  0
  145.9476  132.8572  150.3211 S   0  0  0  0  0  0  0  0  0  0  0  0
  148.8747  137.0235  155.4950 C   0  0  0  0  0  0  0  0  0  0  0  0
  149.6982  135.3187  153.3758 H   0  0  0  0  0  0  0  0  0  0  0  0
  149.0108  134.3459  154.6688 H   0  0  0  0  0  0  0  0  0  0  0  0
  150.7381  134.2836  154.3490 H   0  0  0  0  0  0  0  0  0  0  0  0
  150.2387  135.6228  156.3636 H   0  0  0  0  0  0  0  0  0  0  0  0
  151.6183  137.5208  155.9582 H   0  0  0  0  0  0  0  0  0  0  0  0
  152.2257  136.2450  154.9348 H   0  0  0  0  0  0  0  0  0  0  0  0
  152.0574  138.4501  153.7372 H   0  0  0  0  0  0  0  0  0  0  0  0
  151.0900  137.2213  152.9655 H   0  0  0  0  0  0  0  0  0  0  0  0
  150.0625  139.4022  154.8593 H   0  0  0  0  0  0  0  0  0  0  0  0
  149.7917  139.2936  153.1308 H   0  0  0  0  0  0  0  0  0  0  0  0
  146.8202  138.3505  155.0962 H   0  0  0  0  0  0  0  0  0  0  0  0
  147.7291  139.7186  154.5032 H   0  0  0  0  0  0  0  0  0  0  0  0
  145.6966  138.9313  153.0538 H   0  0  0  0  0  0  0  0  0  0  0  0
  147.1817  139.3361  152.2264 H   0  0  0  0  0  0  0  0  0  0  0  0
  147.7210  136.9929  152.0232 H   0  0  0  0  0  0  0  0  0  0  0  0
  147.1103  135.2468  151.3307 H   0  0  0  0  0  0  0  0  0  0  0  0
  142.4081  132.7531  151.1950 H   0  0  0  0  0  0  0  0  0  0  0  0
  144.1823  131.1800  149.9171 H   0  0  0  0  0  0  0  0  0  0  0  0
  147.9821  136.4217  155.6623 H   0  0  0  0  0  0  0  0  0  0  0  0
  148.9777  137.6701  156.3680 H   0  0  0  0  0  0  0  0  0  0  0  0
  148.6455  137.2454  153.4919 H   0  0  0  0  0  0  0  0  0  0  0  0
  1  2  1  0  0  0  0
  1 19  1  0  0  0  0
  1 20  1  0  0  0  0
  1 21  1  0  0  0  0
  2 18  1  0  0  0  0
  2  3  1  0  0  0  0
  2 22  1  0  0  0  0
  3  4  1  0  0  0  0
  3 23  1  0  0  0  0
  3 24  1  0  0  0  0
  4  5  1  0  0  0  0
  4 25  1  0  0  0  0
  4 26  1  0  0  0  0
  5  6  1  0  0  0  0
  5 27  1  0  0  0  0
  5 28  1  0  0  0  0
  6  7  1  0  0  0  0
  6 18  1  0  0  0  0
  6 39  1  0  0  0  0
  7  8  1  0  0  0  0
  7 29  1  0  0  0  0
  7 30  1  0  0  0  0
  8  9  1  0  0  0  0
  8 31  1  0  0  0  0
  8 32  1  0  0  0  0
  9 10  1  0  0  0  0
  9 33  1  0  0  0  0
 10 11  2  0  0  0  0
 10 12  1  0  0  0  0
 12 13  1  0  0  0  0
 12 34  1  0  0  0  0
 13 17  1  0  0  0  0
 13 14  2  0  0  0  0
 14 15  1  0  0  0  0
 15 16  2  0  0  0  0
 15 35  1  0  0  0  0
 16 17  1  0  0  0  0
 16 36  1  0  0  0  0
 18 37  1  0  0  0  0
 18 38  1  0  0  0  0
M  CHG  1   6   1
M  END
> <s_m_source_file>
AV-unprocessed.smi

> <i_m_source_file_index>
1278

> <i_lp_mmshare_version>
43012

> <i_f3d_flags>
0

> <s_epik_input>
W0NIM11bQ0BASF0xW0NIMl1bQ0gyXVtDSDJdTihbQ0gyXTEpW0NIMl1bQ0gyXVtOSF1DKD1PKVtOSF1jMm5bY0hdW2NIXXMy

> <s_epik_cmdline>
J2VwaWtfcHl0aG9uJywgJy1waCcsICc3LjAnLCAnLXRuJywgJzgnLCAnLW1hJywgJzIwMCcsICctbWV0YWxfYmluZGluZycsICctaW1hZScsICc8aW5maWxlLm1hZT4nLCAnLW9tYWUnLCAnPG91dGZpbGUubWFlPic=

> <r_lp_tautomer_probability>
0.999

> <r_epik_Ionization_Penalty>
0.00222194

> <r_epik_Ionization_Penalty_Charging>
0.00208169

> <r_epik_Ionization_Penalty_Neutral>
0.000140251

> <r_epik_State_Penalty>
0.00142585

> <r_epik_Charging_Adjusted_Penalty>
0.00350754

> <i_epik_Tot_Q>
1

> <i_epik_Tot_abs_Q>
1

> <r_epik_Metal_State_Penalty>
0.0570424

> <b_epik_Metal_Only>
0

> <s_lp_Force_Field>
OPLS_2005

> <r_lp_Energy>
16.7193

> <b_lp_Chiralities_Consistent>
1

> <s_lp_Variant>
AV-unprocessed.smi:1278-2

> <Gold.Version>
5.8.1

> <Gold.Id.Protein>
6NUR|6NUR_protein|mol2

> <Gold.PLP.Fitness>
40.5376

> <Gold.PLP.PLP>
-29.0912

> <Gold.PLP.part.hbond>
-2.6036

> <Gold.PLP.part.metal>
0.0000

> <Gold.PLP.part.buried>
-2.3964

> <Gold.PLP.part.nonpolar>
-25.4046

> <Gold.PLP.part.repulsive>
1.9252

> <Gold.PLP.ligand.clash>
0.0000

> <Gold.PLP.ligand.torsion>
0.7227

> <Gold.PLP.Chemscore.Hbond>
3.5312

> <Gold.PLP.Chemscore.CHOScore>
0.7601

> <Gold.PLP.Chemscore.Metal>
0.0000

> <Gold.Chemscore.Hbonds>
donor molecule, donor type, donor heavy atom, donor atom, acceptor molecule, acceptor atom, score
      L1  H     6    39       P1  7948  2.00
      L1  H     9    33       P1  7948  0.76
      L1  H    12    34       P1  7948  0.62
      L1  C    15    35       P1 10186  0.29

> <Gold.PLP.Chemscore.Internal.Correction>
0.0178

> <Gold.Rescore>
     Score         DG    S(hbond)    S(metal)    S(lipo)     H(rot)  DE(clash)    DE(int)     intcor
     14.85     -17.06       2.35        0.00      66.87       1.60       0.16       2.06       ----

> <Gold.Chemscore.Fitness>
14.8514

> <Gold.Chemscore.DG>
-17.0616

> <Gold.Chemscore.ZeroCoef>
-5.4800

> <Gold.Chemscore.Hbond>
2.3516

> <Gold.Chemscore.Metal>
0.0000

> <Gold.Chemscore.Lipo>
66.8677

> <Gold.Chemscore.Internal_Hbond>
0.0000

> <Gold.Chemscore.DEClash>
0.1552

> <Gold.Chemscore.DEInternal>
2.0550

> <Gold.Chemscore.Rot>
1.6001

> <Gold.Chemscore.Internal.Correction>
   9.000000E+99

> <Gold.Chemscore.Hbonds>
donor molecule, donor type, donor heavy atom, donor atom, acceptor molecule, acceptor atom, score
      L1  H     6    39       P1  7948  0.99
      L1  H     9    33       P1  7948  0.77
      L1  H    12    34       P1  7948  0.53

> <Gold.Chemscore.Hbond.Weighted>
-7.8544

> <Gold.Chemscore.Metal.Weighted>
-0.0000

> <Gold.Chemscore.Lipo.Weighted>
-7.8235

> <Gold.Chemscore.Internal_Hbond.Weighted>
0.0000

> <Gold.Chemscore.DEClash.Weighted>
0.1552

> <Gold.Chemscore.DEInternal.Weighted>
2.0550

> <Gold.Chemscore.Rot.Weighted>
4.0963

> <Gold.Chemscore.Internal.Correction.Weighted>
   9.000000E+99

> <Gold.Protein.RotatedTorsions>
[ 6907 6896 6895 6894 ] final  111.27 input  -60.11 | X-H torsion
[ 7974 7965 7964 7962 ] final  -71.05 input  175.53 | X-H torsion
[ 8008 7997 7996 7995 ] final   76.19 input   59.86 | X-H torsion
[ 10167 10162 10161 10158 ] final  -22.06 input  -65.29 | X-H torsion
[ 10718 10713 10712 10709 ] final  108.81 input   66.30 | X-H torsion
[ 10763 10752 10751 10750 ] final  169.69 input  -60.55 | X-H torsion
[ 11005 11000 10999 10996 ] final  100.96 input  -57.11 | X-H torsion

> <Gold.Protein.ActiveResidues>
 VAL166  LYS551  ARG553  GLY616  TRP617  ASP618  TYR619  PRO620  LYS621  CYS622 
 ASP623  PHE694  ASN695  SER759  ASP760  ASP761  ALA762  ILE779  LEU786  VAL792 
 PHE793  MET794  SER795  GLU796  ALA797  LYS798  CYS799  TRP800  GLU811  SER814 

> <Gold.Protein.RotatedAtoms>
  152.4978  133.8682  159.7284 H   0  0  0  0  0  0  0  0  0  0  0  0  # atno 6907 bound_to 6896
  150.9175  133.6912  159.2846 H   0  0  0  0  0  0  0  0  0  0  0  0  # atno 6908 bound_to 6896
  151.4300  135.1013  159.9692 H   0  0  0  0  0  0  0  0  0  0  0  0  # atno 6909 bound_to 6896
  145.6831  140.9181  143.0822 H   0  0  0  0  0  0  0  0  0  0  0  0  # atno 7974 bound_to 7965
  155.8237  140.3469  155.5530 H   0  0  0  0  0  0  0  0  0  0  0  0  # atno 8008 bound_to 7997
  155.8315  140.0928  157.1810 H   0  0  0  0  0  0  0  0  0  0  0  0  # atno 8009 bound_to 7997
  154.4004  140.1411  156.3607 H   0  0  0  0  0  0  0  0  0  0  0  0  # atno 8010 bound_to 7997
  140.7284  143.4570  151.0434 H   0  0  0  0  0  0  0  0  0  0  0  0  # atno 10167 bound_to 10162
  157.6570  131.0901  150.6361 H   0  0  0  0  0  0  0  0  0  0  0  0  # atno 10718 bound_to 10713
  154.3868  135.2753  155.2179 H   0  0  0  0  0  0  0  0  0  0  0  0  # atno 10763 bound_to 10752
  154.4262  135.5988  153.6044 H   0  0  0  0  0  0  0  0  0  0  0  0  # atno 10764 bound_to 10752
  152.9833  135.5984  154.4117 H   0  0  0  0  0  0  0  0  0  0  0  0  # atno 10765 bound_to 10752
  139.8772  134.9163  156.4835 H   0  0  0  0  0  0  0  0  0  0  0  0  # atno 11005 bound_to 11000
  144.7020  139.8722  143.7441 LP  0  0  0  0  0  0  0  0  0  0  0  0  # atno 17320 bound_to 7965
  146.0947  139.3939  143.0384 LP  0  0  0  0  0  0  0  0  0  0  0  0  # atno 17321 bound_to 7965
  139.8251  143.7766  152.3178 LP  0  0  0  0  0  0  0  0  0  0  0  0  # atno 17342 bound_to 10162
  139.7863  144.7426  151.0018 LP  0  0  0  0  0  0  0  0  0  0  0  0  # atno 17343 bound_to 10162
  156.6666  130.4527  149.5670 LP  0  0  0  0  0  0  0  0  0  0  0  0  # atno 17370 bound_to 10713
  156.2028  130.6630  151.1185 LP  0  0  0  0  0  0  0  0  0  0  0  0  # atno 17371 bound_to 10713
  140.8710  133.7988  155.9364 LP  0  0  0  0  0  0  0  0  0  0  0  0  # atno 17394 bound_to 11000
  140.8953  134.2445  157.5072 LP  0  0  0  0  0  0  0  0  0  0  0  0  # atno 17395 bound_to 11000

$$$$
