AV-unprocessed.smi:910|AV-procd|sdf|4122|dock6
  -GOLD-   22720 2 23D 1   1.00000     0.00000
 Structure written by MMmdl.
 46 47  0  0  0  0  0  0  0  0  1 V2000
  146.1267  132.5824  149.7010 C   0  0  0  0  0  0  0  0  0  0  0  0
  146.6529  133.1635  150.9950 C   0  0  0  0  0  0  0  0  0  0  0  0
  147.7724  132.6707  151.6089 N   0  0  0  0  0  0  0  0  0  0  0  0
  147.9878  133.4015  152.7668 C   0  0  0  0  0  0  0  0  0  0  0  0
  148.9454  133.2610  153.6299 N   0  0  0  0  0  0  0  0  0  0  0  0
  148.9598  134.0993  154.7320 C   0  0  0  0  0  0  0  0  0  0  0  0
  148.6866  133.8093  155.9012 O   0  0  0  0  0  0  0  0  0  0  0  0
  149.2643  135.3529  154.3634 N   0  0  0  0  0  0  0  0  0  0  0  0
  149.2779  136.5166  155.2440 C   0  0  0  0  0  0  0  0  0  0  0  0
  150.1965  137.6168  154.6947 C   0  0  0  0  0  0  0  0  0  0  0  0
  149.8795  138.8476  155.3261 O   0  0  0  0  0  0  0  0  0  0  0  0
  150.7953  139.9035  155.0632 C   0  0  2  0  0  0  0  0  0  0  0  0
  151.9858  139.7392  156.0264 C   0  0  0  0  0  0  0  0  0  0  0  0
  151.5740  139.9539  157.4928 C   0  0  0  0  0  0  0  0  0  0  0  0
  150.8902  141.3154  157.6859 C   0  0  0  0  0  0  0  0  0  0  0  0
  149.6912  141.4714  156.7389 C   0  0  0  0  0  0  0  0  0  0  0  0
  150.0985  141.2705  155.2665 C   0  0  2  0  0  0  0  0  0  0  0  0
  148.9064  141.4787  154.3200 C   0  0  0  0  0  0  0  0  0  0  0  0
  146.9804  134.3369  152.8290 O   0  0  0  0  0  0  0  0  0  0  0  0
  146.1860  134.1648  151.7369 C   0  0  0  0  0  0  0  0  0  0  0  0
  144.9837  135.0655  151.5643 C   0  0  0  0  0  0  0  0  0  0  0  0
  145.1049  132.2273  149.8357 H   0  0  0  0  0  0  0  0  0  0  0  0
  146.7412  131.7451  149.3696 H   0  0  0  0  0  0  0  0  0  0  0  0
  146.1282  133.3414  148.9188 H   0  0  0  0  0  0  0  0  0  0  0  0
  148.3154  131.9014  151.2455 H   0  0  0  0  0  0  0  0  0  0  0  0
  149.4661  135.5192  153.3881 H   0  0  0  0  0  0  0  0  0  0  0  0
  148.2699  136.9003  155.4096 H   0  0  0  0  0  0  0  0  0  0  0  0
  149.6467  136.1889  156.2160 H   0  0  0  0  0  0  0  0  0  0  0  0
  151.2392  137.3697  154.8977 H   0  0  0  0  0  0  0  0  0  0  0  0
  150.0845  137.6897  153.6121 H   0  0  0  0  0  0  0  0  0  0  0  0
  151.1776  139.8404  154.0423 H   0  0  0  0  0  0  0  0  0  0  0  0
  152.4284  138.7500  155.9058 H   0  0  0  0  0  0  0  0  0  0  0  0
  152.7637  140.4569  155.7635 H   0  0  0  0  0  0  0  0  0  0  0  0
  150.8956  139.1585  157.8046 H   0  0  0  0  0  0  0  0  0  0  0  0
  152.4493  139.8828  158.1389 H   0  0  0  0  0  0  0  0  0  0  0  0
  150.5622  141.4233  158.7203 H   0  0  0  0  0  0  0  0  0  0  0  0
  151.6083  142.1156  157.5033 H   0  0  0  0  0  0  0  0  0  0  0  0
  148.9233  140.7471  157.0094 H   0  0  0  0  0  0  0  0  0  0  0  0
  149.2463  142.4579  156.8719 H   0  0  0  0  0  0  0  0  0  0  0  0
  150.8296  142.0431  155.0237 H   0  0  0  0  0  0  0  0  0  0  0  0
  148.1017  140.7740  154.5300 H   0  0  0  0  0  0  0  0  0  0  0  0
  149.2032  141.3499  153.2790 H   0  0  0  0  0  0  0  0  0  0  0  0
  148.4965  142.4836  154.4234 H   0  0  0  0  0  0  0  0  0  0  0  0
  144.6822  135.1101  150.5177 H   0  0  0  0  0  0  0  0  0  0  0  0
  145.2132  136.0762  151.9000 H   0  0  0  0  0  0  0  0  0  0  0  0
  144.1457  134.6892  152.1510 H   0  0  0  0  0  0  0  0  0  0  0  0
  1 22  1  0  0  0  0
  1 23  1  0  0  0  0
  1 24  1  0  0  0  0
  1  2  1  0  0  0  0
  2  3  1  0  0  0  0
  2 20  2  0  0  0  0
  3 25  1  0  0  0  0
  3  4  1  0  0  0  0
  4 19  1  0  0  0  0
  4  5  2  0  0  0  0
  5  6  1  0  0  0  0
  6  8  1  0  0  0  0
  6  7  2  0  0  0  0
  8  9  1  0  0  0  0
  8 26  1  0  0  0  0
  9 10  1  0  0  0  0
  9 27  1  0  0  0  0
  9 28  1  0  0  0  0
 10 11  1  0  0  0  0
 10 29  1  0  0  0  0
 10 30  1  0  0  0  0
 11 12  1  0  0  0  0
 12 17  1  0  0  0  0
 12 13  1  0  0  0  0
 12 31  1  0  0  0  0
 13 14  1  0  0  0  0
 13 32  1  0  0  0  0
 13 33  1  0  0  0  0
 14 15  1  0  0  0  0
 14 34  1  0  0  0  0
 14 35  1  0  0  0  0
 15 16  1  0  0  0  0
 15 36  1  0  0  0  0
 15 37  1  0  0  0  0
 16 17  1  0  0  0  0
 16 38  1  0  0  0  0
 16 39  1  0  0  0  0
 17 18  1  0  0  0  0
 17 40  1  0  0  0  0
 18 41  1  0  0  0  0
 18 42  1  0  0  0  0
 18 43  1  0  0  0  0
 19 20  1  0  0  0  0
 20 21  1  0  0  0  0
 21 44  1  0  0  0  0
 21 45  1  0  0  0  0
 21 46  1  0  0  0  0
M  END
> <s_m_source_file>
AV-unprocessed.smi

> <i_m_source_file_index>
910

> <i_lp_mmshare_version>
43012

> <i_f3d_flags>
0

> <s_epik_input>
W0NIM11jMW5jKG9jMVtDSDNdKVtOSF1DKD1PKVtOSF1bQ0gyXVtDSDJdT1tDQEBIXTJbQ0gyXVtDSDJdW0NIMl1bQ0gyXVtDQEhdMltDSDNd

> <s_epik_cmdline>
J2VwaWtfcHl0aG9uJywgJy1waCcsICc3LjAnLCAnLXRuJywgJzgnLCAnLW1hJywgJzIwMCcsICctbWV0YWxfYmluZGluZycsICctaW1hZScsICc8aW5maWxlLm1hZT4nLCAnLW9tYWUnLCAnPG91dGZpbGUubWFlPic=

> <r_lp_tautomer_probability>
0.107061

> <r_epik_Ionization_Penalty>
0.727192

> <r_epik_Ionization_Penalty_Charging>
0.726719

> <r_epik_Ionization_Penalty_Neutral>
0.000473387

> <r_epik_State_Penalty>
2.53712

> <r_epik_Charging_Adjusted_Penalty>
3.26383

> <i_epik_Tot_Q>
0

> <i_epik_Tot_abs_Q>
0

> <r_epik_Metal_State_Penalty>
3.71015

> <b_epik_Metal_Only>
0

> <s_lp_Force_Field>
OPLS_2005

> <r_lp_Energy>
29.3715

> <b_lp_Chiralities_Consistent>
1

> <s_lp_Variant>
AV-unprocessed.smi:910-7

> <Gold.Version>
5.8.1

> <Gold.Id.Protein>
6NUR|6NUR_protein|mol2

> <Gold.PLP.Fitness>
39.4877

> <Gold.PLP.PLP>
-36.0952

> <Gold.PLP.part.hbond>
-2.0000

> <Gold.PLP.part.metal>
0.0000

> <Gold.PLP.part.buried>
-4.4563

> <Gold.PLP.part.nonpolar>
-30.6579

> <Gold.PLP.part.repulsive>
0.7349

> <Gold.PLP.ligand.clash>
0.0000

> <Gold.PLP.ligand.torsion>
1.1825

> <Gold.PLP.Chemscore.Hbond>
1.9000

> <Gold.PLP.Chemscore.CHOScore>
0.0000

> <Gold.PLP.Chemscore.Metal>
0.0000

> <Gold.Chemscore.Hbonds>
donor molecule, donor type, donor heavy atom, donor atom, acceptor molecule, acceptor atom, score
      L1  H     3    25       P1 10747  1.00
      L1  H     8    26       P1  7948  0.79

> <Gold.PLP.Chemscore.Internal.Correction>
0.0575

> <Gold.Rescore>
     Score         DG    S(hbond)    S(metal)    S(lipo)     H(rot)  DE(clash)    DE(int)     intcor
     14.24     -15.62       1.60        0.00      77.41       1.66       0.16       1.22       ----

> <Gold.Chemscore.Fitness>
14.2435

> <Gold.Chemscore.DG>
-15.6216

> <Gold.Chemscore.ZeroCoef>
-5.4800

> <Gold.Chemscore.Hbond>
1.5953

> <Gold.Chemscore.Metal>
0.0000

> <Gold.Chemscore.Lipo>
77.4084

> <Gold.Chemscore.Internal_Hbond>
0.0000

> <Gold.Chemscore.DEClash>
0.1568

> <Gold.Chemscore.DEInternal>
1.2213

> <Gold.Chemscore.Rot>
1.6576

> <Gold.Chemscore.Internal.Correction>
   9.000000E+99

> <Gold.Chemscore.Hbonds>
donor molecule, donor type, donor heavy atom, donor atom, acceptor molecule, acceptor atom, score
      L1  H     3    25       P1 10747  0.97
      L1  H     8    26       P1  7948  0.11

> <Gold.Chemscore.Hbond.Weighted>
-5.3284

> <Gold.Chemscore.Metal.Weighted>
-0.0000

> <Gold.Chemscore.Lipo.Weighted>
-9.0568

> <Gold.Chemscore.Internal_Hbond.Weighted>
0.0000

> <Gold.Chemscore.DEClash.Weighted>
0.1568

> <Gold.Chemscore.DEInternal.Weighted>
1.2213

> <Gold.Chemscore.Rot.Weighted>
4.2436

> <Gold.Chemscore.Internal.Correction.Weighted>
   9.000000E+99

> <Gold.Protein.RotatedTorsions>
[ 6907 6896 6895 6894 ] final -107.83 input  -60.11 | X-H torsion
[ 7974 7965 7964 7962 ] final    7.75 input  175.53 | X-H torsion
[ 8008 7997 7996 7995 ] final   68.97 input   59.86 | X-H torsion
[ 10167 10162 10161 10158 ] final  179.83 input  -65.29 | X-H torsion
[ 10718 10713 10712 10709 ] final  -31.25 input   66.30 | X-H torsion
[ 10763 10752 10751 10750 ] final  -79.63 input  -60.55 | X-H torsion
[ 11005 11000 10999 10996 ] final  -74.54 input  -57.11 | X-H torsion

> <Gold.Protein.ActiveResidues>
 VAL166  LYS551  ARG553  GLY616  TRP617  ASP618  TYR619  PRO620  LYS621  CYS622 
 ASP623  PHE694  ASN695  SER759  ASP760  ASP761  ALA762  ILE779  LEU786  VAL792 
 PHE793  MET794  SER795  GLU796  ALA797  LYS798  CYS799  TRP800  GLU811  SER814 

> <Gold.Protein.RotatedAtoms>
  150.7466  133.9769  159.3563 H   0  0  0  0  0  0  0  0  0  0  0  0  # atno 6907 bound_to 6896
  151.7707  135.0785  160.0369 H   0  0  0  0  0  0  0  0  0  0  0  0  # atno 6908 bound_to 6896
  152.3341  133.5955  159.5866 H   0  0  0  0  0  0  0  0  0  0  0  0  # atno 6909 bound_to 6896
  146.2423  140.0037  142.8413 H   0  0  0  0  0  0  0  0  0  0  0  0  # atno 7974 bound_to 7965
  155.7164  140.3494  155.4996 H   0  0  0  0  0  0  0  0  0  0  0  0  # atno 8008 bound_to 7997
  155.9309  140.1084  157.1155 H   0  0  0  0  0  0  0  0  0  0  0  0  # atno 8009 bound_to 7997
  154.4085  140.1231  156.4788 H   0  0  0  0  0  0  0  0  0  0  0  0  # atno 8010 bound_to 7997
  139.5353  144.2514  152.0781 H   0  0  0  0  0  0  0  0  0  0  0  0  # atno 10167 bound_to 10162
  156.3896  130.4370  149.7405 H   0  0  0  0  0  0  0  0  0  0  0  0  # atno 10718 bound_to 10713
  154.5410  135.5689  153.6839 H   0  0  0  0  0  0  0  0  0  0  0  0  # atno 10763 bound_to 10752
  152.9963  135.6228  154.2502 H   0  0  0  0  0  0  0  0  0  0  0  0  # atno 10764 bound_to 10752
  154.2433  135.2861  155.2825 H   0  0  0  0  0  0  0  0  0  0  0  0  # atno 10765 bound_to 10752
  141.1636  133.6915  156.7379 H   0  0  0  0  0  0  0  0  0  0  0  0  # atno 11005 bound_to 11000
  145.1392  140.9561  143.4499 LP  0  0  0  0  0  0  0  0  0  0  0  0  # atno 17320 bound_to 7965
  145.0313  139.3339  143.6023 LP  0  0  0  0  0  0  0  0  0  0  0  0  # atno 17321 bound_to 7965
  140.1984  144.4683  150.6444 LP  0  0  0  0  0  0  0  0  0  0  0  0  # atno 17342 bound_to 10162
  140.6556  143.2237  151.5975 LP  0  0  0  0  0  0  0  0  0  0  0  0  # atno 17343 bound_to 10162
  156.4463  130.7885  151.2907 LP  0  0  0  0  0  0  0  0  0  0  0  0  # atno 17370 bound_to 10713
  157.7498  131.0109  150.3324 LP  0  0  0  0  0  0  0  0  0  0  0  0  # atno 17371 bound_to 10713
  140.2696  134.8403  157.3835 LP  0  0  0  0  0  0  0  0  0  0  0  0  # atno 17394 bound_to 11000
  140.1534  134.4821  155.7945 LP  0  0  0  0  0  0  0  0  0  0  0  0  # atno 17395 bound_to 11000

$$$$
