AV-unprocessed.smi:3214|AV-procd|sdf|12284|dock4
  -GOLD-   2272018123D 1   1.00000     0.00000
 Structure written by MMmdl.
 37 37  0  0  0  0  0  0  0  0  2 V2000
  150.7389  137.6267  154.3642 C   0  0  0  0  0  0  0  0  0  0  0  0
  150.5084  139.1405  154.3159 C   0  0  0  0  0  0  0  0  0  0  0  0
  149.3493  139.4569  153.4928 N   0  0  0  0  0  0  0  0  0  0  0  0
  148.0925  139.0915  153.7832 C   0  0  0  0  0  0  0  0  0  0  0  0
  147.7948  138.4414  154.7854 O   0  0  0  0  0  0  0  0  0  0  0  0
  147.0115  139.5205  152.7861 C   0  0  0  0  0  0  0  0  0  0  0  0
  146.5127  138.3579  151.9118 C   0  0  0  0  0  0  0  0  0  0  0  0
  146.5353  137.0845  152.6627 N   0  3  0  0  0  0  0  0  0  0  0  0
  145.3436  136.2206  152.4917 C   0  0  1  0  0  0  0  0  0  0  0  0
  144.0974  136.9905  152.9497 C   0  0  0  0  0  0  0  0  0  0  0  0
  145.1787  135.7563  151.0261 C   0  0  0  0  0  0  0  0  0  0  0  0
  145.2389  134.3153  150.8600 N   0  0  0  0  0  0  0  0  0  0  0  0
  144.2277  133.4504  150.4963 C   0  0  0  0  0  0  0  0  0  0  0  0
  144.7564  132.1916  150.4802 C   0  0  0  0  0  0  0  0  0  0  0  0
  146.1119  132.3885  150.8658 C   0  0  0  0  0  0  0  0  0  0  0  0
  146.3960  133.6601  151.0973 N   0  0  0  0  0  0  0  0  0  0  0  0
  151.6048  137.3870  154.9814 H   0  0  0  0  0  0  0  0  0  0  0  0
  150.9201  137.2225  153.3676 H   0  0  0  0  0  0  0  0  0  0  0  0
  149.8771  137.1088  154.7860 H   0  0  0  0  0  0  0  0  0  0  0  0
  150.3550  139.5254  155.3252 H   0  0  0  0  0  0  0  0  0  0  0  0
  151.3914  139.6372  153.9110 H   0  0  0  0  0  0  0  0  0  0  0  0
  149.5157  139.9866  152.6494 H   0  0  0  0  0  0  0  0  0  0  0  0
  146.1720  139.9592  153.3282 H   0  0  0  0  0  0  0  0  0  0  0  0
  147.4256  140.3088  152.1560 H   0  0  0  0  0  0  0  0  0  0  0  0
  145.5008  138.5623  151.5656 H   0  0  0  0  0  0  0  0  0  0  0  0
  147.1419  138.2603  151.0256 H   0  0  0  0  0  0  0  0  0  0  0  0
  147.3348  136.5643  152.3308 H   0  0  0  0  0  0  0  0  0  0  0  0
  145.4359  135.3511  153.1446 H   0  0  0  0  0  0  0  0  0  0  0  0
  143.2041  136.3691  152.8779 H   0  0  0  0  0  0  0  0  0  0  0  0
  143.9322  137.8807  152.3417 H   0  0  0  0  0  0  0  0  0  0  0  0
  144.1903  137.3088  153.9887 H   0  0  0  0  0  0  0  0  0  0  0  0
  144.2153  136.0885  150.6365 H   0  0  0  0  0  0  0  0  0  0  0  0
  145.9400  136.2145  150.3929 H   0  0  0  0  0  0  0  0  0  0  0  0
  143.2285  133.7975  150.2775 H   0  0  0  0  0  0  0  0  0  0  0  0
  144.2511  131.2691  150.2353 H   0  0  0  0  0  0  0  0  0  0  0  0
  146.8916  131.6508  150.9851 H   0  0  0  0  0  0  0  0  0  0  0  0
  146.6641  137.2731  153.6465 H   0  0  0  0  0  0  0  0  0  0  0  0
  1  2  1  0  0  0  0
  1 17  1  0  0  0  0
  1 18  1  0  0  0  0
  1 19  1  0  0  0  0
  2  3  1  0  0  0  0
  2 20  1  0  0  0  0
  2 21  1  0  0  0  0
  3  4  1  0  0  0  0
  3 22  1  0  0  0  0
  4  5  2  0  0  0  0
  4  6  1  0  0  0  0
  6  7  1  0  0  0  0
  6 23  1  0  0  0  0
  6 24  1  0  0  0  0
  7  8  1  0  0  0  0
  7 25  1  0  0  0  0
  7 26  1  0  0  0  0
  8  9  1  0  0  0  0
  8 27  1  0  0  0  0
  8 37  1  0  0  0  0
  9 10  1  0  0  0  0
  9 11  1  0  0  0  0
  9 28  1  0  0  0  0
 10 29  1  0  0  0  0
 10 30  1  0  0  0  0
 10 31  1  0  0  0  0
 11 12  1  0  0  0  0
 11 32  1  0  0  0  0
 11 33  1  0  0  0  0
 12 16  1  0  0  0  0
 12 13  1  0  0  0  0
 13 14  2  0  0  0  0
 13 34  1  0  0  0  0
 14 15  1  0  0  0  0
 14 35  1  0  0  0  0
 15 16  2  0  0  0  0
 15 36  1  0  0  0  0
M  CHG  1   8   1
M  END
> <s_m_source_file>
AV-unprocessed.smi

> <i_m_source_file_index>
3214

> <i_lp_mmshare_version>
43012

> <i_f3d_flags>
0

> <s_epik_input>
W0NIM11bQ0gyXVtOSF1DKD1PKVtDSDJdW0NIMl1bTkhdW0NASF0oW0NIM10pW0NIMl1uMVtjSF1bY0hdW2NIXW4x

> <s_epik_cmdline>
J2VwaWtfcHl0aG9uJywgJy1waCcsICc3LjAnLCAnLXRuJywgJzgnLCAnLW1hJywgJzIwMCcsICctbWV0YWxfYmluZGluZycsICctaW1hZScsICc8aW5maWxlLm1hZT4nLCAnLW9tYWUnLCAnPG91dGZpbGUubWFlPic=

> <r_lp_tautomer_probability>
1

> <r_epik_Ionization_Penalty>
0.00598156

> <r_epik_Ionization_Penalty_Charging>
0.00597743

> <r_epik_Ionization_Penalty_Neutral>
4.12922e-06

> <r_epik_State_Penalty>
0.00439883

> <r_epik_Charging_Adjusted_Penalty>
0.0103763

> <i_epik_Tot_Q>
1

> <i_epik_Tot_abs_Q>
1

> <r_epik_Metal_State_Penalty>
-0

> <b_epik_Metal_Only>
0

> <s_lp_Force_Field>
OPLS_2005

> <r_lp_Energy>
6.42892

> <b_lp_Chiralities_Consistent>
1

> <s_lp_Variant>
AV-unprocessed.smi:3214-2

> <Gold.Version>
5.8.1

> <Gold.Id.Protein>
6NUR|6NUR_protein|mol2

> <Gold.PLP.Fitness>
45.2662

> <Gold.PLP.PLP>
-33.0280

> <Gold.PLP.part.hbond>
-1.8365

> <Gold.PLP.part.metal>
0.0000

> <Gold.PLP.part.buried>
-3.7015

> <Gold.PLP.part.nonpolar>
-29.0095

> <Gold.PLP.part.repulsive>
0.4549

> <Gold.PLP.ligand.clash>
0.0000

> <Gold.PLP.ligand.torsion>
1.4638

> <Gold.PLP.Chemscore.Hbond>
2.9920

> <Gold.PLP.Chemscore.CHOScore>
2.0000

> <Gold.PLP.Chemscore.Metal>
0.0000

> <Gold.Chemscore.Hbonds>
donor molecule, donor type, donor heavy atom, donor atom, acceptor molecule, acceptor atom, score
      L1  H     3    22       P1  7957  0.90
      L1  H     8    27       P1  7948  2.00
      L1  C    13    34       P1 10186  1.00
      L1  C    15    36       P1 10747  1.00

> <Gold.PLP.Chemscore.Internal.Correction>
0.1898

> <Gold.Rescore>
     Score         DG    S(hbond)    S(metal)    S(lipo)     H(rot)  DE(clash)    DE(int)     intcor
     12.92     -14.38       1.97        0.00      72.26       2.39       0.01       1.44       ----

> <Gold.Chemscore.Fitness>
12.9244

> <Gold.Chemscore.DG>
-14.3830

> <Gold.Chemscore.ZeroCoef>
-5.4800

> <Gold.Chemscore.Hbond>
1.9697

> <Gold.Chemscore.Metal>
0.0000

> <Gold.Chemscore.Lipo>
72.2623

> <Gold.Chemscore.Internal_Hbond>
0.0000

> <Gold.Chemscore.DEClash>
0.0149

> <Gold.Chemscore.DEInternal>
1.4438

> <Gold.Chemscore.Rot>
2.3948

> <Gold.Chemscore.Internal.Correction>
   9.000000E+99

> <Gold.Chemscore.Hbonds>
donor molecule, donor type, donor heavy atom, donor atom, acceptor molecule, acceptor atom, score
      L1  H     3    22       P1  7957  0.82
      L1  H     8    27       P1  7948  1.00

> <Gold.Chemscore.Hbond.Weighted>
-6.5789

> <Gold.Chemscore.Metal.Weighted>
-0.0000

> <Gold.Chemscore.Lipo.Weighted>
-8.4547

> <Gold.Chemscore.Internal_Hbond.Weighted>
0.0000

> <Gold.Chemscore.DEClash.Weighted>
0.0149

> <Gold.Chemscore.DEInternal.Weighted>
1.4438

> <Gold.Chemscore.Rot.Weighted>
6.1306

> <Gold.Chemscore.Internal.Correction.Weighted>
   9.000000E+99

> <Gold.Protein.RotatedTorsions>
[ 6907 6896 6895 6894 ] final  -49.07 input  -60.11 | X-H torsion
[ 7974 7965 7964 7962 ] final  165.57 input  175.53 | X-H torsion
[ 8008 7997 7996 7995 ] final  -27.80 input   59.86 | X-H torsion
[ 10167 10162 10161 10158 ] final  113.68 input  -65.29 | X-H torsion
[ 10718 10713 10712 10709 ] final  -88.14 input   66.30 | X-H torsion
[ 10763 10752 10751 10750 ] final -145.89 input  -60.55 | X-H torsion
[ 11005 11000 10999 10996 ] final  -78.01 input  -57.11 | X-H torsion

> <Gold.Protein.ActiveResidues>
 VAL166  LYS551  ARG553  GLY616  TRP617  ASP618  TYR619  PRO620  LYS621  CYS622 
 ASP623  PHE694  ASN695  SER759  ASP760  ASP761  ALA762  ILE779  LEU786  VAL792 
 PHE793  MET794  SER795  GLU796  ALA797  LYS798  CYS799  TRP800  GLU811  SER814 

> <Gold.Protein.RotatedAtoms>
  150.8842  134.8237  159.7246 H   0  0  0  0  0  0  0  0  0  0  0  0  # atno 6907 bound_to 6896
  152.4797  134.4749  159.9657 H   0  0  0  0  0  0  0  0  0  0  0  0  # atno 6908 bound_to 6896
  151.4819  133.3505  159.2875 H   0  0  0  0  0  0  0  0  0  0  0  0  # atno 6909 bound_to 6896
  144.7497  139.8490  143.6370 H   0  0  0  0  0  0  0  0  0  0  0  0  # atno 7974 bound_to 7965
  154.4361  140.1862  156.0989 H   0  0  0  0  0  0  0  0  0  0  0  0  # atno 8008 bound_to 7997
  156.0308  140.3331  155.7111 H   0  0  0  0  0  0  0  0  0  0  0  0  # atno 8009 bound_to 7997
  155.5842  140.0624  157.2766 H   0  0  0  0  0  0  0  0  0  0  0  0  # atno 8010 bound_to 7997
  139.6444  144.7126  151.2173 H   0  0  0  0  0  0  0  0  0  0  0  0  # atno 10167 bound_to 10162
  155.9984  130.4825  150.4974 H   0  0  0  0  0  0  0  0  0  0  0  0  # atno 10718 bound_to 10713
  154.8362  135.3401  154.6576 H   0  0  0  0  0  0  0  0  0  0  0  0  # atno 10763 bound_to 10752
  153.7190  135.6959  153.5022 H   0  0  0  0  0  0  0  0  0  0  0  0  # atno 10764 bound_to 10752
  153.2395  135.4389  155.0636 H   0  0  0  0  0  0  0  0  0  0  0  0  # atno 10765 bound_to 10752
  141.1663  133.7046  156.7907 H   0  0  0  0  0  0  0  0  0  0  0  0  # atno 11005 bound_to 11000
  146.1429  139.4491  143.0097 LP  0  0  0  0  0  0  0  0  0  0  0  0  # atno 17320 bound_to 7965
  145.6990  141.0142  143.1515 LP  0  0  0  0  0  0  0  0  0  0  0  0  # atno 17321 bound_to 7965
  140.7507  143.6257  150.8471 LP  0  0  0  0  0  0  0  0  0  0  0  0  # atno 17342 bound_to 10162
  139.9898  143.5860  152.2914 LP  0  0  0  0  0  0  0  0  0  0  0  0  # atno 17343 bound_to 10162
  157.2963  131.0636  151.2099 LP  0  0  0  0  0  0  0  0  0  0  0  0  # atno 17370 bound_to 10713
  157.3094  130.6882  149.6207 LP  0  0  0  0  0  0  0  0  0  0  0  0  # atno 17371 bound_to 10713
  140.2327  134.8673  157.3493 LP  0  0  0  0  0  0  0  0  0  0  0  0  # atno 17394 bound_to 11000
  140.1875  134.4413  155.7735 LP  0  0  0  0  0  0  0  0  0  0  0  0  # atno 17395 bound_to 11000

$$$$
