AV-unprocessed.smi:249|AV-procd|sdf|1926|dock4
  -GOLD-   2262021 43D 1   1.00000     0.00000
 Structure written by MMmdl.
 64 67  0  0  0  0  0  0  0  0  2 V2000
  150.7548  145.1795  159.7501 C   0  0  0  0  0  0  0  0  0  0  0  0
  149.5348  144.2717  159.5401 C   0  0  0  0  0  0  0  0  0  0  0  0
  149.6448  143.4607  158.3003 N   0  3  2  0  0  0  0  0  0  0  0  0
  148.7619  142.2631  158.2906 C   0  0  0  0  0  0  0  0  0  0  0  0
  148.7595  141.5937  156.9076 C   0  0  0  0  0  0  0  0  0  0  0  0
  150.1885  141.2162  156.4648 C   0  0  1  0  0  0  0  0  0  0  0  0
  150.2440  140.5211  155.1720 N   0  0  0  0  0  0  0  0  0  0  0  0
  149.1631  140.7632  154.2241 C   0  0  0  0  0  0  0  0  0  0  0  0
  150.7175  139.2530  155.1559 C   0  0  0  0  0  0  0  0  0  0  0  0
  152.0420  139.0799  155.3919 N   0  0  0  0  0  0  0  0  0  0  0  0
  152.5674  137.8515  155.3930 C   0  0  0  0  0  0  0  0  0  0  0  0
  151.9578  136.6832  155.1826 N   0  0  0  0  0  0  0  0  0  0  0  0
  150.6279  136.8543  154.9331 C   0  0  0  0  0  0  0  0  0  0  0  0
  149.9298  138.0942  154.9015 C   0  0  0  0  0  0  0  0  0  0  0  0
  148.5845  137.8727  154.6318 N   0  0  0  0  0  0  0  0  0  0  0  0
  148.4919  136.5764  154.5142 C   0  0  0  0  0  0  0  0  0  0  0  0
  149.6754  135.8881  154.6602 N   0  0  0  0  0  0  0  0  0  0  0  0
  149.8552  134.4482  154.5892 C   0  0  0  0  0  0  0  0  0  0  0  0
  149.9810  133.7404  155.9641 C   0  0  1  0  0  0  0  0  0  0  0  0
  148.6510  133.8906  156.7381 C   0  0  0  0  0  0  0  0  0  0  0  0
  148.7807  133.4725  158.0819 O   0  0  0  0  0  0  0  0  0  0  0  0
  150.4582  132.2604  155.8883 C   0  0  1  0  0  0  0  0  0  0  0  0
  150.0935  131.5067  154.6175 C   0  0  0  0  0  0  0  0  0  0  0  0
  151.0983  130.3575  154.5857 C   0  0  0  0  0  0  0  0  0  0  0  0
  152.2176  130.7848  155.3516 O   0  0  0  0  0  0  0  0  0  0  0  0
  151.9809  132.0917  155.8561 C   0  0  0  0  0  0  0  0  0  0  0  0
  151.0816  142.4748  156.5203 C   0  0  0  0  0  0  0  0  0  0  0  0
  151.0509  143.1495  157.9066 C   0  0  2  0  0  0  0  0  0  0  0  0
  151.8237  142.3429  158.9727 C   0  0  0  0  0  0  0  0  0  0  0  0
  150.6783  145.7096  160.6997 H   0  0  0  0  0  0  0  0  0  0  0  0
  150.8474  145.9311  158.9667 H   0  0  0  0  0  0  0  0  0  0  0  0
  151.6779  144.5993  159.7708 H   0  0  0  0  0  0  0  0  0  0  0  0
  149.4650  143.6078  160.4027 H   0  0  0  0  0  0  0  0  0  0  0  0
  148.6163  144.8601  159.5253 H   0  0  0  0  0  0  0  0  0  0  0  0
  149.0755  141.5544  159.0576 H   0  0  0  0  0  0  0  0  0  0  0  0
  147.7407  142.5501  158.5384 H   0  0  0  0  0  0  0  0  0  0  0  0
  148.1277  140.7052  156.9311 H   0  0  0  0  0  0  0  0  0  0  0  0
  148.3060  142.2813  156.1925 H   0  0  0  0  0  0  0  0  0  0  0  0
  150.5713  140.5005  157.1930 H   0  0  0  0  0  0  0  0  0  0  0  0
  149.3735  140.2901  153.2639 H   0  0  0  0  0  0  0  0  0  0  0  0
  149.0499  141.8333  154.0492 H   0  0  0  0  0  0  0  0  0  0  0  0
  148.2124  140.3789  154.5929 H   0  0  0  0  0  0  0  0  0  0  0  0
  153.6280  137.7966  155.5900 H   0  0  0  0  0  0  0  0  0  0  0  0
  147.5534  136.0845  154.3032 H   0  0  0  0  0  0  0  0  0  0  0  0
  149.0002  134.0486  154.0425 H   0  0  0  0  0  0  0  0  0  0  0  0
  150.7331  134.2374  153.9771 H   0  0  0  0  0  0  0  0  0  0  0  0
  150.7208  134.2864  156.5496 H   0  0  0  0  0  0  0  0  0  0  0  0
  148.2985  134.9216  156.7212 H   0  0  0  0  0  0  0  0  0  0  0  0
  147.8678  133.2975  156.2649 H   0  0  0  0  0  0  0  0  0  0  0  0
  147.9781  133.0475  158.3436 H   0  0  0  0  0  0  0  0  0  0  0  0
  150.0687  131.7076  156.7448 H   0  0  0  0  0  0  0  0  0  0  0  0
  149.0703  131.1356  154.6096 H   0  0  0  0  0  0  0  0  0  0  0  0
  150.2316  132.1452  153.7435 H   0  0  0  0  0  0  0  0  0  0  0  0
  150.6802  129.4656  155.0532 H   0  0  0  0  0  0  0  0  0  0  0  0
  151.3911  130.1001  153.5675 H   0  0  0  0  0  0  0  0  0  0  0  0
  152.4348  132.8124  155.1742 H   0  0  0  0  0  0  0  0  0  0  0  0
  152.4408  132.2161  156.8365 H   0  0  0  0  0  0  0  0  0  0  0  0
  152.1108  142.2307  156.2562 H   0  0  0  0  0  0  0  0  0  0  0  0
  150.7402  143.1976  155.7791 H   0  0  0  0  0  0  0  0  0  0  0  0
  151.5681  144.1040  157.7968 H   0  0  0  0  0  0  0  0  0  0  0  0
  152.8465  142.1551  158.6453 H   0  0  0  0  0  0  0  0  0  0  0  0
  151.3675  141.3745  159.1754 H   0  0  0  0  0  0  0  0  0  0  0  0
  151.8878  142.8817  159.9178 H   0  0  0  0  0  0  0  0  0  0  0  0
  149.2995  144.0589  157.5632 H   0  0  0  0  0  0  0  0  0  0  0  0
  1  2  1  0  0  0  0
  1 30  1  0  0  0  0
  1 31  1  0  0  0  0
  1 32  1  0  0  0  0
  2  3  1  0  0  0  0
  2 33  1  0  0  0  0
  2 34  1  0  0  0  0
  3 28  1  0  0  0  0
  3  4  1  0  0  0  0
  3 64  1  0  0  0  0
  4  5  1  0  0  0  0
  4 35  1  0  0  0  0
  4 36  1  0  0  0  0
  5  6  1  0  0  0  0
  5 37  1  0  0  0  0
  5 38  1  0  0  0  0
  6  7  1  0  0  0  0
  6 27  1  0  0  0  0
  6 39  1  0  0  0  0
  7  8  1  0  0  0  0
  7  9  1  0  0  0  0
  8 40  1  0  0  0  0
  8 41  1  0  0  0  0
  8 42  1  0  0  0  0
  9 14  1  0  0  0  0
  9 10  2  0  0  0  0
 10 11  1  0  0  0  0
 11 12  2  0  0  0  0
 11 43  1  0  0  0  0
 12 13  1  0  0  0  0
 13 17  1  0  0  0  0
 13 14  2  0  0  0  0
 14 15  1  0  0  0  0
 15 16  2  0  0  0  0
 16 17  1  0  0  0  0
 16 44  1  0  0  0  0
 17 18  1  0  0  0  0
 18 19  1  0  0  0  0
 18 45  1  0  0  0  0
 18 46  1  0  0  0  0
 19 20  1  0  0  0  0
 19 22  1  0  0  0  0
 19 47  1  0  0  0  0
 20 21  1  0  0  0  0
 20 48  1  0  0  0  0
 20 49  1  0  0  0  0
 21 50  1  0  0  0  0
 22 26  1  0  0  0  0
 22 23  1  0  0  0  0
 22 51  1  0  0  0  0
 23 24  1  0  0  0  0
 23 52  1  0  0  0  0
 23 53  1  0  0  0  0
 24 25  1  0  0  0  0
 24 54  1  0  0  0  0
 24 55  1  0  0  0  0
 25 26  1  0  0  0  0
 26 56  1  0  0  0  0
 26 57  1  0  0  0  0
 27 28  1  0  0  0  0
 27 58  1  0  0  0  0
 27 59  1  0  0  0  0
 28 29  1  0  0  0  0
 28 60  1  0  0  0  0
 29 61  1  0  0  0  0
 29 62  1  0  0  0  0
 29 63  1  0  0  0  0
M  CHG  1   3   1
M  END
> <s_m_source_file>
AV-unprocessed.smi

> <i_m_source_file_index>
249

> <i_lp_mmshare_version>
43012

> <i_f3d_flags>
0

> <s_epik_input>
W0NIM11bQ0gyXU4xW0NIMl1bQ0gyXVtDQEhdKFtDSDJdW0NASF0xW0NIM10pTihbQ0gzXSljKG5bY0hdbjIpYyhjMjMpbltjSF1uM1tDSDJdW0NASF0oW0NIMl1bT0hdKVtDQEBIXTRbQ0gyXVtDSDJdT1tDSDJdNA==

> <s_epik_cmdline>
J2VwaWtfcHl0aG9uJywgJy1waCcsICc3LjAnLCAnLXRuJywgJzgnLCAnLW1hJywgJzIwMCcsICctbWV0YWxfYmluZGluZycsICctaW1hZScsICc8aW5maWxlLm1hZT4nLCAnLW9tYWUnLCAnPG91dGZpbGUubWFlPic=

> <r_lp_tautomer_probability>
1

> <r_epik_Ionization_Penalty>
0.00294688

> <r_epik_Ionization_Penalty_Charging>
0.00169971

> <r_epik_Ionization_Penalty_Neutral>
0.00124717

> <r_epik_State_Penalty>
-0

> <r_epik_Charging_Adjusted_Penalty>
0.00169971

> <i_epik_Tot_Q>
1

> <i_epik_Tot_abs_Q>
1

> <r_epik_Metal_State_Penalty>
-0

> <b_epik_Metal_Only>
0

> <s_lp_Force_Field>
OPLS_2005

> <r_lp_Energy>
54.3628

> <b_lp_Chiralities_Consistent>
1

> <s_lp_Variant>
AV-unprocessed.smi:249-29

> <Gold.Version>
5.8.1

> <Gold.Id.Protein>
6NUR|6NUR_protein|mol2

> <Gold.PLP.Fitness>
49.1108

> <Gold.PLP.PLP>
-41.9701

> <Gold.PLP.part.hbond>
-3.9254

> <Gold.PLP.part.metal>
0.0000

> <Gold.PLP.part.buried>
-5.3854

> <Gold.PLP.part.nonpolar>
-33.6175

> <Gold.PLP.part.repulsive>
0.3067

> <Gold.PLP.ligand.clash>
0.0000

> <Gold.PLP.ligand.torsion>
3.0824

> <Gold.PLP.Chemscore.Hbond>
4.1154

> <Gold.PLP.Chemscore.CHOScore>
0.0000

> <Gold.PLP.Chemscore.Metal>
0.0000

> <Gold.Chemscore.Hbonds>
donor molecule, donor type, donor heavy atom, donor atom, acceptor molecule, acceptor atom, score
      L1  H     3    64       P1  8028  1.50
      P1  H  6896  6909       L1    21  0.26
      P1  H  7989  7998       L1     7  0.06
      P1  H 10752 10764       L1    12  1.00

> <Gold.PLP.Chemscore.Internal.Correction>
0.9593

> <Gold.Rescore>
     Score         DG    S(hbond)    S(metal)    S(lipo)     H(rot)  DE(clash)    DE(int)     intcor
     11.57     -15.65       1.70        0.00     101.99       2.90       0.22       3.86       ----

> <Gold.Chemscore.Fitness>
11.5657

> <Gold.Chemscore.DG>
-15.6502

> <Gold.Chemscore.ZeroCoef>
-5.4800

> <Gold.Chemscore.Hbond>
1.6957

> <Gold.Chemscore.Metal>
0.0000

> <Gold.Chemscore.Lipo>
101.9853

> <Gold.Chemscore.Internal_Hbond>
0.0000

> <Gold.Chemscore.DEClash>
0.2219

> <Gold.Chemscore.DEInternal>
3.8626

> <Gold.Chemscore.Rot>
2.9006

> <Gold.Chemscore.Internal.Correction>
   9.000000E+99

> <Gold.Chemscore.Hbonds>
donor molecule, donor type, donor heavy atom, donor atom, acceptor molecule, acceptor atom, score
      L1  H     3    64       P1  8028  0.09
      P1  H  6896  6909       L1    21  0.27
      P1  H 10752 10764       L1    12  0.78

> <Gold.Chemscore.Hbond.Weighted>
-5.6636

> <Gold.Chemscore.Metal.Weighted>
-0.0000

> <Gold.Chemscore.Lipo.Weighted>
-11.9323

> <Gold.Chemscore.Internal_Hbond.Weighted>
0.0000

> <Gold.Chemscore.DEClash.Weighted>
0.2219

> <Gold.Chemscore.DEInternal.Weighted>
3.8626

> <Gold.Chemscore.Rot.Weighted>
7.4256

> <Gold.Chemscore.Internal.Correction.Weighted>
   9.000000E+99

> <Gold.Protein.RotatedTorsions>
[ 6907 6896 6895 6894 ] final    8.86 input  -60.11 | X-H torsion
[ 7974 7965 7964 7962 ] final  -31.74 input  175.53 | X-H torsion
[ 8008 7997 7996 7995 ] final -100.27 input   59.86 | X-H torsion
[ 10167 10162 10161 10158 ] final  -83.81 input  -65.29 | X-H torsion
[ 10718 10713 10712 10709 ] final   56.27 input   66.30 | X-H torsion
[ 10763 10752 10751 10750 ] final  -58.13 input  -60.55 | X-H torsion
[ 11005 11000 10999 10996 ] final   99.15 input  -57.11 | X-H torsion

> <Gold.Protein.ActiveResidues>
 VAL166  LYS551  ARG553  GLY616  TRP617  ASP618  TYR619  PRO620  LYS621  CYS622 
 ASP623  PHE694  ASN695  SER759  ASP760  ASP761  ALA762  ILE779  LEU786  VAL792 
 PHE793  MET794  SER795  GLU796  ALA797  LYS798  CYS799  TRP800  GLU811  SER814 

> <Gold.Protein.RotatedAtoms>
  151.7128  135.0909  160.0270 H   0  0  0  0  0  0  0  0  0  0  0  0  # atno 6907 bound_to 6896
  152.3651  133.6341  159.6052 H   0  0  0  0  0  0  0  0  0  0  0  0  # atno 6908 bound_to 6896
  150.7632  133.9278  159.3459 H   0  0  0  0  0  0  0  0  0  0  0  0  # atno 6909 bound_to 6896
  146.1044  140.5705  142.8806 H   0  0  0  0  0  0  0  0  0  0  0  0  # atno 7974 bound_to 7965
  154.8263  140.0442  157.1446 H   0  0  0  0  0  0  0  0  0  0  0  0  # atno 8008 bound_to 7997
  154.9203  140.3026  155.5200 H   0  0  0  0  0  0  0  0  0  0  0  0  # atno 8009 bound_to 7997
  156.2984  140.2342  156.4252 H   0  0  0  0  0  0  0  0  0  0  0  0  # atno 8010 bound_to 7997
  140.4191  143.2591  151.8914 H   0  0  0  0  0  0  0  0  0  0  0  0  # atno 10167 bound_to 10162
  157.5416  130.8701  149.8830 H   0  0  0  0  0  0  0  0  0  0  0  0  # atno 10718 bound_to 10713
  154.2333  135.6357  153.5182 H   0  0  0  0  0  0  0  0  0  0  0  0  # atno 10763 bound_to 10752
  152.9944  135.5524  154.5989 H   0  0  0  0  0  0  0  0  0  0  0  0  # atno 10764 bound_to 10752
  154.5477  135.2899  155.1011 H   0  0  0  0  0  0  0  0  0  0  0  0  # atno 10765 bound_to 10752
  139.8771  134.9082  156.4563 H   0  0  0  0  0  0  0  0  0  0  0  0  # atno 11005 bound_to 11000
  144.7459  140.5065  143.6836 LP  0  0  0  0  0  0  0  0  0  0  0  0  # atno 17320 bound_to 7965
  145.5790  139.1488  143.3246 LP  0  0  0  0  0  0  0  0  0  0  0  0  # atno 17321 bound_to 7965
  139.4782  144.5456  151.8463 LP  0  0  0  0  0  0  0  0  0  0  0  0  # atno 17342 bound_to 10162
  140.4553  144.1798  150.5901 LP  0  0  0  0  0  0  0  0  0  0  0  0  # atno 17343 bound_to 10162
  156.0501  130.3719  150.1221 LP  0  0  0  0  0  0  0  0  0  0  0  0  # atno 17370 bound_to 10713
  156.9400  130.9741  151.3518 LP  0  0  0  0  0  0  0  0  0  0  0  0  # atno 17371 bound_to 10713
  140.8896  133.7858  155.9556 LP  0  0  0  0  0  0  0  0  0  0  0  0  # atno 17394 bound_to 11000
  140.8768  134.2660  157.5164 LP  0  0  0  0  0  0  0  0  0  0  0  0  # atno 17395 bound_to 11000

$$$$
