AV-unprocessed.smi:1196|AV-procd|sdf|5000|dock6
  -GOLD-   22720 4 03D 1   1.00000     0.00000
 Structure written by MMmdl.
 36 37  0  0  0  0  0  0  0  0  2 V2000
  146.0153  134.8286  153.7011 C   0  0  0  0  0  0  0  0  0  0  0  0
  145.7268  136.1323  152.9407 C   0  0  2  0  0  0  0  0  0  0  0  0
  145.4108  135.8603  151.4569 C   0  0  0  0  0  0  0  0  0  0  0  0
  145.4634  134.4467  151.1287 N   0  0  0  0  0  0  0  0  0  0  0  0
  144.4405  133.6272  150.6997 C   0  0  0  0  0  0  0  0  0  0  0  0
  144.9658  132.3790  150.5259 C   0  0  0  0  0  0  0  0  0  0  0  0
  146.3353  132.5373  150.8777 C   0  0  0  0  0  0  0  0  0  0  0  0
  146.6309  133.7763  151.2356 N   0  0  0  0  0  0  0  0  0  0  0  0
  146.8701  137.0361  153.0517 N   0  0  0  0  0  0  0  0  0  0  0  0
  146.8761  138.2118  153.6985 C   0  0  0  0  0  0  0  0  0  0  0  0
  145.8952  138.6647  154.2891 O   0  0  0  0  0  0  0  0  0  0  0  0
  148.1889  138.9975  153.6654 C   0  0  0  0  0  0  0  0  0  0  0  0
  148.7319  139.2969  155.0756 C   0  0  0  0  0  0  0  0  0  0  0  0
  149.9155  140.2872  155.0664 C   0  0  2  0  0  0  0  0  0  0  0  0
  151.0633  139.7401  154.3632 N   0  5  0  0  0  0  0  0  0  0  0  0
  152.1145  139.7089  155.2162 C   0  0  0  0  0  0  0  0  0  0  0  0
  153.2582  139.3224  154.9859 O   0  0  0  0  0  0  0  0  0  0  0  0
  151.7604  140.1691  156.4205 N   0  0  0  0  0  0  0  0  0  0  0  0
  150.4804  140.5252  156.4539 C   0  0  0  0  0  0  0  0  0  0  0  0
  149.8525  140.9681  157.4147 O   0  0  0  0  0  0  0  0  0  0  0  0
  145.1674  134.1456  153.6425 H   0  0  0  0  0  0  0  0  0  0  0  0
  146.2073  135.0210  154.7572 H   0  0  0  0  0  0  0  0  0  0  0  0
  146.8859  134.3150  153.2922 H   0  0  0  0  0  0  0  0  0  0  0  0
  144.8508  136.6007  153.3935 H   0  0  0  0  0  0  0  0  0  0  0  0
  144.4228  136.2439  151.1975 H   0  0  0  0  0  0  0  0  0  0  0  0
  146.1241  136.3830  150.8179 H   0  0  0  0  0  0  0  0  0  0  0  0
  143.4352  133.9957  150.5589 H   0  0  0  0  0  0  0  0  0  0  0  0
  144.4499  131.4884  150.1991 H   0  0  0  0  0  0  0  0  0  0  0  0
  147.1184  131.7937  150.8828 H   0  0  0  0  0  0  0  0  0  0  0  0
  147.7254  136.7466  152.5996 H   0  0  0  0  0  0  0  0  0  0  0  0
  148.9315  138.4408  153.0918 H   0  0  0  0  0  0  0  0  0  0  0  0
  148.0174  139.9302  153.1275 H   0  0  0  0  0  0  0  0  0  0  0  0
  147.9260  139.7128  155.6829 H   0  0  0  0  0  0  0  0  0  0  0  0
  149.0269  138.3661  155.5646 H   0  0  0  0  0  0  0  0  0  0  0  0
  149.5952  141.2473  154.6593 H   0  0  0  0  0  0  0  0  0  0  0  0
  152.3864  140.2276  157.2096 H   0  0  0  0  0  0  0  0  0  0  0  0
  1  2  1  0  0  0  0
  1 21  1  0  0  0  0
  1 22  1  0  0  0  0
  1 23  1  0  0  0  0
  2  3  1  0  0  0  0
  2  9  1  0  0  0  0
  2 24  1  0  0  0  0
  3  4  1  0  0  0  0
  3 25  1  0  0  0  0
  3 26  1  0  0  0  0
  4  8  1  0  0  0  0
  4  5  1  0  0  0  0
  5  6  2  0  0  0  0
  5 27  1  0  0  0  0
  6  7  1  0  0  0  0
  6 28  1  0  0  0  0
  7  8  2  0  0  0  0
  7 29  1  0  0  0  0
  9 10  1  0  0  0  0
  9 30  1  0  0  0  0
 10 11  2  0  0  0  0
 10 12  1  0  0  0  0
 12 13  1  0  0  0  0
 12 31  1  0  0  0  0
 12 32  1  0  0  0  0
 13 14  1  0  0  0  0
 13 33  1  0  0  0  0
 13 34  1  0  0  0  0
 14 19  1  0  0  0  0
 14 15  1  0  0  0  0
 14 35  1  0  0  0  0
 15 16  1  0  0  0  0
 16 17  2  0  0  0  0
 16 18  1  0  0  0  0
 18 19  1  0  0  0  0
 18 36  1  0  0  0  0
 19 20  2  0  0  0  0
M  CHG  1  15  -1
M  END
> <s_m_source_file>
AV-unprocessed.smi

> <i_m_source_file_index>
1196

> <i_lp_mmshare_version>
43012

> <i_f3d_flags>
0

> <s_epik_input>
bjFbY0hdW2NIXVtjSF1uMVtDSDJdW0NAQEhdKFtDSDNdKVtOSF1DKD1PKVtDSDJdW0NIMl1bQ0BASF0yW05IXUMoPU8pW05IXUMyPU8=

> <s_epik_cmdline>
J2VwaWtfcHl0aG9uJywgJy1waCcsICc3LjAnLCAnLXRuJywgJzgnLCAnLW1hJywgJzIwMCcsICctbWV0YWxfYmluZGluZycsICctaW1hZScsICc8aW5maWxlLm1hZT4nLCAnLW9tYWUnLCAnPG91dGZpbGUubWFlPic=

> <r_lp_tautomer_probability>
1

> <r_epik_Ionization_Penalty>
5.79547

> <r_epik_Ionization_Penalty_Charging>
5.79516

> <r_epik_Ionization_Penalty_Neutral>
0.000313087

> <r_epik_State_Penalty>
5.80096

> <r_epik_Charging_Adjusted_Penalty>
11.5961

> <i_epik_Tot_Q>
-1

> <i_epik_Tot_abs_Q>
1

> <r_epik_Metal_State_Penalty>
2.14443

> <b_epik_Metal_Only>
1

> <s_lp_Force_Field>
OPLS_2005

> <r_lp_Energy>
13.4847

> <b_lp_Chiralities_Consistent>
1

> <s_lp_Variant>
AV-unprocessed.smi:1196-5

> <Gold.Version>
5.8.1

> <Gold.Id.Protein>
6NUR|6NUR_protein|mol2

> <Gold.PLP.Fitness>
42.3158

> <Gold.PLP.PLP>
-28.8426

> <Gold.PLP.part.hbond>
-3.0000

> <Gold.PLP.part.metal>
0.0000

> <Gold.PLP.part.buried>
-4.9864

> <Gold.PLP.part.nonpolar>
-21.8970

> <Gold.PLP.part.repulsive>
0.6083

> <Gold.PLP.ligand.clash>
0.0000

> <Gold.PLP.ligand.torsion>
0.8246

> <Gold.PLP.Chemscore.Hbond>
3.0000

> <Gold.PLP.Chemscore.CHOScore>
2.0000

> <Gold.PLP.Chemscore.Metal>
0.0000

> <Gold.Chemscore.Hbonds>
donor molecule, donor type, donor heavy atom, donor atom, acceptor molecule, acceptor atom, score
      L1  H     9    30       P1  7948  0.98
      P1  H  7989  7998       L1    15  0.74
      P1  H  7997  8009       L1    17  1.00
      L1  C     5    27       P1 10186  0.68
      L1  C     7    29       P1 10747  1.00

> <Gold.PLP.Chemscore.Internal.Correction>
0.1223

> <Gold.Rescore>
     Score         DG    S(hbond)    S(metal)    S(lipo)     H(rot)  DE(clash)    DE(int)     intcor
     10.30     -12.61       2.63        0.00      49.10       2.89       0.00       2.31       ----

> <Gold.Chemscore.Fitness>
10.2977

> <Gold.Chemscore.DG>
-12.6075

> <Gold.Chemscore.ZeroCoef>
-5.4800

> <Gold.Chemscore.Hbond>
2.6326

> <Gold.Chemscore.Metal>
0.0000

> <Gold.Chemscore.Lipo>
49.1007

> <Gold.Chemscore.Internal_Hbond>
0.0000

> <Gold.Chemscore.DEClash>
0.0000

> <Gold.Chemscore.DEInternal>
2.3098

> <Gold.Chemscore.Rot>
2.8946

> <Gold.Chemscore.Internal.Correction>
   9.000000E+99

> <Gold.Chemscore.Hbonds>
donor molecule, donor type, donor heavy atom, donor atom, acceptor molecule, acceptor atom, score
      L1  H     9    30       P1  7948  0.91
      P1  H  7989  7998       L1    15  0.05
      P1  H  7997  8009       L1    17  0.93

> <Gold.Chemscore.Hbond.Weighted>
-8.7928

> <Gold.Chemscore.Metal.Weighted>
-0.0000

> <Gold.Chemscore.Lipo.Weighted>
-5.7448

> <Gold.Chemscore.Internal_Hbond.Weighted>
0.0000

> <Gold.Chemscore.DEClash.Weighted>
0.0000

> <Gold.Chemscore.DEInternal.Weighted>
2.3098

> <Gold.Chemscore.Rot.Weighted>
7.4101

> <Gold.Chemscore.Internal.Correction.Weighted>
   9.000000E+99

> <Gold.Protein.RotatedTorsions>
[ 6907 6896 6895 6894 ] final -129.37 input  -60.11 | X-H torsion
[ 7974 7965 7964 7962 ] final -100.93 input  175.53 | X-H torsion
[ 8008 7997 7996 7995 ] final -127.21 input   59.86 | X-H torsion
[ 10167 10162 10161 10158 ] final  -27.10 input  -65.29 | X-H torsion
[ 10718 10713 10712 10709 ] final   49.61 input   66.30 | X-H torsion
[ 10763 10752 10751 10750 ] final  -45.54 input  -60.55 | X-H torsion
[ 11005 11000 10999 10996 ] final  178.12 input  -57.11 | X-H torsion

> <Gold.Protein.ActiveResidues>
 VAL166  LYS551  ARG553  GLY616  TRP617  ASP618  TYR619  PRO620  LYS621  CYS622 
 ASP623  PHE694  ASN695  SER759  ASP760  ASP761  ALA762  ILE779  LEU786  VAL792 
 PHE793  MET794  SER795  GLU796  ALA797  LYS798  CYS799  TRP800  GLU811  SER814 

> <Gold.Protein.RotatedAtoms>
  150.9280  133.6801  159.2816 H   0  0  0  0  0  0  0  0  0  0  0  0  # atno 6907 bound_to 6896
  151.4233  135.0999  159.9630 H   0  0  0  0  0  0  0  0  0  0  0  0  # atno 6908 bound_to 6896
  152.5012  133.8726  159.7361 H   0  0  0  0  0  0  0  0  0  0  0  0  # atno 6909 bound_to 6896
  145.2882  140.9345  143.2893 H   0  0  0  0  0  0  0  0  0  0  0  0  # atno 7974 bound_to 7965
  155.2424  140.0429  157.2976 H   0  0  0  0  0  0  0  0  0  0  0  0  # atno 8008 bound_to 7997
  154.5820  140.2403  155.8010 H   0  0  0  0  0  0  0  0  0  0  0  0  # atno 8009 bound_to 7997
  156.2200  140.2973  155.9937 H   0  0  0  0  0  0  0  0  0  0  0  0  # atno 8010 bound_to 7997
  140.7279  143.4121  151.1088 H   0  0  0  0  0  0  0  0  0  0  0  0  # atno 10167 bound_to 10162
  157.4804  130.8311  149.8086 H   0  0  0  0  0  0  0  0  0  0  0  0  # atno 10718 bound_to 10713
  154.0302  135.6657  153.4780 H   0  0  0  0  0  0  0  0  0  0  0  0  # atno 10763 bound_to 10752
  153.0543  135.5065  154.7940 H   0  0  0  0  0  0  0  0  0  0  0  0  # atno 10764 bound_to 10752
  154.6883  135.3057  154.9481 H   0  0  0  0  0  0  0  0  0  0  0  0  # atno 10765 bound_to 10752
  140.3916  134.6857  157.4511 H   0  0  0  0  0  0  0  0  0  0  0  0  # atno 11005 bound_to 11000
  144.9195  139.4429  143.6548 LP  0  0  0  0  0  0  0  0  0  0  0  0  # atno 17320 bound_to 7965
  146.3194  139.8048  142.8958 LP  0  0  0  0  0  0  0  0  0  0  0  0  # atno 17321 bound_to 7965
  139.7756  143.8430  152.3128 LP  0  0  0  0  0  0  0  0  0  0  0  0  # atno 17342 bound_to 10162
  139.8363  144.7230  150.9386 LP  0  0  0  0  0  0  0  0  0  0  0  0  # atno 17343 bound_to 10162
  156.0118  130.3830  150.2239 LP  0  0  0  0  0  0  0  0  0  0  0  0  # atno 17370 bound_to 10713
  157.0425  131.0039  151.3279 LP  0  0  0  0  0  0  0  0  0  0  0  0  # atno 17371 bound_to 10713
  140.0402  134.6278  155.8991 LP  0  0  0  0  0  0  0  0  0  0  0  0  # atno 17394 bound_to 11000
  141.1888  133.6563  156.5342 LP  0  0  0  0  0  0  0  0  0  0  0  0  # atno 17395 bound_to 11000

$$$$
