#       Name:                AV-unprocessed.smi:362
#       Creating user name   scv26
#       Creation time:       Thu Mar 26 22:36:06 2020


#       File generated by GOLD software.
#

@<TRIPOS>MOLECULE
AV-unprocessed.smi:362
    42    44     1
SMALL
NO_CHARGES


@<TRIPOS>ATOM
      1 ****        -0.4449   1.2839  -0.2010 O.2            1 S1                 0.0000
      2 ****        -0.7771   0.1075  -0.3517 C.2            1 S1                 0.0000
      3 ****        -2.2551  -0.2971  -0.2771 C.3            1 S1                 0.0000
      4 ****        -2.9838   0.4225   0.7796 N.am           1 S1                 0.0000
      5 ****        -3.7472   1.5418   0.4038 C.2            1 S1                 0.0000
      6 ****        -4.4411   2.2631   1.3047 C.2            1 S1                 0.0000
      7 ****        -4.3881   1.8560   2.7034 C.2            1 S1                 0.0000
      8 ****        -5.0212   2.4988   3.5387 O.2            1 S1                 0.0000
      9 ****        -3.6285   0.7663   3.0191 N.pl3          1 S1                -1.0000
     10 ****        -2.9251   0.0443   2.0925 C.2            1 S1                 0.0000
     11 ****        -2.2429  -0.9345   2.3992 O.2            1 S1                 0.0000
     12 ****         0.0929  -0.8830  -0.6077 N.am           1 S1                 0.0000
     13 ****         1.5469  -0.7687  -0.6955 C.3            1 S1                 0.0000
     14 ****         2.2034  -0.3384   0.6080 C.3            1 S1                 0.0000
     15 ****         3.5793  -0.8267   0.9930 C.3            1 S1                 0.0000
     16 ****         2.3638  -1.3056   1.7555 C.3            1 S1                 0.0000
     17 ****         2.0309   0.0872  -1.8568 C.3            1 S1                 0.0000
     18 ****         2.0775  -0.4572  -3.2641 C.3            1 S1                 0.0000
     19 ****         3.3629  -0.1735  -2.5193 C.3            1 S1                 0.0000
     20 ****        -2.7079  -0.1089  -1.2513 H              1 S1                 0.0000
     21 ****        -2.3421  -1.3747  -0.1238 H              1 S1                 0.0000
     22 ****        -3.7276   1.7797  -0.6496 H              1 S1                 0.0000
     23 ****        -5.0196   3.1231   1.0006 H              1 S1                 0.0000
     24 ****        -0.2876  -1.8116  -0.7184 H              1 S1                 0.0000
     25 ****         1.8854  -1.7864  -0.8943 H              1 S1                 0.0000
     26 ****         1.9795   0.6885   0.8910 H              1 S1                 0.0000
     27 ****         4.0701  -1.5421   0.3364 H              1 S1                 0.0000
     28 ****         4.2403  -0.1202   1.4907 H              1 S1                 0.0000
     29 ****         2.2107  -0.9175   2.7603 H              1 S1                 0.0000
     30 ****         2.0438  -2.3338   1.5991 H              1 S1                 0.0000
     31 ****         1.7588   1.1373  -1.7681 H              1 S1                 0.0000
     32 ****         1.8041  -1.4998  -3.4143 H              1 S1                 0.0000
     33 ****         1.8026   0.2182  -4.0717 H              1 S1                 0.0000
     34 ****         3.9456   0.6912  -2.8302 H              1 S1                 0.0000
     35 ****         3.9430  -1.0294  -2.1808 H              1 S1                 0.0000
     36 ****        -1.1403   1.9817  -0.0289 LP             1 S1                 0.0000
     37 ****         0.5201   1.5412  -0.2508 LP             1 S1                 0.0000
     38 ****        -5.5635   3.2897   3.2551 LP             1 S1                 0.0000
     39 ****        -4.9939   2.2307   4.5017 LP             1 S1                 0.0000
     40 ****        -3.5836   0.4808   3.9764 LP             1 S1                 0.0000
     41 ****        -1.7443  -1.4374   1.6932 LP             1 S1                 0.0000
     42 ****        -2.1878  -1.2261   3.3541 LP             1 S1                 0.0000
@<TRIPOS>BOND
    1    1    2 2     
    2    2    3 1     
    3    2   12 am    
    4    3    4 1     
    5    3   20 1     
    6    3   21 1     
    7    4   10 am    
    8    4    5 1     
    9    5    6 2     
   10    5   22 1     
   11    6    7 1     
   12    6   23 1     
   13    7    8 2     
   14    7    9 1     
   15    9   10 1     
   16   10   11 2     
   17   12   13 1     
   18   12   24 1     
   19   13   14 1     
   20   13   17 1     
   21   13   25 1     
   22   14   16 1     
   23   14   15 1     
   24   14   26 1     
   25   15   16 1     
   26   15   27 1     
   27   15   28 1     
   28   16   29 1     
   29   16   30 1     
   30   17   19 1     
   31   17   18 1     
   32   17   31 1     
   33   18   19 1     
   34   18   32 1     
   35   18   33 1     
   36   19   34 1     
   37   19   35 1     
   38    1   36 1     
   39    1   37 1     
   40    8   38 1     
   41    8   39 1     
   42    9   40 1     
   43   11   41 1     
   44   11   42 1     
@<TRIPOS>SUBSTRUCTURE
      1 S1             1
@<TRIPOS>SET
LONE_PAIRS      STATIC     ATOMS    <user>   **** ""
7 36 37 38 39 40 41 42
DONOR_HYDROGENS      STATIC     ATOMS    <user>   **** ""
1 24
ATOM$BLUE        STATIC     ATOMS    COLORGROUP SYSTEM
7 36 37 38 39 40 41 42
ATOM$RED        STATIC     ATOMS    COLORGROUP SYSTEM
1 24
