AV-unprocessed.smi:2962|AV-procd|sdf|11318|dock6
  -GOLD-   2272016223D 1   1.00000     0.00000
 Structure written by MMmdl.
 37 38  0  0  0  0  0  0  0  0  2 V2000
  150.5607  136.7211  155.2800 C   0  0  0  0  0  0  0  0  0  0  0  0
  151.8896  137.2088  155.2331 O   0  0  0  0  0  0  0  0  0  0  0  0
  151.9535  138.6232  155.3207 C   0  0  0  0  0  0  0  0  0  0  0  0
  151.3922  139.0797  156.6744 C   0  0  0  0  0  0  0  0  0  0  0  0
  151.1922  140.5343  156.7314 N   0  0  0  0  0  0  0  0  0  0  0  0
  150.4879  141.3634  155.9124 C   0  0  0  0  0  0  0  0  0  0  0  0
  149.5630  140.8954  154.4880 S   0  0  0  0  0  0  0  0  0  0  0  0
  147.9339  141.6613  154.7227 C   0  0  1  0  0  0  0  0  0  0  0  0
  146.9413  141.1422  153.6709 C   0  0  0  0  0  0  0  0  0  0  0  0
  147.4078  141.4347  156.1457 C   0  0  0  0  0  0  0  0  0  0  0  0
  147.6832  142.3736  157.0552 N   0  0  0  0  0  0  0  0  0  0  0  0
  146.7769  140.4183  156.4284 O   0  0  0  0  0  0  0  0  0  0  0  0
  150.6070  142.6285  156.3995 N   0  3  0  0  0  0  0  0  0  0  0  0
  151.4071  142.6118  157.5434 C   0  0  0  0  0  0  0  0  0  0  0  0
  151.8174  143.6420  158.3840 C   0  0  0  0  0  0  0  0  0  0  0  0
  152.6394  143.2815  159.4720 C   0  0  0  0  0  0  0  0  0  0  0  0
  153.0227  141.9424  159.6916 C   0  0  0  0  0  0  0  0  0  0  0  0
  152.5999  140.9056  158.8339 C   0  0  0  0  0  0  0  0  0  0  0  0
  151.7873  141.2701  157.7611 C   0  0  0  0  0  0  0  0  0  0  0  0
  150.5657  135.6344  155.1969 H   0  0  0  0  0  0  0  0  0  0  0  0
  149.9643  137.1185  154.4576 H   0  0  0  0  0  0  0  0  0  0  0  0
  150.0781  136.9843  156.2223 H   0  0  0  0  0  0  0  0  0  0  0  0
  152.9863  138.9592  155.2175 H   0  0  0  0  0  0  0  0  0  0  0  0
  151.3819  139.0724  154.5073 H   0  0  0  0  0  0  0  0  0  0  0  0
  150.4291  138.6030  156.8594 H   0  0  0  0  0  0  0  0  0  0  0  0
  152.0465  138.7799  157.4935 H   0  0  0  0  0  0  0  0  0  0  0  0
  148.0599  142.7336  154.5654 H   0  0  0  0  0  0  0  0  0  0  0  0
  145.9551  141.5898  153.8009 H   0  0  0  0  0  0  0  0  0  0  0  0
  146.8267  140.0588  153.7262 H   0  0  0  0  0  0  0  0  0  0  0  0
  147.2803  141.3861  152.6636 H   0  0  0  0  0  0  0  0  0  0  0  0
  147.3718  142.2635  158.0090 H   0  0  0  0  0  0  0  0  0  0  0  0
  148.2176  143.1871  156.7855 H   0  0  0  0  0  0  0  0  0  0  0  0
  151.5266  144.6689  158.2177 H   0  0  0  0  0  0  0  0  0  0  0  0
  152.9839  144.0477  160.1513 H   0  0  0  0  0  0  0  0  0  0  0  0
  153.6543  141.7053  160.5354 H   0  0  0  0  0  0  0  0  0  0  0  0
  152.8998  139.8829  159.0093 H   0  0  0  0  0  0  0  0  0  0  0  0
  150.1783  143.4407  155.9746 H   0  0  0  0  0  0  0  0  0  0  0  0
  1  2  1  0  0  0  0
  1 20  1  0  0  0  0
  1 21  1  0  0  0  0
  1 22  1  0  0  0  0
  2  3  1  0  0  0  0
  3  4  1  0  0  0  0
  3 23  1  0  0  0  0
  3 24  1  0  0  0  0
  4  5  1  0  0  0  0
  4 25  1  0  0  0  0
  4 26  1  0  0  0  0
  5 19  1  0  0  0  0
  5  6  1  0  0  0  0
  6  7  1  0  0  0  0
  6 13  2  0  0  0  0
  7  8  1  0  0  0  0
  8  9  1  0  0  0  0
  8 10  1  0  0  0  0
  8 27  1  0  0  0  0
  9 28  1  0  0  0  0
  9 29  1  0  0  0  0
  9 30  1  0  0  0  0
 10 11  1  0  0  0  0
 10 12  2  0  0  0  0
 11 31  1  0  0  0  0
 11 32  1  0  0  0  0
 13 14  1  0  0  0  0
 13 37  1  0  0  0  0
 14 19  2  0  0  0  0
 14 15  1  0  0  0  0
 15 16  2  0  0  0  0
 15 33  1  0  0  0  0
 16 17  1  0  0  0  0
 16 34  1  0  0  0  0
 17 18  2  0  0  0  0
 17 35  1  0  0  0  0
 18 19  1  0  0  0  0
 18 36  1  0  0  0  0
M  CHG  1  13   1
M  END
> <s_m_source_file>
AV-unprocessed.smi

> <i_m_source_file_index>
2962

> <i_lp_mmshare_version>
43012

> <i_f3d_flags>
0

> <s_epik_input>
W2NIXTFbY0hdW2NIXVtjSF1jKGMxMiluKFtDSDJdW0NIMl1PW0NIM10pYyhuMilTW0NASF0oW0NIM10pQyg9TylbTkgyXQ==

> <s_epik_cmdline>
J2VwaWtfcHl0aG9uJywgJy1waCcsICc3LjAnLCAnLXRuJywgJzgnLCAnLW1hJywgJzIwMCcsICctbWV0YWxfYmluZGluZycsICctaW1hZScsICc8aW5maWxlLm1hZT4nLCAnLW9tYWUnLCAnPG91dGZpbGUubWFlPic=

> <r_epik_Ionization_Penalty>
2.01771

> <r_epik_Ionization_Penalty_Charging>
2.01771

> <r_epik_Ionization_Penalty_Neutral>
3.318e-07

> <r_epik_State_Penalty>
2.14773

> <r_epik_Charging_Adjusted_Penalty>
4.16544

> <i_epik_Tot_Q>
1

> <i_epik_Tot_abs_Q>
1

> <r_epik_Metal_State_Penalty>
2.1675

> <b_epik_Metal_Only>
0

> <s_lp_Force_Field>
OPLS_2005

> <r_lp_Energy>
8.26224

> <b_lp_Chiralities_Consistent>
1

> <s_lp_Variant>
AV-unprocessed.smi:2962-4

> <Gold.Version>
5.8.1

> <Gold.Id.Protein>
6NUR|6NUR_protein|mol2

> <Gold.PLP.Fitness>
49.3732

> <Gold.PLP.PLP>
-39.3971

> <Gold.PLP.part.hbond>
-3.0000

> <Gold.PLP.part.metal>
0.0000

> <Gold.PLP.part.buried>
-3.8828

> <Gold.PLP.part.nonpolar>
-33.6075

> <Gold.PLP.part.repulsive>
0.1924

> <Gold.PLP.ligand.clash>
0.0000

> <Gold.PLP.ligand.torsion>
0.9186

> <Gold.PLP.Chemscore.Hbond>
3.9120

> <Gold.PLP.Chemscore.CHOScore>
0.0000

> <Gold.PLP.Chemscore.Metal>
0.0000

> <Gold.Chemscore.Hbonds>
donor molecule, donor type, donor heavy atom, donor atom, acceptor molecule, acceptor atom, score
      L1  H    11    32       P1  8028  1.00
      L1  H    13    37       P1  8028  2.00
      P1  H 10752 10765       L1     2  0.92

> <Gold.PLP.Chemscore.Internal.Correction>
0.0774

> <Gold.Rescore>
     Score         DG    S(hbond)    S(metal)    S(lipo)     H(rot)  DE(clash)    DE(int)     intcor
     16.03     -16.41       1.89        0.00      95.78       2.57       0.02       0.36       ----

> <Gold.Chemscore.Fitness>
16.0264

> <Gold.Chemscore.DG>
-16.4119

> <Gold.Chemscore.ZeroCoef>
-5.4800

> <Gold.Chemscore.Hbond>
1.8895

> <Gold.Chemscore.Metal>
0.0000

> <Gold.Chemscore.Lipo>
95.7771

> <Gold.Chemscore.Internal_Hbond>
0.0000

> <Gold.Chemscore.DEClash>
0.0236

> <Gold.Chemscore.DEInternal>
0.3619

> <Gold.Chemscore.Rot>
2.5723

> <Gold.Chemscore.Internal.Correction>
   9.000000E+99

> <Gold.Chemscore.Hbonds>
donor molecule, donor type, donor heavy atom, donor atom, acceptor molecule, acceptor atom, score
      L1  H    11    32       P1  8028  0.24
      L1  H    13    37       P1  8028  0.99
      P1  H 10752 10765       L1     2  0.38

> <Gold.Chemscore.Hbond.Weighted>
-6.3110

> <Gold.Chemscore.Metal.Weighted>
-0.0000

> <Gold.Chemscore.Lipo.Weighted>
-11.2059

> <Gold.Chemscore.Internal_Hbond.Weighted>
0.0000

> <Gold.Chemscore.DEClash.Weighted>
0.0236

> <Gold.Chemscore.DEInternal.Weighted>
0.3619

> <Gold.Chemscore.Rot.Weighted>
6.5850

> <Gold.Chemscore.Internal.Correction.Weighted>
   9.000000E+99

> <Gold.Protein.RotatedTorsions>
[ 6907 6896 6895 6894 ] final   71.16 input  -60.11 | X-H torsion
[ 7974 7965 7964 7962 ] final   87.24 input  175.53 | X-H torsion
[ 8008 7997 7996 7995 ] final  173.72 input   59.86 | X-H torsion
[ 10167 10162 10161 10158 ] final  -34.13 input  -65.29 | X-H torsion
[ 10718 10713 10712 10709 ] final -135.69 input   66.30 | X-H torsion
[ 10763 10752 10751 10750 ] final  173.10 input  -60.55 | X-H torsion
[ 11005 11000 10999 10996 ] final -121.26 input  -57.11 | X-H torsion

> <Gold.Protein.ActiveResidues>
 VAL166  LYS551  ARG553  GLY616  TRP617  ASP618  TYR619  PRO620  LYS621  CYS622 
 ASP623  PHE694  ASN695  SER759  ASP760  ASP761  ALA762  ILE779  LEU786  VAL792 
 PHE793  MET794  SER795  GLU796  ALA797  LYS798  CYS799  TRP800  GLU811  SER814 

> <Gold.Protein.RotatedAtoms>
  152.4793  134.4761  159.9650 H   0  0  0  0  0  0  0  0  0  0  0  0  # atno 6907 bound_to 6896
  151.4771  133.3549  159.2840 H   0  0  0  0  0  0  0  0  0  0  0  0  # atno 6908 bound_to 6896
  150.8854  134.8277  159.7316 H   0  0  0  0  0  0  0  0  0  0  0  0  # atno 6909 bound_to 6896
  145.5617  139.2304  143.2456 H   0  0  0  0  0  0  0  0  0  0  0  0  # atno 7974 bound_to 7965
  156.1047  140.1453  156.9420 H   0  0  0  0  0  0  0  0  0  0  0  0  # atno 8008 bound_to 7997
  154.4726  140.0905  156.7227 H   0  0  0  0  0  0  0  0  0  0  0  0  # atno 8009 bound_to 7997
  155.4699  140.3441  155.4326 H   0  0  0  0  0  0  0  0  0  0  0  0  # atno 8010 bound_to 7997
  140.7191  143.3570  151.2039 H   0  0  0  0  0  0  0  0  0  0  0  0  # atno 10167 bound_to 10162
  156.2690  130.7254  151.1214 H   0  0  0  0  0  0  0  0  0  0  0  0  # atno 10718 bound_to 10713
  154.4353  135.2761  155.1885 H   0  0  0  0  0  0  0  0  0  0  0  0  # atno 10763 bound_to 10752
  154.3774  135.6095  153.5776 H   0  0  0  0  0  0  0  0  0  0  0  0  # atno 10764 bound_to 10752
  152.9838  135.5872  154.4671 H   0  0  0  0  0  0  0  0  0  0  0  0  # atno 10765 bound_to 10752
  141.0083  134.0302  157.3447 H   0  0  0  0  0  0  0  0  0  0  0  0  # atno 11005 bound_to 11000
  146.1847  140.6442  142.9173 LP  0  0  0  0  0  0  0  0  0  0  0  0  # atno 17320 bound_to 7965
  144.7480  140.5118  143.6822 LP  0  0  0  0  0  0  0  0  0  0  0  0  # atno 17321 bound_to 7965
  139.7114  143.9371  152.2949 LP  0  0  0  0  0  0  0  0  0  0  0  0  # atno 17342 bound_to 10162
  139.9097  144.6864  150.8575 LP  0  0  0  0  0  0  0  0  0  0  0  0  # atno 17343 bound_to 10162
  157.7277  131.0637  150.5853 LP  0  0  0  0  0  0  0  0  0  0  0  0  # atno 17370 bound_to 10713
  156.5947  130.4338  149.5922 LP  0  0  0  0  0  0  0  0  0  0  0  0  # atno 17371 bound_to 10713
  139.9076  135.0183  156.7552 LP  0  0  0  0  0  0  0  0  0  0  0  0  # atno 17394 bound_to 11000
  140.6776  133.9504  155.7891 LP  0  0  0  0  0  0  0  0  0  0  0  0  # atno 17395 bound_to 11000

$$$$
