AV-unprocessed.smi:1306|AV-procd|sdf|5434|dock3
  -GOLD-   22720 4593D 1   1.00000     0.00000
 Structure written by MMmdl.
 39 40  0  0  0  0  0  0  0  0  1 V2000
  151.6549  137.0151  159.8241 O   0  0  0  0  0  0  0  0  0  0  0  0
  151.2173  137.8993  159.0861 C   0  0  0  0  0  0  0  0  0  0  0  0
  149.9636  137.6652  158.2307 C   0  0  0  0  0  0  0  0  0  0  0  0
  149.8917  138.5445  157.0546 N   0  0  0  0  0  0  0  0  0  0  0  0
  150.8619  138.4702  156.0651 C   0  0  0  0  0  0  0  0  0  0  0  0
  150.8536  139.2427  154.9531 C   0  0  0  0  0  0  0  0  0  0  0  0
  149.7900  140.2181  154.7393 C   0  0  0  0  0  0  0  0  0  0  0  0
  149.6965  140.9637  153.7668 O   0  0  0  0  0  0  0  0  0  0  0  0
  148.8314  140.2611  155.7553 N   0  0  0  0  0  0  0  0  0  0  0  0
  148.8326  139.4662  156.9028 C   0  0  0  0  0  0  0  0  0  0  0  0
  147.9343  139.5810  157.7358 O   0  0  0  0  0  0  0  0  0  0  0  0
  151.7950  139.1037  158.9631 N   0  0  0  0  0  0  0  0  0  0  0  0
  152.9773  139.5480  159.6935 C   0  0  0  0  0  0  0  0  0  0  0  0
  153.6066  140.8014  159.0639 C   0  0  0  0  0  0  0  0  0  0  0  0
  153.6512  142.1984  160.2235 S   0  0  0  0  0  0  0  0  0  0  0  0
  152.3070  143.2202  159.5557 C   0  0  0  0  0  0  0  0  0  0  0  0
  152.6817  143.8830  158.2281 C   0  0  0  0  0  0  0  0  0  0  0  0
  151.7954  145.1318  158.1236 C   0  0  0  0  0  0  0  0  0  0  0  0
  151.2188  145.3768  159.5263 C   0  0  0  0  0  0  0  0  0  0  0  0
  151.9420  144.4004  160.4565 C   0  0  0  0  0  0  0  0  0  0  0  0
  148.0741  140.9203  155.6492 H   0  0  0  0  0  0  0  0  0  0  0  0
  149.9226  136.6191  157.9197 H   0  0  0  0  0  0  0  0  0  0  0  0
  149.0879  137.8106  158.8649 H   0  0  0  0  0  0  0  0  0  0  0  0
  151.6673  137.7586  156.1794 H   0  0  0  0  0  0  0  0  0  0  0  0
  151.6377  139.1376  154.2174 H   0  0  0  0  0  0  0  0  0  0  0  0
  151.3725  139.7701  158.3331 H   0  0  0  0  0  0  0  0  0  0  0  0
  152.7163  139.7427  160.7350 H   0  0  0  0  0  0  0  0  0  0  0  0
  153.7021  138.7338  159.7061 H   0  0  0  0  0  0  0  0  0  0  0  0
  154.6189  140.5898  158.7179 H   0  0  0  0  0  0  0  0  0  0  0  0
  153.0292  141.0967  158.1879 H   0  0  0  0  0  0  0  0  0  0  0  0
  151.4266  142.5941  159.4027 H   0  0  0  0  0  0  0  0  0  0  0  0
  153.7289  144.1889  158.2481 H   0  0  0  0  0  0  0  0  0  0  0  0
  152.5546  143.2099  157.3797 H   0  0  0  0  0  0  0  0  0  0  0  0
  152.3768  145.9872  157.7780 H   0  0  0  0  0  0  0  0  0  0  0  0
  150.9883  144.9768  157.4069 H   0  0  0  0  0  0  0  0  0  0  0  0
  151.3386  146.4116  159.8491 H   0  0  0  0  0  0  0  0  0  0  0  0
  150.1505  145.1565  159.5239 H   0  0  0  0  0  0  0  0  0  0  0  0
  151.3273  144.1081  161.3082 H   0  0  0  0  0  0  0  0  0  0  0  0
  152.8479  144.8687  160.8442 H   0  0  0  0  0  0  0  0  0  0  0  0
  1  2  2  0  0  0  0
  2  3  1  0  0  0  0
  2 12  1  0  0  0  0
  3  4  1  0  0  0  0
  3 22  1  0  0  0  0
  3 23  1  0  0  0  0
  4 10  1  0  0  0  0
  4  5  1  0  0  0  0
  5  6  2  0  0  0  0
  5 24  1  0  0  0  0
  6  7  1  0  0  0  0
  6 25  1  0  0  0  0
  7  8  2  0  0  0  0
  7  9  1  0  0  0  0
  9 21  1  0  0  0  0
  9 10  1  0  0  0  0
 10 11  2  0  0  0  0
 12 13  1  0  0  0  0
 12 26  1  0  0  0  0
 13 14  1  0  0  0  0
 13 27  1  0  0  0  0
 13 28  1  0  0  0  0
 14 15  1  0  0  0  0
 14 29  1  0  0  0  0
 14 30  1  0  0  0  0
 15 16  1  0  0  0  0
 16 20  1  0  0  0  0
 16 17  1  0  0  0  0
 16 31  1  0  0  0  0
 17 18  1  0  0  0  0
 17 32  1  0  0  0  0
 17 33  1  0  0  0  0
 18 19  1  0  0  0  0
 18 34  1  0  0  0  0
 18 35  1  0  0  0  0
 19 20  1  0  0  0  0
 19 36  1  0  0  0  0
 19 37  1  0  0  0  0
 20 38  1  0  0  0  0
 20 39  1  0  0  0  0
M  END
> <s_m_source_file>
AV-unprocessed.smi

> <i_m_source_file_index>
1306

> <i_lp_mmshare_version>
43012

> <i_f3d_flags>
0

> <s_epik_input>
Tz1jMVtuSF1jKD1PKVtjSF1bY0hdbjFbQ0gyXUMoPU8pW05IXVtDSDJdW0NIMl1TW0NIXTJbQ0gyXVtDSDJdW0NIMl1bQ0gyXTI=

> <s_epik_cmdline>
J2VwaWtfcHl0aG9uJywgJy1waCcsICc3LjAnLCAnLXRuJywgJzgnLCAnLW1hJywgJzIwMCcsICctbWV0YWxfYmluZGluZycsICctaW1hZScsICc8aW5maWxlLm1hZT4nLCAnLW9tYWUnLCAnPG91dGZpbGUubWFlPic=

> <r_lp_tautomer_probability>
0.999537

> <r_epik_Ionization_Penalty>
0.00337646

> <r_epik_Ionization_Penalty_Charging>
0.00337644

> <r_epik_Ionization_Penalty_Neutral>
2.37506e-08

> <r_epik_State_Penalty>
0.00238979

> <r_epik_Charging_Adjusted_Penalty>
0.00576623

> <i_epik_Tot_Q>
0

> <i_epik_Tot_abs_Q>
0

> <r_epik_Metal_State_Penalty>
0.366399

> <b_epik_Metal_Only>
0

> <s_lp_Force_Field>
OPLS_2005

> <r_lp_Energy>
19.0409

> <b_lp_Chiralities_Consistent>
1

> <s_lp_Variant>
AV-unprocessed.smi:1306-1

> <Gold.Version>
5.8.1

> <Gold.Id.Protein>
6NUR|6NUR_protein|mol2

> <Gold.PLP.Fitness>
44.3784

> <Gold.PLP.PLP>
-41.4890

> <Gold.PLP.part.hbond>
-4.0000

> <Gold.PLP.part.metal>
0.0000

> <Gold.PLP.part.buried>
-3.8282

> <Gold.PLP.part.nonpolar>
-32.8027

> <Gold.PLP.part.repulsive>
0.3305

> <Gold.PLP.ligand.clash>
0.0000

> <Gold.PLP.ligand.torsion>
1.1854

> <Gold.PLP.Chemscore.Hbond>
1.7375

> <Gold.PLP.Chemscore.CHOScore>
0.0000

> <Gold.PLP.Chemscore.Metal>
0.0000

> <Gold.Chemscore.Hbonds>
donor molecule, donor type, donor heavy atom, donor atom, acceptor molecule, acceptor atom, score
      P1  H  6896  6908       L1     1  1.00
      P1  H  7989  7998       L1     8  0.23
      P1  H  8011  8017       L1     8  0.94

> <Gold.PLP.Chemscore.Internal.Correction>
0.0478

> <Gold.Rescore>
     Score         DG    S(hbond)    S(metal)    S(lipo)     H(rot)  DE(clash)    DE(int)     intcor
     15.08     -17.24       1.77        0.00     103.45       2.45       0.65       1.52       ----

> <Gold.Chemscore.Fitness>
15.0773

> <Gold.Chemscore.DG>
-17.2427

> <Gold.Chemscore.ZeroCoef>
-5.4800

> <Gold.Chemscore.Hbond>
1.7735

> <Gold.Chemscore.Metal>
0.0000

> <Gold.Chemscore.Lipo>
103.4464

> <Gold.Chemscore.Internal_Hbond>
0.0000

> <Gold.Chemscore.DEClash>
0.6500

> <Gold.Chemscore.DEInternal>
1.5154

> <Gold.Chemscore.Rot>
2.4469

> <Gold.Chemscore.Internal.Correction>
   9.000000E+99

> <Gold.Chemscore.Hbonds>
donor molecule, donor type, donor heavy atom, donor atom, acceptor molecule, acceptor atom, score
      P1  H  6896  6908       L1     1  1.00
      P1  H  7989  7998       L1     8  0.02
      P1  H  8011  8017       L1     8  0.84

> <Gold.Chemscore.Hbond.Weighted>
-5.9234

> <Gold.Chemscore.Metal.Weighted>
-0.0000

> <Gold.Chemscore.Lipo.Weighted>
-12.1032

> <Gold.Chemscore.Internal_Hbond.Weighted>
0.0000

> <Gold.Chemscore.DEClash.Weighted>
0.6500

> <Gold.Chemscore.DEInternal.Weighted>
1.5154

> <Gold.Chemscore.Rot.Weighted>
6.2640

> <Gold.Chemscore.Internal.Correction.Weighted>
   9.000000E+99

> <Gold.Protein.RotatedTorsions>
[ 6907 6896 6895 6894 ] final -120.05 input  -60.11 | X-H torsion
[ 7974 7965 7964 7962 ] final -135.23 input  175.53 | X-H torsion
[ 8008 7997 7996 7995 ] final -166.48 input   59.86 | X-H torsion
[ 10167 10162 10161 10158 ] final  -97.80 input  -65.29 | X-H torsion
[ 10718 10713 10712 10709 ] final  149.65 input   66.30 | X-H torsion
[ 10763 10752 10751 10750 ] final  -83.94 input  -60.55 | X-H torsion
[ 11005 11000 10999 10996 ] final  -18.43 input  -57.11 | X-H torsion

> <Gold.Protein.ActiveResidues>
 VAL166  LYS551  ARG553  GLY616  TRP617  ASP618  TYR619  PRO620  LYS621  CYS622 
 ASP623  PHE694  ASN695  SER759  ASP760  ASP761  ALA762  ILE779  LEU786  VAL792 
 PHE793  MET794  SER795  GLU796  ALA797  LYS798  CYS799  TRP800  GLU811  SER814 

> <Gold.Protein.RotatedAtoms>
  150.8358  133.8015  159.3079 H   0  0  0  0  0  0  0  0  0  0  0  0  # atno 6907 bound_to 6896
  151.5731  135.1060  160.0009 H   0  0  0  0  0  0  0  0  0  0  0  0  # atno 6908 bound_to 6896
  152.4431  133.7443  159.6715 H   0  0  0  0  0  0  0  0  0  0  0  0  # atno 6909 bound_to 6896
  144.9032  140.6799  143.5071 H   0  0  0  0  0  0  0  0  0  0  0  0  # atno 7974 bound_to 7965
  155.8645  140.0983  157.1592 H   0  0  0  0  0  0  0  0  0  0  0  0  # atno 8008 bound_to 7997
  154.3992  140.1359  156.4064 H   0  0  0  0  0  0  0  0  0  0  0  0  # atno 8009 bound_to 7997
  155.7820  140.3458  155.5305 H   0  0  0  0  0  0  0  0  0  0  0  0  # atno 8010 bound_to 7997
  140.2796  143.3290  152.0454 H   0  0  0  0  0  0  0  0  0  0  0  0  # atno 10167 bound_to 10162
  157.2934  131.0857  151.1444 H   0  0  0  0  0  0  0  0  0  0  0  0  # atno 10718 bound_to 10713
  154.5937  135.5538  153.7304 H   0  0  0  0  0  0  0  0  0  0  0  0  # atno 10763 bound_to 10752
  153.0127  135.6349  154.1813 H   0  0  0  0  0  0  0  0  0  0  0  0  # atno 10764 bound_to 10752
  154.1753  135.2890  155.3048 H   0  0  0  0  0  0  0  0  0  0  0  0  # atno 10765 bound_to 10752
  140.8267  133.8027  155.9715 H   0  0  0  0  0  0  0  0  0  0  0  0  # atno 11005 bound_to 11000
  145.3580  139.1689  143.4399 LP  0  0  0  0  0  0  0  0  0  0  0  0  # atno 17320 bound_to 7965
  146.3120  140.3639  142.8667 LP  0  0  0  0  0  0  0  0  0  0  0  0  # atno 17321 bound_to 7965
  139.4966  144.6601  151.6485 LP  0  0  0  0  0  0  0  0  0  0  0  0  # atno 17342 bound_to 10162
  140.5823  143.9925  150.6275 LP  0  0  0  0  0  0  0  0  0  0  0  0  # atno 17343 bound_to 10162
  157.2832  130.6760  149.6076 LP  0  0  0  0  0  0  0  0  0  0  0  0  # atno 17370 bound_to 10713
  155.9668  130.4443  150.5458 LP  0  0  0  0  0  0  0  0  0  0  0  0  # atno 17371 bound_to 10713
  140.9042  134.2341  157.5024 LP  0  0  0  0  0  0  0  0  0  0  0  0  # atno 17394 bound_to 11000
  139.8706  134.9720  156.4758 LP  0  0  0  0  0  0  0  0  0  0  0  0  # atno 17395 bound_to 11000

$$$$
