AV-unprocessed.smi:2310|AV-procd|sdf|9257|dock7
  -GOLD-   2272012483D 1   1.00000     0.00000
 Structure written by MMmdl.
 46 47  0  0  0  0  0  0  0  0  2 V2000
  143.4898  137.2629  152.8306 C   0  0  0  0  0  0  0  0  0  0  0  0
  144.9862  137.0869  153.1280 C   0  0  0  0  0  0  0  0  0  0  0  0
  145.9114  137.6601  152.0353 C   0  0  2  0  0  0  0  0  0  0  0  0
  146.0504  136.7095  150.8316 C   0  0  0  0  0  0  0  0  0  0  0  0
  144.9914  135.6905  150.7586 C   0  0  0  0  0  0  0  0  0  0  0  0
  144.1588  134.8894  150.7009 N   0  0  0  0  0  0  0  0  0  0  0  0
  147.2291  137.9542  152.5951 N   0  0  0  0  0  0  0  0  0  0  0  0
  147.4940  138.9308  153.4743 C   0  0  0  0  0  0  0  0  0  0  0  0
  146.6440  139.7171  153.8914 O   0  0  0  0  0  0  0  0  0  0  0  0
  148.7943  138.9408  153.8154 N   0  0  0  0  0  0  0  0  0  0  0  0
  149.4692  139.8208  154.7080 C   0  0  0  0  0  0  0  0  0  0  0  0
  148.8335  140.9382  155.3071 C   0  0  0  0  0  0  0  0  0  0  0  0
  149.5521  141.7599  156.1979 C   0  0  0  0  0  0  0  0  0  0  0  0
  150.8985  141.4511  156.4931 C   0  0  0  0  0  0  0  0  0  0  0  0
  151.6998  142.2003  157.3661 N   0  0  0  0  0  0  0  0  0  0  0  0
  151.6152  143.6398  157.1854 C   0  0  0  0  0  0  0  0  0  0  0  0
  152.2009  144.2509  158.4617 C   0  0  0  0  0  0  0  0  0  0  0  0
  152.1147  143.1351  159.5099 C   0  0  0  0  0  0  0  0  0  0  0  0
  151.4594  141.9606  158.7794 C   0  0  0  0  0  0  0  0  0  0  0  0
  151.4648  140.3708  155.9146 N   0  3  0  0  0  0  0  0  0  0  0  0
  150.8188  139.5527  155.0538 C   0  0  0  0  0  0  0  0  0  0  0  0
  151.6219  138.3830  154.5087 C   0  0  0  0  0  0  0  0  0  0  0  0
  142.8852  136.7969  153.6089 H   0  0  0  0  0  0  0  0  0  0  0  0
  143.2209  136.8002  151.8806 H   0  0  0  0  0  0  0  0  0  0  0  0
  143.2081  138.3149  152.7835 H   0  0  0  0  0  0  0  0  0  0  0  0
  145.2202  137.5494  154.0876 H   0  0  0  0  0  0  0  0  0  0  0  0
  145.1856  136.0221  153.2506 H   0  0  0  0  0  0  0  0  0  0  0  0
  145.4689  138.5938  151.6826 H   0  0  0  0  0  0  0  0  0  0  0  0
  146.0242  137.2673  149.8952 H   0  0  0  0  0  0  0  0  0  0  0  0
  147.0075  136.1883  150.8663 H   0  0  0  0  0  0  0  0  0  0  0  0
  147.9886  137.3570  152.3018 H   0  0  0  0  0  0  0  0  0  0  0  0
  149.3857  138.2875  153.3228 H   0  0  0  0  0  0  0  0  0  0  0  0
  147.7990  141.1753  155.1127 H   0  0  0  0  0  0  0  0  0  0  0  0
  149.0668  142.6128  156.6494 H   0  0  0  0  0  0  0  0  0  0  0  0
  152.1671  143.9569  156.3001 H   0  0  0  0  0  0  0  0  0  0  0  0
  150.5767  143.9505  157.0636 H   0  0  0  0  0  0  0  0  0  0  0  0
  153.2426  144.5342  158.3055 H   0  0  0  0  0  0  0  0  0  0  0  0
  151.6555  145.1457  158.7631 H   0  0  0  0  0  0  0  0  0  0  0  0
  153.1167  142.8619  159.8430 H   0  0  0  0  0  0  0  0  0  0  0  0
  151.5426  143.4325  160.3892 H   0  0  0  0  0  0  0  0  0  0  0  0
  150.3897  141.9395  158.9906 H   0  0  0  0  0  0  0  0  0  0  0  0
  151.8832  141.0065  159.0938 H   0  0  0  0  0  0  0  0  0  0  0  0
  151.0575  137.7605  153.8155 H   0  0  0  0  0  0  0  0  0  0  0  0
  151.9576  137.7469  155.3281 H   0  0  0  0  0  0  0  0  0  0  0  0
  152.5036  138.7494  153.9820 H   0  0  0  0  0  0  0  0  0  0  0  0
  152.4368  140.1591  156.1413 H   0  0  0  0  0  0  0  0  0  0  0  0
  1  2  1  0  0  0  0
  1 23  1  0  0  0  0
  1 24  1  0  0  0  0
  1 25  1  0  0  0  0
  2  3  1  0  0  0  0
  2 26  1  0  0  0  0
  2 27  1  0  0  0  0
  3  4  1  0  0  0  0
  3  7  1  0  0  0  0
  3 28  1  0  0  0  0
  4  5  1  0  0  0  0
  4 29  1  0  0  0  0
  4 30  1  0  0  0  0
  5  6  3  0  0  0  0
  7  8  1  0  0  0  0
  7 31  1  0  0  0  0
  8  9  2  0  0  0  0
  8 10  1  0  0  0  0
 10 11  1  0  0  0  0
 10 32  1  0  0  0  0
 11 21  1  0  0  0  0
 11 12  2  0  0  0  0
 12 13  1  0  0  0  0
 12 33  1  0  0  0  0
 13 14  2  0  0  0  0
 13 34  1  0  0  0  0
 14 15  1  0  0  0  0
 14 20  1  0  0  0  0
 15 19  1  0  0  0  0
 15 16  1  0  0  0  0
 16 17  1  0  0  0  0
 16 35  1  0  0  0  0
 16 36  1  0  0  0  0
 17 18  1  0  0  0  0
 17 37  1  0  0  0  0
 17 38  1  0  0  0  0
 18 19  1  0  0  0  0
 18 39  1  0  0  0  0
 18 40  1  0  0  0  0
 19 41  1  0  0  0  0
 19 42  1  0  0  0  0
 20 21  2  0  0  0  0
 20 46  1  0  0  0  0
 21 22  1  0  0  0  0
 22 43  1  0  0  0  0
 22 44  1  0  0  0  0
 22 45  1  0  0  0  0
M  CHG  1  20   1
M  END
> <s_m_source_file>
AV-unprocessed.smi

> <i_m_source_file_index>
2310

> <i_lp_mmshare_version>
43012

> <i_f3d_flags>
0

> <s_epik_input>
TiNDW0NIMl1bQ0BASF0oW0NIMl1bQ0gzXSlbTkhdQyg9TylbTkhdYzFbY0hdW2NIXWMobmMxW0NIM10pTjJbQ0gyXVtDSDJdW0NIMl1bQ0gyXTI=

> <s_epik_cmdline>
J2VwaWtfcHl0aG9uJywgJy1waCcsICc3LjAnLCAnLXRuJywgJzgnLCAnLW1hJywgJzIwMCcsICctbWV0YWxfYmluZGluZycsICctaW1hZScsICc8aW5maWxlLm1hZT4nLCAnLW9tYWUnLCAnPG91dGZpbGUubWFlPic=

> <r_lp_tautomer_probability>
0.999994

> <r_epik_Ionization_Penalty>
0.577302

> <r_epik_Ionization_Penalty_Charging>
0.577278

> <r_epik_Ionization_Penalty_Neutral>
2.39253e-05

> <r_epik_State_Penalty>
0.589738

> <r_epik_Charging_Adjusted_Penalty>
1.16702

> <i_epik_Tot_Q>
1

> <i_epik_Tot_abs_Q>
1

> <r_epik_Metal_State_Penalty>
0.784556

> <b_epik_Metal_Only>
0

> <s_lp_Force_Field>
OPLS_2005

> <r_lp_Energy>
39.7138

> <b_lp_Chiralities_Consistent>
1

> <s_lp_Variant>
AV-unprocessed.smi:2310-3

> <Gold.Version>
5.8.1

> <Gold.Id.Protein>
6NUR|6NUR_protein|mol2

> <Gold.PLP.Fitness>
39.8054

> <Gold.PLP.PLP>
-39.4699

> <Gold.PLP.part.hbond>
-2.0453

> <Gold.PLP.part.metal>
0.0000

> <Gold.PLP.part.buried>
0.1377

> <Gold.PLP.part.nonpolar>
-38.0202

> <Gold.PLP.part.repulsive>
0.6703

> <Gold.PLP.ligand.clash>
0.0000

> <Gold.PLP.ligand.torsion>
1.3455

> <Gold.PLP.Chemscore.Hbond>
1.0000

> <Gold.PLP.Chemscore.CHOScore>
0.0000

> <Gold.PLP.Chemscore.Metal>
0.0000

> <Gold.Chemscore.Hbonds>
donor molecule, donor type, donor heavy atom, donor atom, acceptor molecule, acceptor atom, score
      L1  H     7    31       P1  7948  1.00

> <Gold.PLP.Chemscore.Internal.Correction>
0.0264

> <Gold.Rescore>
     Score         DG    S(hbond)    S(metal)    S(lipo)     H(rot)  DE(clash)    DE(int)     intcor
     13.04     -15.68       1.05        0.00      94.12       1.68       0.26       2.38       ----

> <Gold.Chemscore.Fitness>
13.0357

> <Gold.Chemscore.DG>
-15.6839

> <Gold.Chemscore.ZeroCoef>
-5.4800

> <Gold.Chemscore.Hbond>
1.0467

> <Gold.Chemscore.Metal>
0.0000

> <Gold.Chemscore.Lipo>
94.1224

> <Gold.Chemscore.Internal_Hbond>
0.0000

> <Gold.Chemscore.DEClash>
0.2635

> <Gold.Chemscore.DEInternal>
2.3846

> <Gold.Chemscore.Rot>
1.6815

> <Gold.Chemscore.Internal.Correction>
   9.000000E+99

> <Gold.Chemscore.Hbonds>
donor molecule, donor type, donor heavy atom, donor atom, acceptor molecule, acceptor atom, score
      L1  H     7    31       P1  7948  0.93

> <Gold.Chemscore.Hbond.Weighted>
-3.4961

> <Gold.Chemscore.Metal.Weighted>
-0.0000

> <Gold.Chemscore.Lipo.Weighted>
-11.0123

> <Gold.Chemscore.Internal_Hbond.Weighted>
0.0000

> <Gold.Chemscore.DEClash.Weighted>
0.2635

> <Gold.Chemscore.DEInternal.Weighted>
2.3846

> <Gold.Chemscore.Rot.Weighted>
4.3045

> <Gold.Chemscore.Internal.Correction.Weighted>
   9.000000E+99

> <Gold.Protein.RotatedTorsions>
[ 6907 6896 6895 6894 ] final -129.37 input  -60.11 | X-H torsion
[ 7974 7965 7964 7962 ] final  102.91 input  175.53 | X-H torsion
[ 8008 7997 7996 7995 ] final   95.74 input   59.86 | X-H torsion
[ 10167 10162 10161 10158 ] final   11.35 input  -65.29 | X-H torsion
[ 10718 10713 10712 10709 ] final  174.16 input   66.30 | X-H torsion
[ 10763 10752 10751 10750 ] final  -68.97 input  -60.55 | X-H torsion
[ 11005 11000 10999 10996 ] final -136.61 input  -57.11 | X-H torsion

> <Gold.Protein.ActiveResidues>
 VAL166  LYS551  ARG553  GLY616  TRP617  ASP618  TYR619  PRO620  LYS621  CYS622 
 ASP623  PHE694  ASN695  SER759  ASP760  ASP761  ALA762  ILE779  LEU786  VAL792 
 PHE793  MET794  SER795  GLU796  ALA797  LYS798  CYS799  TRP800  GLU811  SER814 

> <Gold.Protein.RotatedAtoms>
  150.9280  133.6801  159.2816 H   0  0  0  0  0  0  0  0  0  0  0  0  # atno 6907 bound_to 6896
  151.4233  135.0999  159.9630 H   0  0  0  0  0  0  0  0  0  0  0  0  # atno 6908 bound_to 6896
  152.5012  133.8726  159.7361 H   0  0  0  0  0  0  0  0  0  0  0  0  # atno 6909 bound_to 6896
  145.3529  139.2435  143.3548 H   0  0  0  0  0  0  0  0  0  0  0  0  # atno 7974 bound_to 7965
  156.0722  140.3282  155.7590 H   0  0  0  0  0  0  0  0  0  0  0  0  # atno 8008 bound_to 7997
  155.5287  140.0591  157.2910 H   0  0  0  0  0  0  0  0  0  0  0  0  # atno 8009 bound_to 7997
  154.4536  140.1931  156.0463 H   0  0  0  0  0  0  0  0  0  0  0  0  # atno 8010 bound_to 7997
  140.6137  143.8353  150.7094 H   0  0  0  0  0  0  0  0  0  0  0  0  # atno 10167 bound_to 10162
  156.9537  131.0039  151.2943 H   0  0  0  0  0  0  0  0  0  0  0  0  # atno 10718 bound_to 10713
  154.3966  135.6040  153.5873 H   0  0  0  0  0  0  0  0  0  0  0  0  # atno 10763 bound_to 10752
  152.9788  135.5896  154.4234 H   0  0  0  0  0  0  0  0  0  0  0  0  # atno 10764 bound_to 10752
  154.4026  135.2843  155.2065 H   0  0  0  0  0  0  0  0  0  0  0  0  # atno 10765 bound_to 10752
  140.8789  134.1957  157.4604 H   0  0  0  0  0  0  0  0  0  0  0  0  # atno 11005 bound_to 11000
  146.2960  140.4148  142.8721 LP  0  0  0  0  0  0  0  0  0  0  0  0  # atno 17320 bound_to 7965
  144.8704  140.7264  143.6050 LP  0  0  0  0  0  0  0  0  0  0  0  0  # atno 17321 bound_to 7965
  140.1928  143.4023  152.1851 LP  0  0  0  0  0  0  0  0  0  0  0  0  # atno 17342 bound_to 10162
  139.5381  144.7230  151.4824 LP  0  0  0  0  0  0  0  0  0  0  0  0  # atno 17343 bound_to 10162
  157.5705  130.8307  149.8384 LP  0  0  0  0  0  0  0  0  0  0  0  0  # atno 17370 bound_to 10713
  156.0352  130.3753  150.1581 LP  0  0  0  0  0  0  0  0  0  0  0  0  # atno 17371 bound_to 10713
  139.8718  134.9808  156.5091 LP  0  0  0  0  0  0  0  0  0  0  0  0  # atno 17394 bound_to 11000
  140.8485  133.8150  155.9145 LP  0  0  0  0  0  0  0  0  0  0  0  0  # atno 17395 bound_to 11000

$$$$
