AV-unprocessed.smi:249|AV-procd|sdf|1913|dock3
  -GOLD-   2262021 03D 1   1.00000     0.00000
 Structure written by MMmdl.
 64 67  0  0  0  0  0  0  0  0  2 V2000
  143.7450  132.8542  148.2607 C   0  0  0  0  0  0  0  0  0  0  0  0
  144.5433  133.1386  149.5419 C   0  0  0  0  0  0  0  0  0  0  0  0
  143.7786  133.9181  150.5526 N   0  3  1  0  0  0  0  0  0  0  0  0
  143.2162  133.0494  151.6215 C   0  0  0  0  0  0  0  0  0  0  0  0
  142.2361  133.8230  152.5173 C   0  0  0  0  0  0  0  0  0  0  0  0
  142.9115  135.0703  153.1196 C   0  0  2  0  0  0  0  0  0  0  0  0
  142.0554  135.8220  154.0461 N   0  0  0  0  0  0  0  0  0  0  0  0
  140.8581  136.4659  153.5224 C   0  0  0  0  0  0  0  0  0  0  0  0
  142.5709  136.4541  155.1285 C   0  0  0  0  0  0  0  0  0  0  0  0
  142.3738  137.7864  155.3037 N   0  0  0  0  0  0  0  0  0  0  0  0
  142.8738  138.4035  156.3786 C   0  0  0  0  0  0  0  0  0  0  0  0
  143.5917  137.8876  157.3780 N   0  0  0  0  0  0  0  0  0  0  0  0
  143.7924  136.5498  157.2052 C   0  0  0  0  0  0  0  0  0  0  0  0
  143.3112  135.7605  156.1234 C   0  0  0  0  0  0  0  0  0  0  0  0
  143.7026  134.4378  156.2871 N   0  0  0  0  0  0  0  0  0  0  0  0
  144.3802  134.4440  157.4026 C   0  0  0  0  0  0  0  0  0  0  0  0
  144.5053  135.6752  158.0075 N   0  0  0  0  0  0  0  0  0  0  0  0
  145.2069  135.9612  159.2467 C   0  0  0  0  0  0  0  0  0  0  0  0
  146.5680  135.2333  159.4116 C   0  0  1  0  0  0  0  0  0  0  0  0
  147.5689  135.7909  158.3727 C   0  0  0  0  0  0  0  0  0  0  0  0
  148.8895  135.3615  158.6368 O   0  0  0  0  0  0  0  0  0  0  0  0
  147.1458  135.2437  160.8584 C   0  0  1  0  0  0  0  0  0  0  0  0
  147.1563  136.5914  161.5659 C   0  0  0  0  0  0  0  0  0  0  0  0
  147.2723  136.2072  163.0375 C   0  0  0  0  0  0  0  0  0  0  0  0
  146.6731  134.9236  163.1573 O   0  0  0  0  0  0  0  0  0  0  0  0
  146.3250  134.4329  161.8689 C   0  0  0  0  0  0  0  0  0  0  0  0
  143.5134  135.9376  151.9929 C   0  0  0  0  0  0  0  0  0  0  0  0
  144.4697  135.1324  151.0892 C   0  0  1  0  0  0  0  0  0  0  0  0
  145.8143  134.8272  151.7844 C   0  0  0  0  0  0  0  0  0  0  0  0
  144.2932  132.1690  147.6137 H   0  0  0  0  0  0  0  0  0  0  0  0
  143.5628  133.7600  147.6829 H   0  0  0  0  0  0  0  0  0  0  0  0
  142.7825  132.3945  148.4874 H   0  0  0  0  0  0  0  0  0  0  0  0
  144.8114  132.1774  149.9818 H   0  0  0  0  0  0  0  0  0  0  0  0
  145.4860  133.6323  149.3055 H   0  0  0  0  0  0  0  0  0  0  0  0
  142.6866  132.2098  151.1696 H   0  0  0  0  0  0  0  0  0  0  0  0
  144.0210  132.6198  152.2189 H   0  0  0  0  0  0  0  0  0  0  0  0
  141.3640  134.0986  151.9255 H   0  0  0  0  0  0  0  0  0  0  0  0
  141.8752  133.1670  153.3100 H   0  0  0  0  0  0  0  0  0  0  0  0
  143.7444  134.7206  153.7302 H   0  0  0  0  0  0  0  0  0  0  0  0
  140.0444  136.4216  154.2466 H   0  0  0  0  0  0  0  0  0  0  0  0
  140.5178  135.9743  152.6106 H   0  0  0  0  0  0  0  0  0  0  0  0
  141.0540  137.5132  153.2887 H   0  0  0  0  0  0  0  0  0  0  0  0
  142.6713  139.4621  156.4470 H   0  0  0  0  0  0  0  0  0  0  0  0
  144.8247  133.5469  157.8087 H   0  0  0  0  0  0  0  0  0  0  0  0
  145.3561  137.0406  159.2884 H   0  0  0  0  0  0  0  0  0  0  0  0
  144.5480  135.7119  160.0794 H   0  0  0  0  0  0  0  0  0  0  0  0
  146.4162  134.1893  159.1368 H   0  0  0  0  0  0  0  0  0  0  0  0
  147.2969  135.4897  157.3611 H   0  0  0  0  0  0  0  0  0  0  0  0
  147.5513  136.8811  158.3768 H   0  0  0  0  0  0  0  0  0  0  0  0
  149.0833  134.6242  158.0781 H   0  0  0  0  0  0  0  0  0  0  0  0
  148.1634  134.8499  160.8468 H   0  0  0  0  0  0  0  0  0  0  0  0
  147.9771  137.2395  161.2635 H   0  0  0  0  0  0  0  0  0  0  0  0
  146.2190  137.1223  161.3921 H   0  0  0  0  0  0  0  0  0  0  0  0
  148.3200  136.1276  163.3295 H   0  0  0  0  0  0  0  0  0  0  0  0
  146.7923  136.9337  163.6932 H   0  0  0  0  0  0  0  0  0  0  0  0
  145.2570  134.5987  161.7193 H   0  0  0  0  0  0  0  0  0  0  0  0
  146.5134  133.3613  161.8001 H   0  0  0  0  0  0  0  0  0  0  0  0
  142.7216  136.3479  151.3660 H   0  0  0  0  0  0  0  0  0  0  0  0
  144.0350  136.7955  152.4191 H   0  0  0  0  0  0  0  0  0  0  0  0
  144.6933  135.7850  150.2459 H   0  0  0  0  0  0  0  0  0  0  0  0
  146.2633  135.7436  152.1685 H   0  0  0  0  0  0  0  0  0  0  0  0
  146.5368  134.3911  151.0951 H   0  0  0  0  0  0  0  0  0  0  0  0
  145.7039  134.1452  152.6266 H   0  0  0  0  0  0  0  0  0  0  0  0
  142.9731  134.2716  150.0559 H   0  0  0  0  0  0  0  0  0  0  0  0
  1  2  1  0  0  0  0
  1 30  1  0  0  0  0
  1 31  1  0  0  0  0
  1 32  1  0  0  0  0
  2  3  1  0  0  0  0
  2 33  1  0  0  0  0
  2 34  1  0  0  0  0
  3 28  1  0  0  0  0
  3  4  1  0  0  0  0
  3 64  1  0  0  0  0
  4  5  1  0  0  0  0
  4 35  1  0  0  0  0
  4 36  1  0  0  0  0
  5  6  1  0  0  0  0
  5 37  1  0  0  0  0
  5 38  1  0  0  0  0
  6  7  1  0  0  0  0
  6 27  1  0  0  0  0
  6 39  1  0  0  0  0
  7  8  1  0  0  0  0
  7  9  1  0  0  0  0
  8 40  1  0  0  0  0
  8 41  1  0  0  0  0
  8 42  1  0  0  0  0
  9 14  1  0  0  0  0
  9 10  2  0  0  0  0
 10 11  1  0  0  0  0
 11 12  2  0  0  0  0
 11 43  1  0  0  0  0
 12 13  1  0  0  0  0
 13 17  1  0  0  0  0
 13 14  2  0  0  0  0
 14 15  1  0  0  0  0
 15 16  2  0  0  0  0
 16 17  1  0  0  0  0
 16 44  1  0  0  0  0
 17 18  1  0  0  0  0
 18 19  1  0  0  0  0
 18 45  1  0  0  0  0
 18 46  1  0  0  0  0
 19 20  1  0  0  0  0
 19 22  1  0  0  0  0
 19 47  1  0  0  0  0
 20 21  1  0  0  0  0
 20 48  1  0  0  0  0
 20 49  1  0  0  0  0
 21 50  1  0  0  0  0
 22 26  1  0  0  0  0
 22 23  1  0  0  0  0
 22 51  1  0  0  0  0
 23 24  1  0  0  0  0
 23 52  1  0  0  0  0
 23 53  1  0  0  0  0
 24 25  1  0  0  0  0
 24 54  1  0  0  0  0
 24 55  1  0  0  0  0
 25 26  1  0  0  0  0
 26 56  1  0  0  0  0
 26 57  1  0  0  0  0
 27 28  1  0  0  0  0
 27 58  1  0  0  0  0
 27 59  1  0  0  0  0
 28 29  1  0  0  0  0
 28 60  1  0  0  0  0
 29 61  1  0  0  0  0
 29 62  1  0  0  0  0
 29 63  1  0  0  0  0
M  CHG  1   3   1
M  END
> <s_m_source_file>
AV-unprocessed.smi

> <i_m_source_file_index>
249

> <i_lp_mmshare_version>
43012

> <i_f3d_flags>
0

> <s_epik_input>
W0NIM11bQ0gyXU4xW0NIMl1bQ0gyXVtDQEhdKFtDSDJdW0NASF0xW0NIM10pTihbQ0gzXSljKG5bY0hdbjIpYyhjMjMpbltjSF1uM1tDSDJdW0NASF0oW0NIMl1bT0hdKVtDQEBIXTRbQ0gyXVtDSDJdT1tDSDJdNA==

> <s_epik_cmdline>
J2VwaWtfcHl0aG9uJywgJy1waCcsICc3LjAnLCAnLXRuJywgJzgnLCAnLW1hJywgJzIwMCcsICctbWV0YWxfYmluZGluZycsICctaW1hZScsICc8aW5maWxlLm1hZT4nLCAnLW9tYWUnLCAnPG91dGZpbGUubWFlPic=

> <r_lp_tautomer_probability>
1

> <r_epik_Ionization_Penalty>
0.00294688

> <r_epik_Ionization_Penalty_Charging>
0.00169971

> <r_epik_Ionization_Penalty_Neutral>
0.00124717

> <r_epik_State_Penalty>
-0

> <r_epik_Charging_Adjusted_Penalty>
0.00169971

> <i_epik_Tot_Q>
1

> <i_epik_Tot_abs_Q>
1

> <r_epik_Metal_State_Penalty>
-0

> <b_epik_Metal_Only>
0

> <s_lp_Force_Field>
OPLS_2005

> <r_lp_Energy>
54.9966

> <b_lp_Chiralities_Consistent>
1

> <s_lp_Variant>
AV-unprocessed.smi:249-16

> <Gold.Version>
5.8.1

> <Gold.Id.Protein>
6NUR|6NUR_protein|mol2

> <Gold.PLP.Fitness>
47.2600

> <Gold.PLP.PLP>
-41.6492

> <Gold.PLP.part.hbond>
-2.6150

> <Gold.PLP.part.metal>
0.0000

> <Gold.PLP.part.buried>
-6.1302

> <Gold.PLP.part.nonpolar>
-33.9474

> <Gold.PLP.part.repulsive>
0.1543

> <Gold.PLP.ligand.clash>
0.0000

> <Gold.PLP.ligand.torsion>
2.3269

> <Gold.PLP.Chemscore.Hbond>
3.0000

> <Gold.PLP.Chemscore.CHOScore>
0.0000

> <Gold.PLP.Chemscore.Metal>
0.0000

> <Gold.Chemscore.Hbonds>
donor molecule, donor type, donor heavy atom, donor atom, acceptor molecule, acceptor atom, score
      L1  H     3    64       P1 10186  1.98

> <Gold.PLP.Chemscore.Internal.Correction>
1.2646

> <Gold.Rescore>
     Score         DG    S(hbond)    S(metal)    S(lipo)     H(rot)  DE(clash)    DE(int)     intcor
     14.18     -16.59       1.76        0.00     102.79       2.65       0.06       2.35       ----

> <Gold.Chemscore.Fitness>
14.1803

> <Gold.Chemscore.DG>
-16.5893

> <Gold.Chemscore.ZeroCoef>
-5.4800

> <Gold.Chemscore.Hbond>
1.7579

> <Gold.Chemscore.Metal>
0.0000

> <Gold.Chemscore.Lipo>
102.7854

> <Gold.Chemscore.Internal_Hbond>
0.0000

> <Gold.Chemscore.DEClash>
0.0579

> <Gold.Chemscore.DEInternal>
2.3511

> <Gold.Chemscore.Rot>
2.6515

> <Gold.Chemscore.Internal.Correction>
   9.000000E+99

> <Gold.Chemscore.Hbonds>
donor molecule, donor type, donor heavy atom, donor atom, acceptor molecule, acceptor atom, score
      L1  H     3    64       P1 10186  0.88

> <Gold.Chemscore.Hbond.Weighted>
-5.8714

> <Gold.Chemscore.Metal.Weighted>
-0.0000

> <Gold.Chemscore.Lipo.Weighted>
-12.0259

> <Gold.Chemscore.Internal_Hbond.Weighted>
0.0000

> <Gold.Chemscore.DEClash.Weighted>
0.0579

> <Gold.Chemscore.DEInternal.Weighted>
2.3511

> <Gold.Chemscore.Rot.Weighted>
6.7880

> <Gold.Chemscore.Internal.Correction.Weighted>
   9.000000E+99

> <Gold.Protein.RotatedTorsions>
[ 6907 6896 6895 6894 ] final  175.51 input  -60.11 | X-H torsion
[ 7974 7965 7964 7962 ] final -107.03 input  175.53 | X-H torsion
[ 8008 7997 7996 7995 ] final    5.59 input   59.86 | X-H torsion
[ 10167 10162 10161 10158 ] final  145.67 input  -65.29 | X-H torsion
[ 10718 10713 10712 10709 ] final -152.63 input   66.30 | X-H torsion
[ 10763 10752 10751 10750 ] final  -54.81 input  -60.55 | X-H torsion
[ 11005 11000 10999 10996 ] final -125.65 input  -57.11 | X-H torsion

> <Gold.Protein.ActiveResidues>
 VAL166  LYS551  ARG553  GLY616  TRP617  ASP618  TYR619  PRO620  LYS621  CYS622 
 ASP623  PHE694  ASN695  SER759  ASP760  ASP761  ALA762  ILE779  LEU786  VAL792 
 PHE793  MET794  SER795  GLU796  ALA797  LYS798  CYS799  TRP800  GLU811  SER814 

> <Gold.Protein.RotatedAtoms>
  151.7351  133.3319  159.3350 H   0  0  0  0  0  0  0  0  0  0  0  0  # atno 6907 bound_to 6896
  150.7596  134.6328  159.6205 H   0  0  0  0  0  0  0  0  0  0  0  0  # atno 6908 bound_to 6896
  152.3566  134.6933  160.0271 H   0  0  0  0  0  0  0  0  0  0  0  0  # atno 6909 bound_to 6896
  145.2104  140.9094  143.3318 H   0  0  0  0  0  0  0  0  0  0  0  0  # atno 7974 bound_to 7965
  154.7303  140.2729  155.6462 H   0  0  0  0  0  0  0  0  0  0  0  0  # atno 8008 bound_to 7997
  156.2848  140.2717  156.1926 H   0  0  0  0  0  0  0  0  0  0  0  0  # atno 8009 bound_to 7997
  155.0390  140.0371  157.2492 H   0  0  0  0  0  0  0  0  0  0  0  0  # atno 8010 bound_to 7997
  139.4921  144.5885  151.6730 H   0  0  0  0  0  0  0  0  0  0  0  0  # atno 10167 bound_to 10162
  156.4750  130.8276  151.2505 H   0  0  0  0  0  0  0  0  0  0  0  0  # atno 10718 bound_to 10713
  154.1808  135.6443  153.5033 H   0  0  0  0  0  0  0  0  0  0  0  0  # atno 10763 bound_to 10752
  153.0060  135.5405  154.6517 H   0  0  0  0  0  0  0  0  0  0  0  0  # atno 10764 bound_to 10752
  154.5880  135.2931  155.0637 H   0  0  0  0  0  0  0  0  0  0  0  0  # atno 10765 bound_to 10752
  140.9745  134.0759  157.3833 H   0  0  0  0  0  0  0  0  0  0  0  0  # atno 11005 bound_to 11000
  144.9861  139.3735  143.6238 LP  0  0  0  0  0  0  0  0  0  0  0  0  # atno 17320 bound_to 7965
  146.3399  139.9024  142.8792 LP  0  0  0  0  0  0  0  0  0  0  0  0  # atno 17321 bound_to 7965
  140.5506  144.0431  150.6125 LP  0  0  0  0  0  0  0  0  0  0  0  0  # atno 17342 bound_to 10162
  140.3484  143.2978  152.0513 LP  0  0  0  0  0  0  0  0  0  0  0  0  # atno 17343 bound_to 10162
  157.7488  131.0064  150.3149 LP  0  0  0  0  0  0  0  0  0  0  0  0  # atno 17370 bound_to 10713
  156.3579  130.3842  149.7275 LP  0  0  0  0  0  0  0  0  0  0  0  0  # atno 17371 bound_to 10713
  139.8925  135.0125  156.6849 LP  0  0  0  0  0  0  0  0  0  0  0  0  # atno 17394 bound_to 11000
  140.7279  133.9084  155.8191 LP  0  0  0  0  0  0  0  0  0  0  0  0  # atno 17395 bound_to 11000

$$$$
