AV-unprocessed.smi:281|AV-procd|sdf|2106|dock7
  -GOLD-   2262021403D 1   1.00000     0.00000
 Structure written by MMmdl.
 55 59  0  0  0  0  0  0  0  0  1 V2000
  147.4030  135.4252  162.5802 C   0  0  0  0  0  0  0  0  0  0  0  0
  147.1142  134.3268  161.5519 C   0  0  1  0  0  0  0  0  0  0  0  0
  147.8272  134.5884  160.2135 C   0  0  0  0  0  0  0  0  0  0  0  0
  147.6098  133.4673  159.3108 N   0  0  0  0  0  0  0  0  0  0  0  0
  148.0510  133.6787  158.0538 C   0  0  0  0  0  0  0  0  0  0  0  0
  149.3559  134.0134  157.9069 N   0  0  0  0  0  0  0  0  0  0  0  0
  149.8529  134.2388  156.6868 C   0  0  0  0  0  0  0  0  0  0  0  0
  149.2295  134.1850  155.5076 N   0  0  0  0  0  0  0  0  0  0  0  0
  147.9143  133.8532  155.6547 C   0  0  0  0  0  0  0  0  0  0  0  0
  147.2481  133.5814  156.8824 C   0  0  0  0  0  0  0  0  0  0  0  0
  145.9153  133.2709  156.6406 N   0  0  0  0  0  0  0  0  0  0  0  0
  145.8007  133.3536  155.3432 C   0  0  0  0  0  0  0  0  0  0  0  0
  146.9499  133.7085  154.6722 N   0  0  0  0  0  0  0  0  0  0  0  0
  147.1074  133.8731  153.2347 C   0  0  0  0  0  0  0  0  0  0  0  0
  146.9638  132.5553  152.4346 C   0  0  1  0  0  0  0  0  0  0  0  0
  148.0370  131.6934  152.7667 O   0  0  0  0  0  0  0  0  0  0  0  0
  145.6423  131.8398  152.7250 C   0  0  0  0  0  0  0  0  0  0  0  0
  144.8432  132.0249  151.4407 C   0  0  0  0  0  0  0  0  0  0  0  0
  145.8459  131.9734  150.4421 O   0  0  0  0  0  0  0  0  0  0  0  0
  146.9345  132.7584  150.9062 C   0  0  0  0  0  0  0  0  0  0  0  0
  148.0476  132.1998  159.8786 C   0  0  0  0  0  0  0  0  0  0  0  0
  147.3596  131.9509  161.2444 C   0  0  1  0  0  0  0  0  0  0  0  0
  145.8783  131.6121  161.1086 C   0  0  0  0  0  0  0  0  0  0  0  0
  145.8906  130.1123  160.8357 C   0  0  0  0  0  0  0  0  0  0  0  0
  147.0369  129.6084  161.5112 O   0  0  0  0  0  0  0  0  0  0  0  0
  147.8483  130.6846  161.9742 C   0  0  1  0  0  0  0  0  0  0  0  0
  149.3399  130.3413  161.8468 C   0  0  0  0  0  0  0  0  0  0  0  0
  147.5612  133.0840  162.0956 O   0  0  0  0  0  0  0  0  0  0  0  0
  147.0686  136.3982  162.2197 H   0  0  0  0  0  0  0  0  0  0  0  0
  148.4700  135.4951  162.7935 H   0  0  0  0  0  0  0  0  0  0  0  0
  146.8880  135.2239  163.5197 H   0  0  0  0  0  0  0  0  0  0  0  0
  146.0363  134.2866  161.3888 H   0  0  0  0  0  0  0  0  0  0  0  0
  147.4506  135.5067  159.7606 H   0  0  0  0  0  0  0  0  0  0  0  0
  148.8958  134.7254  160.3830 H   0  0  0  0  0  0  0  0  0  0  0  0
  150.8997  134.5018  156.6497 H   0  0  0  0  0  0  0  0  0  0  0  0
  144.8659  133.1576  154.8387 H   0  0  0  0  0  0  0  0  0  0  0  0
  146.3738  134.6044  152.8923 H   0  0  0  0  0  0  0  0  0  0  0  0
  148.0869  134.3165  153.0507 H   0  0  0  0  0  0  0  0  0  0  0  0
  148.4713  131.4348  151.9681 H   0  0  0  0  0  0  0  0  0  0  0  0
  145.8019  130.7731  152.8919 H   0  0  0  0  0  0  0  0  0  0  0  0
  145.1182  132.2311  153.5976 H   0  0  0  0  0  0  0  0  0  0  0  0
  144.0880  131.2518  151.2980 H   0  0  0  0  0  0  0  0  0  0  0  0
  144.3519  132.9990  151.4210 H   0  0  0  0  0  0  0  0  0  0  0  0
  146.7188  133.7963  150.6513 H   0  0  0  0  0  0  0  0  0  0  0  0
  147.8660  132.4839  150.4093 H   0  0  0  0  0  0  0  0  0  0  0  0
  147.8394  131.3850  159.1840 H   0  0  0  0  0  0  0  0  0  0  0  0
  149.1291  132.2388  160.0082 H   0  0  0  0  0  0  0  0  0  0  0  0
  145.3666  131.8020  162.0532 H   0  0  0  0  0  0  0  0  0  0  0  0
  145.3618  132.1771  160.3318 H   0  0  0  0  0  0  0  0  0  0  0  0
  144.9792  129.6212  161.1773 H   0  0  0  0  0  0  0  0  0  0  0  0
  145.9998  129.9171  159.7683 H   0  0  0  0  0  0  0  0  0  0  0  0
  147.6148  130.7966  163.0344 H   0  0  0  0  0  0  0  0  0  0  0  0
  149.9628  131.1752  162.1712 H   0  0  0  0  0  0  0  0  0  0  0  0
  149.6106  130.0929  160.8204 H   0  0  0  0  0  0  0  0  0  0  0  0
  149.5905  129.4801  162.4663 H   0  0  0  0  0  0  0  0  0  0  0  0
  1  2  1  0  0  0  0
  1 29  1  0  0  0  0
  1 30  1  0  0  0  0
  1 31  1  0  0  0  0
  2 28  1  0  0  0  0
  2  3  1  0  0  0  0
  2 32  1  0  0  0  0
  3  4  1  0  0  0  0
  3 33  1  0  0  0  0
  3 34  1  0  0  0  0
  4  5  1  0  0  0  0
  4 21  1  0  0  0  0
  5 10  1  0  0  0  0
  5  6  2  0  0  0  0
  6  7  1  0  0  0  0
  7  8  2  0  0  0  0
  7 35  1  0  0  0  0
  8  9  1  0  0  0  0
  9 13  1  0  0  0  0
  9 10  2  0  0  0  0
 10 11  1  0  0  0  0
 11 12  2  0  0  0  0
 12 13  1  0  0  0  0
 12 36  1  0  0  0  0
 13 14  1  0  0  0  0
 14 15  1  0  0  0  0
 14 37  1  0  0  0  0
 14 38  1  0  0  0  0
 15 20  1  0  0  0  0
 15 16  1  0  0  0  0
 15 17  1  0  0  0  0
 16 39  1  0  0  0  0
 17 18  1  0  0  0  0
 17 40  1  0  0  0  0
 17 41  1  0  0  0  0
 18 19  1  0  0  0  0
 18 42  1  0  0  0  0
 18 43  1  0  0  0  0
 19 20  1  0  0  0  0
 20 44  1  0  0  0  0
 20 45  1  0  0  0  0
 21 22  1  0  0  0  0
 21 46  1  0  0  0  0
 21 47  1  0  0  0  0
 22 26  1  0  0  0  0
 22 23  1  0  0  0  0
 22 28  1  0  0  0  0
 23 24  1  0  0  0  0
 23 48  1  0  0  0  0
 23 49  1  0  0  0  0
 24 25  1  0  0  0  0
 24 50  1  0  0  0  0
 24 51  1  0  0  0  0
 25 26  1  0  0  0  0
 26 27  1  0  0  0  0
 26 52  1  0  0  0  0
 27 53  1  0  0  0  0
 27 54  1  0  0  0  0
 27 55  1  0  0  0  0
M  END
> <s_m_source_file>
AV-unprocessed.smi

> <i_m_source_file_index>
281

> <i_lp_mmshare_version>
43012

> <i_f3d_flags>
0

> <s_epik_input>
W0NIM11bQ0BASF0xT1tDSDJdW0NIMl1bQ0BAXTEyW0NIMl1OKFtDSDJdW0NASF0oTzIpW0NIM10pYyhuW2NIXW4zKWMoYzM0KW5bY0hdbjRbQ0gyXVtDQEBdNShbT0hdKVtDSDJdW0NIMl1PW0NIMl01

> <s_epik_cmdline>
J2VwaWtfcHl0aG9uJywgJy1waCcsICc3LjAnLCAnLXRuJywgJzgnLCAnLW1hJywgJzIwMCcsICctbWV0YWxfYmluZGluZycsICctaW1hZScsICc8aW5maWxlLm1hZT4nLCAnLW9tYWUnLCAnPG91dGZpbGUubWFlPic=

> <r_lp_tautomer_probability>
1

> <r_epik_Ionization_Penalty>
0.00571331

> <r_epik_Ionization_Penalty_Charging>
0

> <r_epik_Ionization_Penalty_Neutral>
0.00571331

> <r_epik_State_Penalty>
0.00399586

> <r_epik_Charging_Adjusted_Penalty>
0.00399586

> <i_epik_Tot_Q>
0

> <i_epik_Tot_abs_Q>
0

> <r_epik_Metal_State_Penalty>
-0

> <b_epik_Metal_Only>
0

> <s_lp_Force_Field>
OPLS_2005

> <r_lp_Energy>
56.3854

> <b_lp_Chiralities_Consistent>
1

> <s_lp_Variant>
AV-unprocessed.smi:281-6

> <Gold.Version>
5.8.1

> <Gold.Id.Protein>
6NUR|6NUR_protein|mol2

> <Gold.PLP.Fitness>
40.4543

> <Gold.PLP.PLP>
-31.8936

> <Gold.PLP.part.hbond>
-2.0000

> <Gold.PLP.part.metal>
0.0000

> <Gold.PLP.part.buried>
-6.0596

> <Gold.PLP.part.nonpolar>
-24.7293

> <Gold.PLP.part.repulsive>
0.2570

> <Gold.PLP.ligand.clash>
0.0000

> <Gold.PLP.ligand.torsion>
0.2792

> <Gold.PLP.Chemscore.Hbond>
2.0000

> <Gold.PLP.Chemscore.CHOScore>
0.9988

> <Gold.PLP.Chemscore.Metal>
0.0000

> <Gold.Chemscore.Hbonds>
donor molecule, donor type, donor heavy atom, donor atom, acceptor molecule, acceptor atom, score
      L1  H    16    39       P1 10747  1.00
      P1  H  6896  6907       L1     6  1.00
      L1  C    12    36       P1 10957  0.84

> <Gold.PLP.Chemscore.Internal.Correction>
0.1228

> <Gold.Rescore>
     Score         DG    S(hbond)    S(metal)    S(lipo)     H(rot)  DE(clash)    DE(int)     intcor
     14.85     -15.97       1.90        0.00      81.22       2.09       0.09       1.03       ----

> <Gold.Chemscore.Fitness>
14.8504

> <Gold.Chemscore.DG>
-15.9672

> <Gold.Chemscore.ZeroCoef>
-5.4800

> <Gold.Chemscore.Hbond>
1.8988

> <Gold.Chemscore.Metal>
0.0000

> <Gold.Chemscore.Lipo>
81.2171

> <Gold.Chemscore.Internal_Hbond>
0.0000

> <Gold.Chemscore.DEClash>
0.0881

> <Gold.Chemscore.DEInternal>
1.0286

> <Gold.Chemscore.Rot>
2.0927

> <Gold.Chemscore.Internal.Correction>
   9.000000E+99

> <Gold.Chemscore.Hbonds>
donor molecule, donor type, donor heavy atom, donor atom, acceptor molecule, acceptor atom, score
      L1  H    16    39       P1 10747  1.00
      P1  H  6896  6907       L1     6  0.89

> <Gold.Chemscore.Hbond.Weighted>
-6.3421

> <Gold.Chemscore.Metal.Weighted>
-0.0000

> <Gold.Chemscore.Lipo.Weighted>
-9.5024

> <Gold.Chemscore.Internal_Hbond.Weighted>
0.0000

> <Gold.Chemscore.DEClash.Weighted>
0.0881

> <Gold.Chemscore.DEInternal.Weighted>
1.0286

> <Gold.Chemscore.Rot.Weighted>
5.3573

> <Gold.Chemscore.Internal.Correction.Weighted>
   9.000000E+99

> <Gold.Protein.RotatedTorsions>
[ 6907 6896 6895 6894 ] final  -97.27 input  -60.11 | X-H torsion
[ 7974 7965 7964 7962 ] final   70.74 input  175.53 | X-H torsion
[ 8008 7997 7996 7995 ] final -148.45 input   59.86 | X-H torsion
[ 10167 10162 10161 10158 ] final -102.08 input  -65.29 | X-H torsion
[ 10718 10713 10712 10709 ] final    8.67 input   66.30 | X-H torsion
[ 10763 10752 10751 10750 ] final  148.31 input  -60.55 | X-H torsion
[ 11005 11000 10999 10996 ] final  -18.30 input  -57.11 | X-H torsion

> <Gold.Protein.ActiveResidues>
 VAL166  LYS551  ARG553  GLY616  TRP617  ASP618  TYR619  PRO620  LYS621  CYS622 
 ASP623  PHE694  ASN695  SER759  ASP760  ASP761  ALA762  ILE779  LEU786  VAL792 
 PHE793  MET794  SER795  GLU796  ALA797  LYS798  CYS799  TRP800  GLU811  SER814 

> <Gold.Protein.RotatedAtoms>
  150.7011  134.1375  159.4092 H   0  0  0  0  0  0  0  0  0  0  0  0  # atno 6907 bound_to 6896
  151.9360  135.0233  160.0542 H   0  0  0  0  0  0  0  0  0  0  0  0  # atno 6908 bound_to 6896
  152.2135  133.4894  159.5160 H   0  0  0  0  0  0  0  0  0  0  0  0  # atno 6909 bound_to 6896
  145.7745  139.2858  143.1302 H   0  0  0  0  0  0  0  0  0  0  0  0  # atno 7974 bound_to 7965
  155.5919  140.0653  157.2756 H   0  0  0  0  0  0  0  0  0  0  0  0  # atno 8008 bound_to 7997
  154.4303  140.1834  156.1130 H   0  0  0  0  0  0  0  0  0  0  0  0  # atno 8009 bound_to 7997
  156.0226  140.3315  155.7058 H   0  0  0  0  0  0  0  0  0  0  0  0  # atno 8010 bound_to 7997
  140.2345  143.3583  152.0857 H   0  0  0  0  0  0  0  0  0  0  0  0  # atno 10167 bound_to 10162
  156.9550  130.5911  149.5659 H   0  0  0  0  0  0  0  0  0  0  0  0  # atno 10718 bound_to 10713
  154.0526  135.2880  155.3338 H   0  0  0  0  0  0  0  0  0  0  0  0  # atno 10763 bound_to 10752
  154.6859  135.5245  153.8329 H   0  0  0  0  0  0  0  0  0  0  0  0  # atno 10764 bound_to 10752
  153.0554  135.6593  154.0721 H   0  0  0  0  0  0  0  0  0  0  0  0  # atno 10765 bound_to 10752
  140.8254  133.8037  155.9702 H   0  0  0  0  0  0  0  0  0  0  0  0  # atno 11005 bound_to 11000
  146.0137  140.8412  142.9958 LP  0  0  0  0  0  0  0  0  0  0  0  0  # atno 17320 bound_to 7965
  144.6807  140.2527  143.7329 LP  0  0  0  0  0  0  0  0  0  0  0  0  # atno 17321 bound_to 7965
  139.5098  144.6874  151.5851 LP  0  0  0  0  0  0  0  0  0  0  0  0  # atno 17342 bound_to 10162
  140.6160  143.9347  150.6489 LP  0  0  0  0  0  0  0  0  0  0  0  0  # atno 17343 bound_to 10162
  156.0346  130.5435  150.8622 LP  0  0  0  0  0  0  0  0  0  0  0  0  # atno 17370 bound_to 10713
  157.5696  131.0946  150.9437 LP  0  0  0  0  0  0  0  0  0  0  0  0  # atno 17371 bound_to 10713
  140.9055  134.2325  157.5017 LP  0  0  0  0  0  0  0  0  0  0  0  0  # atno 17394 bound_to 11000
  139.8707  134.9726  156.4779 LP  0  0  0  0  0  0  0  0  0  0  0  0  # atno 17395 bound_to 11000

$$$$
