#       Name:                AV-unprocessed.smi:128
#       Creating user name   scv26
#       Creation time:       Thu Mar 26 18:29:20 2020


#       File generated by GOLD software.
#

@<TRIPOS>MOLECULE
AV-unprocessed.smi:128
    51    54     1
SMALL
NO_CHARGES


@<TRIPOS>ATOM
      1 ****         0.7332   3.5111   1.6233 O.2            1 S1                 0.0000
      2 ****         0.1631   2.4232   1.7217 C.2            1 S1                 0.0000
      3 ****        -1.2837   2.2826   1.8462 C.2            1 S1                 0.0000
      4 ****        -2.0572   3.3806   1.8880 F              1 S1                 0.0000
      5 ****        -1.8613   1.0643   1.9230 C.2            1 S1                 0.0000
      6 ****        -1.1418  -0.1172   1.8852 N.am           1 S1                 0.0000
      7 ****        -1.8436  -1.4523   1.9706 C.3            1 S1                 0.0000
      8 ****        -2.1728  -1.8013   3.4269 C.3            1 S1                 0.0000
      9 ****        -3.5593  -2.3933   3.2951 C.3            1 S1                 0.0000
     10 ****        -4.1411  -1.5634   2.1578 C.3            1 S1                 0.0000
     11 ****        -3.0483  -1.3842   1.2622 O.3            1 S1                 0.0000
     12 ****         0.2663  -0.0783   1.7855 C.2            1 S1                 0.0000
     13 ****         0.9296  -1.1175   1.7584 O.2            1 S1                 0.0000
     14 ****         0.8747   1.1984   1.7140 N.am           1 S1                 0.0000
     15 ****         2.3215   1.2652   1.5765 C.3            1 S1                 0.0000
     16 ****         2.7273   1.4008   0.1396 C.2            1 S1                 0.0000
     17 ****         3.6825   2.1909  -0.3521 N.2            1 S1                 0.0000
     18 ****         3.6883   1.9705  -1.7106 N.2            1 S1                 0.0000
     19 ****         2.7345   1.0630  -1.9459 C.2            1 S1                 0.0000
     20 ****         2.3230   0.4880  -3.2252 C.ar           1 S1                 0.0000
     21 ****         1.1768  -0.3352  -3.3145 C.ar           1 S1                 0.0000
     22 ****         0.7879  -0.8818  -4.5531 C.ar           1 S1                 0.0000
     23 ****         1.5426  -0.6139  -5.7110 C.ar           1 S1                 0.0000
     24 ****         1.0155  -1.3518  -7.3841 Br             1 S1                 0.0000
     25 ****         2.6878   0.2006  -5.6294 C.ar           1 S1                 0.0000
     26 ****         3.0764   0.7491  -4.3918 C.ar           1 S1                 0.0000
     27 ****         2.0995   0.6614  -0.8123 O.3            1 S1                 0.0000
     28 ****        -2.9352   1.0221   2.0188 H              1 S1                 0.0000
     29 ****        -1.2132  -2.1929   1.4772 H              1 S1                 0.0000
     30 ****        -1.4360  -2.4874   3.8454 H              1 S1                 0.0000
     31 ****        -2.2036  -0.8949   4.0337 H              1 S1                 0.0000
     32 ****        -3.4948  -3.4418   3.0010 H              1 S1                 0.0000
     33 ****        -4.1427  -2.3281   4.2139 H              1 S1                 0.0000
     34 ****        -4.9819  -2.0543   1.6671 H              1 S1                 0.0000
     35 ****        -4.4803  -0.5942   2.5250 H              1 S1                 0.0000
     36 ****         2.6761   2.1130   2.1654 H              1 S1                 0.0000
     37 ****         2.7709   0.3774   2.0223 H              1 S1                 0.0000
     38 ****         0.5829  -0.5512  -2.4383 H              1 S1                 0.0000
     39 ****        -0.0911  -1.5064  -4.6143 H              1 S1                 0.0000
     40 ****         3.2693   0.4060  -6.5161 H              1 S1                 0.0000
     41 ****         3.9580   1.3719  -4.3459 H              1 S1                 0.0000
     42 ****         1.7286   3.5478   1.5345 LP             1 S1                 0.0000
     43 ****         0.2005   4.3574   1.6322 LP             1 S1                 0.0000
     44 ****        -3.0666  -2.1029   0.5672 LP             1 S1                 0.0000
     45 ****        -3.1239  -0.4906   0.8197 LP             1 S1                 0.0000
     46 ****         0.4710  -2.0048   1.8073 LP             1 S1                 0.0000
     47 ****         1.9261  -1.0729   1.6875 LP             1 S1                 0.0000
     48 ****         4.2726   2.8147   0.1604 LP             1 S1                 0.0000
     49 ****         4.2858   2.4023  -2.3862 LP             1 S1                 0.0000
     50 ****         1.1224   0.8709  -0.8494 LP             1 S1                 0.0000
     51 ****         2.2247  -0.3178  -0.6531 LP             1 S1                 0.0000
@<TRIPOS>BOND
    1    1    2 2     
    2    2   14 am    
    3    2    3 1     
    4    3    4 1     
    5    3    5 2     
    6    5    6 1     
    7    5   28 1     
    8    6    7 1     
    9    6   12 am    
   10    7   11 1     
   11    7    8 1     
   12    7   29 1     
   13    8    9 1     
   14    8   30 1     
   15    8   31 1     
   16    9   10 1     
   17    9   32 1     
   18    9   33 1     
   19   10   11 1     
   20   10   34 1     
   21   10   35 1     
   22   12   13 2     
   23   12   14 am    
   24   14   15 1     
   25   15   16 1     
   26   15   36 1     
   27   15   37 1     
   28   16   27 1     
   29   16   17 2     
   30   17   18 1     
   31   18   19 2     
   32   19   20 1     
   33   19   27 1     
   34   20   26 ar    
   35   20   21 ar    
   36   21   22 ar    
   37   21   38 1     
   38   22   23 ar    
   39   22   39 1     
   40   23   24 1     
   41   23   25 ar    
   42   25   26 ar    
   43   25   40 1     
   44   26   41 1     
   45    1   42 1     
   46    1   43 1     
   47   11   44 1     
   48   11   45 1     
   49   13   46 1     
   50   13   47 1     
   51   17   48 1     
   52   18   49 1     
   53   27   50 1     
   54   27   51 1     
@<TRIPOS>SUBSTRUCTURE
      1 S1             1
@<TRIPOS>SET
LONE_PAIRS      STATIC     ATOMS    <user>   **** ""
10 42 43 44 45 46 47 48 49 50 51
ATOM$BLUE        STATIC     ATOMS    COLORGROUP SYSTEM
10 42 43 44 45 46 47 48 49 50 51
