AV-unprocessed.smi:2448|AV-procd|sdf|9658|dock1
  -GOLD-   2272013293D 1   1.00000     0.00000
 Structure written by MMmdl.
 38 39  0  0  0  0  0  0  0  0  2 V2000
  149.8179  140.8217  153.3589 O   0  0  0  0  0  0  0  0  0  0  0  0
  149.1047  140.9869  154.5728 C   0  0  2  0  0  0  0  0  0  0  0  0
  150.1254  141.2698  155.6922 C   0  0  0  0  0  0  0  0  0  0  0  0
  150.7957  140.0325  156.1514 N   0  3  0  0  0  0  0  0  0  0  0  0
  151.6480  140.1864  157.3539 C   0  0  1  0  0  0  0  0  0  0  0  0
  150.9135  140.9880  158.4522 C   0  0  0  0  0  0  0  0  0  0  0  0
  151.4409  142.4007  158.6262 C   0  0  0  0  0  0  0  0  0  0  0  0
  151.3220  143.3465  157.5873 C   0  0  0  0  0  0  0  0  0  0  0  0
  151.8047  144.6522  157.8092 C   0  0  0  0  0  0  0  0  0  0  0  0
  152.3738  145.0443  158.9694 N   0  0  0  0  0  0  0  0  0  0  0  0
  152.4904  144.1317  159.9577 C   0  0  0  0  0  0  0  0  0  0  0  0
  152.0401  142.8018  159.8385 C   0  0  0  0  0  0  0  0  0  0  0  0
  152.0879  138.7991  157.8601 C   0  0  0  0  0  0  0  0  0  0  0  0
  152.8544  138.9398  158.9418 F   0  0  0  0  0  0  0  0  0  0  0  0
  151.0226  138.0705  158.1927 F   0  0  0  0  0  0  0  0  0  0  0  0
  152.7818  138.1537  156.9222 F   0  0  0  0  0  0  0  0  0  0  0  0
  148.3075  139.6973  154.8296 C   0  0  0  0  0  0  0  0  0  0  0  0
  147.1253  139.6750  153.8553 C   0  0  0  0  0  0  0  0  0  0  0  0
  146.5893  141.3864  153.6094 S   0  0  0  0  0  0  0  0  0  0  0  0
  148.0525  142.0982  154.4081 C   0  0  0  0  0  0  0  0  0  0  0  0
  149.3327  140.2346  152.7989 H   0  0  0  0  0  0  0  0  0  0  0  0
  150.8882  141.9652  155.3390 H   0  0  0  0  0  0  0  0  0  0  0  0
  149.6241  141.7560  156.5292 H   0  0  0  0  0  0  0  0  0  0  0  0
  150.0947  139.3301  156.3410 H   0  0  0  0  0  0  0  0  0  0  0  0
  152.5545  140.7274  157.0756 H   0  0  0  0  0  0  0  0  0  0  0  0
  149.8451  141.0291  158.2362 H   0  0  0  0  0  0  0  0  0  0  0  0
  151.0063  140.4756  159.4104 H   0  0  0  0  0  0  0  0  0  0  0  0
  150.8686  143.0837  156.6427 H   0  0  0  0  0  0  0  0  0  0  0  0
  151.7266  145.4023  157.0365 H   0  0  0  0  0  0  0  0  0  0  0  0
  152.9507  144.4724  160.8732 H   0  0  0  0  0  0  0  0  0  0  0  0
  152.1509  142.1122  160.6627 H   0  0  0  0  0  0  0  0  0  0  0  0
  148.9227  138.8011  154.7385 H   0  0  0  0  0  0  0  0  0  0  0  0
  147.9183  139.7097  155.8486 H   0  0  0  0  0  0  0  0  0  0  0  0
  147.4407  139.2762  152.8907 H   0  0  0  0  0  0  0  0  0  0  0  0
  146.3048  139.0556  154.2178 H   0  0  0  0  0  0  0  0  0  0  0  0
  147.7392  142.4640  155.3865 H   0  0  0  0  0  0  0  0  0  0  0  0
  148.4266  142.9545  153.8456 H   0  0  0  0  0  0  0  0  0  0  0  0
  151.3780  139.7033  155.3943 H   0  0  0  0  0  0  0  0  0  0  0  0
  1  2  1  0  0  0  0
  1 21  1  0  0  0  0
  2 20  1  0  0  0  0
  2  3  1  0  0  0  0
  2 17  1  0  0  0  0
  3  4  1  0  0  0  0
  3 22  1  0  0  0  0
  3 23  1  0  0  0  0
  4  5  1  0  0  0  0
  4 24  1  0  0  0  0
  4 38  1  0  0  0  0
  5  6  1  0  0  0  0
  5 13  1  0  0  0  0
  5 25  1  0  0  0  0
  6  7  1  0  0  0  0
  6 26  1  0  0  0  0
  6 27  1  0  0  0  0
  7 12  1  0  0  0  0
  7  8  2  0  0  0  0
  8  9  1  0  0  0  0
  8 28  1  0  0  0  0
  9 10  2  0  0  0  0
  9 29  1  0  0  0  0
 10 11  1  0  0  0  0
 11 12  2  0  0  0  0
 11 30  1  0  0  0  0
 12 31  1  0  0  0  0
 13 14  1  0  0  0  0
 13 15  1  0  0  0  0
 13 16  1  0  0  0  0
 17 18  1  0  0  0  0
 17 32  1  0  0  0  0
 17 33  1  0  0  0  0
 18 19  1  0  0  0  0
 18 34  1  0  0  0  0
 18 35  1  0  0  0  0
 19 20  1  0  0  0  0
 20 36  1  0  0  0  0
 20 37  1  0  0  0  0
M  CHG  1   4   1
M  END
> <s_m_source_file>
AV-unprocessed.smi

> <i_m_source_file_index>
2448

> <i_lp_mmshare_version>
43012

> <i_f3d_flags>
0

> <s_epik_input>
W0NIMl0xU1tDSDJdW0NIMl1bQ0BAXTEoW09IXSlbQ0gyXVtOSF1bQ0BASF0oQyhGKShGKUYpW0NIMl1jMltjSF1bY0hdbltjSF1bY0hdMg==

> <s_epik_cmdline>
J2VwaWtfcHl0aG9uJywgJy1waCcsICc3LjAnLCAnLXRuJywgJzgnLCAnLW1hJywgJzIwMCcsICctbWV0YWxfYmluZGluZycsICctaW1hZScsICc8aW5maWxlLm1hZT4nLCAnLW9tYWUnLCAnPG91dGZpbGUubWFlPic=

> <r_epik_Ionization_Penalty>
1.19945

> <r_epik_Ionization_Penalty_Charging>
1.19892

> <r_epik_Ionization_Penalty_Neutral>
0.000532129

> <r_epik_State_Penalty>
0.752927

> <r_epik_Charging_Adjusted_Penalty>
1.95185

> <i_epik_Tot_Q>
1

> <i_epik_Tot_abs_Q>
1

> <r_epik_Metal_State_Penalty>
0.804507

> <b_epik_Metal_Only>
0

> <s_lp_Force_Field>
OPLS_2005

> <r_lp_Energy>
23.5245

> <b_lp_Chiralities_Consistent>
1

> <s_lp_Variant>
AV-unprocessed.smi:2448-8

> <Gold.Version>
5.8.1

> <Gold.Id.Protein>
6NUR|6NUR_protein|mol2

> <Gold.PLP.Fitness>
42.3282

> <Gold.PLP.PLP>
-37.9956

> <Gold.PLP.part.hbond>
-2.0751

> <Gold.PLP.part.metal>
0.0000

> <Gold.PLP.part.buried>
-2.7976

> <Gold.PLP.part.nonpolar>
-32.5424

> <Gold.PLP.part.repulsive>
0.0960

> <Gold.PLP.ligand.clash>
0.0000

> <Gold.PLP.ligand.torsion>
1.0590

> <Gold.PLP.Chemscore.Hbond>
1.7840

> <Gold.PLP.Chemscore.CHOScore>
0.0000

> <Gold.PLP.Chemscore.Metal>
0.0000

> <Gold.Chemscore.Hbonds>
donor molecule, donor type, donor heavy atom, donor atom, acceptor molecule, acceptor atom, score
      L1  H     1    21       P1  7957  0.48
      P1  H  7989  7998       L1     1  0.27
      P1  H  8011  8017       L1     1  1.00

> <Gold.PLP.Chemscore.Internal.Correction>
1.0988

> <Gold.Rescore>
     Score         DG    S(hbond)    S(metal)    S(lipo)     H(rot)  DE(clash)    DE(int)     intcor
     15.27     -16.64       1.41        0.00     107.40       2.39       0.16       1.21       ----

> <Gold.Chemscore.Fitness>
15.2653

> <Gold.Chemscore.DG>
-16.6378

> <Gold.Chemscore.ZeroCoef>
-5.4800

> <Gold.Chemscore.Hbond>
1.4077

> <Gold.Chemscore.Metal>
0.0000

> <Gold.Chemscore.Lipo>
107.3999

> <Gold.Chemscore.Internal_Hbond>
0.0000

> <Gold.Chemscore.DEClash>
0.1587

> <Gold.Chemscore.DEInternal>
1.2138

> <Gold.Chemscore.Rot>
2.3866

> <Gold.Chemscore.Internal.Correction>
   9.000000E+99

> <Gold.Chemscore.Hbonds>
donor molecule, donor type, donor heavy atom, donor atom, acceptor molecule, acceptor atom, score
      L1  H     1    21       P1  7957  0.48
      P1  H  7989  7998       L1     1  0.26
      P1  H  8011  8017       L1     1  0.24

> <Gold.Chemscore.Hbond.Weighted>
-4.7016

> <Gold.Chemscore.Metal.Weighted>
-0.0000

> <Gold.Chemscore.Lipo.Weighted>
-12.5658

> <Gold.Chemscore.Internal_Hbond.Weighted>
0.0000

> <Gold.Chemscore.DEClash.Weighted>
0.1587

> <Gold.Chemscore.DEInternal.Weighted>
1.2138

> <Gold.Chemscore.Rot.Weighted>
6.1096

> <Gold.Chemscore.Internal.Correction.Weighted>
   9.000000E+99

> <Gold.Protein.RotatedTorsions>
[ 6907 6896 6895 6894 ] final  -54.19 input  -60.11 | X-H torsion
[ 7974 7965 7964 7962 ] final   47.06 input  175.53 | X-H torsion
[ 8008 7997 7996 7995 ] final -174.06 input   59.86 | X-H torsion
[ 10167 10162 10161 10158 ] final   40.22 input  -65.29 | X-H torsion
[ 10718 10713 10712 10709 ] final    5.64 input   66.30 | X-H torsion
[ 10763 10752 10751 10750 ] final   83.66 input  -60.55 | X-H torsion
[ 11005 11000 10999 10996 ] final  -59.59 input  -57.11 | X-H torsion

> <Gold.Protein.ActiveResidues>
 VAL166  LYS551  ARG553  GLY616  TRP617  ASP618  TYR619  PRO620  LYS621  CYS622 
 ASP623  PHE694  ASN695  SER759  ASP760  ASP761  ALA762  ILE779  LEU786  VAL792 
 PHE793  MET794  SER795  GLU796  ALA797  LYS798  CYS799  TRP800  GLU811  SER814 

> <Gold.Protein.RotatedAtoms>
  150.8360  134.7633  159.6892 H   0  0  0  0  0  0  0  0  0  0  0  0  # atno 6907 bound_to 6896
  152.4456  134.5498  159.9873 H   0  0  0  0  0  0  0  0  0  0  0  0  # atno 6908 bound_to 6896
  151.5648  133.3360  159.3014 H   0  0  0  0  0  0  0  0  0  0  0  0  # atno 6909 bound_to 6896
  146.0333  139.4789  142.9824 H   0  0  0  0  0  0  0  0  0  0  0  0  # atno 7974 bound_to 7965
  155.9654  140.1152  157.0859 H   0  0  0  0  0  0  0  0  0  0  0  0  # atno 8008 bound_to 7997
  154.4142  140.1174  156.5302 H   0  0  0  0  0  0  0  0  0  0  0  0  # atno 8009 bound_to 7997
  155.6666  140.3473  155.4805 H   0  0  0  0  0  0  0  0  0  0  0  0  # atno 8010 bound_to 7997
  140.3763  144.2038  150.6131 H   0  0  0  0  0  0  0  0  0  0  0  0  # atno 10167 bound_to 10162
  156.9103  130.5754  149.5647 H   0  0  0  0  0  0  0  0  0  0  0  0  # atno 10718 bound_to 10713
  153.1311  135.4683  154.9350 H   0  0  0  0  0  0  0  0  0  0  0  0  # atno 10763 bound_to 10752
  154.7665  135.3146  154.8279 H   0  0  0  0  0  0  0  0  0  0  0  0  # atno 10764 bound_to 10752
  153.8821  135.6893  153.4820 H   0  0  0  0  0  0  0  0  0  0  0  0  # atno 10765 bound_to 10752
  141.1254  133.6617  156.5094 H   0  0  0  0  0  0  0  0  0  0  0  0  # atno 11005 bound_to 11000
  145.7005  141.0137  143.1506 LP  0  0  0  0  0  0  0  0  0  0  0  0  # atno 17320 bound_to 7965
  144.7040  139.8639  143.7435 LP  0  0  0  0  0  0  0  0  0  0  0  0  # atno 17321 bound_to 7965
  140.4982  143.2326  151.8718 LP  0  0  0  0  0  0  0  0  0  0  0  0  # atno 17342 bound_to 10162
  139.4799  144.5089  151.8959 LP  0  0  0  0  0  0  0  0  0  0  0  0  # atno 17343 bound_to 10162
  156.0539  130.5604  150.9049 LP  0  0  0  0  0  0  0  0  0  0  0  0  # atno 17370 bound_to 10713
  157.5971  131.0942  150.9022 LP  0  0  0  0  0  0  0  0  0  0  0  0  # atno 17371 bound_to 10713
  140.4381  134.7040  157.4977 LP  0  0  0  0  0  0  0  0  0  0  0  0  # atno 17394 bound_to 11000
  140.0248  134.6494  155.9189 LP  0  0  0  0  0  0  0  0  0  0  0  0  # atno 17395 bound_to 11000

$$$$
