AV-unprocessed.smi:1605|AV-procd|sdf|6454|dock7
  -GOLD-   22720 7103D 1   1.00000     0.00000
 Structure written by MMmdl.
 51 53  0  0  0  0  0  0  0  0  2 V2000
  142.5104  142.4706  155.6128 C   0  0  0  0  0  0  0  0  0  0  0  0
  143.7594  142.0709  156.1555 O   0  0  0  0  0  0  0  0  0  0  0  0
  144.6597  143.1435  156.4080 C   0  0  2  0  0  0  0  0  0  0  0  0
  145.0452  143.7673  155.0583 C   0  0  0  0  0  0  0  0  0  0  0  0
  145.8957  142.8061  154.2097 C   0  0  0  0  0  0  0  0  0  0  0  0
  147.1069  142.3678  154.9491 N   0  3  2  0  0  0  0  0  0  0  0  0
  148.0352  141.5771  154.1007 C   0  0  0  0  0  0  0  0  0  0  0  0
  149.2238  140.9593  154.8774 C   0  0  1  0  0  0  0  0  0  0  0  0
  149.8669  140.0523  154.0076 O   0  0  0  0  0  0  0  0  0  0  0  0
  150.2884  141.9702  155.3590 C   0  0  0  0  0  0  0  0  0  0  0  0
  151.1340  141.4410  156.4135 N   0  0  0  0  0  0  0  0  0  0  0  0
  151.8042  140.2726  156.4026 C   0  0  0  0  0  0  0  0  0  0  0  0
  152.4982  139.9601  157.4926 N   0  0  0  0  0  0  0  0  0  0  0  0
  152.2647  141.0601  158.2990 C   0  0  0  0  0  0  0  0  0  0  0  0
  152.7075  141.3481  159.6081 C   0  0  0  0  0  0  0  0  0  0  0  0
  152.3254  142.5446  160.2552 C   0  0  0  0  0  0  0  0  0  0  0  0
  152.8189  142.8106  161.6664 C   0  0  0  0  0  0  0  0  0  0  0  0
  151.4913  143.4779  159.5888 C   0  0  0  0  0  0  0  0  0  0  0  0
  151.0637  144.7679  160.2660 C   0  0  0  0  0  0  0  0  0  0  0  0
  151.0426  143.2074  158.2796 C   0  0  0  0  0  0  0  0  0  0  0  0
  151.4237  142.0100  157.6493 C   0  0  0  0  0  0  0  0  0  0  0  0
  146.7561  141.7105  156.2350 C   0  0  0  0  0  0  0  0  0  0  0  0
  145.9315  142.6545  157.1266 C   0  0  0  0  0  0  0  0  0  0  0  0
  141.8965  141.5884  155.4319 H   0  0  0  0  0  0  0  0  0  0  0  0
  142.6412  142.9860  154.6604 H   0  0  0  0  0  0  0  0  0  0  0  0
  141.9600  143.1223  156.2910 H   0  0  0  0  0  0  0  0  0  0  0  0
  144.1609  143.9059  157.0088 H   0  0  0  0  0  0  0  0  0  0  0  0
  144.1488  144.0583  154.5101 H   0  0  0  0  0  0  0  0  0  0  0  0
  145.6069  144.6851  155.2337 H   0  0  0  0  0  0  0  0  0  0  0  0
  145.3093  141.9338  153.9173 H   0  0  0  0  0  0  0  0  0  0  0  0
  146.1885  143.3135  153.2899 H   0  0  0  0  0  0  0  0  0  0  0  0
  147.4622  140.7974  153.5958 H   0  0  0  0  0  0  0  0  0  0  0  0
  148.4395  142.2143  153.3126 H   0  0  0  0  0  0  0  0  0  0  0  0
  148.8695  140.3714  155.7232 H   0  0  0  0  0  0  0  0  0  0  0  0
  149.4307  140.0741  153.1692 H   0  0  0  0  0  0  0  0  0  0  0  0
  150.9358  142.2567  154.5288 H   0  0  0  0  0  0  0  0  0  0  0  0
  149.8153  142.8877  155.7116 H   0  0  0  0  0  0  0  0  0  0  0  0
  151.7663  139.6065  155.5529 H   0  0  0  0  0  0  0  0  0  0  0  0
  153.3434  140.6375  160.1156 H   0  0  0  0  0  0  0  0  0  0  0  0
  153.4647  143.6886  161.6842 H   0  0  0  0  0  0  0  0  0  0  0  0
  153.3895  141.9667  162.0547 H   0  0  0  0  0  0  0  0  0  0  0  0
  151.9797  142.9832  162.3404 H   0  0  0  0  0  0  0  0  0  0  0  0
  150.4706  145.3913  159.5962 H   0  0  0  0  0  0  0  0  0  0  0  0
  151.9347  145.3457  160.5758 H   0  0  0  0  0  0  0  0  0  0  0  0
  150.4588  144.5526  161.1470 H   0  0  0  0  0  0  0  0  0  0  0  0
  150.4014  143.9076  157.7649 H   0  0  0  0  0  0  0  0  0  0  0  0
  146.2005  140.7924  156.0390 H   0  0  0  0  0  0  0  0  0  0  0  0
  147.6568  141.4237  156.7754 H   0  0  0  0  0  0  0  0  0  0  0  0
  146.5437  143.5165  157.3946 H   0  0  0  0  0  0  0  0  0  0  0  0
  145.6860  142.1617  158.0666 H   0  0  0  0  0  0  0  0  0  0  0  0
  147.6045  143.2149  155.1846 H   0  0  0  0  0  0  0  0  0  0  0  0
  1  2  1  0  0  0  0
  1 24  1  0  0  0  0
  1 25  1  0  0  0  0
  1 26  1  0  0  0  0
  2  3  1  0  0  0  0
  3 23  1  0  0  0  0
  3  4  1  0  0  0  0
  3 27  1  0  0  0  0
  4  5  1  0  0  0  0
  4 28  1  0  0  0  0
  4 29  1  0  0  0  0
  5  6  1  0  0  0  0
  5 30  1  0  0  0  0
  5 31  1  0  0  0  0
  6  7  1  0  0  0  0
  6 22  1  0  0  0  0
  6 51  1  0  0  0  0
  7  8  1  0  0  0  0
  7 32  1  0  0  0  0
  7 33  1  0  0  0  0
  8  9  1  0  0  0  0
  8 10  1  0  0  0  0
  8 34  1  0  0  0  0
  9 35  1  0  0  0  0
 10 11  1  0  0  0  0
 10 36  1  0  0  0  0
 10 37  1  0  0  0  0
 11 21  1  0  0  0  0
 11 12  1  0  0  0  0
 12 13  2  0  0  0  0
 12 38  1  0  0  0  0
 13 14  1  0  0  0  0
 14 21  2  0  0  0  0
 14 15  1  0  0  0  0
 15 16  2  0  0  0  0
 15 39  1  0  0  0  0
 16 17  1  0  0  0  0
 16 18  1  0  0  0  0
 17 40  1  0  0  0  0
 17 41  1  0  0  0  0
 17 42  1  0  0  0  0
 18 19  1  0  0  0  0
 18 20  2  0  0  0  0
 19 43  1  0  0  0  0
 19 44  1  0  0  0  0
 19 45  1  0  0  0  0
 20 21  1  0  0  0  0
 20 46  1  0  0  0  0
 22 23  1  0  0  0  0
 22 47  1  0  0  0  0
 22 48  1  0  0  0  0
 23 49  1  0  0  0  0
 23 50  1  0  0  0  0
M  CHG  1   6   1
M  END
> <s_m_source_file>
AV-unprocessed.smi

> <i_m_source_file_index>
1605

> <i_lp_mmshare_version>
43012

> <i_f3d_flags>
0

> <s_epik_input>
W0NIM11PW0NIXTFbQ0gyXVtDSDJdTihbQ0gyXVtDSDJdMSlbQ0gyXVtDQEhdKFtPSF0pW0NIMl1uKFtjSF1uMiljKGMyMylbY0hdYyhbQ0gzXSljKFtjSF0zKVtDSDNd

> <s_epik_cmdline>
J2VwaWtfcHl0aG9uJywgJy1waCcsICc3LjAnLCAnLXRuJywgJzgnLCAnLW1hJywgJzIwMCcsICctbWV0YWxfYmluZGluZycsICctaW1hZScsICc8aW5maWxlLm1hZT4nLCAnLW9tYWUnLCAnPG91dGZpbGUubWFlPic=

> <r_epik_Ionization_Penalty>
0.110943

> <r_epik_Ionization_Penalty_Charging>
0.0229283

> <r_epik_Ionization_Penalty_Neutral>
0.0880146

> <r_epik_State_Penalty>
0.0947554

> <r_epik_Charging_Adjusted_Penalty>
0.117684

> <i_epik_Tot_Q>
1

> <i_epik_Tot_abs_Q>
1

> <r_epik_Metal_State_Penalty>
0.0192456

> <b_epik_Metal_Only>
0

> <s_lp_Force_Field>
OPLS_2005

> <r_lp_Energy>
21.431

> <b_lp_Chiralities_Consistent>
1

> <s_lp_Variant>
AV-unprocessed.smi:1605-4

> <Gold.Version>
5.8.1

> <Gold.Id.Protein>
6NUR|6NUR_protein|mol2

> <Gold.PLP.Fitness>
60.3312

> <Gold.PLP.PLP>
-46.7101

> <Gold.PLP.part.hbond>
-4.0000

> <Gold.PLP.part.metal>
0.0000

> <Gold.PLP.part.buried>
-5.8866

> <Gold.PLP.part.nonpolar>
-36.5674

> <Gold.PLP.part.repulsive>
0.1948

> <Gold.PLP.ligand.clash>
0.0000

> <Gold.PLP.ligand.torsion>
0.3795

> <Gold.PLP.Chemscore.Hbond>
4.7561

> <Gold.PLP.Chemscore.CHOScore>
0.0000

> <Gold.PLP.Chemscore.Metal>
0.0000

> <Gold.Chemscore.Hbonds>
donor molecule, donor type, donor heavy atom, donor atom, acceptor molecule, acceptor atom, score
      L1  H     6    51       P1  8028  2.00
      L1  H     9    35       P1  7957  0.94
      P1  H  7989  7998       L1     9  0.82
      P1  H  7997  8009       L1    13  0.94

> <Gold.PLP.Chemscore.Internal.Correction>
0.1120

> <Gold.Rescore>
     Score         DG    S(hbond)    S(metal)    S(lipo)     H(rot)  DE(clash)    DE(int)     intcor
     18.26     -20.05       1.85        0.00     120.32       2.22       1.48       0.32       ----

> <Gold.Chemscore.Fitness>
18.2595

> <Gold.Chemscore.DG>
-20.0548

> <Gold.Chemscore.ZeroCoef>
-5.4800

> <Gold.Chemscore.Hbond>
1.8482

> <Gold.Chemscore.Metal>
0.0000

> <Gold.Chemscore.Lipo>
120.3166

> <Gold.Chemscore.Internal_Hbond>
0.0000

> <Gold.Chemscore.DEClash>
1.4765

> <Gold.Chemscore.DEInternal>
0.3187

> <Gold.Chemscore.Rot>
2.2169

> <Gold.Chemscore.Internal.Correction>
   9.000000E+99

> <Gold.Chemscore.Hbonds>
donor molecule, donor type, donor heavy atom, donor atom, acceptor molecule, acceptor atom, score
      L1  H     6    51       P1  8028  0.34
      L1  H     9    35       P1  7957  0.86
      P1  H  7989  7998       L1     9  0.11
      P1  H  7997  8009       L1    13  0.16

> <Gold.Chemscore.Hbond.Weighted>
-6.1731

> <Gold.Chemscore.Metal.Weighted>
-0.0000

> <Gold.Chemscore.Lipo.Weighted>
-14.0770

> <Gold.Chemscore.Internal_Hbond.Weighted>
0.0000

> <Gold.Chemscore.DEClash.Weighted>
1.4765

> <Gold.Chemscore.DEInternal.Weighted>
0.3187

> <Gold.Chemscore.Rot.Weighted>
5.6753

> <Gold.Chemscore.Internal.Correction.Weighted>
   9.000000E+99

> <Gold.Protein.RotatedTorsions>
[ 6907 6896 6895 6894 ] final   30.04 input  -60.11 | X-H torsion
[ 7974 7965 7964 7962 ] final -110.51 input  175.53 | X-H torsion
[ 8008 7997 7996 7995 ] final  173.06 input   59.86 | X-H torsion
[ 10167 10162 10161 10158 ] final -110.33 input  -65.29 | X-H torsion
[ 10718 10713 10712 10709 ] final -104.25 input   66.30 | X-H torsion
[ 10763 10752 10751 10750 ] final  -63.76 input  -60.55 | X-H torsion
[ 11005 11000 10999 10996 ] final   46.62 input  -57.11 | X-H torsion

> <Gold.Protein.ActiveResidues>
 VAL166  LYS551  ARG553  GLY616  TRP617  ASP618  TYR619  PRO620  LYS621  CYS622 
 ASP623  PHE694  ASN695  SER759  ASP760  ASP761  ALA762  ILE779  LEU786  VAL792 
 PHE793  MET794  SER795  GLU796  ALA797  LYS798  CYS799  TRP800  GLU811  SER814 

> <Gold.Protein.RotatedAtoms>
  152.0402  134.9716  160.0573 H   0  0  0  0  0  0  0  0  0  0  0  0  # atno 6907 bound_to 6896
  152.1157  133.4320  159.4660 H   0  0  0  0  0  0  0  0  0  0  0  0  # atno 6908 bound_to 6896
  150.6846  134.2514  159.4555 H   0  0  0  0  0  0  0  0  0  0  0  0  # atno 6909 bound_to 6896
  145.1673  140.8908  143.3556 H   0  0  0  0  0  0  0  0  0  0  0  0  # atno 7974 bound_to 7965
  156.1113  140.1470  156.9334 H   0  0  0  0  0  0  0  0  0  0  0  0  # atno 8008 bound_to 7997
  154.4769  140.0891  156.7327 H   0  0  0  0  0  0  0  0  0  0  0  0  # atno 8009 bound_to 7997
  155.4591  140.3437  155.4312 H   0  0  0  0  0  0  0  0  0  0  0  0  # atno 8010 bound_to 7997
  140.1456  143.4242  152.1531 H   0  0  0  0  0  0  0  0  0  0  0  0  # atno 10167 bound_to 10162
  156.0297  130.5506  150.7370 H   0  0  0  0  0  0  0  0  0  0  0  0  # atno 10718 bound_to 10713
  154.3198  135.6198  153.5503 H   0  0  0  0  0  0  0  0  0  0  0  0  # atno 10763 bound_to 10752
  152.9821  135.5721  154.5082 H   0  0  0  0  0  0  0  0  0  0  0  0  # atno 10764 bound_to 10752
  154.4748  135.2861  155.1592 H   0  0  0  0  0  0  0  0  0  0  0  0  # atno 10765 bound_to 10752
  140.1352  134.4654  155.8491 H   0  0  0  0  0  0  0  0  0  0  0  0  # atno 11005 bound_to 11000
  145.0269  139.3375  143.6044 LP  0  0  0  0  0  0  0  0  0  0  0  0  # atno 17320 bound_to 7965
  146.3474  139.9591  142.8719 LP  0  0  0  0  0  0  0  0  0  0  0  0  # atno 17321 bound_to 7965
  139.5450  144.7291  151.4611 LP  0  0  0  0  0  0  0  0  0  0  0  0  # atno 17342 bound_to 10162
  140.6734  143.8244  150.7027 LP  0  0  0  0  0  0  0  0  0  0  0  0  # atno 17343 bound_to 10162
  157.4948  131.0914  151.0384 LP  0  0  0  0  0  0  0  0  0  0  0  0  # atno 17370 bound_to 10713
  157.0781  130.5891  149.5415 LP  0  0  0  0  0  0  0  0  0  0  0  0  # atno 17371 bound_to 10713
  141.2177  133.6811  156.7144 LP  0  0  0  0  0  0  0  0  0  0  0  0  # atno 17394 bound_to 11000
  140.2791  134.8331  157.3917 LP  0  0  0  0  0  0  0  0  0  0  0  0  # atno 17395 bound_to 11000

$$$$
