AV-unprocessed.smi:514|AV-procd|sdf|2776|dock4
  -GOLD-   2262023243D 1   1.00000     0.00000
 Structure written by MMmdl.
 46 48  0  0  0  0  0  0  0  0  2 V2000
  150.3862  134.3617  155.0618 C   0  0  0  0  0  0  0  0  0  0  0  0
  150.2049  135.8712  155.2324 C   0  0  0  0  0  0  0  0  0  0  0  0
  151.4428  136.4298  155.6343 O   0  0  0  0  0  0  0  0  0  0  0  0
  151.3042  137.6139  156.3991 C   0  0  0  0  0  0  0  0  0  0  0  0
  151.2445  138.8523  155.4804 C   0  0  0  0  0  0  0  0  0  0  0  0
  150.8307  140.0677  156.1812 N   0  0  0  0  0  0  0  0  0  0  0  0
  149.8315  140.9540  155.8834 C   0  0  0  0  0  0  0  0  0  0  0  0
  148.9908  140.8615  154.7606 N   0  0  0  0  0  0  0  0  0  0  0  0
  148.6790  139.5862  154.1084 C   0  0  0  0  0  0  0  0  0  0  0  0
  147.1600  139.3594  153.9982 C   0  0  0  0  0  0  0  0  0  0  0  0
  146.5187  140.4730  153.2710 N   0  3  0  0  0  0  0  0  0  0  0  0
  146.8792  141.7920  153.8280 C   0  0  0  0  0  0  0  0  0  0  0  0
  148.4091  141.9271  153.9409 C   0  0  0  0  0  0  0  0  0  0  0  0
  149.7436  141.9774  156.7395 N   0  0  0  0  0  0  0  0  0  0  0  0
  150.7622  141.7406  157.6441 C   0  0  0  0  0  0  0  0  0  0  0  0
  151.4440  140.6165  157.3147 C   0  0  0  0  0  0  0  0  0  0  0  0
  152.6174  140.1656  158.0825 C   0  0  0  0  0  0  0  0  0  0  0  0
  153.3000  139.1907  157.7766 O   0  0  0  0  0  0  0  0  0  0  0  0
  152.8796  140.9411  159.1621 N   0  0  0  0  0  0  0  0  0  0  0  0
  152.2128  142.0665  159.5598 C   0  0  0  0  0  0  0  0  0  0  0  0
  152.5611  142.6571  160.5819 O   0  0  0  0  0  0  0  0  0  0  0  0
  151.1659  142.4925  158.7829 N   0  0  0  0  0  0  0  0  0  0  0  0
  150.4149  143.6998  159.1332 C   0  0  0  0  0  0  0  0  0  0  0  0
  153.6611  140.6592  159.7356 H   0  0  0  0  0  0  0  0  0  0  0  0
  149.4538  133.8887  154.7533 H   0  0  0  0  0  0  0  0  0  0  0  0
  150.7046  133.8989  155.9961 H   0  0  0  0  0  0  0  0  0  0  0  0
  151.1401  134.1415  154.3057 H   0  0  0  0  0  0  0  0  0  0  0  0
  149.8776  136.3174  154.2925 H   0  0  0  0  0  0  0  0  0  0  0  0
  149.4379  136.0720  155.9815 H   0  0  0  0  0  0  0  0  0  0  0  0
  150.3949  137.5625  156.9995 H   0  0  0  0  0  0  0  0  0  0  0  0
  152.1433  137.6769  157.0905 H   0  0  0  0  0  0  0  0  0  0  0  0
  152.2215  139.0243  155.0313 H   0  0  0  0  0  0  0  0  0  0  0  0
  150.5880  138.6762  154.6319 H   0  0  0  0  0  0  0  0  0  0  0  0
  149.1375  139.5671  153.1186 H   0  0  0  0  0  0  0  0  0  0  0  0
  149.1177  138.7558  154.6620 H   0  0  0  0  0  0  0  0  0  0  0  0
  146.9492  138.4238  153.4800 H   0  0  0  0  0  0  0  0  0  0  0  0
  146.7192  139.2817  154.9930 H   0  0  0  0  0  0  0  0  0  0  0  0
  146.8300  140.4412  152.3107 H   0  0  0  0  0  0  0  0  0  0  0  0
  146.4728  142.5745  153.1871 H   0  0  0  0  0  0  0  0  0  0  0  0
  146.4121  141.9048  154.8071 H   0  0  0  0  0  0  0  0  0  0  0  0
  148.6692  142.9096  154.3139 H   0  0  0  0  0  0  0  0  0  0  0  0
  148.8527  141.8775  152.9454 H   0  0  0  0  0  0  0  0  0  0  0  0
  149.6155  143.4518  159.8318 H   0  0  0  0  0  0  0  0  0  0  0  0
  149.9630  144.1600  158.2544 H   0  0  0  0  0  0  0  0  0  0  0  0
  151.0465  144.4607  159.5936 H   0  0  0  0  0  0  0  0  0  0  0  0
  145.5154  140.3588  153.2946 H   0  0  0  0  0  0  0  0  0  0  0  0
  1  2  1  0  0  0  0
  1 25  1  0  0  0  0
  1 26  1  0  0  0  0
  1 27  1  0  0  0  0
  2  3  1  0  0  0  0
  2 28  1  0  0  0  0
  2 29  1  0  0  0  0
  3  4  1  0  0  0  0
  4  5  1  0  0  0  0
  4 30  1  0  0  0  0
  4 31  1  0  0  0  0
  5  6  1  0  0  0  0
  5 32  1  0  0  0  0
  5 33  1  0  0  0  0
  6 16  1  0  0  0  0
  6  7  1  0  0  0  0
  7  8  1  0  0  0  0
  7 14  2  0  0  0  0
  8 13  1  0  0  0  0
  8  9  1  0  0  0  0
  9 10  1  0  0  0  0
  9 34  1  0  0  0  0
  9 35  1  0  0  0  0
 10 11  1  0  0  0  0
 10 36  1  0  0  0  0
 10 37  1  0  0  0  0
 11 12  1  0  0  0  0
 11 38  1  0  0  0  0
 11 46  1  0  0  0  0
 12 13  1  0  0  0  0
 12 39  1  0  0  0  0
 12 40  1  0  0  0  0
 13 41  1  0  0  0  0
 13 42  1  0  0  0  0
 14 15  1  0  0  0  0
 15 22  1  0  0  0  0
 15 16  2  0  0  0  0
 16 17  1  0  0  0  0
 17 18  2  0  0  0  0
 17 19  1  0  0  0  0
 19 24  1  0  0  0  0
 19 20  1  0  0  0  0
 20 21  2  0  0  0  0
 20 22  1  0  0  0  0
 22 23  1  0  0  0  0
 23 43  1  0  0  0  0
 23 44  1  0  0  0  0
 23 45  1  0  0  0  0
M  CHG  1  11   1
M  END
> <s_m_source_file>
AV-unprocessed.smi

> <i_m_source_file_index>
514

> <i_lp_mmshare_version>
43012

> <i_f3d_flags>
0

> <s_epik_input>
W0NIM11uMWMoPU8pW25IXWMoPU8pYyhjMTIpbihbQ0gyXVtDSDJdT1tDSDJdW0NIM10pYyhuMilOM1tDSDJdW0NIMl1bTkhdW0NIMl1bQ0gyXTM=

> <s_epik_cmdline>
J2VwaWtfcHl0aG9uJywgJy1waCcsICc3LjAnLCAnLXRuJywgJzgnLCAnLW1hJywgJzIwMCcsICctbWV0YWxfYmluZGluZycsICctaW1hZScsICc8aW5maWxlLm1hZT4nLCAnLW9tYWUnLCAnPG91dGZpbGUubWFlPic=

> <r_epik_Ionization_Penalty>
0.00860326

> <r_epik_Ionization_Penalty_Charging>
0.00860166

> <r_epik_Ionization_Penalty_Neutral>
1.60107e-06

> <r_epik_State_Penalty>
0.00646614

> <r_epik_Charging_Adjusted_Penalty>
0.0150678

> <i_epik_Tot_Q>
1

> <i_epik_Tot_abs_Q>
1

> <r_epik_Metal_State_Penalty>
0.0342529

> <b_epik_Metal_Only>
0

> <s_lp_Force_Field>
OPLS_2005

> <r_lp_Energy>
46.1071

> <b_lp_Chiralities_Consistent>
1

> <s_lp_Variant>
AV-unprocessed.smi:514-1

> <Gold.Version>
5.8.1

> <Gold.Id.Protein>
6NUR|6NUR_protein|mol2

> <Gold.PLP.Fitness>
45.6821

> <Gold.PLP.PLP>
-35.1944

> <Gold.PLP.part.hbond>
-3.0000

> <Gold.PLP.part.metal>
0.0000

> <Gold.PLP.part.buried>
-3.3823

> <Gold.PLP.part.nonpolar>
-28.9750

> <Gold.PLP.part.repulsive>
1.0498

> <Gold.PLP.ligand.clash>
0.0000

> <Gold.PLP.ligand.torsion>
0.7694

> <Gold.PLP.Chemscore.Hbond>
4.0000

> <Gold.PLP.Chemscore.CHOScore>
0.0000

> <Gold.PLP.Chemscore.Metal>
0.0000

> <Gold.Chemscore.Hbonds>
donor molecule, donor type, donor heavy atom, donor atom, acceptor molecule, acceptor atom, score
      L1  H    11    46       P1 10175  2.00
      P1  H  7997  8010       L1    18  0.95
      P1  H 10752 10763       L1     3  1.00

> <Gold.PLP.Chemscore.Internal.Correction>
0.0265

> <Gold.Rescore>
     Score         DG    S(hbond)    S(metal)    S(lipo)     H(rot)  DE(clash)    DE(int)     intcor
     12.63     -16.34       2.55        0.00      58.23       1.75       0.81       2.91       ----

> <Gold.Chemscore.Fitness>
12.6261

> <Gold.Chemscore.DG>
-16.3400

> <Gold.Chemscore.ZeroCoef>
-5.4800

> <Gold.Chemscore.Hbond>
2.5501

> <Gold.Chemscore.Metal>
0.0000

> <Gold.Chemscore.Lipo>
58.2279

> <Gold.Chemscore.Internal_Hbond>
0.0000

> <Gold.Chemscore.DEClash>
0.8083

> <Gold.Chemscore.DEInternal>
2.9056

> <Gold.Chemscore.Rot>
1.7461

> <Gold.Chemscore.Internal.Correction>
   9.000000E+99

> <Gold.Chemscore.Hbonds>
donor molecule, donor type, donor heavy atom, donor atom, acceptor molecule, acceptor atom, score
      L1  H    11    46       P1 10175  0.90
      P1  H  7997  8010       L1    18  0.22
      P1  H 10752 10763       L1     3  0.89

> <Gold.Chemscore.Hbond.Weighted>
-8.5174

> <Gold.Chemscore.Metal.Weighted>
-0.0000

> <Gold.Chemscore.Lipo.Weighted>
-6.8127

> <Gold.Chemscore.Internal_Hbond.Weighted>
0.0000

> <Gold.Chemscore.DEClash.Weighted>
0.8083

> <Gold.Chemscore.DEInternal.Weighted>
2.9056

> <Gold.Chemscore.Rot.Weighted>
4.4701

> <Gold.Chemscore.Internal.Correction.Weighted>
   9.000000E+99

> <Gold.Protein.RotatedTorsions>
[ 6907 6896 6895 6894 ] final  -50.34 input  -60.11 | X-H torsion
[ 7974 7965 7964 7962 ] final  170.66 input  175.53 | X-H torsion
[ 8008 7997 7996 7995 ] final   30.57 input   59.86 | X-H torsion
[ 10167 10162 10161 10158 ] final  143.62 input  -65.29 | X-H torsion
[ 10718 10713 10712 10709 ] final  -75.90 input   66.30 | X-H torsion
[ 10763 10752 10751 10750 ] final   87.25 input  -60.55 | X-H torsion
[ 11005 11000 10999 10996 ] final  158.57 input  -57.11 | X-H torsion

> <Gold.Protein.ActiveResidues>
 VAL166  LYS551  ARG553  GLY616  TRP617  ASP618  TYR619  PRO620  LYS621  CYS622 
 ASP623  PHE694  ASN695  SER759  ASP760  ASP761  ALA762  ILE779  LEU786  VAL792 
 PHE793  MET794  SER795  GLU796  ALA797  LYS798  CYS799  TRP800  GLU811  SER814 

> <Gold.Protein.RotatedAtoms>
  150.8716  134.8091  159.7158 H   0  0  0  0  0  0  0  0  0  0  0  0  # atno 6907 bound_to 6896
  152.4719  134.4937  159.9713 H   0  0  0  0  0  0  0  0  0  0  0  0  # atno 6908 bound_to 6896
  151.5025  133.3463  159.2907 H   0  0  0  0  0  0  0  0  0  0  0  0  # atno 6909 bound_to 6896
  144.7317  139.9235  143.6421 H   0  0  0  0  0  0  0  0  0  0  0  0  # atno 7974 bound_to 7965
  155.0925  140.3221  155.4570 H   0  0  0  0  0  0  0  0  0  0  0  0  # atno 8008 bound_to 7997
  156.2739  140.2075  156.5998 H   0  0  0  0  0  0  0  0  0  0  0  0  # atno 8009 bound_to 7997
  154.6892  140.0518  157.0333 H   0  0  0  0  0  0  0  0  0  0  0  0  # atno 8010 bound_to 7997
  139.4965  144.6028  151.6445 H   0  0  0  0  0  0  0  0  0  0  0  0  # atno 10167 bound_to 10162
  156.0192  130.4452  150.3113 H   0  0  0  0  0  0  0  0  0  0  0  0  # atno 10718 bound_to 10713
  153.1650  135.4550  154.9824 H   0  0  0  0  0  0  0  0  0  0  0  0  # atno 10763 bound_to 10752
  154.7925  135.3225  154.7746 H   0  0  0  0  0  0  0  0  0  0  0  0  # atno 10764 bound_to 10752
  153.8231  135.6945  153.4879 H   0  0  0  0  0  0  0  0  0  0  0  0  # atno 10765 bound_to 10752
  140.1878  134.8429  157.2877 H   0  0  0  0  0  0  0  0  0  0  0  0  # atno 11005 bound_to 11000
  146.0912  139.3902  143.0405 LP  0  0  0  0  0  0  0  0  0  0  0  0  # atno 17320 bound_to 7965
  145.7709  140.9897  143.1150 LP  0  0  0  0  0  0  0  0  0  0  0  0  # atno 17321 bound_to 7965
  140.5682  144.0154  150.6203 LP  0  0  0  0  0  0  0  0  0  0  0  0  # atno 17342 bound_to 10162
  140.3263  143.3105  152.0733 LP  0  0  0  0  0  0  0  0  0  0  0  0  # atno 17343 bound_to 10162
  157.1214  131.0248  151.3007 LP  0  0  0  0  0  0  0  0  0  0  0  0  # atno 17370 bound_to 10713
  157.4625  130.7661  149.7248 LP  0  0  0  0  0  0  0  0  0  0  0  0  # atno 17371 bound_to 10713
  140.2194  134.4041  155.7573 LP  0  0  0  0  0  0  0  0  0  0  0  0  # atno 17394 bound_to 11000
  141.2225  133.7158  156.8466 LP  0  0  0  0  0  0  0  0  0  0  0  0  # atno 17395 bound_to 11000

$$$$
