#       Name:                AV-unprocessed.smi:2237
#       Creating user name   scv26
#       Creation time:       Fri Mar 27 12:25:25 2020


#       File generated by GOLD software.
#

@<TRIPOS>MOLECULE
AV-unprocessed.smi:2237
    58    60     1
SMALL
NO_CHARGES


@<TRIPOS>ATOM
      1 ****        -6.1738   5.5708   1.1094 C.3            1 S1                 0.0000
      2 ****        -6.4039   4.1513   0.6350 C.ar           1 S1                 0.0000
      3 ****        -7.7080   3.6486   0.4608 C.ar           1 S1                 0.0000
      4 ****        -7.8530   2.3211   0.0198 C.ar           1 S1                 0.0000
      5 ****        -6.6963   1.5562  -0.2257 C.ar           1 S1                 0.0000
      6 ****        -5.4237   2.1364  -0.0241 C.ar           1 S1                 0.0000
      7 ****        -4.3223   1.2837  -0.3014 N.am           1 S1                 0.0000
      8 ****        -3.0108   1.5566  -0.1856 C.2            1 S1                 0.0000
      9 ****        -2.5348   2.6208   0.2107 O.2            1 S1                 0.0000
     10 ****        -2.2621   0.5081  -0.5577 N.am           1 S1                 0.0000
     11 ****        -0.8024   0.4789  -0.5607 C.3            1 S1                 0.0000
     12 ****        -0.3034  -0.5834  -1.5484 C.3            1 S1                 0.0000
     13 ****         1.2298  -0.7072  -1.5191 C.3            1 S1                 0.0000
     14 ****         1.7344  -1.0066  -0.1467 N.4            1 S1                 1.0000
     15 ****         3.2092  -1.2619  -0.0401 C.3            1 S1                 0.0000
     16 ****         3.8314  -1.9641  -1.2739 C.3            1 S1                 0.0000
     17 ****         5.3312  -2.2495  -1.0804 C.3            1 S1                 0.0000
     18 ****         5.5690  -3.0678   0.1321 N.4            1 S1                 1.0000
     19 ****         6.9888  -3.4534   0.2843 C.3            1 S1                 0.0000
     20 ****         5.0292  -2.4122   1.3464 C.3            1 S1                 0.0000
     21 ****         3.5240  -2.1295   1.2017 C.3            1 S1                 0.0000
     22 ****         1.2755   0.0353   0.8169 C.3            1 S1                 0.0000
     23 ****        -0.2562   0.1580   0.8394 C.3            1 S1                 0.0000
     24 ****        -5.2943   3.4177   0.4012 N.ar           1 S1                 0.0000
     25 ****        -7.0910   6.1580   1.0558 H              1 S1                 0.0000
     26 ****        -5.4201   6.0638   0.4944 H              1 S1                 0.0000
     27 ****        -5.8277   5.5701   2.1431 H              1 S1                 0.0000
     28 ****        -8.5754   4.2612   0.6585 H              1 S1                 0.0000
     29 ****        -8.8346   1.8957  -0.1280 H              1 S1                 0.0000
     30 ****        -6.7908   0.5349  -0.5650 H              1 S1                 0.0000
     31 ****        -4.5624   0.3608  -0.6317 H              1 S1                 0.0000
     32 ****        -2.7369  -0.3265  -0.8696 H              1 S1                 0.0000
     33 ****        -0.4240   1.4520  -0.8807 H              1 S1                 0.0000
     34 ****        -0.7473  -1.5510  -1.3081 H              1 S1                 0.0000
     35 ****        -0.6321  -0.3363  -2.5588 H              1 S1                 0.0000
     36 ****         1.4907  -1.5050  -2.2131 H              1 S1                 0.0000
     37 ****         1.6916   0.2098  -1.8884 H              1 S1                 0.0000
     38 ****         3.7075  -0.2965   0.0661 H              1 S1                 0.0000
     39 ****         3.3088  -2.9007  -1.4752 H              1 S1                 0.0000
     40 ****         3.7290  -1.3443  -2.1651 H              1 S1                 0.0000
     41 ****         5.7171  -2.7742  -1.9555 H              1 S1                 0.0000
     42 ****         5.8851  -1.3122  -1.0036 H              1 S1                 0.0000
     43 ****         7.6201  -2.5759   0.4311 H              1 S1                 0.0000
     44 ****         7.3413  -3.9844  -0.6005 H              1 S1                 0.0000
     45 ****         7.1181  -4.1151   1.1415 H              1 S1                 0.0000
     46 ****         5.1963  -3.0556   2.2111 H              1 S1                 0.0000
     47 ****         5.5704  -1.4830   1.5333 H              1 S1                 0.0000
     48 ****         3.1824  -1.6503   2.1178 H              1 S1                 0.0000
     49 ****         2.9838  -3.0749   1.1346 H              1 S1                 0.0000
     50 ****         1.6117  -0.1909   1.8269 H              1 S1                 0.0000
     51 ****         1.7193   0.9964   0.5512 H              1 S1                 0.0000
     52 ****        -0.5491   0.9363   1.5452 H              1 S1                 0.0000
     53 ****        -0.6914  -0.7725   1.2073 H              1 S1                 0.0000
     54 ****         1.2819  -1.8687   0.1230 H              1 S1                 0.0000
     55 ****         5.0526  -3.9276   0.0099 H              1 S1                 0.0000
     56 ****        -3.1402   3.3703   0.4786 LP             1 S1                 0.0000
     57 ****        -1.5429   2.7355   0.2646 LP             1 S1                 0.0000
     58 ****        -4.3872   3.8149   0.5401 LP             1 S1                 0.0000
@<TRIPOS>BOND
    1    1    2 1     
    2    1   25 1     
    3    1   26 1     
    4    1   27 1     
    5    2   24 ar    
    6    2    3 ar    
    7    3    4 ar    
    8    3   28 1     
    9    4    5 ar    
   10    4   29 1     
   11    5    6 ar    
   12    5   30 1     
   13    6    7 1     
   14    6   24 ar    
   15    7    8 am    
   16    7   31 1     
   17    8    9 2     
   18    8   10 am    
   19   10   11 1     
   20   10   32 1     
   21   11   23 1     
   22   11   12 1     
   23   11   33 1     
   24   12   13 1     
   25   12   34 1     
   26   12   35 1     
   27   13   14 1     
   28   13   36 1     
   29   13   37 1     
   30   14   15 1     
   31   14   22 1     
   32   14   54 1     
   33   15   21 1     
   34   15   16 1     
   35   15   38 1     
   36   16   17 1     
   37   16   39 1     
   38   16   40 1     
   39   17   18 1     
   40   17   41 1     
   41   17   42 1     
   42   18   19 1     
   43   18   20 1     
   44   18   55 1     
   45   19   43 1     
   46   19   44 1     
   47   19   45 1     
   48   20   21 1     
   49   20   46 1     
   50   20   47 1     
   51   21   48 1     
   52   21   49 1     
   53   22   23 1     
   54   22   50 1     
   55   22   51 1     
   56   23   52 1     
   57   23   53 1     
   58    9   56 1     
   59    9   57 1     
   60   24   58 1     
@<TRIPOS>SUBSTRUCTURE
      1 S1             1
@<TRIPOS>SET
LONE_PAIRS      STATIC     ATOMS    <user>   **** ""
3 56 57 58
DONOR_HYDROGENS      STATIC     ATOMS    <user>   **** ""
4 31 32 54 55
ATOM$BLUE        STATIC     ATOMS    COLORGROUP SYSTEM
3 56 57 58
ATOM$RED        STATIC     ATOMS    COLORGROUP SYSTEM
4 31 32 54 55
