AV-unprocessed.smi:670|AV-procd|sdf|3266|dock9
  -GOLD-   22720 0223D 1   1.00000     0.00000
 Structure written by MMmdl.
 44 45  0  0  0  0  0  0  0  0  2 V2000
  147.9660  140.1452  154.0167 C   0  0  0  0  0  0  0  0  0  0  0  0
  149.3613  140.5120  154.5457 C   0  0  1  0  0  0  0  0  0  0  0  0
  149.2848  141.2378  155.9055 C   0  0  0  0  0  0  0  0  0  0  0  0
  150.6791  141.6363  156.4142 C   0  0  0  0  0  0  0  0  0  0  0  0
  151.6171  140.4226  156.4785 C   0  0  0  0  0  0  0  0  0  0  0  0
  151.6949  139.7044  155.1226 C   0  0  0  0  0  0  0  0  0  0  0  0
  150.2951  139.2829  154.6243 C   0  0  1  0  0  0  0  0  0  0  0  0
  149.6998  138.3430  155.5107 O   0  0  0  0  0  0  0  0  0  0  0  0
  150.4905  137.2085  155.8293 C   0  0  0  0  0  0  0  0  0  0  0  0
  149.5699  135.9864  155.9678 C   0  0  0  0  0  0  0  0  0  0  0  0
  148.4943  136.2306  156.9231 N   0  0  0  0  0  0  0  0  0  0  0  0
  148.5644  136.0058  158.2446 C   0  0  0  0  0  0  0  0  0  0  0  0
  149.5836  135.6065  158.8087 O   0  0  0  0  0  0  0  0  0  0  0  0
  147.2977  136.3086  159.0556 C   0  0  0  0  0  0  0  0  0  0  0  0
  147.3611  135.7617  160.4177 N   0  0  0  0  0  0  0  0  0  0  0  0
  147.5486  134.3131  160.4532 N   0  5  0  0  0  0  0  0  0  0  0  0
  147.6779  133.6901  161.6544 C   0  0  0  0  0  0  0  0  0  0  0  0
  147.8681  132.4809  161.7605 O   0  0  0  0  0  0  0  0  0  0  0  0
  147.5842  134.4992  162.8580 C   0  0  0  0  0  0  0  0  0  0  0  0
  147.3766  135.8292  162.7966 C   0  0  0  0  0  0  0  0  0  0  0  0
  147.2430  136.5406  161.5313 C   0  0  0  0  0  0  0  0  0  0  0  0
  147.0446  137.7538  161.4720 O   0  0  0  0  0  0  0  0  0  0  0  0
  147.4458  139.4700  154.6969 H   0  0  0  0  0  0  0  0  0  0  0  0
  148.0303  139.6554  153.0449 H   0  0  0  0  0  0  0  0  0  0  0  0
  147.3471  141.0348  153.8973 H   0  0  0  0  0  0  0  0  0  0  0  0
  149.7981  141.2080  153.8280 H   0  0  0  0  0  0  0  0  0  0  0  0
  148.6619  142.1285  155.8187 H   0  0  0  0  0  0  0  0  0  0  0  0
  148.8001  140.5963  156.6430 H   0  0  0  0  0  0  0  0  0  0  0  0
  151.1063  142.3933  155.7556 H   0  0  0  0  0  0  0  0  0  0  0  0
  150.5975  142.0941  157.4002 H   0  0  0  0  0  0  0  0  0  0  0  0
  152.6122  140.7368  156.7934 H   0  0  0  0  0  0  0  0  0  0  0  0
  151.2589  139.7263  157.2365 H   0  0  0  0  0  0  0  0  0  0  0  0
  152.1492  140.3728  154.3901 H   0  0  0  0  0  0  0  0  0  0  0  0
  152.3642  138.8484  155.1949 H   0  0  0  0  0  0  0  0  0  0  0  0
  150.3783  138.8412  153.6298 H   0  0  0  0  0  0  0  0  0  0  0  0
  151.2136  137.0384  155.0307 H   0  0  0  0  0  0  0  0  0  0  0  0
  151.0523  137.3536  156.7516 H   0  0  0  0  0  0  0  0  0  0  0  0
  149.1695  135.6923  154.9962 H   0  0  0  0  0  0  0  0  0  0  0  0
  150.1476  135.1375  156.3335 H   0  0  0  0  0  0  0  0  0  0  0  0
  147.6159  136.5596  156.5493 H   0  0  0  0  0  0  0  0  0  0  0  0
  147.1561  137.3900  159.0904 H   0  0  0  0  0  0  0  0  0  0  0  0
  146.4216  135.9217  158.5308 H   0  0  0  0  0  0  0  0  0  0  0  0
  147.6801  134.0228  163.8223 H   0  0  0  0  0  0  0  0  0  0  0  0
  147.3114  136.3911  163.7163 H   0  0  0  0  0  0  0  0  0  0  0  0
  1  2  1  0  0  0  0
  1 23  1  0  0  0  0
  1 24  1  0  0  0  0
  1 25  1  0  0  0  0
  2  7  1  0  0  0  0
  2  3  1  0  0  0  0
  2 26  1  0  0  0  0
  3  4  1  0  0  0  0
  3 27  1  0  0  0  0
  3 28  1  0  0  0  0
  4  5  1  0  0  0  0
  4 29  1  0  0  0  0
  4 30  1  0  0  0  0
  5  6  1  0  0  0  0
  5 31  1  0  0  0  0
  5 32  1  0  0  0  0
  6  7  1  0  0  0  0
  6 33  1  0  0  0  0
  6 34  1  0  0  0  0
  7  8  1  0  0  0  0
  7 35  1  0  0  0  0
  8  9  1  0  0  0  0
  9 10  1  0  0  0  0
  9 36  1  0  0  0  0
  9 37  1  0  0  0  0
 10 11  1  0  0  0  0
 10 38  1  0  0  0  0
 10 39  1  0  0  0  0
 11 12  1  0  0  0  0
 11 40  1  0  0  0  0
 12 13  2  0  0  0  0
 12 14  1  0  0  0  0
 14 41  1  0  0  0  0
 14 42  1  0  0  0  0
 14 15  1  0  0  0  0
 15 16  1  0  0  0  0
 15 21  1  0  0  0  0
 16 17  1  0  0  0  0
 17 18  2  0  0  0  0
 17 19  1  0  0  0  0
 19 43  1  0  0  0  0
 19 20  2  0  0  0  0
 20 44  1  0  0  0  0
 20 21  1  0  0  0  0
 21 22  2  0  0  0  0
M  CHG  1  16  -1
M  END
> <s_m_source_file>
AV-unprocessed.smi

> <i_m_source_file_index>
670

> <i_lp_mmshare_version>
43012

> <i_f3d_flags>
0

> <s_epik_input>
W0NIM11bQ0BASF0xW0NIMl1bQ0gyXVtDSDJdW0NIMl1bQ0BIXTFPW0NIMl1bQ0gyXVtOSF1DKD1PKVtDSDJdbjJbbkhdYyg9TylbY0hdW2NIXWMyPU8=

> <s_epik_cmdline>
J2VwaWtfcHl0aG9uJywgJy1waCcsICc3LjAnLCAnLXRuJywgJzgnLCAnLW1hJywgJzIwMCcsICctbWV0YWxfYmluZGluZycsICctaW1hZScsICc8aW5maWxlLm1hZT4nLCAnLW9tYWUnLCAnPG91dGZpbGUubWFlPic=

> <r_lp_tautomer_probability>
1

> <r_epik_Ionization_Penalty>
0.0975638

> <r_epik_Ionization_Penalty_Charging>
0.0975637

> <r_epik_Ionization_Penalty_Neutral>
2.78599e-08

> <r_epik_State_Penalty>
0.0343507

> <r_epik_Charging_Adjusted_Penalty>
0.131914

> <i_epik_Tot_Q>
-1

> <i_epik_Tot_abs_Q>
1

> <r_epik_Metal_State_Penalty>
0.0343507

> <b_epik_Metal_Only>
0

> <s_lp_Force_Field>
OPLS_2005

> <r_lp_Energy>
24.4617

> <b_lp_Chiralities_Consistent>
1

> <s_lp_Variant>
AV-unprocessed.smi:670-2

> <Gold.Version>
5.8.1

> <Gold.Id.Protein>
6NUR|6NUR_protein|mol2

> <Gold.PLP.Fitness>
45.7796

> <Gold.PLP.PLP>
-38.8390

> <Gold.PLP.part.hbond>
-2.9510

> <Gold.PLP.part.metal>
0.0000

> <Gold.PLP.part.buried>
-2.1670

> <Gold.PLP.part.nonpolar>
-33.6091

> <Gold.PLP.part.repulsive>
0.1022

> <Gold.PLP.ligand.clash>
0.0000

> <Gold.PLP.ligand.torsion>
0.6264

> <Gold.PLP.Chemscore.Hbond>
2.7120

> <Gold.PLP.Chemscore.CHOScore>
0.0000

> <Gold.PLP.Chemscore.Metal>
0.0000

> <Gold.Chemscore.Hbonds>
donor molecule, donor type, donor heavy atom, donor atom, acceptor molecule, acceptor atom, score
      P1  H  6896  6908       L1    13  1.00
      P1  H  6931  6943       L1    22  0.36
      P1  H  6934  6947       L1    22  0.59

> <Gold.PLP.Chemscore.Internal.Correction>
0.0574

> <Gold.Rescore>
     Score         DG    S(hbond)    S(metal)    S(lipo)     H(rot)  DE(clash)    DE(int)     intcor
     12.95     -14.91       2.00        0.00      77.12       2.45       0.03       1.94       ----

> <Gold.Chemscore.Fitness>
12.9462

> <Gold.Chemscore.DG>
-14.9109

> <Gold.Chemscore.ZeroCoef>
-5.4800

> <Gold.Chemscore.Hbond>
1.9992

> <Gold.Chemscore.Metal>
0.0000

> <Gold.Chemscore.Lipo>
77.1199

> <Gold.Chemscore.Internal_Hbond>
0.0000

> <Gold.Chemscore.DEClash>
0.0275

> <Gold.Chemscore.DEInternal>
1.9372

> <Gold.Chemscore.Rot>
2.4490

> <Gold.Chemscore.Internal.Correction>
   9.000000E+99

> <Gold.Chemscore.Hbonds>
donor molecule, donor type, donor heavy atom, donor atom, acceptor molecule, acceptor atom, score
      P1  H  6896  6908       L1    13  1.00
      P1  H  6931  6943       L1    22  0.04
      P1  H  6934  6947       L1    22  0.58

> <Gold.Chemscore.Hbond.Weighted>
-6.6772

> <Gold.Chemscore.Metal.Weighted>
-0.0000

> <Gold.Chemscore.Lipo.Weighted>
-9.0230

> <Gold.Chemscore.Internal_Hbond.Weighted>
0.0000

> <Gold.Chemscore.DEClash.Weighted>
0.0275

> <Gold.Chemscore.DEInternal.Weighted>
1.9372

> <Gold.Chemscore.Rot.Weighted>
6.2694

> <Gold.Chemscore.Internal.Correction.Weighted>
   9.000000E+99

> <Gold.Protein.RotatedTorsions>
[ 6907 6896 6895 6894 ] final  173.10 input  -60.11 | X-H torsion
[ 7974 7965 7964 7962 ] final -100.40 input  175.53 | X-H torsion
[ 8008 7997 7996 7995 ] final   22.48 input   59.86 | X-H torsion
[ 10167 10162 10161 10158 ] final -138.06 input  -65.29 | X-H torsion
[ 10718 10713 10712 10709 ] final  164.63 input   66.30 | X-H torsion
[ 10763 10752 10751 10750 ] final  124.64 input  -60.55 | X-H torsion
[ 11005 11000 10999 10996 ] final   19.89 input  -57.11 | X-H torsion

> <Gold.Protein.ActiveResidues>
 VAL166  LYS551  ARG553  GLY616  TRP617  ASP618  TYR619  PRO620  LYS621  CYS622 
 ASP623  PHE694  ASN695  SER759  ASP760  ASP761  ALA762  ILE779  LEU786  VAL792 
 PHE793  MET794  SER795  GLU796  ALA797  LYS798  CYS799  TRP800  GLU811  SER814 

> <Gold.Protein.RotatedAtoms>
  151.7738  133.3343  159.3451 H   0  0  0  0  0  0  0  0  0  0  0  0  # atno 6907 bound_to 6896
  150.7452  134.5994  159.6038 H   0  0  0  0  0  0  0  0  0  0  0  0  # atno 6908 bound_to 6896
  152.3323  134.7245  160.0337 H   0  0  0  0  0  0  0  0  0  0  0  0  # atno 6909 bound_to 6896
  145.2950  140.9362  143.2856 H   0  0  0  0  0  0  0  0  0  0  0  0  # atno 7974 bound_to 7965
  154.9664  140.3084  155.5007 H   0  0  0  0  0  0  0  0  0  0  0  0  # atno 8008 bound_to 7997
  156.2971  140.2292  156.4692 H   0  0  0  0  0  0  0  0  0  0  0  0  # atno 8009 bound_to 7997
  154.7917  140.0439  157.1194 H   0  0  0  0  0  0  0  0  0  0  0  0  # atno 8010 bound_to 7997
  139.8516  143.7191  152.2657 H   0  0  0  0  0  0  0  0  0  0  0  0  # atno 10167 bound_to 10162
  157.0916  131.0419  151.2535 H   0  0  0  0  0  0  0  0  0  0  0  0  # atno 10718 bound_to 10713
  153.6645  135.3340  155.3136 H   0  0  0  0  0  0  0  0  0  0  0  0  # atno 10763 bound_to 10752
  154.8506  135.4371  154.1769 H   0  0  0  0  0  0  0  0  0  0  0  0  # atno 10764 bound_to 10752
  153.2745  135.7003  153.7523 H   0  0  0  0  0  0  0  0  0  0  0  0  # atno 10765 bound_to 10752
  140.4087  134.1641  155.7666 H   0  0  0  0  0  0  0  0  0  0  0  0  # atno 11005 bound_to 11000
  144.9141  139.4492  143.6573 LP  0  0  0  0  0  0  0  0  0  0  0  0  # atno 17320 bound_to 7965
  146.3172  139.7965  142.8974 LP  0  0  0  0  0  0  0  0  0  0  0  0  # atno 17321 bound_to 7965
  139.7460  144.7547  151.0579 LP  0  0  0  0  0  0  0  0  0  0  0  0  # atno 17342 bound_to 10162
  140.7787  143.4916  150.9886 LP  0  0  0  0  0  0  0  0  0  0  0  0  # atno 17343 bound_to 10162
  157.4716  130.7712  149.7329 LP  0  0  0  0  0  0  0  0  0  0  0  0  # atno 17370 bound_to 10713
  155.9896  130.3950  150.3063 LP  0  0  0  0  0  0  0  0  0  0  0  0  # atno 17371 bound_to 10713
  141.1829  133.8375  157.1192 LP  0  0  0  0  0  0  0  0  0  0  0  0  # atno 17394 bound_to 11000
  140.0283  134.9913  157.0730 LP  0  0  0  0  0  0  0  0  0  0  0  0  # atno 17395 bound_to 11000

$$$$
