AV-unprocessed.smi:3181|AV-procd|sdf|12135|dock2
  -GOLD-   2272017573D 1   1.00000     0.00000
 Structure written by MMmdl.
 42 43  0  0  0  0  0  0  0  0  2 V2000
  148.0508  131.6944  153.9770 C   0  0  0  0  0  0  0  0  0  0  0  0
  148.6653  132.8612  153.1864 C   0  0  2  0  0  0  0  0  0  0  0  0
  149.8334  133.5413  153.9291 C   0  0  0  0  0  0  0  0  0  0  0  0
  149.6201  133.6277  155.3621 N   0  0  0  0  0  0  0  0  0  0  0  0
  150.3451  133.1600  156.3799 C   0  0  0  0  0  0  0  0  0  0  0  0
  149.8290  133.4275  157.5711 N   0  0  0  0  0  0  0  0  0  0  0  0
  148.7044  134.1020  157.1873 C   0  0  0  0  0  0  0  0  0  0  0  0
  148.5312  134.2479  155.8733 N   0  0  0  0  0  0  0  0  0  0  0  0
  147.6191  133.8632  152.8802 N   0  3  0  0  0  0  0  0  0  0  0  0
  146.4466  133.3603  152.1302 C   0  0  2  0  0  0  0  0  0  0  0  0
  146.9154  132.5449  150.9123 C   0  0  0  0  0  0  0  0  0  0  0  0
  145.7294  132.0421  150.0739 C   0  0  0  0  0  0  0  0  0  0  0  0
  144.8206  133.2046  149.6289 C   0  0  1  0  0  0  0  0  0  0  0  0
  143.6799  132.7226  148.7178 C   0  0  0  0  0  0  0  0  0  0  0  0
  144.3302  134.0405  150.8388 C   0  0  1  0  0  0  0  0  0  0  0  0
  143.2774  133.3297  151.7133 C   0  0  0  0  0  0  0  0  0  0  0  0
  145.5341  134.5219  151.6759 C   0  0  0  0  0  0  0  0  0  0  0  0
  148.7780  130.9008  154.1503 H   0  0  0  0  0  0  0  0  0  0  0  0
  147.2152  131.2515  153.4340 H   0  0  0  0  0  0  0  0  0  0  0  0
  147.6795  132.0241  154.9478 H   0  0  0  0  0  0  0  0  0  0  0  0
  149.0562  132.4529  152.2533 H   0  0  0  0  0  0  0  0  0  0  0  0
  150.7611  132.9935  153.7570 H   0  0  0  0  0  0  0  0  0  0  0  0
  149.9907  134.5502  153.5450 H   0  0  0  0  0  0  0  0  0  0  0  0
  151.2694  132.6166  156.2485 H   0  0  0  0  0  0  0  0  0  0  0  0
  147.9921  134.4966  157.8970 H   0  0  0  0  0  0  0  0  0  0  0  0
  147.2944  134.2723  153.7446 H   0  0  0  0  0  0  0  0  0  0  0  0
  145.8916  132.6903  152.7888 H   0  0  0  0  0  0  0  0  0  0  0  0
  147.5646  133.1575  150.2846 H   0  0  0  0  0  0  0  0  0  0  0  0
  147.5163  131.6955  151.2390 H   0  0  0  0  0  0  0  0  0  0  0  0
  146.1068  131.5123  149.1986 H   0  0  0  0  0  0  0  0  0  0  0  0
  145.1560  131.3116  150.6456 H   0  0  0  0  0  0  0  0  0  0  0  0
  145.4344  133.8692  149.0185 H   0  0  0  0  0  0  0  0  0  0  0  0
  143.0530  131.9803  149.2119 H   0  0  0  0  0  0  0  0  0  0  0  0
  144.0743  132.2627  147.8114 H   0  0  0  0  0  0  0  0  0  0  0  0
  143.0422  133.5526  148.4125 H   0  0  0  0  0  0  0  0  0  0  0  0
  143.8443  134.9332  150.4422 H   0  0  0  0  0  0  0  0  0  0  0  0
  143.6413  132.3830  152.1111 H   0  0  0  0  0  0  0  0  0  0  0  0
  142.3659  133.1234  151.1525 H   0  0  0  0  0  0  0  0  0  0  0  0
  142.9911  133.9527  152.5609 H   0  0  0  0  0  0  0  0  0  0  0  0
  145.1753  135.0905  152.5342 H   0  0  0  0  0  0  0  0  0  0  0  0
  146.1202  135.2235  151.0800 H   0  0  0  0  0  0  0  0  0  0  0  0
  148.0509  134.5909  152.3288 H   0  0  0  0  0  0  0  0  0  0  0  0
  1  2  1  0  0  0  0
  1 18  1  0  0  0  0
  1 19  1  0  0  0  0
  1 20  1  0  0  0  0
  2  3  1  0  0  0  0
  2  9  1  0  0  0  0
  2 21  1  0  0  0  0
  3  4  1  0  0  0  0
  3 22  1  0  0  0  0
  3 23  1  0  0  0  0
  4  8  1  0  0  0  0
  4  5  1  0  0  0  0
  5  6  2  0  0  0  0
  5 24  1  0  0  0  0
  6  7  1  0  0  0  0
  7  8  2  0  0  0  0
  7 25  1  0  0  0  0
  9 10  1  0  0  0  0
  9 26  1  0  0  0  0
  9 42  1  0  0  0  0
 10 17  1  0  0  0  0
 10 11  1  0  0  0  0
 10 27  1  0  0  0  0
 11 12  1  0  0  0  0
 11 28  1  0  0  0  0
 11 29  1  0  0  0  0
 12 13  1  0  0  0  0
 12 30  1  0  0  0  0
 12 31  1  0  0  0  0
 13 14  1  0  0  0  0
 13 15  1  0  0  0  0
 13 32  1  0  0  0  0
 14 33  1  0  0  0  0
 14 34  1  0  0  0  0
 14 35  1  0  0  0  0
 15 16  1  0  0  0  0
 15 17  1  0  0  0  0
 15 36  1  0  0  0  0
 16 37  1  0  0  0  0
 16 38  1  0  0  0  0
 16 39  1  0  0  0  0
 17 40  1  0  0  0  0
 17 41  1  0  0  0  0
M  CHG  1   9   1
M  END
> <s_m_source_file>
AV-unprocessed.smi

> <i_m_source_file_index>
3181

> <i_lp_mmshare_version>
43012

> <i_f3d_flags>
0

> <s_epik_input>
bjFbY0hdbltjSF1uMVtDSDJdW0NAQEhdKFtDSDNdKVtOSF1bQ0BASF0yW0NIMl1bQ0gyXVtDQEBIXShbQ0gzXSlbQ0BASF0oW0NIM10pW0NIMl0y

> <s_epik_cmdline>
J2VwaWtfcHl0aG9uJywgJy1waCcsICc3LjAnLCAnLXRuJywgJzgnLCAnLW1hJywgJzIwMCcsICctbWV0YWxfYmluZGluZycsICctaW1hZScsICc8aW5maWxlLm1hZT4nLCAnLW9tYWUnLCAnPG91dGZpbGUubWFlPic=

> <r_lp_tautomer_probability>
1

> <r_epik_Ionization_Penalty>
0.000617007

> <r_epik_Ionization_Penalty_Charging>
0.000616215

> <r_epik_Ionization_Penalty_Neutral>
7.92544e-07

> <r_epik_State_Penalty>
0.000388807

> <r_epik_Charging_Adjusted_Penalty>
0.00100502

> <i_epik_Tot_Q>
1

> <i_epik_Tot_abs_Q>
1

> <r_epik_Metal_State_Penalty>
-0

> <b_epik_Metal_Only>
0

> <s_lp_Force_Field>
OPLS_2005

> <r_lp_Energy>
21.1585

> <b_lp_Chiralities_Consistent>
1

> <s_lp_Variant>
AV-unprocessed.smi:3181-1

> <Gold.Version>
5.8.1

> <Gold.Id.Protein>
6NUR|6NUR_protein|mol2

> <Gold.PLP.Fitness>
39.2748

> <Gold.PLP.PLP>
-30.8810

> <Gold.PLP.part.hbond>
-2.0000

> <Gold.PLP.part.metal>
0.0000

> <Gold.PLP.part.buried>
0.7273

> <Gold.PLP.part.nonpolar>
-29.2686

> <Gold.PLP.part.repulsive>
0.0245

> <Gold.PLP.ligand.clash>
0.0000

> <Gold.PLP.ligand.torsion>
0.3171

> <Gold.PLP.Chemscore.Hbond>
3.0000

> <Gold.PLP.Chemscore.CHOScore>
0.0000

> <Gold.PLP.Chemscore.Metal>
0.0000

> <Gold.Chemscore.Hbonds>
donor molecule, donor type, donor heavy atom, donor atom, acceptor molecule, acceptor atom, score
      L1  H     9    42       P1  7948  2.00
      P1  H  6896  6908       L1     6  1.00

> <Gold.PLP.Chemscore.Internal.Correction>
0.0280

> <Gold.Rescore>
     Score         DG    S(hbond)    S(metal)    S(lipo)     H(rot)  DE(clash)    DE(int)     intcor
     14.43     -15.62       1.80        0.00      81.40       2.11       0.92       0.28       ----

> <Gold.Chemscore.Fitness>
14.4250

> <Gold.Chemscore.DG>
-15.6169

> <Gold.Chemscore.ZeroCoef>
-5.4800

> <Gold.Chemscore.Hbond>
1.8004

> <Gold.Chemscore.Metal>
0.0000

> <Gold.Chemscore.Lipo>
81.4001

> <Gold.Chemscore.Internal_Hbond>
0.0000

> <Gold.Chemscore.DEClash>
0.9166

> <Gold.Chemscore.DEInternal>
0.2753

> <Gold.Chemscore.Rot>
2.1095

> <Gold.Chemscore.Internal.Correction>
   9.000000E+99

> <Gold.Chemscore.Hbonds>
donor molecule, donor type, donor heavy atom, donor atom, acceptor molecule, acceptor atom, score
      L1  H     9    42       P1  7948  0.35
      P1  H  6896  6908       L1     6  0.97

> <Gold.Chemscore.Hbond.Weighted>
-6.0134

> <Gold.Chemscore.Metal.Weighted>
-0.0000

> <Gold.Chemscore.Lipo.Weighted>
-9.5238

> <Gold.Chemscore.Internal_Hbond.Weighted>
0.0000

> <Gold.Chemscore.DEClash.Weighted>
0.9166

> <Gold.Chemscore.DEInternal.Weighted>
0.2753

> <Gold.Chemscore.Rot.Weighted>
5.4003

> <Gold.Chemscore.Internal.Correction.Weighted>
   9.000000E+99

> <Gold.Protein.RotatedTorsions>
[ 6907 6896 6895 6894 ] final  111.78 input  -60.11 | X-H torsion
[ 7974 7965 7964 7962 ] final  -89.24 input  175.53 | X-H torsion
[ 8008 7997 7996 7995 ] final  124.74 input   59.86 | X-H torsion
[ 10167 10162 10161 10158 ] final   37.62 input  -65.29 | X-H torsion
[ 10718 10713 10712 10709 ] final  120.51 input   66.30 | X-H torsion
[ 10763 10752 10751 10750 ] final -144.55 input  -60.55 | X-H torsion
[ 11005 11000 10999 10996 ] final  128.28 input  -57.11 | X-H torsion

> <Gold.Protein.ActiveResidues>
 VAL166  LYS551  ARG553  GLY616  TRP617  ASP618  TYR619  PRO620  LYS621  CYS622 
 ASP623  PHE694  ASN695  SER759  ASP760  ASP761  ALA762  ILE779  LEU786  VAL792 
 PHE793  MET794  SER795  GLU796  ALA797  LYS798  CYS799  TRP800  GLU811  SER814 

> <Gold.Protein.RotatedAtoms>
  152.4952  133.8610  159.7249 H   0  0  0  0  0  0  0  0  0  0  0  0  # atno 6907 bound_to 6896
  150.9121  133.6975  159.2859 H   0  0  0  0  0  0  0  0  0  0  0  0  # atno 6908 bound_to 6896
  151.4381  135.1021  159.9714 H   0  0  0  0  0  0  0  0  0  0  0  0  # atno 6909 bound_to 6896
  145.4424  140.9559  143.2068 H   0  0  0  0  0  0  0  0  0  0  0  0  # atno 7974 bound_to 7965
  156.2811  140.2733  156.1836 H   0  0  0  0  0  0  0  0  0  0  0  0  # atno 8008 bound_to 7997
  155.0531  140.0386  157.2568 H   0  0  0  0  0  0  0  0  0  0  0  0  # atno 8009 bound_to 7997
  154.7179  140.2682  155.6574 H   0  0  0  0  0  0  0  0  0  0  0  0  # atno 8010 bound_to 7997
  140.4015  144.1717  150.6134 H   0  0  0  0  0  0  0  0  0  0  0  0  # atno 10167 bound_to 10162
  157.5886  131.1067  150.8045 H   0  0  0  0  0  0  0  0  0  0  0  0  # atno 10718 bound_to 10713
  154.8423  135.3437  154.6363 H   0  0  0  0  0  0  0  0  0  0  0  0  # atno 10763 bound_to 10752
  153.6974  135.6971  153.5077 H   0  0  0  0  0  0  0  0  0  0  0  0  # atno 10764 bound_to 10752
  153.2549  135.4341  155.0790 H   0  0  0  0  0  0  0  0  0  0  0  0  # atno 10765 bound_to 10752
  139.9552  134.9614  156.8979 H   0  0  0  0  0  0  0  0  0  0  0  0  # atno 11005 bound_to 11000
  144.8113  139.5957  143.7028 LP  0  0  0  0  0  0  0  0  0  0  0  0  # atno 17320 bound_to 7965
  146.2549  139.6280  142.9402 LP  0  0  0  0  0  0  0  0  0  0  0  0  # atno 17321 bound_to 7965
  140.4735  143.2404  151.9056 LP  0  0  0  0  0  0  0  0  0  0  0  0  # atno 17342 bound_to 10162
  139.4784  144.5345  151.8618 LP  0  0  0  0  0  0  0  0  0  0  0  0  # atno 17343 bound_to 10162
  156.8472  130.5068  149.5315 LP  0  0  0  0  0  0  0  0  0  0  0  0  # atno 17370 bound_to 10713
  156.0937  130.5916  150.9778 LP  0  0  0  0  0  0  0  0  0  0  0  0  # atno 17371 bound_to 10713
  140.5625  134.0521  155.7403 LP  0  0  0  0  0  0  0  0  0  0  0  0  # atno 17394 bound_to 11000
  141.1222  133.9442  157.2706 LP  0  0  0  0  0  0  0  0  0  0  0  0  # atno 17395 bound_to 11000

$$$$
