AV-unprocessed.smi:2171|AV-procd|sdf|8829|dock3
  -GOLD-   2272012 23D 1   1.00000     0.00000
 Structure written by MMmdl.
 39 41  0  0  0  0  0  0  0  0  2 V2000
  151.3608  140.8213  155.5345 O   0  0  0  0  0  0  0  0  0  0  0  0
  150.3332  141.1128  156.1452 C   0  0  0  0  0  0  0  0  0  0  0  0
  149.0727  140.2614  155.9748 C   0  0  0  0  0  0  0  0  0  0  0  0
  148.1120  140.9069  155.0946 N   0  0  0  0  0  0  0  0  0  0  0  0
  147.6335  142.1999  155.1496 C   0  0  0  0  0  0  0  0  0  0  0  0
  146.7391  142.3465  154.1283 C   0  0  0  0  0  0  0  0  0  0  0  0
  146.7408  141.0739  153.4913 C   0  0  0  0  0  0  0  0  0  0  0  0
  147.5632  140.2148  154.0713 N   0  0  0  0  0  0  0  0  0  0  0  0
  150.2484  142.1475  156.9971 N   0  0  0  0  0  0  0  0  0  0  0  0
  151.3603  143.0055  157.3982 C   0  0  1  0  0  0  0  0  0  0  0  0
  150.8979  144.3193  158.0570 C   0  0  0  0  0  0  0  0  0  0  0  0
  151.8581  144.5233  159.2334 C   0  0  0  0  0  0  0  0  0  0  0  0
  152.1534  143.1499  159.6575 N   0  3  2  0  0  0  0  0  0  0  0  0
  153.2459  142.9287  160.6262 C   0  0  0  0  0  0  0  0  0  0  0  0
  153.2299  141.4436  161.0484 C   0  0  0  0  0  0  0  0  0  0  0  0
  153.2507  140.4890  159.8329 C   0  0  0  0  0  0  0  0  0  0  0  0
  152.1676  140.8561  158.7959 C   0  0  0  0  0  0  0  0  0  0  0  0
  152.3053  142.3465  158.4323 C   0  0  1  0  0  0  0  0  0  0  0  0
  149.3404  139.2887  155.5606 H   0  0  0  0  0  0  0  0  0  0  0  0
  148.6023  140.0827  156.9431 H   0  0  0  0  0  0  0  0  0  0  0  0
  147.9633  142.8991  155.9040 H   0  0  0  0  0  0  0  0  0  0  0  0
  146.1719  143.2293  153.8729 H   0  0  0  0  0  0  0  0  0  0  0  0
  146.1729  140.7506  152.6312 H   0  0  0  0  0  0  0  0  0  0  0  0
  149.3585  142.3149  157.4442 H   0  0  0  0  0  0  0  0  0  0  0  0
  151.9464  143.2638  156.5138 H   0  0  0  0  0  0  0  0  0  0  0  0
  150.9039  145.1616  157.3643 H   0  0  0  0  0  0  0  0  0  0  0  0
  149.8808  144.2152  158.4385 H   0  0  0  0  0  0  0  0  0  0  0  0
  152.7753  145.0123  158.9012 H   0  0  0  0  0  0  0  0  0  0  0  0
  151.4201  145.1144  160.0381 H   0  0  0  0  0  0  0  0  0  0  0  0
  154.2048  143.1973  160.1806 H   0  0  0  0  0  0  0  0  0  0  0  0
  153.1017  143.5688  161.4972 H   0  0  0  0  0  0  0  0  0  0  0  0
  154.0747  141.2320  161.7044 H   0  0  0  0  0  0  0  0  0  0  0  0
  152.3311  141.2494  161.6355 H   0  0  0  0  0  0  0  0  0  0  0  0
  154.2319  140.5355  159.3586 H   0  0  0  0  0  0  0  0  0  0  0  0
  153.1189  139.4582  160.1630 H   0  0  0  0  0  0  0  0  0  0  0  0
  152.2820  140.2314  157.9097 H   0  0  0  0  0  0  0  0  0  0  0  0
  151.1759  140.6520  159.2029 H   0  0  0  0  0  0  0  0  0  0  0  0
  153.3201  142.5057  158.0610 H   0  0  0  0  0  0  0  0  0  0  0  0
  151.3084  142.8203  160.1019 H   0  0  0  0  0  0  0  0  0  0  0  0
  1  2  2  0  0  0  0
  2  3  1  0  0  0  0
  2  9  1  0  0  0  0
  3  4  1  0  0  0  0
  3 19  1  0  0  0  0
  3 20  1  0  0  0  0
  4  8  1  0  0  0  0
  4  5  1  0  0  0  0
  5  6  2  0  0  0  0
  5 21  1  0  0  0  0
  6  7  1  0  0  0  0
  6 22  1  0  0  0  0
  7  8  2  0  0  0  0
  7 23  1  0  0  0  0
  9 10  1  0  0  0  0
  9 24  1  0  0  0  0
 10 18  1  0  0  0  0
 10 11  1  0  0  0  0
 10 25  1  0  0  0  0
 11 12  1  0  0  0  0
 11 26  1  0  0  0  0
 11 27  1  0  0  0  0
 12 13  1  0  0  0  0
 12 28  1  0  0  0  0
 12 29  1  0  0  0  0
 13 18  1  0  0  0  0
 13 14  1  0  0  0  0
 13 39  1  0  0  0  0
 14 15  1  0  0  0  0
 14 30  1  0  0  0  0
 14 31  1  0  0  0  0
 15 16  1  0  0  0  0
 15 32  1  0  0  0  0
 15 33  1  0  0  0  0
 16 17  1  0  0  0  0
 16 34  1  0  0  0  0
 16 35  1  0  0  0  0
 17 18  1  0  0  0  0
 17 36  1  0  0  0  0
 17 37  1  0  0  0  0
 18 38  1  0  0  0  0
M  CHG  1  13   1
M  END
> <s_m_source_file>
AV-unprocessed.smi

> <i_m_source_file_index>
2171

> <i_lp_mmshare_version>
43012

> <i_f3d_flags>
0

> <s_epik_input>
bjFbY0hdW2NIXVtjSF1uMVtDSDJdQyg9TylbTkhdW0NASF0oW0NIMl1bQ0gyXTIpW0NAQEhdKE4yMylbQ0gyXVtDSDJdW0NIMl1bQ0gyXTM=

> <s_epik_cmdline>
J2VwaWtfcHl0aG9uJywgJy1waCcsICc3LjAnLCAnLXRuJywgJzgnLCAnLW1hJywgJzIwMCcsICctbWV0YWxfYmluZGluZycsICctaW1hZScsICc8aW5maWxlLm1hZT4nLCAnLW9tYWUnLCAnPG91dGZpbGUubWFlPic=

> <r_lp_tautomer_probability>
1

> <r_epik_Ionization_Penalty>
0.00204179

> <r_epik_Ionization_Penalty_Charging>
0.00203239

> <r_epik_Ionization_Penalty_Neutral>
9.40205e-06

> <r_epik_State_Penalty>
0.00138983

> <r_epik_Charging_Adjusted_Penalty>
0.00342221

> <i_epik_Tot_Q>
1

> <i_epik_Tot_abs_Q>
1

> <r_epik_Metal_State_Penalty>
-0

> <b_epik_Metal_Only>
0

> <s_lp_Force_Field>
OPLS_2005

> <r_lp_Energy>
40.8782

> <b_lp_Chiralities_Consistent>
1

> <s_lp_Variant>
AV-unprocessed.smi:2171-4

> <Gold.Version>
5.8.1

> <Gold.Id.Protein>
6NUR|6NUR_protein|mol2

> <Gold.PLP.Fitness>
40.3692

> <Gold.PLP.PLP>
-33.6523

> <Gold.PLP.part.hbond>
-1.4010

> <Gold.PLP.part.metal>
0.0000

> <Gold.PLP.part.buried>
-2.0896

> <Gold.PLP.part.nonpolar>
-31.0237

> <Gold.PLP.part.repulsive>
0.2307

> <Gold.PLP.ligand.clash>
0.0000

> <Gold.PLP.ligand.torsion>
0.5542

> <Gold.PLP.Chemscore.Hbond>
0.6903

> <Gold.PLP.Chemscore.CHOScore>
1.9167

> <Gold.PLP.Chemscore.Metal>
0.0000

> <Gold.Chemscore.Hbonds>
donor molecule, donor type, donor heavy atom, donor atom, acceptor molecule, acceptor atom, score
      P1  H  7989  7998       L1     1  0.69
      L1  C     5    21       P1  8028  0.97
      L1  C     7    23       P1 10175  0.95

> <Gold.PLP.Chemscore.Internal.Correction>
0.0043

> <Gold.Rescore>
     Score         DG    S(hbond)    S(metal)    S(lipo)     H(rot)  DE(clash)    DE(int)     intcor
     15.76     -16.71       0.70        0.00     107.59       1.44       0.29       0.66       ----

> <Gold.Chemscore.Fitness>
15.7551

> <Gold.Chemscore.DG>
-16.7083

> <Gold.Chemscore.ZeroCoef>
-5.4800

> <Gold.Chemscore.Hbond>
0.6973

> <Gold.Chemscore.Metal>
0.0000

> <Gold.Chemscore.Lipo>
107.5935

> <Gold.Chemscore.Internal_Hbond>
0.0000

> <Gold.Chemscore.DEClash>
0.2918

> <Gold.Chemscore.DEInternal>
0.6614

> <Gold.Chemscore.Rot>
1.4410

> <Gold.Chemscore.Internal.Correction>
   9.000000E+99

> <Gold.Chemscore.Hbonds>
donor molecule, donor type, donor heavy atom, donor atom, acceptor molecule, acceptor atom, score
      P1  H  7989  7998       L1     1  0.64

> <Gold.Chemscore.Hbond.Weighted>
-2.3288

> <Gold.Chemscore.Metal.Weighted>
-0.0000

> <Gold.Chemscore.Lipo.Weighted>
-12.5884

> <Gold.Chemscore.Internal_Hbond.Weighted>
0.0000

> <Gold.Chemscore.DEClash.Weighted>
0.2918

> <Gold.Chemscore.DEInternal.Weighted>
0.6614

> <Gold.Chemscore.Rot.Weighted>
3.6889

> <Gold.Chemscore.Internal.Correction.Weighted>
   9.000000E+99

> <Gold.Protein.RotatedTorsions>
[ 6907 6896 6895 6894 ] final  -51.52 input  -60.11 | X-H torsion
[ 7974 7965 7964 7962 ] final  -78.87 input  175.53 | X-H torsion
[ 8008 7997 7996 7995 ] final   66.76 input   59.86 | X-H torsion
[ 10167 10162 10161 10158 ] final  104.61 input  -65.29 | X-H torsion
[ 10718 10713 10712 10709 ] final  -22.53 input   66.30 | X-H torsion
[ 10763 10752 10751 10750 ] final   90.27 input  -60.55 | X-H torsion
[ 11005 11000 10999 10996 ] final  154.24 input  -57.11 | X-H torsion

> <Gold.Protein.ActiveResidues>
 VAL166  LYS551  ARG553  GLY616  TRP617  ASP618  TYR619  PRO620  LYS621  CYS622 
 ASP623  PHE694  ASN695  SER759  ASP760  ASP761  ALA762  ILE779  LEU786  VAL792 
 PHE793  MET794  SER795  GLU796  ALA797  LYS798  CYS799  TRP800  GLU811  SER814 

> <Gold.Protein.RotatedAtoms>
  150.8603  134.7954  159.7077 H   0  0  0  0  0  0  0  0  0  0  0  0  # atno 6907 bound_to 6896
  152.4642  134.5110  159.9763 H   0  0  0  0  0  0  0  0  0  0  0  0  # atno 6908 bound_to 6896
  151.5215  133.3427  159.2938 H   0  0  0  0  0  0  0  0  0  0  0  0  # atno 6909 bound_to 6896
  145.5807  140.9449  143.1345 H   0  0  0  0  0  0  0  0  0  0  0  0  # atno 7974 bound_to 7965
  155.6824  140.3496  155.4860 H   0  0  0  0  0  0  0  0  0  0  0  0  # atno 8008 bound_to 7997
  155.9595  140.1134  157.0930 H   0  0  0  0  0  0  0  0  0  0  0  0  # atno 8009 bound_to 7997
  154.4140  140.1178  156.5147 H   0  0  0  0  0  0  0  0  0  0  0  0  # atno 8010 bound_to 7997
  139.7163  144.7067  151.0945 H   0  0  0  0  0  0  0  0  0  0  0  0  # atno 10167 bound_to 10162
  156.5033  130.4593  149.6688 H   0  0  0  0  0  0  0  0  0  0  0  0  # atno 10718 bound_to 10713
  153.1958  135.4440  155.0206 H   0  0  0  0  0  0  0  0  0  0  0  0  # atno 10763 bound_to 10752
  154.8118  135.3298  154.7287 H   0  0  0  0  0  0  0  0  0  0  0  0  # atno 10764 bound_to 10752
  153.7737  135.6983  153.4957 H   0  0  0  0  0  0  0  0  0  0  0  0  # atno 10765 bound_to 10752
  140.1471  134.8700  157.2406 H   0  0  0  0  0  0  0  0  0  0  0  0  # atno 11005 bound_to 11000
  144.7395  139.7489  143.7316 LP  0  0  0  0  0  0  0  0  0  0  0  0  # atno 17320 bound_to 7965
  146.1718  139.4872  142.9922 LP  0  0  0  0  0  0  0  0  0  0  0  0  # atno 17321 bound_to 7965
  140.7744  143.5226  150.9518 LP  0  0  0  0  0  0  0  0  0  0  0  0  # atno 17342 bound_to 10162
  139.8912  143.6951  152.3145 LP  0  0  0  0  0  0  0  0  0  0  0  0  # atno 17343 bound_to 10162
  156.3311  130.7332  151.2261 LP  0  0  0  0  0  0  0  0  0  0  0  0  # atno 17370 bound_to 10713
  157.7460  131.0429  150.4720 LP  0  0  0  0  0  0  0  0  0  0  0  0  # atno 17371 bound_to 10713
  140.2650  134.3526  155.7393 LP  0  0  0  0  0  0  0  0  0  0  0  0  # atno 17394 bound_to 11000
  141.2194  133.7391  156.9137 LP  0  0  0  0  0  0  0  0  0  0  0  0  # atno 17395 bound_to 11000

$$$$
