AV-unprocessed.smi:1434|AV-procd|sdf|5850|dock9
  -GOLD-   22720 5523D 1   1.00000     0.00000
 Structure written by MMmdl.
 44 45  0  0  0  0  0  0  0  0  1 V2000
  152.4762  144.2730  158.4309 C   0  0  0  0  0  0  0  0  0  0  0  0
  151.9465  142.9687  159.6115 S   0  0  0  0  0  0  0  0  0  0  0  0
  152.7985  143.0284  160.8085 O   0  0  0  0  0  0  0  0  0  0  0  0
  150.4826  143.0209  159.7451 O   0  0  0  0  0  0  0  0  0  0  0  0
  152.3404  141.5170  158.7690 N   0  0  0  0  0  0  0  0  0  0  0  0
  151.2474  140.6061  158.4329 C   0  0  1  0  0  0  0  0  0  0  0  0
  150.2449  141.2868  157.4771 C   0  0  0  0  0  0  0  0  0  0  0  0
  149.1696  140.2980  156.9813 C   0  0  0  0  0  0  0  0  0  0  0  0
  149.8063  138.9895  156.4739 C   0  0  0  0  0  0  0  0  0  0  0  0
  150.6540  138.4344  157.5417 N   0  0  0  0  0  0  0  0  0  0  0  0
  150.3375  137.4070  158.3682 C   0  0  0  0  0  0  0  0  0  0  0  0
  151.0796  137.0186  159.2712 O   0  0  0  0  0  0  0  0  0  0  0  0
  149.1034  136.9032  158.1872 N   0  0  0  0  0  0  0  0  0  0  0  0
  148.4297  135.9708  159.0893 C   0  0  0  0  0  0  0  0  0  0  0  0
  148.2392  136.5613  160.5028 C   0  0  0  0  0  0  0  0  0  0  0  0
  146.9028  136.2183  161.1435 C   0  0  0  0  0  0  0  0  0  0  0  0
  146.5926  134.8867  161.4957 C   0  0  0  0  0  0  0  0  0  0  0  0
  145.3245  134.6145  162.0440 C   0  0  0  0  0  0  0  0  0  0  0  0
  144.4190  135.6781  162.2178 C   0  0  0  0  0  0  0  0  0  0  0  0
  144.8278  136.9737  161.8440 C   0  0  0  0  0  0  0  0  0  0  0  0
  146.0436  137.2467  161.3226 N   0  0  0  0  0  0  0  0  0  0  0  0
  151.8000  139.3077  157.8157 C   0  0  0  0  0  0  0  0  0  0  0  0
  152.2678  145.2533  158.8588 H   0  0  0  0  0  0  0  0  0  0  0  0
  151.9288  144.1622  157.4951 H   0  0  0  0  0  0  0  0  0  0  0  0
  153.5453  144.1810  158.2409 H   0  0  0  0  0  0  0  0  0  0  0  0
  153.1047  141.0210  159.2267 H   0  0  0  0  0  0  0  0  0  0  0  0
  150.7261  140.3426  159.3538 H   0  0  0  0  0  0  0  0  0  0  0  0
  149.7717  142.1393  157.9662 H   0  0  0  0  0  0  0  0  0  0  0  0
  150.7817  141.6843  156.6146 H   0  0  0  0  0  0  0  0  0  0  0  0
  148.4806  140.0729  157.7957 H   0  0  0  0  0  0  0  0  0  0  0  0
  148.5742  140.7583  156.1925 H   0  0  0  0  0  0  0  0  0  0  0  0
  149.0378  138.2973  156.1288 H   0  0  0  0  0  0  0  0  0  0  0  0
  150.4226  139.1938  155.5972 H   0  0  0  0  0  0  0  0  0  0  0  0
  148.5536  137.2746  157.4264 H   0  0  0  0  0  0  0  0  0  0  0  0
  147.4589  135.7182  158.6633 H   0  0  0  0  0  0  0  0  0  0  0  0
  148.9828  135.0324  159.1538 H   0  0  0  0  0  0  0  0  0  0  0  0
  149.0401  136.2052  161.1519 H   0  0  0  0  0  0  0  0  0  0  0  0
  148.3444  137.6462  160.4650 H   0  0  0  0  0  0  0  0  0  0  0  0
  147.3030  134.0888  161.3378 H   0  0  0  0  0  0  0  0  0  0  0  0
  145.0471  133.6065  162.3155 H   0  0  0  0  0  0  0  0  0  0  0  0
  143.4343  135.5048  162.6262 H   0  0  0  0  0  0  0  0  0  0  0  0
  144.1600  137.8134  161.9657 H   0  0  0  0  0  0  0  0  0  0  0  0
  152.3366  139.5181  156.8892 H   0  0  0  0  0  0  0  0  0  0  0  0
  152.5294  138.8492  158.4854 H   0  0  0  0  0  0  0  0  0  0  0  0
  1  2  1  0  0  0  0
  1 23  1  0  0  0  0
  1 24  1  0  0  0  0
  1 25  1  0  0  0  0
  2  3  2  0  0  0  0
  2  4  2  0  0  0  0
  2  5  1  0  0  0  0
  5  6  1  0  0  0  0
  5 26  1  0  0  0  0
  6 22  1  0  0  0  0
  6  7  1  0  0  0  0
  6 27  1  0  0  0  0
  7  8  1  0  0  0  0
  7 28  1  0  0  0  0
  7 29  1  0  0  0  0
  8  9  1  0  0  0  0
  8 30  1  0  0  0  0
  8 31  1  0  0  0  0
  9 10  1  0  0  0  0
  9 32  1  0  0  0  0
  9 33  1  0  0  0  0
 10 11  1  0  0  0  0
 10 22  1  0  0  0  0
 11 12  2  0  0  0  0
 11 13  1  0  0  0  0
 13 14  1  0  0  0  0
 13 34  1  0  0  0  0
 14 15  1  0  0  0  0
 14 35  1  0  0  0  0
 14 36  1  0  0  0  0
 15 16  1  0  0  0  0
 15 37  1  0  0  0  0
 15 38  1  0  0  0  0
 16 21  1  0  0  0  0
 16 17  2  0  0  0  0
 17 18  1  0  0  0  0
 17 39  1  0  0  0  0
 18 19  2  0  0  0  0
 18 40  1  0  0  0  0
 19 20  1  0  0  0  0
 19 41  1  0  0  0  0
 20 21  2  0  0  0  0
 20 42  1  0  0  0  0
 22 43  1  0  0  0  0
 22 44  1  0  0  0  0
M  END
> <s_m_source_file>
AV-unprocessed.smi

> <i_m_source_file_index>
1434

> <i_lp_mmshare_version>
43012

> <i_f3d_flags>
0

> <s_epik_input>
W0NIM11TKD1PKSg9TylbTkhdW0NAQEhdMVtDSDJdW0NIMl1bQ0gyXU4oW0NIMl0xKUMoPU8pW05IXVtDSDJdW0NIMl1jMltjSF1bY0hdW2NIXVtjSF1uMg==

> <s_epik_cmdline>
J2VwaWtfcHl0aG9uJywgJy1waCcsICc3LjAnLCAnLXRuJywgJzgnLCAnLW1hJywgJzIwMCcsICctbWV0YWxfYmluZGluZycsICctaW1hZScsICc8aW5maWxlLm1hZT4nLCAnLW9tYWUnLCAnPG91dGZpbGUubWFlPic=

> <r_epik_Ionization_Penalty>
0.0449488

> <r_epik_Ionization_Penalty_Charging>
0

> <r_epik_Ionization_Penalty_Neutral>
0.0449488

> <r_epik_State_Penalty>
0.0380669

> <r_epik_Charging_Adjusted_Penalty>
0.0380669

> <i_epik_Tot_Q>
0

> <i_epik_Tot_abs_Q>
0

> <r_epik_Metal_State_Penalty>
0.0441384

> <b_epik_Metal_Only>
0

> <s_lp_Force_Field>
OPLS_2005

> <r_lp_Energy>
20.2695

> <b_lp_Chiralities_Consistent>
1

> <s_lp_Variant>
AV-unprocessed.smi:1434-2

> <Gold.Version>
5.8.1

> <Gold.Id.Protein>
6NUR|6NUR_protein|mol2

> <Gold.PLP.Fitness>
41.7827

> <Gold.PLP.PLP>
-36.4299

> <Gold.PLP.part.hbond>
-3.0000

> <Gold.PLP.part.metal>
0.0000

> <Gold.PLP.part.buried>
-4.6293

> <Gold.PLP.part.nonpolar>
-29.3901

> <Gold.PLP.part.repulsive>
0.2006

> <Gold.PLP.ligand.clash>
0.0000

> <Gold.PLP.ligand.torsion>
0.4083

> <Gold.PLP.Chemscore.Hbond>
2.0000

> <Gold.PLP.Chemscore.CHOScore>
0.0000

> <Gold.PLP.Chemscore.Metal>
0.0000

> <Gold.Chemscore.Hbonds>
donor molecule, donor type, donor heavy atom, donor atom, acceptor molecule, acceptor atom, score
      P1  H  6896  6907       L1    12  1.00
      P1  H  6934  6947       L1    21  0.75

> <Gold.PLP.Chemscore.Internal.Correction>
0.1693

> <Gold.Rescore>
     Score         DG    S(hbond)    S(metal)    S(lipo)     H(rot)  DE(clash)    DE(int)     intcor
     14.35     -15.01       1.75        0.00      75.86       2.03       0.15       0.51       ----

> <Gold.Chemscore.Fitness>
14.3530

> <Gold.Chemscore.DG>
-15.0086

> <Gold.Chemscore.ZeroCoef>
-5.4800

> <Gold.Chemscore.Hbond>
1.7544

> <Gold.Chemscore.Metal>
0.0000

> <Gold.Chemscore.Lipo>
75.8635

> <Gold.Chemscore.Internal_Hbond>
0.0000

> <Gold.Chemscore.DEClash>
0.1461

> <Gold.Chemscore.DEInternal>
0.5094

> <Gold.Chemscore.Rot>
2.0340

> <Gold.Chemscore.Internal.Correction>
   9.000000E+99

> <Gold.Chemscore.Hbonds>
donor molecule, donor type, donor heavy atom, donor atom, acceptor molecule, acceptor atom, score
      P1  H  6896  6907       L1    12  0.95
      P1  H  6934  6947       L1    21  0.45

> <Gold.Chemscore.Hbond.Weighted>
-5.8596

> <Gold.Chemscore.Metal.Weighted>
-0.0000

> <Gold.Chemscore.Lipo.Weighted>
-8.8760

> <Gold.Chemscore.Internal_Hbond.Weighted>
0.0000

> <Gold.Chemscore.DEClash.Weighted>
0.1461

> <Gold.Chemscore.DEInternal.Weighted>
0.5094

> <Gold.Chemscore.Rot.Weighted>
5.2071

> <Gold.Chemscore.Internal.Correction.Weighted>
   9.000000E+99

> <Gold.Protein.RotatedTorsions>
[ 6907 6896 6895 6894 ] final  -23.69 input  -60.11 | X-H torsion
[ 7974 7965 7964 7962 ] final  -29.05 input  175.53 | X-H torsion
[ 8008 7997 7996 7995 ] final  147.42 input   59.86 | X-H torsion
[ 10167 10162 10161 10158 ] final  -41.42 input  -65.29 | X-H torsion
[ 10718 10713 10712 10709 ] final   74.29 input   66.30 | X-H torsion
[ 10763 10752 10751 10750 ] final  -26.73 input  -60.55 | X-H torsion
[ 11005 11000 10999 10996 ] final  106.80 input  -57.11 | X-H torsion

> <Gold.Protein.ActiveResidues>
 VAL166  LYS551  ARG553  GLY616  TRP617  ASP618  TYR619  PRO620  LYS621  CYS622 
 ASP623  PHE694  ASN695  SER759  ASP760  ASP761  ALA762  ILE779  LEU786  VAL792 
 PHE793  MET794  SER795  GLU796  ALA797  LYS798  CYS799  TRP800  GLU811  SER814 

> <Gold.Protein.RotatedAtoms>
  151.2003  135.0440  159.8869 H   0  0  0  0  0  0  0  0  0  0  0  0  # atno 6907 bound_to 6896
  152.5433  134.0857  159.8265 H   0  0  0  0  0  0  0  0  0  0  0  0  # atno 6908 bound_to 6896
  151.0997  133.5205  159.2642 H   0  0  0  0  0  0  0  0  0  0  0  0  # atno 6909 bound_to 6896
  146.1244  140.5363  142.8721 H   0  0  0  0  0  0  0  0  0  0  0  0  # atno 7974 bound_to 7965
  156.2825  140.2156  156.5534 H   0  0  0  0  0  0  0  0  0  0  0  0  # atno 8008 bound_to 7997
  154.7272  140.0498  157.0716 H   0  0  0  0  0  0  0  0  0  0  0  0  # atno 8009 bound_to 7997
  155.0401  140.3144  155.4731 H   0  0  0  0  0  0  0  0  0  0  0  0  # atno 8010 bound_to 7997
  140.7003  143.3095  151.3064 H   0  0  0  0  0  0  0  0  0  0  0  0  # atno 10167 bound_to 10162
  157.6586  130.9670  150.1190 H   0  0  0  0  0  0  0  0  0  0  0  0  # atno 10718 bound_to 10713
  153.7207  135.6945  153.5013 H   0  0  0  0  0  0  0  0  0  0  0  0  # atno 10763 bound_to 10752
  153.2206  135.4371  155.0484 H   0  0  0  0  0  0  0  0  0  0  0  0  # atno 10764 bound_to 10752
  154.8285  135.3459  154.6740 H   0  0  0  0  0  0  0  0  0  0  0  0  # atno 10765 bound_to 10752
  139.8819  134.9381  156.5722 H   0  0  0  0  0  0  0  0  0  0  0  0  # atno 11005 bound_to 11000
  144.7628  140.5461  143.6724 LP  0  0  0  0  0  0  0  0  0  0  0  0  # atno 17320 bound_to 7965
  145.5397  139.1475  143.3454 LP  0  0  0  0  0  0  0  0  0  0  0  0  # atno 17321 bound_to 7965
  139.6513  144.0357  152.2628 LP  0  0  0  0  0  0  0  0  0  0  0  0  # atno 17342 bound_to 10162
  139.9894  144.6372  150.7828 LP  0  0  0  0  0  0  0  0  0  0  0  0  # atno 17343 bound_to 10162
  156.2066  130.3664  149.8721 LP  0  0  0  0  0  0  0  0  0  0  0  0  # atno 17370 bound_to 10713
  156.6611  130.8782  151.3547 LP  0  0  0  0  0  0  0  0  0  0  0  0  # atno 17371 bound_to 10713
  140.8089  133.8445  155.8792 LP  0  0  0  0  0  0  0  0  0  0  0  0  # atno 17394 bound_to 11000
  140.9524  134.1761  157.4717 LP  0  0  0  0  0  0  0  0  0  0  0  0  # atno 17395 bound_to 11000

$$$$
