#       Name:                AV-unprocessed.smi:1265
#       Creating user name   scv26
#       Creation time:       Fri Mar 27 04:44:15 2020


#       File generated by GOLD software.
#

@<TRIPOS>MOLECULE
AV-unprocessed.smi:1265
    50    52     1
SMALL
NO_CHARGES


@<TRIPOS>ATOM
      1 ****        -0.4050   2.6788  -0.4647 O.2            1 S1                 0.0000
      2 ****        -0.8145   1.5792  -0.8361 C.2            1 S1                 0.0000
      3 ****        -0.0122   0.5314  -1.0718 N.am           1 S1                 0.0000
      4 ****         1.4439   0.5192  -0.9319 C.3            1 S1                 0.0000
      5 ****         1.9245  -0.2739   0.3289 C.3            1 S1                 0.0000
      6 ****         1.3162  -1.6402   0.3452 N.3            1 S1                 0.0000
      7 ****         1.5322  -2.4300   1.5662 C.3            1 S1                 0.0000
      8 ****         0.8049  -3.7850   1.5254 C.3            1 S1                 0.0000
      9 ****         1.2174  -4.5190   0.3807 O.3            1 S1                 0.0000
     10 ****         0.9506  -3.8203  -0.8275 C.3            1 S1                 0.0000
     11 ****         1.6799  -2.4667  -0.8143 C.3            1 S1                 0.0000
     12 ****         1.5812   0.5716   1.5901 C.3            1 S1                 0.0000
     13 ****         2.4917   1.8034   1.6357 C.3            1 S1                 0.0000
     14 ****         4.0798   1.3235   0.9167 S.3            1 S1                 0.0000
     15 ****         3.4749  -0.2842   0.3312 C.3            1 S1                 0.0000
     16 ****        -2.1040   1.2544  -1.0338 N.am           1 S1                 0.0000
     17 ****        -3.2568   2.0788  -0.9227 C.ar           1 S1                 0.0000
     18 ****        -4.5073   1.4423  -0.7806 C.ar           1 S1                 0.0000
     19 ****        -5.6676   2.2365  -0.6877 C.ar           1 S1                 0.0000
     20 ****        -5.6493   3.5851  -0.7369 N.ar           1 S1                 0.0000
     21 ****        -4.4533   4.1925  -0.8875 C.ar           1 S1                 0.0000
     22 ****        -3.2340   3.4929  -0.9891 C.ar           1 S1                 0.0000
     23 ****        -0.4407  -0.3366  -1.3583 H              1 S1                 0.0000
     24 ****         1.8555   0.0891  -1.8437 H              1 S1                 0.0000
     25 ****         1.8309   1.5378  -0.9418 H              1 S1                 0.0000
     26 ****         2.5949  -2.6081   1.7262 H              1 S1                 0.0000
     27 ****         1.1572  -1.9065   2.4424 H              1 S1                 0.0000
     28 ****         1.0338  -4.3639   2.4203 H              1 S1                 0.0000
     29 ****        -0.2767  -3.6423   1.5057 H              1 S1                 0.0000
     30 ****         1.2895  -4.4243  -1.6693 H              1 S1                 0.0000
     31 ****        -0.1248  -3.6793  -0.9469 H              1 S1                 0.0000
     32 ****         1.4381  -1.9627  -1.7473 H              1 S1                 0.0000
     33 ****         2.7558  -2.6445  -0.8224 H              1 S1                 0.0000
     34 ****         0.5278   0.8447   1.6468 H              1 S1                 0.0000
     35 ****         1.8031   0.0242   2.5032 H              1 S1                 0.0000
     36 ****         2.0707   2.6203   1.0496 H              1 S1                 0.0000
     37 ****         2.6247   2.1711   2.6534 H              1 S1                 0.0000
     38 ****         3.8680  -1.0282   1.0220 H              1 S1                 0.0000
     39 ****         3.8945  -0.5102  -0.6496 H              1 S1                 0.0000
     40 ****        -2.2873   0.2859  -1.2510 H              1 S1                 0.0000
     41 ****        -4.5812   0.3653  -0.7386 H              1 S1                 0.0000
     42 ****        -6.6372   1.7747  -0.5732 H              1 S1                 0.0000
     43 ****        -4.4681   5.2714  -0.9360 H              1 S1                 0.0000
     44 ****        -2.3204   4.0500  -1.1279 H              1 S1                 0.0000
     45 ****         0.5739   2.8262  -0.3233 LP             1 S1                 0.0000
     46 ****        -1.0512   3.4250  -0.3043 LP             1 S1                 0.0000
     47 ****         0.3428  -1.4140   0.3080 LP             1 S1                 0.0000
     48 ****         0.7284  -5.3911   0.3635 LP             1 S1                 0.0000
     49 ****         2.2007  -4.6894   0.4442 LP             1 S1                 0.0000
     50 ****        -6.4934   4.1165  -0.6642 LP             1 S1                 0.0000
@<TRIPOS>BOND
    1    1    2 2     
    2    2    3 am    
    3    2   16 am    
    4    3    4 1     
    5    3   23 1     
    6    4    5 1     
    7    4   24 1     
    8    4   25 1     
    9    5   15 1     
   10    5    6 1     
   11    5   12 1     
   12    6   11 1     
   13    6    7 1     
   14    7    8 1     
   15    7   26 1     
   16    7   27 1     
   17    8    9 1     
   18    8   28 1     
   19    8   29 1     
   20    9   10 1     
   21   10   11 1     
   22   10   30 1     
   23   10   31 1     
   24   11   32 1     
   25   11   33 1     
   26   12   13 1     
   27   12   34 1     
   28   12   35 1     
   29   13   14 1     
   30   13   36 1     
   31   13   37 1     
   32   14   15 1     
   33   15   38 1     
   34   15   39 1     
   35   16   17 1     
   36   16   40 1     
   37   17   22 ar    
   38   17   18 ar    
   39   18   19 ar    
   40   18   41 1     
   41   19   20 ar    
   42   19   42 1     
   43   20   21 ar    
   44   21   22 ar    
   45   21   43 1     
   46   22   44 1     
   47    1   45 1     
   48    1   46 1     
   49    6   47 1     
   50    9   48 1     
   51    9   49 1     
   52   20   50 1     
@<TRIPOS>SUBSTRUCTURE
      1 S1             1
@<TRIPOS>SET
LONE_PAIRS      STATIC     ATOMS    <user>   **** ""
6 45 46 47 48 49 50
DONOR_HYDROGENS      STATIC     ATOMS    <user>   **** ""
2 23 40
ATOM$BLUE        STATIC     ATOMS    COLORGROUP SYSTEM
6 45 46 47 48 49 50
ATOM$RED        STATIC     ATOMS    COLORGROUP SYSTEM
2 23 40
