AV-unprocessed.smi:102|AV-procd|sdf|972|dock7
  -GOLD-   2262017523D 1   1.00000     0.00000
 Structure written by MMmdl.
 43 44  0  0  0  0  0  0  0  0  2 V2000
  144.3075  143.7190  155.1972 C   0  0  0  0  0  0  0  0  0  0  0  0
  145.3889  143.3949  154.1753 C   0  0  0  0  0  0  0  0  0  0  0  0
  145.5904  144.1210  153.2018 O   0  0  0  0  0  0  0  0  0  0  0  0
  146.0549  142.2650  154.4755 O   0  0  0  0  0  0  0  0  0  0  0  0
  147.3320  142.0082  153.9068 C   0  0  0  0  0  0  0  0  0  0  0  0
  148.2164  141.2296  154.8919 C   0  0  1  0  0  0  0  0  0  0  0  0
  149.5835  141.3145  154.5153 O   0  0  0  0  0  0  0  0  0  0  0  0
  150.3687  141.0065  155.6206 C   0  0  2  0  0  0  0  0  0  0  0  0
  150.6148  139.5039  155.6254 N   0  0  0  0  0  0  0  0  0  0  0  0
  149.6082  138.5925  155.9141 C   0  0  0  0  0  0  0  0  0  0  0  0
  149.8187  137.2627  155.8442 C   0  0  0  0  0  0  0  0  0  0  0  0
  148.8189  136.4111  156.1301 F   0  0  0  0  0  0  0  0  0  0  0  0
  151.1272  136.7589  155.4374 C   0  0  0  0  0  0  0  0  0  0  0  0
  151.3235  135.5451  155.4045 O   0  0  0  0  0  0  0  0  0  0  0  0
  152.0821  137.6718  155.0997 N   0  5  0  0  0  0  0  0  0  0  0  0
  151.8676  139.0192  155.1524 C   0  0  0  0  0  0  0  0  0  0  0  0
  152.7161  139.8411  154.8060 O   0  0  0  0  0  0  0  0  0  0  0  0
  149.6069  141.5170  156.8575 C   0  0  1  0  0  0  0  0  0  0  0  0
  150.1930  142.7167  157.3466 O   0  0  0  0  0  0  0  0  0  0  0  0
  151.4215  142.6985  157.8919 C   0  0  0  0  0  0  0  0  0  0  0  0
  152.0147  144.0942  158.0290 C   0  0  0  0  0  0  0  0  0  0  0  0
  152.0411  141.6979  158.2533 O   0  0  0  0  0  0  0  0  0  0  0  0
  148.2110  141.8194  156.3080 C   0  0  2  0  0  0  0  0  0  0  0  0
  147.2112  141.1929  157.1012 O   0  0  0  0  0  0  0  0  0  0  0  0
  146.6288  141.8635  158.1102 C   0  0  0  0  0  0  0  0  0  0  0  0
  145.3035  141.2422  158.5302 C   0  0  0  0  0  0  0  0  0  0  0  0
  147.0764  142.8643  158.6702 O   0  0  0  0  0  0  0  0  0  0  0  0
  144.7387  143.7923  156.1955 H   0  0  0  0  0  0  0  0  0  0  0  0
  143.5479  142.9373  155.2031 H   0  0  0  0  0  0  0  0  0  0  0  0
  143.8257  144.6671  154.9574 H   0  0  0  0  0  0  0  0  0  0  0  0
  147.2576  141.4938  152.9475 H   0  0  0  0  0  0  0  0  0  0  0  0
  147.7913  142.9759  153.7046 H   0  0  0  0  0  0  0  0  0  0  0  0
  147.9149  140.1814  154.9195 H   0  0  0  0  0  0  0  0  0  0  0  0
  151.3554  141.4647  155.5406 H   0  0  0  0  0  0  0  0  0  0  0  0
  148.6198  138.9278  156.1853 H   0  0  0  0  0  0  0  0  0  0  0  0
  149.5855  140.7672  157.6477 H   0  0  0  0  0  0  0  0  0  0  0  0
  151.3382  144.7394  158.5895 H   0  0  0  0  0  0  0  0  0  0  0  0
  152.1784  144.5335  157.0448 H   0  0  0  0  0  0  0  0  0  0  0  0
  152.9695  144.0556  158.5538 H   0  0  0  0  0  0  0  0  0  0  0  0
  148.0527  142.8977  156.2472 H   0  0  0  0  0  0  0  0  0  0  0  0
  144.6710  141.0702  157.6593 H   0  0  0  0  0  0  0  0  0  0  0  0
  144.7726  141.9002  159.2184 H   0  0  0  0  0  0  0  0  0  0  0  0
  145.4764  140.2878  159.0276 H   0  0  0  0  0  0  0  0  0  0  0  0
  1  2  1  0  0  0  0
  1 28  1  0  0  0  0
  1 29  1  0  0  0  0
  1 30  1  0  0  0  0
  2  3  2  0  0  0  0
  2  4  1  0  0  0  0
  4  5  1  0  0  0  0
  5  6  1  0  0  0  0
  5 31  1  0  0  0  0
  5 32  1  0  0  0  0
  6 23  1  0  0  0  0
  6  7  1  0  0  0  0
  6 33  1  0  0  0  0
  7  8  1  0  0  0  0
  8  9  1  0  0  0  0
  8 18  1  0  0  0  0
  8 34  1  0  0  0  0
  9 16  1  0  0  0  0
  9 10  1  0  0  0  0
 10 11  2  0  0  0  0
 10 35  1  0  0  0  0
 11 12  1  0  0  0  0
 11 13  1  0  0  0  0
 13 14  2  0  0  0  0
 13 15  1  0  0  0  0
 15 16  1  0  0  0  0
 16 17  2  0  0  0  0
 18 19  1  0  0  0  0
 18 23  1  0  0  0  0
 18 36  1  0  0  0  0
 19 20  1  0  0  0  0
 20 21  1  0  0  0  0
 20 22  2  0  0  0  0
 21 37  1  0  0  0  0
 21 38  1  0  0  0  0
 21 39  1  0  0  0  0
 23 24  1  0  0  0  0
 23 40  1  0  0  0  0
 24 25  1  0  0  0  0
 25 26  1  0  0  0  0
 25 27  2  0  0  0  0
 26 41  1  0  0  0  0
 26 42  1  0  0  0  0
 26 43  1  0  0  0  0
M  CHG  1  15  -1
M  END
> <s_m_source_file>
AV-unprocessed.smi

> <i_m_source_file_index>
102

> <i_lp_mmshare_version>
43012

> <i_f3d_flags>
0

> <s_epik_input>
W0NIM11DKD1PKU9bQ0gyXVtDQEBIXTFPW0NASF0oW0NAQEhdKE9DKD1PKVtDSDNdKVtDQEhdMU9DKD1PKVtDSDNdKW4yW2NIXWMoRiljKD1PKVtuSF1jMj1P

> <s_epik_cmdline>
J2VwaWtfcHl0aG9uJywgJy1waCcsICc3LjAnLCAnLXRuJywgJzgnLCAnLW1hJywgJzIwMCcsICctbWV0YWxfYmluZGluZycsICctaW1hZScsICc8aW5maWxlLm1hZT4nLCAnLW9tYWUnLCAnPG91dGZpbGUubWFlPic=

> <r_epik_Ionization_Penalty>
1.40304

> <r_epik_Ionization_Penalty_Charging>
1.43915e-08

> <r_epik_Ionization_Penalty_Neutral>
1.40304

> <r_epik_State_Penalty>
1.48536

> <r_epik_Charging_Adjusted_Penalty>
1.48536

> <i_epik_Tot_Q>
-1

> <i_epik_Tot_abs_Q>
1

> <r_epik_Metal_State_Penalty>
0.00663881

> <b_epik_Metal_Only>
0

> <s_epik_Chemistry_Notes>
This compound has an ester and may undergo hydrolysis at high or low pH. This compound contains an acetal/aminal-like group ( X-CH(R)-Y where X, Y are N, S, or O) that may be acid/base labile, releasing an aldehyde.

> <s_lp_Force_Field>
OPLS_2005

> <r_lp_Energy>
19.0054

> <b_lp_Chiralities_Consistent>
1

> <s_lp_Variant>
AV-unprocessed.smi:102-28

> <Gold.Version>
5.8.1

> <Gold.Id.Protein>
6NUR|6NUR_protein|mol2

> <Gold.PLP.Fitness>
40.0683

> <Gold.PLP.PLP>
-36.2428

> <Gold.PLP.part.hbond>
-5.8467

> <Gold.PLP.part.metal>
0.0000

> <Gold.PLP.part.buried>
-4.9183

> <Gold.PLP.part.nonpolar>
-28.1837

> <Gold.PLP.part.repulsive>
2.3597

> <Gold.PLP.ligand.clash>
0.0000

> <Gold.PLP.ligand.torsion>
1.8580

> <Gold.PLP.Chemscore.Hbond>
2.4640

> <Gold.PLP.Chemscore.CHOScore>
0.0000

> <Gold.PLP.Chemscore.Metal>
0.0000

> <Gold.Chemscore.Hbonds>
donor molecule, donor type, donor heavy atom, donor atom, acceptor molecule, acceptor atom, score
      P1  H  7989  7998       L1    17  0.48
      P1  H  7997  8009       L1    17  0.89
      P1  H 10752 10765       L1    14  0.95

> <Gold.PLP.Chemscore.Internal.Correction>
0.1495

> <Gold.Rescore>
     Score         DG    S(hbond)    S(metal)    S(lipo)     H(rot)  DE(clash)    DE(int)     intcor
      2.90      -4.58       1.33        0.00      41.59       4.00       0.06       1.62       ----

> <Gold.Chemscore.Fitness>
2.9004

> <Gold.Chemscore.DG>
-4.5775

> <Gold.Chemscore.ZeroCoef>
-5.4800

> <Gold.Chemscore.Hbond>
1.3350

> <Gold.Chemscore.Metal>
0.0000

> <Gold.Chemscore.Lipo>
41.5909

> <Gold.Chemscore.Internal_Hbond>
0.0000

> <Gold.Chemscore.DEClash>
0.0573

> <Gold.Chemscore.DEInternal>
1.6198

> <Gold.Chemscore.Rot>
3.9951

> <Gold.Chemscore.Internal.Correction>
   9.000000E+99

> <Gold.Chemscore.Hbonds>
donor molecule, donor type, donor heavy atom, donor atom, acceptor molecule, acceptor atom, score
      P1  H  7989  7998       L1    17  0.12
      P1  H  7997  8009       L1    17  0.86
      P1  H  8011  8017       L1     7  0.02
      P1  H 10752 10765       L1    14  0.21

> <Gold.Chemscore.Hbond.Weighted>
-4.4588

> <Gold.Chemscore.Metal.Weighted>
-0.0000

> <Gold.Chemscore.Lipo.Weighted>
-4.8661

> <Gold.Chemscore.Internal_Hbond.Weighted>
0.0000

> <Gold.Chemscore.DEClash.Weighted>
0.0573

> <Gold.Chemscore.DEInternal.Weighted>
1.6198

> <Gold.Chemscore.Rot.Weighted>
10.2274

> <Gold.Chemscore.Internal.Correction.Weighted>
   9.000000E+99

> <Gold.Protein.RotatedTorsions>
[ 6907 6896 6895 6894 ] final  125.74 input  -60.11 | X-H torsion
[ 7974 7965 7964 7962 ] final  -82.12 input  175.53 | X-H torsion
[ 8008 7997 7996 7995 ] final -135.32 input   59.86 | X-H torsion
[ 10167 10162 10161 10158 ] final    5.21 input  -65.29 | X-H torsion
[ 10718 10713 10712 10709 ] final -143.75 input   66.30 | X-H torsion
[ 10763 10752 10751 10750 ] final -176.24 input  -60.55 | X-H torsion
[ 11005 11000 10999 10996 ] final  149.92 input  -57.11 | X-H torsion

> <Gold.Protein.ActiveResidues>
 VAL166  LYS551  ARG553  GLY616  TRP617  ASP618  TYR619  PRO620  LYS621  CYS622 
 ASP623  PHE694  ASN695  SER759  ASP760  ASP761  ALA762  ILE779  LEU786  VAL792 
 PHE793  MET794  SER795  GLU796  ALA797  LYS798  CYS799  TRP800  GLU811  SER814 

> <Gold.Protein.RotatedAtoms>
  152.3965  133.6755  159.6280 H   0  0  0  0  0  0  0  0  0  0  0  0  # atno 6907 bound_to 6896
  150.7863  133.8865  159.3309 H   0  0  0  0  0  0  0  0  0  0  0  0  # atno 6908 bound_to 6896
  151.6640  135.0987  160.0236 H   0  0  0  0  0  0  0  0  0  0  0  0  # atno 6909 bound_to 6896
  145.5375  140.9514  143.1569 H   0  0  0  0  0  0  0  0  0  0  0  0  # atno 7974 bound_to 7965
  155.3768  140.0491  157.3044 H   0  0  0  0  0  0  0  0  0  0  0  0  # atno 8008 bound_to 7997
  154.5102  140.2189  155.9133 H   0  0  0  0  0  0  0  0  0  0  0  0  # atno 8009 bound_to 7997
  156.1574  140.3123  155.8754 H   0  0  0  0  0  0  0  0  0  0  0  0  # atno 8010 bound_to 7997
  140.6494  143.7582  150.7550 H   0  0  0  0  0  0  0  0  0  0  0  0  # atno 10167 bound_to 10162
  156.3617  130.7742  151.1910 H   0  0  0  0  0  0  0  0  0  0  0  0  # atno 10718 bound_to 10713
  154.5748  135.2831  155.0792 H   0  0  0  0  0  0  0  0  0  0  0  0  # atno 10763 bound_to 10752
  154.2150  135.6401  153.5131 H   0  0  0  0  0  0  0  0  0  0  0  0  # atno 10764 bound_to 10752
  153.0069  135.5501  154.6383 H   0  0  0  0  0  0  0  0  0  0  0  0  # atno 10765 bound_to 10752
  140.1086  134.8938  157.1903 H   0  0  0  0  0  0  0  0  0  0  0  0  # atno 11005 bound_to 11000
  144.7594  139.6994  143.7240 LP  0  0  0  0  0  0  0  0  0  0  0  0  # atno 17320 bound_to 7965
  146.2003  139.5294  142.9747 LP  0  0  0  0  0  0  0  0  0  0  0  0  # atno 17321 bound_to 7965
  140.1230  143.4595  152.2301 LP  0  0  0  0  0  0  0  0  0  0  0  0  # atno 17342 bound_to 10162
  139.5707  144.7461  151.3898 LP  0  0  0  0  0  0  0  0  0  0  0  0  # atno 17343 bound_to 10162
  157.7474  131.0398  150.4567 LP  0  0  0  0  0  0  0  0  0  0  0  0  # atno 17370 bound_to 10713
  156.4779  130.4067  149.6479 LP  0  0  0  0  0  0  0  0  0  0  0  0  # atno 17371 bound_to 10713
  140.3121  134.3011  155.7264 LP  0  0  0  0  0  0  0  0  0  0  0  0  # atno 17394 bound_to 11000
  141.2124  133.7657  156.9792 LP  0  0  0  0  0  0  0  0  0  0  0  0  # atno 17395 bound_to 11000

$$$$
