AV-unprocessed.smi:109|AV-procd|sdf|1037|dock10
  -GOLD-   2262018 63D 1   1.00000     0.00000
 Structure written by MMmdl.
 58 61  0  0  0  0  0  0  0  0  1 V2000
  153.0705  137.6158  155.3710 O   0  0  0  0  0  0  0  0  0  0  0  0
  152.2046  138.6837  155.6898 C   0  0  0  0  0  0  0  0  0  0  0  0
  152.8682  139.6021  156.7302 C   0  0  0  0  0  0  0  0  0  0  0  0
  151.9013  140.6163  157.3895 C   0  0  2  0  0  0  0  0  0  0  0  0
  151.3362  141.4912  156.3595 N   0  0  0  0  0  0  0  0  0  0  0  0
  150.0737  141.3413  155.8996 C   0  0  0  0  0  0  0  0  0  0  0  0
  149.8170  141.1143  154.5847 N   0  0  0  0  0  0  0  0  0  0  0  0
  148.5571  140.9721  154.1620 C   0  0  0  0  0  0  0  0  0  0  0  0
  147.4279  141.0197  154.8723 N   0  0  0  0  0  0  0  0  0  0  0  0
  147.6822  141.2496  156.1929 C   0  0  0  0  0  0  0  0  0  0  0  0
  148.9652  141.4195  156.7815 C   0  0  0  0  0  0  0  0  0  0  0  0
  148.8307  141.6275  158.1481 N   0  0  0  0  0  0  0  0  0  0  0  0
  147.5406  141.5791  158.3501 C   0  0  0  0  0  0  0  0  0  0  0  0
  146.7755  141.3673  157.2225 N   0  0  0  0  0  0  0  0  0  0  0  0
  145.2895  141.2472  157.0881 C   0  0  1  0  0  0  0  0  0  0  0  0
  144.8185  140.3429  158.0498 O   0  0  0  0  0  0  0  0  0  0  0  0
  143.8856  140.9587  158.9397 C   0  0  1  0  0  0  0  0  0  0  0  0
  144.6147  141.3729  160.2370 C   0  0  0  0  0  0  0  0  0  0  0  0
  145.4006  140.2993  160.7081 O   0  0  0  0  0  0  0  0  0  0  0  0
  143.3410  142.1161  158.0918 C   0  0  1  0  0  0  0  0  0  0  0  0
  142.6841  143.1427  158.8125 O   0  0  0  0  0  0  0  0  0  0  0  0
  144.5534  142.5858  157.3045 C   0  0  1  0  0  0  0  0  0  0  0  0
  145.3147  143.5570  158.0064 O   0  0  0  0  0  0  0  0  0  0  0  0
  152.5692  141.4840  158.4953 C   0  0  0  0  0  0  0  0  0  0  0  0
  153.2229  140.6393  159.6183 C   0  0  0  0  0  0  0  0  0  0  0  0
  153.8369  141.5074  160.7292 C   0  0  0  0  0  0  0  0  0  0  0  0
  152.8025  142.4665  161.3297 C   0  0  0  0  0  0  0  0  0  0  0  0
  152.1734  143.3335  160.2333 C   0  0  0  0  0  0  0  0  0  0  0  0
  151.5494  142.4651  159.1301 C   0  0  0  0  0  0  0  0  0  0  0  0
  145.1362  140.8290  156.0923 H   0  0  0  0  0  0  0  0  0  0  0  0
  143.0772  140.2662  159.1787 H   0  0  0  0  0  0  0  0  0  0  0  0
  142.6190  141.7026  157.3856 H   0  0  0  0  0  0  0  0  0  0  0  0
  144.2689  143.0072  156.3398 H   0  0  0  0  0  0  0  0  0  0  0  0
  153.7372  137.5599  156.0386 H   0  0  0  0  0  0  0  0  0  0  0  0
  151.9720  139.2255  154.7730 H   0  0  0  0  0  0  0  0  0  0  0  0
  151.2700  138.2772  156.0772 H   0  0  0  0  0  0  0  0  0  0  0  0
  153.2991  138.9526  157.4899 H   0  0  0  0  0  0  0  0  0  0  0  0
  153.7026  140.1353  156.2722 H   0  0  0  0  0  0  0  0  0  0  0  0
  151.1128  140.0478  157.8821 H   0  0  0  0  0  0  0  0  0  0  0  0
  151.9207  142.2684  156.0865 H   0  0  0  0  0  0  0  0  0  0  0  0
  148.4371  140.7949  153.1033 H   0  0  0  0  0  0  0  0  0  0  0  0
  147.1154  141.6963  159.3362 H   0  0  0  0  0  0  0  0  0  0  0  0
  145.2361  142.2567  160.0993 H   0  0  0  0  0  0  0  0  0  0  0  0
  143.8984  141.6068  161.0241 H   0  0  0  0  0  0  0  0  0  0  0  0
  145.0131  139.4903  160.4104 H   0  0  0  0  0  0  0  0  0  0  0  0
  142.4950  142.8250  159.6824 H   0  0  0  0  0  0  0  0  0  0  0  0
  145.3427  144.3446  157.4849 H   0  0  0  0  0  0  0  0  0  0  0  0
  153.3569  142.0773  158.0275 H   0  0  0  0  0  0  0  0  0  0  0  0
  152.4817  139.9654  160.0501 H   0  0  0  0  0  0  0  0  0  0  0  0
  154.0186  140.0121  159.2202 H   0  0  0  0  0  0  0  0  0  0  0  0
  154.2488  140.8702  161.5122 H   0  0  0  0  0  0  0  0  0  0  0  0
  154.6733  142.0790  160.3253 H   0  0  0  0  0  0  0  0  0  0  0  0
  152.0249  141.8975  161.8408 H   0  0  0  0  0  0  0  0  0  0  0  0
  153.2721  143.0992  162.0833 H   0  0  0  0  0  0  0  0  0  0  0  0
  151.4141  143.9856  160.6658 H   0  0  0  0  0  0  0  0  0  0  0  0
  152.9321  143.9862  159.8000 H   0  0  0  0  0  0  0  0  0  0  0  0
  151.1287  143.1291  158.3748 H   0  0  0  0  0  0  0  0  0  0  0  0
  150.7098  141.9035  159.5424 H   0  0  0  0  0  0  0  0  0  0  0  0
  1  2  1  0  0  0  0
  1 34  1  0  0  0  0
  2  3  1  0  0  0  0
  2 35  1  0  0  0  0
  2 36  1  0  0  0  0
  3  4  1  0  0  0  0
  3 37  1  0  0  0  0
  3 38  1  0  0  0  0
  4  5  1  0  0  0  0
  4 24  1  0  0  0  0
  4 39  1  0  0  0  0
  5  6  1  0  0  0  0
  5 40  1  0  0  0  0
  6 11  1  0  0  0  0
  6  7  2  0  0  0  0
  7  8  1  0  0  0  0
  8  9  2  0  0  0  0
  8 41  1  0  0  0  0
  9 10  1  0  0  0  0
 10 14  1  0  0  0  0
 10 11  2  0  0  0  0
 11 12  1  0  0  0  0
 12 13  2  0  0  0  0
 13 14  1  0  0  0  0
 13 42  1  0  0  0  0
 14 15  1  0  0  0  0
 15 30  1  0  0  0  0
 15 22  1  0  0  0  0
 15 16  1  0  0  0  0
 16 17  1  0  0  0  0
 17 31  1  0  0  0  0
 17 18  1  0  0  0  0
 17 20  1  0  0  0  0
 18 19  1  0  0  0  0
 18 43  1  0  0  0  0
 18 44  1  0  0  0  0
 19 45  1  0  0  0  0
 20 32  1  0  0  0  0
 20 21  1  0  0  0  0
 20 22  1  0  0  0  0
 21 46  1  0  0  0  0
 22 33  1  0  0  0  0
 22 23  1  0  0  0  0
 23 47  1  0  0  0  0
 24 29  1  0  0  0  0
 24 25  1  0  0  0  0
 24 48  1  0  0  0  0
 25 26  1  0  0  0  0
 25 49  1  0  0  0  0
 25 50  1  0  0  0  0
 26 27  1  0  0  0  0
 26 51  1  0  0  0  0
 26 52  1  0  0  0  0
 27 28  1  0  0  0  0
 27 53  1  0  0  0  0
 27 54  1  0  0  0  0
 28 29  1  0  0  0  0
 28 55  1  0  0  0  0
 28 56  1  0  0  0  0
 29 57  1  0  0  0  0
 29 58  1  0  0  0  0
M  END
> <s_m_source_file>
AV-unprocessed.smi

> <i_m_source_file_index>
109

> <i_lp_mmshare_version>
43012

> <i_f3d_flags>
0

> <s_epik_input>
W0NIMl0xW0NIMl1bQ0gyXVtDSDJdW0NIMl1bQ0hdMVtDQEhdKFtDSDJdW0NIMl1bT0hdKVtOSF1jKG5bY0hdbjIpYyhjMjMpbltjSF1uM1tDQEBIXTRPW0NASF0oW0NIMl1bT0hdKVtDQEBIXShbT0hdKVtDQEhdNFtPSF0=

> <s_epik_cmdline>
J2VwaWtfcHl0aG9uJywgJy1waCcsICc3LjAnLCAnLXRuJywgJzgnLCAnLW1hJywgJzIwMCcsICctbWV0YWxfYmluZGluZycsICctaW1hZScsICc8aW5maWxlLm1hZT4nLCAnLW9tYWUnLCAnPG91dGZpbGUubWFlPic=

> <r_lp_tautomer_probability>
1

> <r_epik_Ionization_Penalty>
0.000793976

> <r_epik_Ionization_Penalty_Charging>
0

> <r_epik_Ionization_Penalty_Neutral>
0.000793976

> <r_epik_State_Penalty>
-0

> <r_epik_Charging_Adjusted_Penalty>
0

> <i_epik_Tot_Q>
0

> <i_epik_Tot_abs_Q>
0

> <r_epik_Metal_State_Penalty>
-0

> <b_epik_Metal_Only>
0

> <s_epik_Chemistry_Notes>
This compound contains an acetal/aminal-like group ( X-CH(R)-Y where X, Y are N, S, or O) that may be acid/base labile, releasing an aldehyde.

> <s_lp_Force_Field>
OPLS_2005

> <r_lp_Energy>
61.3844

> <b_lp_Chiralities_Consistent>
1

> <s_lp_Variant>
AV-unprocessed.smi:109-7

> <Gold.Version>
5.8.1

> <Gold.Id.Protein>
6NUR|6NUR_protein|mol2

> <Gold.PLP.Fitness>
44.8624

> <Gold.PLP.PLP>
-37.1555

> <Gold.PLP.part.hbond>
-4.0000

> <Gold.PLP.part.metal>
0.0000

> <Gold.PLP.part.buried>
-1.8917

> <Gold.PLP.part.nonpolar>
-29.8014

> <Gold.PLP.part.repulsive>
0.5082

> <Gold.PLP.ligand.clash>
0.0848

> <Gold.PLP.ligand.torsion>
1.0710

> <Gold.PLP.Chemscore.Hbond>
2.2620

> <Gold.PLP.Chemscore.CHOScore>
1.0000

> <Gold.PLP.Chemscore.Metal>
0.0000

> <Gold.Chemscore.Hbonds>
donor molecule, donor type, donor heavy atom, donor atom, acceptor molecule, acceptor atom, score
      P1  H  6934  6946       L1    19  0.16
      P1  H  7989  7998       L1     7  0.45
      P1  H 10752 10765       L1     1  0.24
      L1  C     8    41       P1  7957  1.00

> <Gold.PLP.Chemscore.Internal.Correction>
0.1478

> <Gold.Rescore>
     Score         DG    S(hbond)    S(metal)    S(lipo)     H(rot)  DE(clash)    DE(int)     intcor
      3.51      -5.72       1.20        0.00      87.33       5.47       0.05       2.16       ----

> <Gold.Chemscore.Fitness>
3.5062

> <Gold.Chemscore.DG>
-5.7248

> <Gold.Chemscore.ZeroCoef>
-5.4800

> <Gold.Chemscore.Hbond>
1.2036

> <Gold.Chemscore.Metal>
0.0000

> <Gold.Chemscore.Lipo>
87.3349

> <Gold.Chemscore.Internal_Hbond>
0.0000

> <Gold.Chemscore.DEClash>
0.0544

> <Gold.Chemscore.DEInternal>
2.1642

> <Gold.Chemscore.Rot>
5.4662

> <Gold.Chemscore.Internal.Correction>
   9.000000E+99

> <Gold.Chemscore.Hbonds>
donor molecule, donor type, donor heavy atom, donor atom, acceptor molecule, acceptor atom, score
      P1  H  6934  6946       L1    19  0.10
      P1  H  7989  7998       L1     7  0.35
      P1  H 10752 10765       L1     1  0.05

> <Gold.Chemscore.Hbond.Weighted>
-4.0201

> <Gold.Chemscore.Metal.Weighted>
-0.0000

> <Gold.Chemscore.Lipo.Weighted>
-10.2182

> <Gold.Chemscore.Internal_Hbond.Weighted>
0.0000

> <Gold.Chemscore.DEClash.Weighted>
0.0544

> <Gold.Chemscore.DEInternal.Weighted>
2.1642

> <Gold.Chemscore.Rot.Weighted>
13.9935

> <Gold.Chemscore.Internal.Correction.Weighted>
   9.000000E+99

> <Gold.Protein.RotatedTorsions>
[ 6907 6896 6895 6894 ] final   10.89 input  -60.11 | X-H torsion
[ 7974 7965 7964 7962 ] final   67.20 input  175.53 | X-H torsion
[ 8008 7997 7996 7995 ] final  -11.08 input   59.86 | X-H torsion
[ 10167 10162 10161 10158 ] final -111.18 input  -65.29 | X-H torsion
[ 10718 10713 10712 10709 ] final  -13.18 input   66.30 | X-H torsion
[ 10763 10752 10751 10750 ] final -166.53 input  -60.55 | X-H torsion
[ 11005 11000 10999 10996 ] final -165.44 input  -57.11 | X-H torsion

> <Gold.Protein.ActiveResidues>
 VAL166  LYS551  ARG553  GLY616  TRP617  ASP618  TYR619  PRO620  LYS621  CYS622 
 ASP623  PHE694  ASN695  SER759  ASP760  ASP761  ALA762  ILE779  LEU786  VAL792 
 PHE793  MET794  SER795  GLU796  ALA797  LYS798  CYS799  TRP800  GLU811  SER814 

> <Gold.Protein.RotatedAtoms>
  151.7456  135.0844  160.0322 H   0  0  0  0  0  0  0  0  0  0  0  0  # atno 6907 bound_to 6896
  152.3451  133.6108  159.5912 H   0  0  0  0  0  0  0  0  0  0  0  0  # atno 6908 bound_to 6896
  150.7503  133.9578  159.3548 H   0  0  0  0  0  0  0  0  0  0  0  0  # atno 6909 bound_to 6896
  145.8175  139.3066  143.1063 H   0  0  0  0  0  0  0  0  0  0  0  0  # atno 7974 bound_to 7965
  154.5496  140.2312  155.8506 H   0  0  0  0  0  0  0  0  0  0  0  0  # atno 8008 bound_to 7997
  156.1935  140.3071  155.9341 H   0  0  0  0  0  0  0  0  0  0  0  0  # atno 8009 bound_to 7997
  155.3096  140.0435  157.3025 H   0  0  0  0  0  0  0  0  0  0  0  0  # atno 8010 bound_to 7997
  140.1363  143.4317  152.1593 H   0  0  0  0  0  0  0  0  0  0  0  0  # atno 10167 bound_to 10162
  156.6340  130.4909  149.6119 H   0  0  0  0  0  0  0  0  0  0  0  0  # atno 10718 bound_to 10713
  154.6824  135.2957  154.9595 H   0  0  0  0  0  0  0  0  0  0  0  0  # atno 10763 bound_to 10752
  154.0585  135.6634  153.4813 H   0  0  0  0  0  0  0  0  0  0  0  0  # atno 10764 bound_to 10752
  153.0556  135.5147  154.7873 H   0  0  0  0  0  0  0  0  0  0  0  0  # atno 10765 bound_to 10752
  140.5756  134.5193  157.5169 H   0  0  0  0  0  0  0  0  0  0  0  0  # atno 11005 bound_to 11000
  145.9711  140.8759  143.0162 LP  0  0  0  0  0  0  0  0  0  0  0  0  # atno 17320 bound_to 7965
  144.6751  140.1947  143.7393 LP  0  0  0  0  0  0  0  0  0  0  0  0  # atno 17321 bound_to 7965
  139.5494  144.7325  151.4482 LP  0  0  0  0  0  0  0  0  0  0  0  0  # atno 17342 bound_to 10162
  140.6787  143.8131  150.7092 LP  0  0  0  0  0  0  0  0  0  0  0  0  # atno 17343 bound_to 10162
  156.2212  130.6738  151.1370 LP  0  0  0  0  0  0  0  0  0  0  0  0  # atno 17370 bound_to 10713
  157.7191  131.0692  150.6208 LP  0  0  0  0  0  0  0  0  0  0  0  0  # atno 17371 bound_to 10713
  139.9341  134.7908  156.0850 LP  0  0  0  0  0  0  0  0  0  0  0  0  # atno 17394 bound_to 11000
  141.1028  133.6671  156.2795 LP  0  0  0  0  0  0  0  0  0  0  0  0  # atno 17395 bound_to 11000

$$$$
