AV-unprocessed.smi:1809|AV-procd|sdf|7332|dock10
  -GOLD-   22720 8593D 1   1.00000     0.00000
 Structure written by MMmdl.
 38 40  0  0  0  0  0  0  0  0  2 V2000
  144.6910  134.0022  162.9046 C   0  0  0  0  0  0  0  0  0  0  0  0
  145.6579  134.7241  162.0297 C   0  0  0  0  0  0  0  0  0  0  0  0
  146.0862  134.2300  160.8655 N   0  0  0  0  0  0  0  0  0  0  0  0
  146.9805  135.0821  160.2334 N   0  0  0  0  0  0  0  0  0  0  0  0
  147.2072  136.2105  160.9212 C   0  0  0  0  0  0  0  0  0  0  0  0
  148.0455  137.1651  160.4849 N   0  5  0  0  0  0  0  0  0  0  0  0
  148.8601  136.9206  159.4331 C   0  0  0  0  0  0  0  0  0  0  0  0
  149.1734  135.8119  158.9929 O   0  0  0  0  0  0  0  0  0  0  0  0
  149.3408  138.0279  158.8530 N   0  0  0  0  0  0  0  0  0  0  0  0
  150.2351  138.0513  157.7026 C   0  0  0  0  0  0  0  0  0  0  0  0
  151.2890  139.1568  157.8536 C   0  0  1  0  0  0  0  0  0  0  0  0
  150.6658  140.5660  157.7231 C   0  0  0  0  0  0  0  0  0  0  0  0
  151.6675  141.5782  157.9993 N   0  0  0  0  0  0  0  0  0  0  0  0
  151.2257  142.9533  157.9988 C   0  0  0  0  0  0  0  0  0  0  0  0
  152.3584  143.7152  158.7096 C   0  0  0  0  0  0  0  0  0  0  0  0
  153.1097  142.6288  159.5116 C   0  0  0  0  0  0  0  0  0  0  0  0
  152.2325  141.3924  159.3085 C   0  0  2  0  0  0  0  0  0  0  0  0
  152.9023  140.0157  159.4202 C   0  0  0  0  0  0  0  0  0  0  0  0
  151.9130  139.0232  159.1379 O   0  0  0  0  0  0  0  0  0  0  0  0
  146.3241  136.2940  162.4455 S   0  0  0  0  0  0  0  0  0  0  0  0
  143.6852  134.0805  162.4918 H   0  0  0  0  0  0  0  0  0  0  0  0
  144.6928  134.4318  163.9065 H   0  0  0  0  0  0  0  0  0  0  0  0
  144.9613  132.9485  162.9772 H   0  0  0  0  0  0  0  0  0  0  0  0
  149.0600  138.9188  159.2357 H   0  0  0  0  0  0  0  0  0  0  0  0
  150.7239  137.0795  157.6193 H   0  0  0  0  0  0  0  0  0  0  0  0
  149.6589  138.2029  156.7886 H   0  0  0  0  0  0  0  0  0  0  0  0
  152.0507  139.0328  157.0816 H   0  0  0  0  0  0  0  0  0  0  0  0
  150.2611  140.7076  156.7205 H   0  0  0  0  0  0  0  0  0  0  0  0
  149.8321  140.6679  158.4196 H   0  0  0  0  0  0  0  0  0  0  0  0
  151.0429  143.3178  156.9877 H   0  0  0  0  0  0  0  0  0  0  0  0
  150.2992  143.0511  158.5672 H   0  0  0  0  0  0  0  0  0  0  0  0
  153.0278  144.1830  157.9869 H   0  0  0  0  0  0  0  0  0  0  0  0
  151.9606  144.4994  159.3545 H   0  0  0  0  0  0  0  0  0  0  0  0
  154.1039  142.4706  159.0914 H   0  0  0  0  0  0  0  0  0  0  0  0
  153.2229  142.8846  160.5655 H   0  0  0  0  0  0  0  0  0  0  0  0
  151.4289  141.4337  160.0470 H   0  0  0  0  0  0  0  0  0  0  0  0
  153.7348  139.9220  158.7210 H   0  0  0  0  0  0  0  0  0  0  0  0
  153.2974  139.8575  160.4238 H   0  0  0  0  0  0  0  0  0  0  0  0
  1  2  1  0  0  0  0
  1 21  1  0  0  0  0
  1 22  1  0  0  0  0
  1 23  1  0  0  0  0
  2 20  1  0  0  0  0
  2  3  2  0  0  0  0
  3  4  1  0  0  0  0
  4  5  2  0  0  0  0
  5  6  1  0  0  0  0
  5 20  1  0  0  0  0
  6  7  1  0  0  0  0
  7  8  2  0  0  0  0
  7  9  1  0  0  0  0
  9 10  1  0  0  0  0
  9 24  1  0  0  0  0
 10 11  1  0  0  0  0
 10 25  1  0  0  0  0
 10 26  1  0  0  0  0
 11 19  1  0  0  0  0
 11 12  1  0  0  0  0
 11 27  1  0  0  0  0
 12 13  1  0  0  0  0
 12 28  1  0  0  0  0
 12 29  1  0  0  0  0
 13 17  1  0  0  0  0
 13 14  1  0  0  0  0
 14 15  1  0  0  0  0
 14 30  1  0  0  0  0
 14 31  1  0  0  0  0
 15 16  1  0  0  0  0
 15 32  1  0  0  0  0
 15 33  1  0  0  0  0
 16 17  1  0  0  0  0
 16 34  1  0  0  0  0
 16 35  1  0  0  0  0
 17 18  1  0  0  0  0
 17 36  1  0  0  0  0
 18 19  1  0  0  0  0
 18 37  1  0  0  0  0
 18 38  1  0  0  0  0
M  CHG  1   6  -1
M  END
> <s_m_source_file>
AV-unprocessed.smi

> <i_m_source_file_index>
1809

> <i_lp_mmshare_version>
43012

> <i_f3d_flags>
0

> <s_epik_input>
W0NIM11jMW5uYyhzMSlbTkhdQyg9TylbTkhdW0NIMl1bQ0BIXShbQ0gyXTIpT1tDSDJdW0NAQEhdKE4yMylbQ0gyXVtDSDJdW0NIMl0z

> <s_epik_cmdline>
J2VwaWtfcHl0aG9uJywgJy1waCcsICc3LjAnLCAnLXRuJywgJzgnLCAnLW1hJywgJzIwMCcsICctbWV0YWxfYmluZGluZycsICctaW1hZScsICc8aW5maWxlLm1hZT4nLCAnLW9tYWUnLCAnPG91dGZpbGUubWFlPic=

> <r_lp_tautomer_probability>
1

> <r_epik_Ionization_Penalty>
4.48809

> <r_epik_Ionization_Penalty_Charging>
3.27284

> <r_epik_Ionization_Penalty_Neutral>
1.21525

> <r_epik_State_Penalty>
4.69427

> <r_epik_Charging_Adjusted_Penalty>
7.96711

> <i_epik_Tot_Q>
-1

> <i_epik_Tot_abs_Q>
1

> <r_epik_Metal_State_Penalty>
1.91976

> <b_epik_Metal_Only>
1

> <s_lp_Force_Field>
OPLS_2005

> <r_lp_Energy>
45.7242

> <b_lp_Chiralities_Consistent>
1

> <s_lp_Variant>
AV-unprocessed.smi:1809-24

> <Gold.Version>
5.8.1

> <Gold.Id.Protein>
6NUR|6NUR_protein|mol2

> <Gold.PLP.Fitness>
44.8656

> <Gold.PLP.PLP>
-33.5484

> <Gold.PLP.part.hbond>
-3.0000

> <Gold.PLP.part.metal>
0.0000

> <Gold.PLP.part.buried>
-5.3614

> <Gold.PLP.part.nonpolar>
-26.1326

> <Gold.PLP.part.repulsive>
0.2286

> <Gold.PLP.ligand.clash>
0.0000

> <Gold.PLP.ligand.torsion>
0.2980

> <Gold.PLP.Chemscore.Hbond>
3.9631

> <Gold.PLP.Chemscore.CHOScore>
0.0000

> <Gold.PLP.Chemscore.Metal>
0.0000

> <Gold.Chemscore.Hbonds>
donor molecule, donor type, donor heavy atom, donor atom, acceptor molecule, acceptor atom, score
      P1  H  6896  6909       L1     8  0.99
      P1  H  6931  6943       L1     6  1.52
      P1  H  6934  6947       L1     6  1.30

> <Gold.PLP.Chemscore.Internal.Correction>
0.0238

> <Gold.Rescore>
     Score         DG    S(hbond)    S(metal)    S(lipo)     H(rot)  DE(clash)    DE(int)     intcor
     16.85     -18.82       1.96        0.00      86.54       1.31       0.04       1.93       ----

> <Gold.Chemscore.Fitness>
16.8537

> <Gold.Chemscore.DG>
-18.8241

> <Gold.Chemscore.ZeroCoef>
-5.4800

> <Gold.Chemscore.Hbond>
1.9643

> <Gold.Chemscore.Metal>
0.0000

> <Gold.Chemscore.Lipo>
86.5357

> <Gold.Chemscore.Internal_Hbond>
0.0000

> <Gold.Chemscore.DEClash>
0.0431

> <Gold.Chemscore.DEInternal>
1.9273

> <Gold.Chemscore.Rot>
1.3051

> <Gold.Chemscore.Internal.Correction>
   9.000000E+99

> <Gold.Chemscore.Hbonds>
donor molecule, donor type, donor heavy atom, donor atom, acceptor molecule, acceptor atom, score
      P1  H  6896  6909       L1     8  0.93
      P1  H  6931  6943       L1     6  0.50
      P1  H  6934  6947       L1     6  0.40

> <Gold.Chemscore.Hbond.Weighted>
-6.5606

> <Gold.Chemscore.Metal.Weighted>
-0.0000

> <Gold.Chemscore.Lipo.Weighted>
-10.1247

> <Gold.Chemscore.Internal_Hbond.Weighted>
0.0000

> <Gold.Chemscore.DEClash.Weighted>
0.0431

> <Gold.Chemscore.DEInternal.Weighted>
1.9273

> <Gold.Chemscore.Rot.Weighted>
3.3412

> <Gold.Chemscore.Internal.Correction.Weighted>
   9.000000E+99

> <Gold.Protein.RotatedTorsions>
[ 6907 6896 6895 6894 ] final   45.92 input  -60.11 | X-H torsion
[ 7974 7965 7964 7962 ] final  128.80 input  175.53 | X-H torsion
[ 8008 7997 7996 7995 ] final  163.55 input   59.86 | X-H torsion
[ 10167 10162 10161 10158 ] final   78.25 input  -65.29 | X-H torsion
[ 10718 10713 10712 10709 ] final   28.76 input   66.30 | X-H torsion
[ 10763 10752 10751 10750 ] final  145.38 input  -60.55 | X-H torsion
[ 11005 11000 10999 10996 ] final   23.63 input  -57.11 | X-H torsion

> <Gold.Protein.ActiveResidues>
 VAL166  LYS551  ARG553  GLY616  TRP617  ASP618  TYR619  PRO620  LYS621  CYS622 
 ASP623  PHE694  ASN695  SER759  ASP760  ASP761  ALA762  ILE779  LEU786  VAL792 
 PHE793  MET794  SER795  GLU796  ALA797  LYS798  CYS799  TRP800  GLU811  SER814 

> <Gold.Protein.RotatedAtoms>
  152.2502  134.8140  160.0446 H   0  0  0  0  0  0  0  0  0  0  0  0  # atno 6907 bound_to 6896
  151.8823  133.3493  159.3778 H   0  0  0  0  0  0  0  0  0  0  0  0  # atno 6908 bound_to 6896
  150.7081  134.4933  159.5570 H   0  0  0  0  0  0  0  0  0  0  0  0  # atno 6909 bound_to 6896
  145.0355  139.4008  143.5128 H   0  0  0  0  0  0  0  0  0  0  0  0  # atno 7974 bound_to 7965
  156.1948  140.1720  156.8020 H   0  0  0  0  0  0  0  0  0  0  0  0  # atno 8008 bound_to 7997
  154.5516  140.0716  156.8708 H   0  0  0  0  0  0  0  0  0  0  0  0  # atno 8009 bound_to 7997
  155.3018  140.3362  155.4250 H   0  0  0  0  0  0  0  0  0  0  0  0  # atno 8010 bound_to 7997
  139.9729  144.5882  150.7969 H   0  0  0  0  0  0  0  0  0  0  0  0  # atno 10167 bound_to 10162
  157.2377  130.7054  149.6343 H   0  0  0  0  0  0  0  0  0  0  0  0  # atno 10718 bound_to 10713
  154.0045  135.2920  155.3399 H   0  0  0  0  0  0  0  0  0  0  0  0  # atno 10763 bound_to 10752
  154.7140  135.5137  153.8712 H   0  0  0  0  0  0  0  0  0  0  0  0  # atno 10764 bound_to 10752
  153.0751  135.6660  154.0283 H   0  0  0  0  0  0  0  0  0  0  0  0  # atno 10765 bound_to 10752
  140.3675  134.2058  155.7668 H   0  0  0  0  0  0  0  0  0  0  0  0  # atno 11005 bound_to 11000
  146.3503  139.9928  142.8684 LP  0  0  0  0  0  0  0  0  0  0  0  0  # atno 17320 bound_to 7965
  145.1715  140.9723  143.4319 LP  0  0  0  0  0  0  0  0  0  0  0  0  # atno 17321 bound_to 7965
  140.7516  143.2975  151.3167 LP  0  0  0  0  0  0  0  0  0  0  0  0  # atno 17342 bound_to 10162
  139.6467  144.0437  152.2596 LP  0  0  0  0  0  0  0  0  0  0  0  0  # atno 17343 bound_to 10162
  155.9671  130.4468  150.5556 LP  0  0  0  0  0  0  0  0  0  0  0  0  # atno 17370 bound_to 10713
  157.3412  131.0717  151.1787 LP  0  0  0  0  0  0  0  0  0  0  0  0  # atno 17371 bound_to 10713
  141.1965  133.8081  157.0669 LP  0  0  0  0  0  0  0  0  0  0  0  0  # atno 17394 bound_to 11000
  140.0578  134.9771  157.1251 LP  0  0  0  0  0  0  0  0  0  0  0  0  # atno 17395 bound_to 11000

$$$$
