AV-unprocessed.smi:3187|AV-procd|sdf|12177|dock4
  -GOLD-   2272018 13D 1   1.00000     0.00000
 Structure written by MMmdl.
 41 42  0  0  0  0  0  0  0  0  2 V2000
  151.8688  144.7222  158.0519 C   0  0  0  0  0  0  0  0  0  0  0  0
  152.2166  143.3066  158.4824 C   0  0  0  0  0  0  0  0  0  0  0  0
  153.2700  143.0963  159.2948 C   0  0  0  0  0  0  0  0  0  0  0  0
  153.6658  141.7461  159.8464 C   0  0  0  0  0  0  0  0  0  0  0  0
  152.4925  140.7648  159.7925 C   0  0  0  0  0  0  0  0  0  0  0  0
  151.8356  140.7500  158.4025 C   0  0  1  0  0  0  0  0  0  0  0  0
  150.7291  139.6776  158.3722 C   0  0  0  0  0  0  0  0  0  0  0  0
  151.3162  142.1590  157.9793 C   0  0  2  0  0  0  0  0  0  0  0  0
  151.0843  142.2053  156.4454 C   0  0  0  0  0  0  0  0  0  0  0  0
  149.6794  141.9462  156.0682 N   0  3  0  0  0  0  0  0  0  0  0  0
  149.5216  141.1318  154.8482 C   0  0  0  0  0  0  0  0  0  0  0  0
  149.4896  139.6356  155.1871 C   0  0  0  0  0  0  0  0  0  0  0  0
  150.7683  139.0054  154.9293 N   0  0  0  0  0  0  0  0  0  0  0  0
  152.0190  139.4504  155.3375 C   0  0  0  0  0  0  0  0  0  0  0  0
  152.9339  138.5341  154.8697 C   0  0  0  0  0  0  0  0  0  0  0  0
  152.2719  137.5227  154.1775 N   0  0  0  0  0  0  0  0  0  0  0  0
  150.9939  137.8703  154.2536 C   0  0  0  0  0  0  0  0  0  0  0  0
  150.8175  144.9339  158.2481 H   0  0  0  0  0  0  0  0  0  0  0  0
  152.0702  144.8674  156.9909 H   0  0  0  0  0  0  0  0  0  0  0  0
  152.4605  145.4586  158.5972 H   0  0  0  0  0  0  0  0  0  0  0  0
  153.8866  143.9278  159.6048 H   0  0  0  0  0  0  0  0  0  0  0  0
  154.5147  141.3695  159.2751 H   0  0  0  0  0  0  0  0  0  0  0  0
  153.9994  141.8645  160.8777 H   0  0  0  0  0  0  0  0  0  0  0  0
  152.8442  139.7678  160.0611 H   0  0  0  0  0  0  0  0  0  0  0  0
  151.7511  141.0425  160.5435 H   0  0  0  0  0  0  0  0  0  0  0  0
  152.6081  140.4478  157.6932 H   0  0  0  0  0  0  0  0  0  0  0  0
  149.9121  139.9336  159.0476 H   0  0  0  0  0  0  0  0  0  0  0  0
  151.1183  138.7077  158.6834 H   0  0  0  0  0  0  0  0  0  0  0  0
  150.3062  139.5410  157.3783 H   0  0  0  0  0  0  0  0  0  0  0  0
  150.3550  142.3080  158.4739 H   0  0  0  0  0  0  0  0  0  0  0  0
  151.3973  143.1752  156.0555 H   0  0  0  0  0  0  0  0  0  0  0  0
  151.6911  141.4611  155.9321 H   0  0  0  0  0  0  0  0  0  0  0  0
  149.2223  141.4737  156.8350 H   0  0  0  0  0  0  0  0  0  0  0  0
  148.5982  141.4191  154.3430 H   0  0  0  0  0  0  0  0  0  0  0  0
  150.3446  141.3449  154.1644 H   0  0  0  0  0  0  0  0  0  0  0  0
  149.2326  139.4849  156.2367 H   0  0  0  0  0  0  0  0  0  0  0  0
  148.7275  139.1258  154.5961 H   0  0  0  0  0  0  0  0  0  0  0  0
  152.1528  140.3563  155.9105 H   0  0  0  0  0  0  0  0  0  0  0  0
  154.0084  138.5241  154.9781 H   0  0  0  0  0  0  0  0  0  0  0  0
  150.2034  137.2834  153.8090 H   0  0  0  0  0  0  0  0  0  0  0  0
  149.2233  142.8352  155.9192 H   0  0  0  0  0  0  0  0  0  0  0  0
  1  2  1  0  0  0  0
  1 18  1  0  0  0  0
  1 19  1  0  0  0  0
  1 20  1  0  0  0  0
  2  8  1  0  0  0  0
  2  3  2  0  0  0  0
  3  4  1  0  0  0  0
  3 21  1  0  0  0  0
  4  5  1  0  0  0  0
  4 22  1  0  0  0  0
  4 23  1  0  0  0  0
  5  6  1  0  0  0  0
  5 24  1  0  0  0  0
  5 25  1  0  0  0  0
  6  7  1  0  0  0  0
  6  8  1  0  0  0  0
  6 26  1  0  0  0  0
  7 27  1  0  0  0  0
  7 28  1  0  0  0  0
  7 29  1  0  0  0  0
  8  9  1  0  0  0  0
  8 30  1  0  0  0  0
  9 10  1  0  0  0  0
  9 31  1  0  0  0  0
  9 32  1  0  0  0  0
 10 11  1  0  0  0  0
 10 33  1  0  0  0  0
 10 41  1  0  0  0  0
 11 12  1  0  0  0  0
 11 34  1  0  0  0  0
 11 35  1  0  0  0  0
 12 13  1  0  0  0  0
 12 36  1  0  0  0  0
 12 37  1  0  0  0  0
 13 17  1  0  0  0  0
 13 14  1  0  0  0  0
 14 15  2  0  0  0  0
 14 38  1  0  0  0  0
 15 16  1  0  0  0  0
 15 39  1  0  0  0  0
 16 17  2  0  0  0  0
 17 40  1  0  0  0  0
M  CHG  1  10   1
M  END
> <s_m_source_file>
AV-unprocessed.smi

> <i_m_source_file_index>
3187

> <i_lp_mmshare_version>
43012

> <i_f3d_flags>
0

> <s_epik_input>
W0NIM11DMT1bQ0hdW0NIMl1bQ0gyXVtDQEBIXShbQ0gzXSlbQ0BIXTFbQ0gyXVtOSF1bQ0gyXVtDSDJdbjJbY0hdW2NIXW5bY0hdMg==

> <s_epik_cmdline>
J2VwaWtfcHl0aG9uJywgJy1waCcsICc3LjAnLCAnLXRuJywgJzgnLCAnLW1hJywgJzIwMCcsICctbWV0YWxfYmluZGluZycsICctaW1hZScsICc8aW5maWxlLm1hZT4nLCAnLW9tYWUnLCAnPG91dGZpbGUubWFlPic=

> <r_lp_tautomer_probability>
1

> <r_epik_Ionization_Penalty>
0.0501625

> <r_epik_Ionization_Penalty_Charging>
0.0501625

> <r_epik_Ionization_Penalty_Neutral>
0

> <r_epik_State_Penalty>
0.0972392

> <r_epik_Charging_Adjusted_Penalty>
0.147402

> <i_epik_Tot_Q>
1

> <i_epik_Tot_abs_Q>
1

> <r_epik_Metal_State_Penalty>
0.000104376

> <b_epik_Metal_Only>
0

> <s_lp_Force_Field>
OPLS_2005

> <r_lp_Energy>
17.2086

> <b_lp_Chiralities_Consistent>
1

> <s_lp_Variant>
AV-unprocessed.smi:3187-3

> <Gold.Version>
5.8.1

> <Gold.Id.Protein>
6NUR|6NUR_protein|mol2

> <Gold.PLP.Fitness>
53.2062

> <Gold.PLP.PLP>
-44.4111

> <Gold.PLP.part.hbond>
-2.0000

> <Gold.PLP.part.metal>
0.0000

> <Gold.PLP.part.buried>
-4.7220

> <Gold.PLP.part.nonpolar>
-38.2020

> <Gold.PLP.part.repulsive>
0.2314

> <Gold.PLP.ligand.clash>
0.0000

> <Gold.PLP.ligand.torsion>
1.4052

> <Gold.PLP.Chemscore.Hbond>
2.7613

> <Gold.PLP.Chemscore.CHOScore>
1.0721

> <Gold.PLP.Chemscore.Metal>
0.0000

> <Gold.Chemscore.Hbonds>
donor molecule, donor type, donor heavy atom, donor atom, acceptor molecule, acceptor atom, score
      L1  H    10    41       P1  8028  2.00
      P1  H 10752 10765       L1    16  0.77
      L1  C    17    40       P1  7948  1.00
      L1  C    17    40       P1  7949  0.05

> <Gold.PLP.Chemscore.Internal.Correction>
0.1052

> <Gold.Rescore>
     Score         DG    S(hbond)    S(metal)    S(lipo)     H(rot)  DE(clash)    DE(int)     intcor
     18.32     -19.62       1.76        0.00     111.84       1.89       0.00       1.29       ----

> <Gold.Chemscore.Fitness>
18.3219

> <Gold.Chemscore.DG>
-19.6175

> <Gold.Chemscore.ZeroCoef>
-5.4800

> <Gold.Chemscore.Hbond>
1.7602

> <Gold.Chemscore.Metal>
0.0000

> <Gold.Chemscore.Lipo>
111.8363

> <Gold.Chemscore.Internal_Hbond>
0.0000

> <Gold.Chemscore.DEClash>
0.0029

> <Gold.Chemscore.DEInternal>
1.2927

> <Gold.Chemscore.Rot>
1.8853

> <Gold.Chemscore.Internal.Correction>
   9.000000E+99

> <Gold.Chemscore.Hbonds>
donor molecule, donor type, donor heavy atom, donor atom, acceptor molecule, acceptor atom, score
      L1  H    10    41       P1  8028  0.99
      P1  H 10752 10765       L1    16  0.75

> <Gold.Chemscore.Hbond.Weighted>
-5.8790

> <Gold.Chemscore.Metal.Weighted>
-0.0000

> <Gold.Chemscore.Lipo.Weighted>
-13.0848

> <Gold.Chemscore.Internal_Hbond.Weighted>
0.0000

> <Gold.Chemscore.DEClash.Weighted>
0.0029

> <Gold.Chemscore.DEInternal.Weighted>
1.2927

> <Gold.Chemscore.Rot.Weighted>
4.8263

> <Gold.Chemscore.Internal.Correction.Weighted>
   9.000000E+99

> <Gold.Protein.RotatedTorsions>
[ 6907 6896 6895 6894 ] final  154.71 input  -60.11 | X-H torsion
[ 7974 7965 7964 7962 ] final -103.57 input  175.53 | X-H torsion
[ 8008 7997 7996 7995 ] final  121.83 input   59.86 | X-H torsion
[ 10167 10162 10161 10158 ] final   -1.03 input  -65.29 | X-H torsion
[ 10718 10713 10712 10709 ] final   33.67 input   66.30 | X-H torsion
[ 10763 10752 10751 10750 ] final  144.75 input  -60.55 | X-H torsion
[ 11005 11000 10999 10996 ] final  -55.90 input  -57.11 | X-H torsion

> <Gold.Protein.ActiveResidues>
 VAL166  LYS551  ARG553  GLY616  TRP617  ASP618  TYR619  PRO620  LYS621  CYS622 
 ASP623  PHE694  ASN695  SER759  ASP760  ASP761  ALA762  ILE779  LEU786  VAL792 
 PHE793  MET794  SER795  GLU796  ALA797  LYS798  CYS799  TRP800  GLU811  SER814 

> <Gold.Protein.RotatedAtoms>
  152.0546  133.4034  159.4391 H   0  0  0  0  0  0  0  0  0  0  0  0  # atno 6907 bound_to 6896
  150.6868  134.3270  159.4820 H   0  0  0  0  0  0  0  0  0  0  0  0  # atno 6908 bound_to 6896
  152.1083  134.9292  160.0618 H   0  0  0  0  0  0  0  0  0  0  0  0  # atno 6909 bound_to 6896
  145.2542  140.9248  143.3078 H   0  0  0  0  0  0  0  0  0  0  0  0  # atno 7974 bound_to 7965
  156.2703  140.2799  156.1370 H   0  0  0  0  0  0  0  0  0  0  0  0  # atno 8008 bound_to 7997
  155.0994  140.0389  157.2710 H   0  0  0  0  0  0  0  0  0  0  0  0  # atno 8009 bound_to 7997
  154.6827  140.2612  155.6897 H   0  0  0  0  0  0  0  0  0  0  0  0  # atno 8010 bound_to 7997
  140.6793  143.6824  150.8095 H   0  0  0  0  0  0  0  0  0  0  0  0  # atno 10167 bound_to 10162
  157.3007  130.7349  149.6665 H   0  0  0  0  0  0  0  0  0  0  0  0  # atno 10718 bound_to 10713
  153.9940  135.2929  155.3409 H   0  0  0  0  0  0  0  0  0  0  0  0  # atno 10763 bound_to 10752
  154.7198  135.5114  153.8797 H   0  0  0  0  0  0  0  0  0  0  0  0  # atno 10764 bound_to 10752
  153.0796  135.6675  154.0189 H   0  0  0  0  0  0  0  0  0  0  0  0  # atno 10765 bound_to 10752
  141.1095  133.6611  156.4538 H   0  0  0  0  0  0  0  0  0  0  0  0  # atno 11005 bound_to 11000
  144.9476  139.4119  143.6418 LP  0  0  0  0  0  0  0  0  0  0  0  0  # atno 17320 bound_to 7965
  146.3294  139.8467  142.8880 LP  0  0  0  0  0  0  0  0  0  0  0  0  # atno 17321 bound_to 7965
  140.0522  143.5239  152.2668 LP  0  0  0  0  0  0  0  0  0  0  0  0  # atno 17342 bound_to 10162
  139.6104  144.7607  151.2964 LP  0  0  0  0  0  0  0  0  0  0  0  0  # atno 17343 bound_to 10162
  155.9671  130.4280  150.4771 LP  0  0  0  0  0  0  0  0  0  0  0  0  # atno 17370 bound_to 10713
  157.2752  131.0595  151.2234 LP  0  0  0  0  0  0  0  0  0  0  0  0  # atno 17371 bound_to 10713
  140.4813  134.6662  157.5172 LP  0  0  0  0  0  0  0  0  0  0  0  0  # atno 17394 bound_to 11000
  139.9982  134.6878  155.9575 LP  0  0  0  0  0  0  0  0  0  0  0  0  # atno 17395 bound_to 11000

$$$$
