AV-unprocessed.smi:2444|AV-procd|sdf|9632|dock4
  -GOLD-   2272013263D 1   1.00000     0.00000
 Structure written by MMmdl.
 18 18  0  0  0  0  0  0  0  0  2 V2000
  149.6034  142.2448  155.7157 N   0  3  0  0  0  0  0  0  0  0  0  0
  150.3604  141.9529  156.9447 C   0  0  0  0  0  0  0  0  0  0  0  0
  151.6042  141.1043  156.6488 C   0  0  0  0  0  0  0  0  0  0  0  0
  151.2788  139.8653  155.8836 C   0  0  0  0  0  0  0  0  0  0  0  0
  151.5185  138.6012  156.2504 N   0  0  0  0  0  0  0  0  0  0  0  0
  150.9944  137.8100  155.2497 N   0  0  0  0  0  0  0  0  0  0  0  0
  150.4691  138.6652  154.3739 C   0  0  0  0  0  0  0  0  0  0  0  0
  149.8111  138.4174  153.1817 N   0  0  0  0  0  0  0  0  0  0  0  0
  150.5993  139.9715  154.7109 O   0  0  0  0  0  0  0  0  0  0  0  0
  150.2381  142.2913  154.9311 H   0  0  0  0  0  0  0  0  0  0  0  0
  149.1261  143.1296  155.8141 H   0  0  0  0  0  0  0  0  0  0  0  0
  150.6480  142.8967  157.4094 H   0  0  0  0  0  0  0  0  0  0  0  0
  149.7050  141.4348  157.6458 H   0  0  0  0  0  0  0  0  0  0  0  0
  152.3297  141.6845  156.0771 H   0  0  0  0  0  0  0  0  0  0  0  0
  152.0956  140.8171  157.5794 H   0  0  0  0  0  0  0  0  0  0  0  0
  149.6631  137.4752  152.8496 H   0  0  0  0  0  0  0  0  0  0  0  0
  149.4939  139.1689  152.5866 H   0  0  0  0  0  0  0  0  0  0  0  0
  148.9257  141.5131  155.5551 H   0  0  0  0  0  0  0  0  0  0  0  0
  1  2  1  0  0  0  0
  1 10  1  0  0  0  0
  1 11  1  0  0  0  0
  1 18  1  0  0  0  0
  2  3  1  0  0  0  0
  2 12  1  0  0  0  0
  2 13  1  0  0  0  0
  3  4  1  0  0  0  0
  3 14  1  0  0  0  0
  3 15  1  0  0  0  0
  4  9  1  0  0  0  0
  4  5  2  0  0  0  0
  5  6  1  0  0  0  0
  6  7  2  0  0  0  0
  7  8  1  0  0  0  0
  7  9  1  0  0  0  0
  8 16  1  0  0  0  0
  8 17  1  0  0  0  0
M  CHG  1   1   1
M  END
> <s_m_source_file>
AV-unprocessed.smi

> <i_m_source_file_index>
2444

> <i_lp_mmshare_version>
43012

> <i_f3d_flags>
0

> <s_epik_input>
W05IMl1bQ0gyXVtDSDJdYzFubmMobzEpW05IMl0=

> <s_epik_cmdline>
J2VwaWtfcHl0aG9uJywgJy1waCcsICc3LjAnLCAnLXRuJywgJzgnLCAnLW1hJywgJzIwMCcsICctbWV0YWxfYmluZGluZycsICctaW1hZScsICc8aW5maWxlLm1hZT4nLCAnLW9tYWUnLCAnPG91dGZpbGUubWFlPic=

> <r_lp_tautomer_probability>
0.999976

> <r_epik_Ionization_Penalty>
0.00128557

> <r_epik_Ionization_Penalty_Charging>
0.00128552

> <r_epik_Ionization_Penalty_Neutral>
5.30568e-08

> <r_epik_State_Penalty>
0.000852301

> <r_epik_Charging_Adjusted_Penalty>
0.00213782

> <i_epik_Tot_Q>
1

> <i_epik_Tot_abs_Q>
1

> <r_epik_Metal_State_Penalty>
-0

> <b_epik_Metal_Only>
0

> <s_lp_Force_Field>
OPLS_2005

> <r_lp_Energy>
0.265405

> <b_lp_Chiralities_Consistent>
1

> <s_lp_Variant>
AV-unprocessed.smi:2444-1

> <Gold.Version>
5.8.1

> <Gold.Id.Protein>
6NUR|6NUR_protein|mol2

> <Gold.PLP.Fitness>
29.9785

> <Gold.PLP.PLP>
-15.0239

> <Gold.PLP.part.hbond>
-4.2590

> <Gold.PLP.part.metal>
0.0000

> <Gold.PLP.part.buried>
-2.9198

> <Gold.PLP.part.nonpolar>
-7.7869

> <Gold.PLP.part.repulsive>
0.4134

> <Gold.PLP.ligand.clash>
0.0000

> <Gold.PLP.ligand.torsion>
0.0267

> <Gold.PLP.Chemscore.Hbond>
5.0000

> <Gold.PLP.Chemscore.CHOScore>
0.0000

> <Gold.PLP.Chemscore.Metal>
0.0000

> <Gold.Chemscore.Hbonds>
donor molecule, donor type, donor heavy atom, donor atom, acceptor molecule, acceptor atom, score
      L1  H     1    11       P1  8028  2.00
      L1  H     8    16       P1  7948  1.00
      L1  H     8    17       P1  7957  0.98
      P1  H  7989  7998       L1     9  1.00

> <Gold.PLP.Chemscore.Internal.Correction>
0.0080

> <Gold.Rescore>
     Score         DG    S(hbond)    S(metal)    S(lipo)     H(rot)  DE(clash)    DE(int)     intcor
     14.20     -15.78       3.90        0.00      13.35       1.67       0.10       1.47       ----

> <Gold.Chemscore.Fitness>
14.2045

> <Gold.Chemscore.DG>
-15.7785

> <Gold.Chemscore.ZeroCoef>
-5.4800

> <Gold.Chemscore.Hbond>
3.8992

> <Gold.Chemscore.Metal>
0.0000

> <Gold.Chemscore.Lipo>
13.3549

> <Gold.Chemscore.Internal_Hbond>
0.0000

> <Gold.Chemscore.DEClash>
0.1045

> <Gold.Chemscore.DEInternal>
1.4695

> <Gold.Chemscore.Rot>
1.6747

> <Gold.Chemscore.Internal.Correction>
   9.000000E+99

> <Gold.Chemscore.Hbonds>
donor molecule, donor type, donor heavy atom, donor atom, acceptor molecule, acceptor atom, score
      L1  H     1    11       P1  8028  0.98
      L1  H     8    16       P1  7948  0.54
      L1  H     8    17       P1  7957  0.92
      P1  H  7989  7998       L1     9  0.55

> <Gold.Chemscore.Hbond.Weighted>
-13.0232

> <Gold.Chemscore.Metal.Weighted>
-0.0000

> <Gold.Chemscore.Lipo.Weighted>
-1.5625

> <Gold.Chemscore.Internal_Hbond.Weighted>
0.0000

> <Gold.Chemscore.DEClash.Weighted>
0.1045

> <Gold.Chemscore.DEInternal.Weighted>
1.4695

> <Gold.Chemscore.Rot.Weighted>
4.2872

> <Gold.Chemscore.Internal.Correction.Weighted>
   9.000000E+99

> <Gold.Protein.RotatedTorsions>
[ 6907 6896 6895 6894 ] final  -53.39 input  -60.11 | X-H torsion
[ 7974 7965 7964 7962 ] final   29.06 input  175.53 | X-H torsion
[ 8008 7997 7996 7995 ] final  157.38 input   59.86 | X-H torsion
[ 10167 10162 10161 10158 ] final  173.69 input  -65.29 | X-H torsion
[ 10718 10713 10712 10709 ] final  -39.39 input   66.30 | X-H torsion
[ 10763 10752 10751 10750 ] final  -81.72 input  -60.55 | X-H torsion
[ 11005 11000 10999 10996 ] final  -51.77 input  -57.11 | X-H torsion

> <Gold.Protein.ActiveResidues>
 VAL166  LYS551  ARG553  GLY616  TRP617  ASP618  TYR619  PRO620  LYS621  CYS622 
 ASP623  PHE694  ASN695  SER759  ASP760  ASP761  ALA762  ILE779  LEU786  VAL792 
 PHE793  MET794  SER795  GLU796  ALA797  LYS798  CYS799  TRP800  GLU811  SER814 

> <Gold.Protein.RotatedAtoms>
  150.8431  134.7731  159.6948 H   0  0  0  0  0  0  0  0  0  0  0  0  # atno 6907 bound_to 6896
  152.4514  134.5382  159.9841 H   0  0  0  0  0  0  0  0  0  0  0  0  # atno 6908 bound_to 6896
  151.5517  133.3378  159.2990 H   0  0  0  0  0  0  0  0  0  0  0  0  # atno 6909 bound_to 6896
  146.1693  139.6973  142.8978 H   0  0  0  0  0  0  0  0  0  0  0  0  # atno 7974 bound_to 7965
  156.2367  140.1887  156.7100 H   0  0  0  0  0  0  0  0  0  0  0  0  # atno 8008 bound_to 7997
  154.6120  140.0620  156.9532 H   0  0  0  0  0  0  0  0  0  0  0  0  # atno 8009 bound_to 7997
  155.2001  140.3291  155.4347 H   0  0  0  0  0  0  0  0  0  0  0  0  # atno 8010 bound_to 7997
  139.5117  144.3232  152.0183 H   0  0  0  0  0  0  0  0  0  0  0  0  # atno 10167 bound_to 10162
  156.2930  130.4230  149.8219 H   0  0  0  0  0  0  0  0  0  0  0  0  # atno 10718 bound_to 10713
  154.5670  135.5616  153.7060 H   0  0  0  0  0  0  0  0  0  0  0  0  # atno 10763 bound_to 10752
  153.0036  135.6288  154.2166 H   0  0  0  0  0  0  0  0  0  0  0  0  # atno 10764 bound_to 10752
  154.2105  135.2874  155.2940 H   0  0  0  0  0  0  0  0  0  0  0  0  # atno 10765 bound_to 10752
  141.0889  133.6636  156.3926 H   0  0  0  0  0  0  0  0  0  0  0  0  # atno 11005 bound_to 11000
  145.4382  141.0420  143.2872 LP  0  0  0  0  0  0  0  0  0  0  0  0  # atno 17320 bound_to 7965
  144.8139  139.5911  143.7017 LP  0  0  0  0  0  0  0  0  0  0  0  0  # atno 17321 bound_to 7965
  140.2673  144.4002  150.6164 LP  0  0  0  0  0  0  0  0  0  0  0  0  # atno 17342 bound_to 10162
  140.6114  143.2170  151.6879 LP  0  0  0  0  0  0  0  0  0  0  0  0  # atno 17343 bound_to 10162
  156.5625  130.8390  151.3333 LP  0  0  0  0  0  0  0  0  0  0  0  0  # atno 17370 bound_to 10713
  157.7347  130.9751  150.2046 LP  0  0  0  0  0  0  0  0  0  0  0  0  # atno 17371 bound_to 10713
  140.5299  134.6223  157.5346 LP  0  0  0  0  0  0  0  0  0  0  0  0  # atno 17394 bound_to 11000
  139.9711  134.7291  156.0039 LP  0  0  0  0  0  0  0  0  0  0  0  0  # atno 17395 bound_to 11000

$$$$
