AV-unprocessed.smi:2113|AV-procd|sdf|8616|dock9
  -GOLD-   2272011363D 1   1.00000     0.00000
 Structure written by MMmdl.
 44 45  0  0  0  0  0  0  0  0  1 V2000
  147.9876  133.2094  152.3406 C   0  0  0  0  0  0  0  0  0  0  0  0
  146.5587  133.0788  152.8723 C   0  0  0  0  0  0  0  0  0  0  0  0
  146.0951  134.3687  153.2536 O   0  0  0  0  0  0  0  0  0  0  0  0
  145.8100  135.2618  152.1795 C   0  0  1  0  0  0  0  0  0  0  0  0
  144.7076  134.6201  151.3242 C   0  0  0  0  0  0  0  0  0  0  0  0
  145.3694  136.6316  152.7192 C   0  0  0  0  0  0  0  0  0  0  0  0
  144.3379  136.7353  153.3836 O   0  0  0  0  0  0  0  0  0  0  0  0
  146.1648  137.6730  152.4289 N   0  0  0  0  0  0  0  0  0  0  0  0
  145.9033  139.0531  152.8214 C   0  0  0  0  0  0  0  0  0  0  0  0
  146.9227  139.5947  153.8097 C   0  0  0  0  0  0  0  0  0  0  0  0
  146.8891  140.9385  154.2324 C   0  0  0  0  0  0  0  0  0  0  0  0
  147.8484  141.3866  155.1600 C   0  0  0  0  0  0  0  0  0  0  0  0
  148.8205  140.4774  155.6415 C   0  0  0  0  0  0  0  0  0  0  0  0
  149.7850  140.9018  156.5807 N   0  0  0  0  0  0  0  0  0  0  0  0
  150.3618  142.2231  156.3469 C   0  0  0  0  0  0  0  0  0  0  0  0
  151.1419  142.6936  157.5867 C   0  0  0  0  0  0  0  0  0  0  0  0
  152.1159  141.7185  157.9435 O   0  0  0  0  0  0  0  0  0  0  0  0
  151.5180  140.4699  158.2763 C   0  0  0  0  0  0  0  0  0  0  0  0
  150.7567  139.9199  157.0586 C   0  0  0  0  0  0  0  0  0  0  0  0
  148.8491  139.1854  155.2296 N   0  0  0  0  0  0  0  0  0  0  0  0
  147.9286  138.7615  154.3384 C   0  0  0  0  0  0  0  0  0  0  0  0
  148.3818  132.2387  152.0401 H   0  0  0  0  0  0  0  0  0  0  0  0
  148.6524  133.6196  153.1013 H   0  0  0  0  0  0  0  0  0  0  0  0
  148.0238  133.8683  151.4730 H   0  0  0  0  0  0  0  0  0  0  0  0
  145.9214  132.6452  152.1011 H   0  0  0  0  0  0  0  0  0  0  0  0
  146.5450  132.4051  153.7299 H   0  0  0  0  0  0  0  0  0  0  0  0
  146.7003  135.3778  151.5582 H   0  0  0  0  0  0  0  0  0  0  0  0
  144.4279  135.2642  150.4900 H   0  0  0  0  0  0  0  0  0  0  0  0
  143.8091  134.4204  151.9097 H   0  0  0  0  0  0  0  0  0  0  0  0
  145.0447  133.6709  150.9076 H   0  0  0  0  0  0  0  0  0  0  0  0
  146.9982  137.4996  151.8862 H   0  0  0  0  0  0  0  0  0  0  0  0
  145.8567  139.6893  151.9357 H   0  0  0  0  0  0  0  0  0  0  0  0
  144.9176  139.0964  153.2850 H   0  0  0  0  0  0  0  0  0  0  0  0
  146.1366  141.6168  153.8578 H   0  0  0  0  0  0  0  0  0  0  0  0
  147.8160  142.4098  155.5031 H   0  0  0  0  0  0  0  0  0  0  0  0
  151.0292  142.1674  155.4860 H   0  0  0  0  0  0  0  0  0  0  0  0
  149.5979  142.9616  156.1085 H   0  0  0  0  0  0  0  0  0  0  0  0
  151.6456  143.6372  157.3768 H   0  0  0  0  0  0  0  0  0  0  0  0
  150.4669  142.8728  158.4253 H   0  0  0  0  0  0  0  0  0  0  0  0
  152.2979  139.7708  158.5779 H   0  0  0  0  0  0  0  0  0  0  0  0
  150.8504  140.5899  159.1313 H   0  0  0  0  0  0  0  0  0  0  0  0
  150.2527  138.9932  157.3363 H   0  0  0  0  0  0  0  0  0  0  0  0
  151.4567  139.6837  156.2560 H   0  0  0  0  0  0  0  0  0  0  0  0
  147.9943  137.7237  154.0471 H   0  0  0  0  0  0  0  0  0  0  0  0
  1  2  1  0  0  0  0
  1 22  1  0  0  0  0
  1 23  1  0  0  0  0
  1 24  1  0  0  0  0
  2  3  1  0  0  0  0
  2 25  1  0  0  0  0
  2 26  1  0  0  0  0
  3  4  1  0  0  0  0
  4  5  1  0  0  0  0
  4  6  1  0  0  0  0
  4 27  1  0  0  0  0
  5 28  1  0  0  0  0
  5 29  1  0  0  0  0
  5 30  1  0  0  0  0
  6  7  2  0  0  0  0
  6  8  1  0  0  0  0
  8  9  1  0  0  0  0
  8 31  1  0  0  0  0
  9 10  1  0  0  0  0
  9 32  1  0  0  0  0
  9 33  1  0  0  0  0
 10 21  1  0  0  0  0
 10 11  2  0  0  0  0
 11 12  1  0  0  0  0
 11 34  1  0  0  0  0
 12 13  2  0  0  0  0
 12 35  1  0  0  0  0
 13 14  1  0  0  0  0
 13 20  1  0  0  0  0
 14 19  1  0  0  0  0
 14 15  1  0  0  0  0
 15 16  1  0  0  0  0
 15 36  1  0  0  0  0
 15 37  1  0  0  0  0
 16 17  1  0  0  0  0
 16 38  1  0  0  0  0
 16 39  1  0  0  0  0
 17 18  1  0  0  0  0
 18 19  1  0  0  0  0
 18 40  1  0  0  0  0
 18 41  1  0  0  0  0
 19 42  1  0  0  0  0
 19 43  1  0  0  0  0
 20 21  2  0  0  0  0
 21 44  1  0  0  0  0
M  END
> <s_m_source_file>
AV-unprocessed.smi

> <i_m_source_file_index>
2113

> <i_lp_mmshare_version>
43012

> <i_f3d_flags>
0

> <s_epik_input>
W0NIM11bQ0gyXU9bQ0BIXShbQ0gzXSlDKD1PKVtOSF1bQ0gyXWMxW2NIXVtjSF1jKG5bY0hdMSlOMltDSDJdW0NIMl1PW0NIMl1bQ0gyXTI=

> <s_epik_cmdline>
J2VwaWtfcHl0aG9uJywgJy1waCcsICc3LjAnLCAnLXRuJywgJzgnLCAnLW1hJywgJzIwMCcsICctbWV0YWxfYmluZGluZycsICctaW1hZScsICc8aW5maWxlLm1hZT4nLCAnLW9tYWUnLCAnPG91dGZpbGUubWFlPic=

> <r_lp_tautomer_probability>
1

> <r_epik_Ionization_Penalty>
0.00454344

> <r_epik_Ionization_Penalty_Charging>
0

> <r_epik_Ionization_Penalty_Neutral>
0.00454344

> <r_epik_State_Penalty>
0.00328127

> <r_epik_Charging_Adjusted_Penalty>
0.00328127

> <i_epik_Tot_Q>
0

> <i_epik_Tot_abs_Q>
0

> <r_epik_Metal_State_Penalty>
-0

> <b_epik_Metal_Only>
0

> <s_lp_Force_Field>
OPLS_2005

> <r_lp_Energy>
17.3963

> <b_lp_Chiralities_Consistent>
1

> <s_lp_Variant>
AV-unprocessed.smi:2113-2

> <Gold.Version>
5.8.1

> <Gold.Id.Protein>
6NUR|6NUR_protein|mol2

> <Gold.PLP.Fitness>
38.4866

> <Gold.PLP.PLP>
-32.9240

> <Gold.PLP.part.hbond>
-1.0000

> <Gold.PLP.part.metal>
0.0000

> <Gold.PLP.part.buried>
-2.9360

> <Gold.PLP.part.nonpolar>
-30.1029

> <Gold.PLP.part.repulsive>
0.7407

> <Gold.PLP.ligand.clash>
0.0000

> <Gold.PLP.ligand.torsion>
0.3599

> <Gold.PLP.Chemscore.Hbond>
0.9600

> <Gold.PLP.Chemscore.CHOScore>
1.0000

> <Gold.PLP.Chemscore.Metal>
0.0000

> <Gold.Chemscore.Hbonds>
donor molecule, donor type, donor heavy atom, donor atom, acceptor molecule, acceptor atom, score
      L1  H     8    31       P1  7948  0.27
      L1  C    21    44       P1  7948  0.30

> <Gold.PLP.Chemscore.Internal.Correction>
0.4024

> <Gold.Rescore>
     Score         DG    S(hbond)    S(metal)    S(lipo)     H(rot)  DE(clash)    DE(int)     intcor
     11.97     -12.76       0.92        0.00      77.37       1.90       0.02       0.77       ----

> <Gold.Chemscore.Fitness>
11.9663

> <Gold.Chemscore.DG>
-12.7602

> <Gold.Chemscore.ZeroCoef>
-5.4800

> <Gold.Chemscore.Hbond>
0.9221

> <Gold.Chemscore.Metal>
0.0000

> <Gold.Chemscore.Lipo>
77.3690

> <Gold.Chemscore.Internal_Hbond>
0.0000

> <Gold.Chemscore.DEClash>
0.0234

> <Gold.Chemscore.DEInternal>
0.7705

> <Gold.Chemscore.Rot>
1.8952

> <Gold.Chemscore.Internal.Correction>
   9.000000E+99

> <Gold.Chemscore.Hbonds>
donor molecule, donor type, donor heavy atom, donor atom, acceptor molecule, acceptor atom, score
      L1  H     8    31       P1  7948  0.27

> <Gold.Chemscore.Hbond.Weighted>
-3.0797

> <Gold.Chemscore.Metal.Weighted>
-0.0000

> <Gold.Chemscore.Lipo.Weighted>
-9.0522

> <Gold.Chemscore.Internal_Hbond.Weighted>
0.0000

> <Gold.Chemscore.DEClash.Weighted>
0.0234

> <Gold.Chemscore.DEInternal.Weighted>
0.7705

> <Gold.Chemscore.Rot.Weighted>
4.8516

> <Gold.Chemscore.Internal.Correction.Weighted>
   9.000000E+99

> <Gold.Protein.RotatedTorsions>
[ 6907 6896 6895 6894 ] final -160.54 input  -60.11 | X-H torsion
[ 7974 7965 7964 7962 ] final   44.65 input  175.53 | X-H torsion
[ 8008 7997 7996 7995 ] final -160.20 input   59.86 | X-H torsion
[ 10167 10162 10161 10158 ] final   36.68 input  -65.29 | X-H torsion
[ 10718 10713 10712 10709 ] final  -59.81 input   66.30 | X-H torsion
[ 10763 10752 10751 10750 ] final   92.46 input  -60.55 | X-H torsion
[ 11005 11000 10999 10996 ] final  -92.82 input  -57.11 | X-H torsion

> <Gold.Protein.ActiveResidues>
 VAL166  LYS551  ARG553  GLY616  TRP617  ASP618  TYR619  PRO620  LYS621  CYS622 
 ASP623  PHE694  ASN695  SER759  ASP760  ASP761  ALA762  ILE779  LEU786  VAL792 
 PHE793  MET794  SER795  GLU796  ALA797  LYS798  CYS799  TRP800  GLU811  SER814 

> <Gold.Protein.RotatedAtoms>
  151.3507  133.3926  159.2679 H   0  0  0  0  0  0  0  0  0  0  0  0  # atno 6907 bound_to 6896
  150.9803  134.9161  159.7851 H   0  0  0  0  0  0  0  0  0  0  0  0  # atno 6908 bound_to 6896
  152.5215  134.3471  159.9290 H   0  0  0  0  0  0  0  0  0  0  0  0  # atno 6909 bound_to 6896
  146.0550  139.5051  142.9694 H   0  0  0  0  0  0  0  0  0  0  0  0  # atno 7974 bound_to 7965
  155.7739  140.0856  157.2093 H   0  0  0  0  0  0  0  0  0  0  0  0  # atno 8008 bound_to 7997
  154.3994  140.1520  156.3031 H   0  0  0  0  0  0  0  0  0  0  0  0  # atno 8009 bound_to 7997
  155.8720  140.3425  155.5830 H   0  0  0  0  0  0  0  0  0  0  0  0  # atno 8010 bound_to 7997
  140.4104  144.1600  150.6139 H   0  0  0  0  0  0  0  0  0  0  0  0  # atno 10167 bound_to 10162
  156.1035  130.4183  150.0767 H   0  0  0  0  0  0  0  0  0  0  0  0  # atno 10718 bound_to 10713
  153.2194  135.4360  155.0472 H   0  0  0  0  0  0  0  0  0  0  0  0  # atno 10763 bound_to 10752
  154.8242  135.3352  154.6949 H   0  0  0  0  0  0  0  0  0  0  0  0  # atno 10764 bound_to 10752
  153.7382  135.7006  153.5029 H   0  0  0  0  0  0  0  0  0  0  0  0  # atno 10765 bound_to 10752
  141.1512  133.7846  157.0073 H   0  0  0  0  0  0  0  0  0  0  0  0  # atno 11005 bound_to 11000
  145.6659  141.0229  143.1683 LP  0  0  0  0  0  0  0  0  0  0  0  0  # atno 17320 bound_to 7965
  144.7143  139.8255  143.7404 LP  0  0  0  0  0  0  0  0  0  0  0  0  # atno 17321 bound_to 7965
  140.4644  143.2436  151.9176 LP  0  0  0  0  0  0  0  0  0  0  0  0  # atno 17342 bound_to 10162
  139.4782  144.5435  151.8493 LP  0  0  0  0  0  0  0  0  0  0  0  0  # atno 17343 bound_to 10162
  156.8748  130.9536  151.3605 LP  0  0  0  0  0  0  0  0  0  0  0  0  # atno 17370 bound_to 10713
  157.6208  130.8654  149.9106 LP  0  0  0  0  0  0  0  0  0  0  0  0  # atno 17371 bound_to 10713
  140.0900  134.9598  157.1762 LP  0  0  0  0  0  0  0  0  0  0  0  0  # atno 17394 bound_to 11000
  140.3458  134.2653  155.7205 LP  0  0  0  0  0  0  0  0  0  0  0  0  # atno 17395 bound_to 11000

$$$$
