AV-unprocessed.smi:2217|AV-procd|sdf|8974|dock4
  -GOLD-   2272012183D 1   1.00000     0.00000
 Structure written by MMmdl.
 45 48  0  0  0  0  0  0  0  0  1 V2000
  149.4636  134.1772  154.5568 C   0  0  0  0  0  0  0  0  0  0  0  0
  149.8442  135.3613  155.4207 C   0  0  0  0  0  0  0  0  0  0  0  0
  149.4525  135.4361  156.7707 C   0  0  0  0  0  0  0  0  0  0  0  0
  149.8324  136.5622  157.5262 C   0  0  0  0  0  0  0  0  0  0  0  0
  150.5951  137.5862  156.9203 C   0  0  0  0  0  0  0  0  0  0  0  0
  150.9096  138.6784  157.7825 N   0  0  0  0  0  0  0  0  0  0  0  0
  151.7957  139.6894  157.6537 C   0  0  0  0  0  0  0  0  0  0  0  0
  152.5101  139.7887  156.6577 O   0  0  0  0  0  0  0  0  0  0  0  0
  151.8417  140.5661  158.6674 N   0  0  0  0  0  0  0  0  0  0  0  0
  152.7452  141.7168  158.7520 C   0  0  2  0  0  0  0  0  0  0  0  0
  153.6626  141.6948  159.9783 C   0  0  2  0  0  0  0  0  0  0  0  0
  154.1568  140.6519  160.9151 C   0  0  0  0  0  0  0  0  0  0  0  0
  153.9928  141.4688  162.2240 C   0  0  0  0  0  0  0  0  0  0  0  0
  153.2534  142.6619  161.8593 O   0  0  0  0  0  0  0  0  0  0  0  0
  152.4839  142.2633  160.7412 C   0  0  1  0  0  0  0  0  0  0  0  0
  152.1071  142.9911  159.4284 C   0  0  0  0  0  0  0  0  0  0  0  0
  152.7744  144.3577  159.1717 C   0  0  0  0  0  0  0  0  0  0  0  0
  151.7049  145.3270  158.6670 C   0  0  0  0  0  0  0  0  0  0  0  0
  150.4010  144.7672  159.2156 C   0  0  0  0  0  0  0  0  0  0  0  0
  150.6155  143.2566  159.1832 C   0  0  0  0  0  0  0  0  0  0  0  0
  150.9629  137.5038  155.6158 N   0  0  0  0  0  0  0  0  0  0  0  0
  150.5992  136.4250  154.8914 C   0  0  0  0  0  0  0  0  0  0  0  0
  149.0574  133.3634  155.1583 H   0  0  0  0  0  0  0  0  0  0  0  0
  150.3361  133.8011  154.0216 H   0  0  0  0  0  0  0  0  0  0  0  0
  148.7113  134.4711  153.8247 H   0  0  0  0  0  0  0  0  0  0  0  0
  148.8700  134.6472  157.2237 H   0  0  0  0  0  0  0  0  0  0  0  0
  149.5386  136.6342  158.5634 H   0  0  0  0  0  0  0  0  0  0  0  0
  150.3443  138.7243  158.6177 H   0  0  0  0  0  0  0  0  0  0  0  0
  151.2197  140.4141  159.4491 H   0  0  0  0  0  0  0  0  0  0  0  0
  153.2655  141.9386  157.8187 H   0  0  0  0  0  0  0  0  0  0  0  0
  154.4522  142.4372  159.8244 H   0  0  0  0  0  0  0  0  0  0  0  0
  153.5288  139.7601  160.9098 H   0  0  0  0  0  0  0  0  0  0  0  0
  155.1910  140.3649  160.7242 H   0  0  0  0  0  0  0  0  0  0  0  0
  153.4438  140.8951  162.9719 H   0  0  0  0  0  0  0  0  0  0  0  0
  154.9549  141.7509  162.6525 H   0  0  0  0  0  0  0  0  0  0  0  0
  151.7371  141.5198  161.0394 H   0  0  0  0  0  0  0  0  0  0  0  0
  153.1980  144.7479  160.0980 H   0  0  0  0  0  0  0  0  0  0  0  0
  153.5964  144.2904  158.4582 H   0  0  0  0  0  0  0  0  0  0  0  0
  151.8869  146.3563  158.9773 H   0  0  0  0  0  0  0  0  0  0  0  0
  151.6796  145.3067  157.5766 H   0  0  0  0  0  0  0  0  0  0  0  0
  150.2636  145.0975  160.2460 H   0  0  0  0  0  0  0  0  0  0  0  0
  149.5294  145.0835  158.6420 H   0  0  0  0  0  0  0  0  0  0  0  0
  150.3269  142.8803  158.2009 H   0  0  0  0  0  0  0  0  0  0  0  0
  149.9769  142.7542  159.9106 H   0  0  0  0  0  0  0  0  0  0  0  0
  150.9204  136.4134  153.8602 H   0  0  0  0  0  0  0  0  0  0  0  0
  1  2  1  0  0  0  0
  1 23  1  0  0  0  0
  1 24  1  0  0  0  0
  1 25  1  0  0  0  0
  2 22  1  0  0  0  0
  2  3  2  0  0  0  0
  3  4  1  0  0  0  0
  3 26  1  0  0  0  0
  4  5  2  0  0  0  0
  4 27  1  0  0  0  0
  5  6  1  0  0  0  0
  5 21  1  0  0  0  0
  6  7  1  0  0  0  0
  6 28  1  0  0  0  0
  7  8  2  0  0  0  0
  7  9  1  0  0  0  0
  9 10  1  0  0  0  0
  9 29  1  0  0  0  0
 10 16  1  0  0  0  0
 10 11  1  0  0  0  0
 10 30  1  0  0  0  0
 11 15  1  0  0  0  0
 11 12  1  0  0  0  0
 11 31  1  0  0  0  0
 12 13  1  0  0  0  0
 12 32  1  0  0  0  0
 12 33  1  0  0  0  0
 13 14  1  0  0  0  0
 13 34  1  0  0  0  0
 13 35  1  0  0  0  0
 14 15  1  0  0  0  0
 15 16  1  0  0  0  0
 15 36  1  0  0  0  0
 16 20  1  0  0  0  0
 16 17  1  0  0  0  0
 17 18  1  0  0  0  0
 17 37  1  0  0  0  0
 17 38  1  0  0  0  0
 18 19  1  0  0  0  0
 18 39  1  0  0  0  0
 18 40  1  0  0  0  0
 19 20  1  0  0  0  0
 19 41  1  0  0  0  0
 19 42  1  0  0  0  0
 20 43  1  0  0  0  0
 20 44  1  0  0  0  0
 21 22  2  0  0  0  0
 22 45  1  0  0  0  0
M  END
> <s_m_source_file>
AV-unprocessed.smi

> <i_m_source_file_index>
2217

> <i_lp_mmshare_version>
43012

> <i_f3d_flags>
0

> <s_epik_input>
W0NIM11jMVtjSF1bY0hdYyhuW2NIXTEpW05IXUMoPU8pW05IXVtDQEBIXTJbQ0BASF0oW0NIMl1bQ0gyXU8zKVtDQEhdM0MyNFtDSDJdW0NIMl1bQ0gyXVtDSDJdNA==

> <s_epik_cmdline>
J2VwaWtfcHl0aG9uJywgJy1waCcsICc3LjAnLCAnLXRuJywgJzgnLCAnLW1hJywgJzIwMCcsICctbWV0YWxfYmluZGluZycsICctaW1hZScsICc8aW5maWxlLm1hZT4nLCAnLW9tYWUnLCAnPG91dGZpbGUubWFlPic=

> <r_lp_tautomer_probability>
1

> <r_epik_Ionization_Penalty>
6.14796e-05

> <r_epik_Ionization_Penalty_Charging>
0

> <r_epik_Ionization_Penalty_Neutral>
6.14796e-05

> <r_epik_State_Penalty>
-0

> <r_epik_Charging_Adjusted_Penalty>
0

> <i_epik_Tot_Q>
0

> <i_epik_Tot_abs_Q>
0

> <r_epik_Metal_State_Penalty>
-0

> <b_epik_Metal_Only>
0

> <s_lp_Force_Field>
OPLS_2005

> <r_lp_Energy>
82.2768

> <b_lp_Chiralities_Consistent>
1

> <s_lp_Variant>
AV-unprocessed.smi:2217-7

> <Gold.Version>
5.8.1

> <Gold.Id.Protein>
6NUR|6NUR_protein|mol2

> <Gold.PLP.Fitness>
45.3285

> <Gold.PLP.PLP>
-39.4628

> <Gold.PLP.part.hbond>
-1.0000

> <Gold.PLP.part.metal>
0.0000

> <Gold.PLP.part.buried>
-4.7907

> <Gold.PLP.part.nonpolar>
-32.8239

> <Gold.PLP.part.repulsive>
0.2648

> <Gold.PLP.ligand.clash>
0.0000

> <Gold.PLP.ligand.torsion>
0.2147

> <Gold.PLP.Chemscore.Hbond>
1.0000

> <Gold.PLP.Chemscore.CHOScore>
1.0072

> <Gold.PLP.Chemscore.Metal>
0.0000

> <Gold.Chemscore.Hbonds>
donor molecule, donor type, donor heavy atom, donor atom, acceptor molecule, acceptor atom, score
      P1  H  7997  8010       L1     8  1.00
      L1  C    22    45       P1  7948  0.05
      L1  C    22    45       P1  7949  0.91

> <Gold.PLP.Chemscore.Internal.Correction>
0.2736

> <Gold.Rescore>
     Score         DG    S(hbond)    S(metal)    S(lipo)     H(rot)  DE(clash)    DE(int)     intcor
     19.60     -21.02       1.00        0.00     126.15       1.00       0.03       1.39       ----

> <Gold.Chemscore.Fitness>
19.6001

> <Gold.Chemscore.DG>
-21.0195

> <Gold.Chemscore.ZeroCoef>
-5.4800

> <Gold.Chemscore.Hbond>
1.0000

> <Gold.Chemscore.Metal>
0.0000

> <Gold.Chemscore.Lipo>
126.1503

> <Gold.Chemscore.Internal_Hbond>
0.0000

> <Gold.Chemscore.DEClash>
0.0314

> <Gold.Chemscore.DEInternal>
1.3881

> <Gold.Chemscore.Rot>
1.0000

> <Gold.Chemscore.Internal.Correction>
   9.000000E+99

> <Gold.Chemscore.Hbonds>
donor molecule, donor type, donor heavy atom, donor atom, acceptor molecule, acceptor atom, score
      P1  H  7997  8010       L1     8  1.00

> <Gold.Chemscore.Hbond.Weighted>
-3.3399

> <Gold.Chemscore.Metal.Weighted>
-0.0000

> <Gold.Chemscore.Lipo.Weighted>
-14.7596

> <Gold.Chemscore.Internal_Hbond.Weighted>
0.0000

> <Gold.Chemscore.DEClash.Weighted>
0.0314

> <Gold.Chemscore.DEInternal.Weighted>
1.3881

> <Gold.Chemscore.Rot.Weighted>
2.5600

> <Gold.Chemscore.Internal.Correction.Weighted>
   9.000000E+99

> <Gold.Protein.RotatedTorsions>
[ 6907 6896 6895 6894 ] final  155.15 input  -60.11 | X-H torsion
[ 7974 7965 7964 7962 ] final   32.30 input  175.53 | X-H torsion
[ 8008 7997 7996 7995 ] final   66.79 input   59.86 | X-H torsion
[ 10167 10162 10161 10158 ] final   33.83 input  -65.29 | X-H torsion
[ 10718 10713 10712 10709 ] final   16.58 input   66.30 | X-H torsion
[ 10763 10752 10751 10750 ] final  102.00 input  -60.55 | X-H torsion
[ 11005 11000 10999 10996 ] final    9.75 input  -57.11 | X-H torsion

> <Gold.Protein.ActiveResidues>
 VAL166  LYS551  ARG553  GLY616  TRP617  ASP618  TYR619  PRO620  LYS621  CYS622 
 ASP623  PHE694  ASN695  SER759  ASP760  ASP761  ALA762  ILE779  LEU786  VAL792 
 PHE793  MET794  SER795  GLU796  ALA797  LYS798  CYS799  TRP800  GLU811  SER814 

> <Gold.Protein.RotatedAtoms>
  152.0483  133.4007  159.4365 H   0  0  0  0  0  0  0  0  0  0  0  0  # atno 6907 bound_to 6896
  150.6871  134.3337  159.4847 H   0  0  0  0  0  0  0  0  0  0  0  0  # atno 6908 bound_to 6896
  152.1144  134.9251  160.0616 H   0  0  0  0  0  0  0  0  0  0  0  0  # atno 6909 bound_to 6896
  146.1495  139.6544  142.9108 H   0  0  0  0  0  0  0  0  0  0  0  0  # atno 7974 bound_to 7965
  155.6829  140.3496  155.4862 H   0  0  0  0  0  0  0  0  0  0  0  0  # atno 8008 bound_to 7997
  155.9591  140.1134  157.0933 H   0  0  0  0  0  0  0  0  0  0  0  0  # atno 8009 bound_to 7997
  154.4139  140.1179  156.5141 H   0  0  0  0  0  0  0  0  0  0  0  0  # atno 8010 bound_to 7997
  140.4371  144.1240  150.6168 H   0  0  0  0  0  0  0  0  0  0  0  0  # atno 10167 bound_to 10162
  157.0699  130.6344  149.5803 H   0  0  0  0  0  0  0  0  0  0  0  0  # atno 10718 bound_to 10713
  153.3339  135.4025  155.1518 H   0  0  0  0  0  0  0  0  0  0  0  0  # atno 10763 bound_to 10752
  154.8629  135.3617  154.5434 H   0  0  0  0  0  0  0  0  0  0  0  0  # atno 10764 bound_to 10752
  153.5874  135.7075  153.5497 H   0  0  0  0  0  0  0  0  0  0  0  0  # atno 10765 bound_to 10752
  140.5222  134.0547  155.7848 H   0  0  0  0  0  0  0  0  0  0  0  0  # atno 11005 bound_to 11000
  145.4857  141.0438  143.2621 LP  0  0  0  0  0  0  0  0  0  0  0  0  # atno 17320 bound_to 7965
  144.7887  139.6374  143.7123 LP  0  0  0  0  0  0  0  0  0  0  0  0  # atno 17321 bound_to 7965
  140.4360  143.2547  151.9534 LP  0  0  0  0  0  0  0  0  0  0  0  0  # atno 17342 bound_to 10162
  139.4787  144.5699  151.8105 LP  0  0  0  0  0  0  0  0  0  0  0  0  # atno 17343 bound_to 10162
  155.9953  130.5020  150.7455 LP  0  0  0  0  0  0  0  0  0  0  0  0  # atno 17370 bound_to 10713
  157.4886  131.0909  151.0453 LP  0  0  0  0  0  0  0  0  0  0  0  0  # atno 17371 bound_to 10713
  141.1328  133.9273  157.2500 LP  0  0  0  0  0  0  0  0  0  0  0  0  # atno 17394 bound_to 11000
  139.9599  135.0156  156.9233 LP  0  0  0  0  0  0  0  0  0  0  0  0  # atno 17395 bound_to 11000

$$$$
