AV-unprocessed.smi:625|AV-procd|sdf|3104|dock1
  -GOLD-   22720 0 23D 1   1.00000     0.00000
 Structure written by MMmdl.
 49 51  0  0  0  0  0  0  0  0  1 V2000
  151.8035  137.0152  155.8428 C   0  0  0  0  0  0  0  0  0  0  0  0
  150.7342  137.8996  155.4051 N   0  0  0  0  0  0  0  0  0  0  0  0
  150.9182  139.1528  154.9543 C   0  0  0  0  0  0  0  0  0  0  0  0
  152.0420  139.6508  154.8752 O   0  0  0  0  0  0  0  0  0  0  0  0
  149.6826  139.8471  154.5800 C   0  0  0  0  0  0  0  0  0  0  0  0
  149.4466  141.1884  155.0785 C   0  0  0  0  0  0  0  0  0  0  0  0
  148.3127  141.8489  154.7732 C   0  0  0  0  0  0  0  0  0  0  0  0
  147.2757  141.2489  153.9298 C   0  0  0  0  0  0  0  0  0  0  0  0
  146.2273  141.8372  153.6654 O   0  0  0  0  0  0  0  0  0  0  0  0
  147.5432  139.9905  153.4643 N   0  0  0  0  0  0  0  0  0  0  0  0
  146.5707  139.2771  152.6152 C   0  0  0  0  0  0  0  0  0  0  0  0
  146.0474  137.9570  153.2076 C   0  0  0  0  0  0  0  0  0  0  0  0
  146.4320  137.6064  154.3223 O   0  0  0  0  0  0  0  0  0  0  0  0
  145.1872  137.2334  152.4712 N   0  0  0  0  0  0  0  0  0  0  0  0
  144.6250  135.9344  152.8293 C   0  0  1  0  0  0  0  0  0  0  0  0
  143.1332  136.1094  153.1665 C   0  0  0  0  0  0  0  0  0  0  0  0
  144.8675  134.9436  151.6638 C   0  0  1  0  0  0  0  0  0  0  0  0
  146.3673  134.7041  151.3515 C   0  0  0  0  0  0  0  0  0  0  0  0
  146.4999  133.1722  151.3987 C   0  0  2  0  0  0  0  0  0  0  0  0
  145.7615  132.5517  150.1990 C   0  0  0  0  0  0  0  0  0  0  0  0
  144.2814  132.7544  150.5724 C   0  0  0  0  0  0  0  0  0  0  0  0
  144.3683  133.4986  151.9190 C   0  0  1  0  0  0  0  0  0  0  0  0
  145.5774  132.8229  152.5584 C   0  0  0  0  0  0  0  0  0  0  0  0
  148.7283  139.3027  153.7931 C   0  0  0  0  0  0  0  0  0  0  0  0
  151.3903  136.0520  156.1417 H   0  0  0  0  0  0  0  0  0  0  0  0
  152.3318  137.4394  156.6972 H   0  0  0  0  0  0  0  0  0  0  0  0
  152.5205  136.8439  155.0392 H   0  0  0  0  0  0  0  0  0  0  0  0
  149.7918  137.5400  155.4485 H   0  0  0  0  0  0  0  0  0  0  0  0
  150.1809  141.6764  155.7034 H   0  0  0  0  0  0  0  0  0  0  0  0
  148.1627  142.8465  155.1592 H   0  0  0  0  0  0  0  0  0  0  0  0
  145.7167  139.9200  152.3945 H   0  0  0  0  0  0  0  0  0  0  0  0
  147.0118  139.0576  151.6419 H   0  0  0  0  0  0  0  0  0  0  0  0
  144.9243  137.6004  151.5680 H   0  0  0  0  0  0  0  0  0  0  0  0
  145.1391  135.5598  153.7160 H   0  0  0  0  0  0  0  0  0  0  0  0
  142.6834  135.1792  153.5108 H   0  0  0  0  0  0  0  0  0  0  0  0
  142.5678  136.4522  152.2994 H   0  0  0  0  0  0  0  0  0  0  0  0
  142.9938  136.8415  153.9626 H   0  0  0  0  0  0  0  0  0  0  0  0
  144.3751  135.3456  150.7766 H   0  0  0  0  0  0  0  0  0  0  0  0
  146.6618  135.1183  150.3865 H   0  0  0  0  0  0  0  0  0  0  0  0
  147.0132  135.1499  152.1094 H   0  0  0  0  0  0  0  0  0  0  0  0
  147.5282  132.8261  151.5070 H   0  0  0  0  0  0  0  0  0  0  0  0
  146.0249  133.0356  149.2576 H   0  0  0  0  0  0  0  0  0  0  0  0
  145.9912  131.4895  150.1066 H   0  0  0  0  0  0  0  0  0  0  0  0
  143.7326  133.3171  149.8163 H   0  0  0  0  0  0  0  0  0  0  0  0
  143.7836  131.7915  150.6953 H   0  0  0  0  0  0  0  0  0  0  0  0
  143.4486  133.4273  152.4981 H   0  0  0  0  0  0  0  0  0  0  0  0
  145.4489  131.7483  152.6999 H   0  0  0  0  0  0  0  0  0  0  0  0
  145.8809  133.2730  153.5048 H   0  0  0  0  0  0  0  0  0  0  0  0
  148.7852  138.3101  153.3696 H   0  0  0  0  0  0  0  0  0  0  0  0
  1  2  1  0  0  0  0
  1 25  1  0  0  0  0
  1 26  1  0  0  0  0
  1 27  1  0  0  0  0
  2  3  1  0  0  0  0
  2 28  1  0  0  0  0
  3  4  2  0  0  0  0
  3  5  1  0  0  0  0
  5 24  2  0  0  0  0
  5  6  1  0  0  0  0
  6  7  2  0  0  0  0
  6 29  1  0  0  0  0
  7  8  1  0  0  0  0
  7 30  1  0  0  0  0
  8  9  2  0  0  0  0
  8 10  1  0  0  0  0
 10 11  1  0  0  0  0
 10 24  1  0  0  0  0
 11 12  1  0  0  0  0
 11 31  1  0  0  0  0
 11 32  1  0  0  0  0
 12 13  2  0  0  0  0
 12 14  1  0  0  0  0
 14 15  1  0  0  0  0
 14 33  1  0  0  0  0
 15 16  1  0  0  0  0
 15 17  1  0  0  0  0
 15 34  1  0  0  0  0
 16 35  1  0  0  0  0
 16 36  1  0  0  0  0
 16 37  1  0  0  0  0
 17 22  1  0  0  0  0
 17 18  1  0  0  0  0
 17 38  1  0  0  0  0
 18 19  1  0  0  0  0
 18 39  1  0  0  0  0
 18 40  1  0  0  0  0
 19 23  1  0  0  0  0
 19 20  1  0  0  0  0
 19 41  1  0  0  0  0
 20 21  1  0  0  0  0
 20 42  1  0  0  0  0
 20 43  1  0  0  0  0
 21 22  1  0  0  0  0
 21 44  1  0  0  0  0
 21 45  1  0  0  0  0
 22 23  1  0  0  0  0
 22 46  1  0  0  0  0
 23 47  1  0  0  0  0
 23 48  1  0  0  0  0
 24 49  1  0  0  0  0
M  END
> <s_m_source_file>
AV-unprocessed.smi

> <i_m_source_file_index>
625

> <i_lp_mmshare_version>
43012

> <i_f3d_flags>
0

> <s_epik_input>
W0NIM11bTkhdQyg9TyljMVtjSF1bY0hdYyg9TyluKFtjSF0xKVtDSDJdQyg9TylbTkhdW0NASF0oW0NIM10pW0NASF0oW0NIMl1bQ0BIXTIzKVtDQEhdKFtDSDJdMylbQ0gyXVtDSDJdMg==

> <s_epik_cmdline>
J2VwaWtfcHl0aG9uJywgJy1waCcsICc3LjAnLCAnLXRuJywgJzgnLCAnLW1hJywgJzIwMCcsICctbWV0YWxfYmluZGluZycsICctaW1hZScsICc8aW5maWxlLm1hZT4nLCAnLW9tYWUnLCAnPG91dGZpbGUubWFlPic=

> <r_lp_tautomer_probability>
1

> <r_epik_Ionization_Penalty>
3.7129e-07

> <r_epik_Ionization_Penalty_Charging>
5.04114e-08

> <r_epik_Ionization_Penalty_Neutral>
3.20879e-07

> <r_epik_State_Penalty>
-0

> <r_epik_Charging_Adjusted_Penalty>
5.04114e-08

> <i_epik_Tot_Q>
0

> <i_epik_Tot_abs_Q>
0

> <r_epik_Metal_State_Penalty>
-0

> <b_epik_Metal_Only>
0

> <s_lp_Force_Field>
OPLS_2005

> <r_lp_Energy>
63.0032

> <b_lp_Chiralities_Consistent>
1

> <s_lp_Variant>
AV-unprocessed.smi:625-4

> <Gold.Version>
5.8.1

> <Gold.Id.Protein>
6NUR|6NUR_protein|mol2

> <Gold.PLP.Fitness>
47.0068

> <Gold.PLP.PLP>
-39.6846

> <Gold.PLP.part.hbond>
-2.0000

> <Gold.PLP.part.metal>
0.0000

> <Gold.PLP.part.buried>
0.3879

> <Gold.PLP.part.nonpolar>
-39.1514

> <Gold.PLP.part.repulsive>
0.6396

> <Gold.PLP.ligand.clash>
0.0000

> <Gold.PLP.ligand.torsion>
0.9341

> <Gold.PLP.Chemscore.Hbond>
1.9920

> <Gold.PLP.Chemscore.CHOScore>
1.0000

> <Gold.PLP.Chemscore.Metal>
0.0000

> <Gold.Chemscore.Hbonds>
donor molecule, donor type, donor heavy atom, donor atom, acceptor molecule, acceptor atom, score
      L1  H    14    33       P1 10171  0.39
      P1  H  7989  7998       L1     4  0.79
      L1  C    24    49       P1  7948  0.95

> <Gold.PLP.Chemscore.Internal.Correction>
0.2144

> <Gold.Rescore>
     Score         DG    S(hbond)    S(metal)    S(lipo)     H(rot)  DE(clash)    DE(int)     intcor
     12.90     -14.93       0.99        0.00      89.23       1.67       0.13       1.90       ----

> <Gold.Chemscore.Fitness>
12.9035

> <Gold.Chemscore.DG>
-14.9340

> <Gold.Chemscore.ZeroCoef>
-5.4800

> <Gold.Chemscore.Hbond>
0.9855

> <Gold.Chemscore.Metal>
0.0000

> <Gold.Chemscore.Lipo>
89.2282

> <Gold.Chemscore.Internal_Hbond>
0.0000

> <Gold.Chemscore.DEClash>
0.1346

> <Gold.Chemscore.DEInternal>
1.8959

> <Gold.Chemscore.Rot>
1.6709

> <Gold.Chemscore.Internal.Correction>
   9.000000E+99

> <Gold.Chemscore.Hbonds>
donor molecule, donor type, donor heavy atom, donor atom, acceptor molecule, acceptor atom, score
      L1  H    14    33       P1 10171  0.39
      P1  H  7989  7998       L1     4  0.15

> <Gold.Chemscore.Hbond.Weighted>
-3.2917

> <Gold.Chemscore.Metal.Weighted>
-0.0000

> <Gold.Chemscore.Lipo.Weighted>
-10.4397

> <Gold.Chemscore.Internal_Hbond.Weighted>
0.0000

> <Gold.Chemscore.DEClash.Weighted>
0.1346

> <Gold.Chemscore.DEInternal.Weighted>
1.8959

> <Gold.Chemscore.Rot.Weighted>
4.2774

> <Gold.Chemscore.Internal.Correction.Weighted>
   9.000000E+99

> <Gold.Protein.RotatedTorsions>
[ 6907 6896 6895 6894 ] final  -48.71 input  -60.11 | X-H torsion
[ 7974 7965 7964 7962 ] final   84.24 input  175.53 | X-H torsion
[ 8008 7997 7996 7995 ] final  -60.85 input   59.86 | X-H torsion
[ 10167 10162 10161 10158 ] final    6.01 input  -65.29 | X-H torsion
[ 10718 10713 10712 10709 ] final  174.81 input   66.30 | X-H torsion
[ 10763 10752 10751 10750 ] final  -77.97 input  -60.55 | X-H torsion
[ 11005 11000 10999 10996 ] final   -1.00 input  -57.11 | X-H torsion

> <Gold.Protein.ActiveResidues>
 VAL166  LYS551  ARG553  GLY616  TRP617  ASP618  TYR619  PRO620  LYS621  CYS622 
 ASP623  PHE694  ASN695  SER759  ASP760  ASP761  ALA762  ILE779  LEU786  VAL792 
 PHE793  MET794  SER795  GLU796  ALA797  LYS798  CYS799  TRP800  GLU811  SER814 

> <Gold.Protein.RotatedAtoms>
  150.8878  134.8278  159.7271 H   0  0  0  0  0  0  0  0  0  0  0  0  # atno 6907 bound_to 6896
  152.4818  134.4696  159.9641 H   0  0  0  0  0  0  0  0  0  0  0  0  # atno 6908 bound_to 6896
  151.4762  133.3518  159.2866 H   0  0  0  0  0  0  0  0  0  0  0  0  # atno 6909 bound_to 6896
  145.6014  139.2353  143.2244 H   0  0  0  0  0  0  0  0  0  0  0  0  # atno 7974 bound_to 7965
  154.4419  140.1030  156.6338 H   0  0  0  0  0  0  0  0  0  0  0  0  # atno 8008 bound_to 7997
  155.5576  140.3487  155.4465 H   0  0  0  0  0  0  0  0  0  0  0  0  # atno 8009 bound_to 7997
  156.0483  140.1298  157.0067 H   0  0  0  0  0  0  0  0  0  0  0  0  # atno 8010 bound_to 7997
  140.6451  143.7682  150.7486 H   0  0  0  0  0  0  0  0  0  0  0  0  # atno 10167 bound_to 10162
  156.9441  131.0010  151.2962 H   0  0  0  0  0  0  0  0  0  0  0  0  # atno 10718 bound_to 10713
  154.5198  135.5746  153.6672 H   0  0  0  0  0  0  0  0  0  0  0  0  # atno 10763 bound_to 10752
  152.9915  135.6179  154.2769 H   0  0  0  0  0  0  0  0  0  0  0  0  # atno 10764 bound_to 10752
  154.2689  135.2854  155.2726 H   0  0  0  0  0  0  0  0  0  0  0  0  # atno 10765 bound_to 10752
  140.6425  133.9477  155.8334 H   0  0  0  0  0  0  0  0  0  0  0  0  # atno 11005 bound_to 11000
  146.1574  140.6838  142.9294 LP  0  0  0  0  0  0  0  0  0  0  0  0  # atno 17320 bound_to 7965
  144.7308  140.4666  143.6939 LP  0  0  0  0  0  0  0  0  0  0  0  0  # atno 17321 bound_to 7965
  140.1321  143.4516  152.2248 LP  0  0  0  0  0  0  0  0  0  0  0  0  # atno 17342 bound_to 10162
  139.5661  144.7436  151.4018 LP  0  0  0  0  0  0  0  0  0  0  0  0  # atno 17343 bound_to 10162
  157.5765  130.8347  149.8463 LP  0  0  0  0  0  0  0  0  0  0  0  0  # atno 17370 bound_to 10713
  156.0391  130.3743  150.1482 LP  0  0  0  0  0  0  0  0  0  0  0  0  # atno 17371 bound_to 10713
  141.0596  134.0365  157.3676 LP  0  0  0  0  0  0  0  0  0  0  0  0  # atno 17394 bound_to 11000
  139.9075  135.0183  156.7550 LP  0  0  0  0  0  0  0  0  0  0  0  0  # atno 17395 bound_to 11000

$$$$
