#       Name:                AV-unprocessed.smi:2276
#       Creating user name   scv26
#       Creation time:       Fri Mar 27 12:39:01 2020


#       File generated by GOLD software.
#

@<TRIPOS>MOLECULE
AV-unprocessed.smi:2276
    57    58     1
SMALL
NO_CHARGES


@<TRIPOS>ATOM
      1 ****        -3.6796   6.7010  -1.7762 C.3            1 S1                 0.0000
      2 ****        -3.7388   5.1880  -1.7614 C.ar           1 S1                 0.0000
      3 ****        -4.9431   4.5086  -2.0269 C.ar           1 S1                 0.0000
      4 ****        -4.9327   3.1005  -1.9963 C.ar           1 S1                 0.0000
      5 ****        -6.1924   2.3065  -2.2715 C.3            1 S1                 0.0000
      6 ****        -3.8255   2.3776  -1.7224 N.ar           1 S1                 0.0000
      7 ****        -2.6599   3.0212  -1.4644 C.ar           1 S1                 0.0000
      8 ****        -1.4411   2.3547  -1.1688 N.am           1 S1                 0.0000
      9 ****        -1.2228   1.0320  -1.0634 C.2            1 S1                 0.0000
     10 ****        -2.0775   0.1541  -1.1871 O.2            1 S1                 0.0000
     11 ****         0.0642   0.7696  -0.7988 N.am           1 S1                 0.0000
     12 ****         0.6098  -0.5732  -0.6435 C.3            1 S1                 0.0000
     13 ****         2.1433  -0.5550  -0.4691 C.3            1 S1                 0.0000
     14 ****         2.8435   0.0870  -1.6808 C.3            1 S1                 0.0000
     15 ****         2.6992  -1.9771  -0.2328 C.3            1 S1                 0.0000
     16 ****         2.2042  -2.6025   1.0208 N.4            1 S1                 1.0000
     17 ****         2.8561  -2.0773   2.2472 C.3            1 S1                 0.0000
     18 ****         2.2435  -2.7220   3.5086 C.3            1 S1                 0.0000
     19 ****         2.3297  -4.1829   3.4817 N.3            1 S1                 0.0000
     20 ****         3.6875  -4.6811   3.6734 C.3            1 S1                 0.0000
     21 ****         1.6932  -4.6964   2.2679 C.3            1 S1                 0.0000
     22 ****         2.2988  -4.0821   0.9884 C.3            1 S1                 0.0000
     23 ****        -2.5834   4.4320  -1.4777 C.ar           1 S1                 0.0000
     24 ****        -4.6194   7.1313  -2.1242 H              1 S1                 0.0000
     25 ****        -2.8832   7.0426  -2.4378 H              1 S1                 0.0000
     26 ****        -3.4807   7.0799  -0.7735 H              1 S1                 0.0000
     27 ****        -5.8504   5.0518  -2.2478 H              1 S1                 0.0000
     28 ****        -6.9928   2.9501  -2.6375 H              1 S1                 0.0000
     29 ****        -6.5368   1.8175  -1.3600 H              1 S1                 0.0000
     30 ****        -6.0038   1.5397  -3.0236 H              1 S1                 0.0000
     31 ****        -0.6425   2.9555  -1.0284 H              1 S1                 0.0000
     32 ****         0.7068   1.5435  -0.7117 H              1 S1                 0.0000
     33 ****         0.1337  -1.0353   0.2225 H              1 S1                 0.0000
     34 ****         0.3405  -1.1766  -1.5123 H              1 S1                 0.0000
     35 ****         2.3804   0.0661   0.3942 H              1 S1                 0.0000
     36 ****         2.6219  -0.4560  -2.6002 H              1 S1                 0.0000
     37 ****         3.9261   0.0912  -1.5517 H              1 S1                 0.0000
     38 ****         2.5346   1.1227  -1.8243 H              1 S1                 0.0000
     39 ****         2.4155  -2.5985  -1.0838 H              1 S1                 0.0000
     40 ****         3.7903  -1.9676  -0.2173 H              1 S1                 0.0000
     41 ****         3.9324  -2.2487   2.2032 H              1 S1                 0.0000
     42 ****         2.7189  -0.9988   2.3110 H              1 S1                 0.0000
     43 ****         2.7338  -2.3429   4.4060 H              1 S1                 0.0000
     44 ****         1.1931  -2.4381   3.5888 H              1 S1                 0.0000
     45 ****         3.6884  -5.7710   3.7088 H              1 S1                 0.0000
     46 ****         4.0904  -4.3209   4.6206 H              1 S1                 0.0000
     47 ****         4.3652  -4.3695   2.8795 H              1 S1                 0.0000
     48 ****         1.7737  -5.7839   2.2433 H              1 S1                 0.0000
     49 ****         0.6275  -4.4673   2.3122 H              1 S1                 0.0000
     50 ****         1.7514  -4.4594   0.1238 H              1 S1                 0.0000
     51 ****         3.3373  -4.3887   0.8565 H              1 S1                 0.0000
     52 ****        -1.6488   4.9335  -1.2708 H              1 S1                 0.0000
     53 ****         1.2203  -2.3844   1.0885 H              1 S1                 0.0000
     54 ****        -3.8646   1.3784  -1.7099 LP             1 S1                 0.0000
     55 ****        -3.0259   0.4036  -1.3828 LP             1 S1                 0.0000
     56 ****        -1.8231  -0.8083  -1.0919 LP             1 S1                 0.0000
     57 ****         1.8239  -4.5369   4.2684 LP             1 S1                 0.0000
@<TRIPOS>BOND
    1    1    2 1     
    2    1   24 1     
    3    1   25 1     
    4    1   26 1     
    5    2   23 ar    
    6    2    3 ar    
    7    3    4 ar    
    8    3   27 1     
    9    4    5 1     
   10    4    6 ar    
   11    5   28 1     
   12    5   29 1     
   13    5   30 1     
   14    6    7 ar    
   15    7    8 1     
   16    7   23 ar    
   17    8    9 am    
   18    8   31 1     
   19    9   10 2     
   20    9   11 am    
   21   11   12 1     
   22   11   32 1     
   23   12   13 1     
   24   12   33 1     
   25   12   34 1     
   26   13   14 1     
   27   13   15 1     
   28   13   35 1     
   29   14   36 1     
   30   14   37 1     
   31   14   38 1     
   32   15   16 1     
   33   15   39 1     
   34   15   40 1     
   35   16   22 1     
   36   16   17 1     
   37   16   53 1     
   38   17   18 1     
   39   17   41 1     
   40   17   42 1     
   41   18   19 1     
   42   18   43 1     
   43   18   44 1     
   44   19   20 1     
   45   19   21 1     
   46   20   45 1     
   47   20   46 1     
   48   20   47 1     
   49   21   22 1     
   50   21   48 1     
   51   21   49 1     
   52   22   50 1     
   53   22   51 1     
   54   23   52 1     
   55    6   54 1     
   56   10   55 1     
   57   10   56 1     
   58   19   57 1     
@<TRIPOS>SUBSTRUCTURE
      1 S1             1
@<TRIPOS>SET
LONE_PAIRS      STATIC     ATOMS    <user>   **** ""
4 54 55 56 57
DONOR_HYDROGENS      STATIC     ATOMS    <user>   **** ""
3 31 32 53
ATOM$BLUE        STATIC     ATOMS    COLORGROUP SYSTEM
4 54 55 56 57
ATOM$RED        STATIC     ATOMS    COLORGROUP SYSTEM
3 31 32 53
