#       Name:                AV-unprocessed.smi:3287
#       Creating user name   scv26
#       Creation time:       Fri Mar 27 18:53:06 2020


#       File generated by GOLD software.
#

@<TRIPOS>MOLECULE
AV-unprocessed.smi:3287
    46    47     1
SMALL
NO_CHARGES


@<TRIPOS>ATOM
      1 ****        -4.0542   0.5111  -2.1780 C.3            1 S1                 0.0000
      2 ****        -3.1431   1.1980  -1.1452 C.3            1 S1                 0.0000
      3 ****        -3.2917   0.5049   0.2245 C.3            1 S1                 0.0000
      4 ****        -2.4080   1.1513   1.3031 C.3            1 S1                 0.0000
      5 ****        -0.9275   1.1891   0.8888 C.3            1 S1                 0.0000
      6 ****        -0.3520  -0.1761   0.9024 N.4            1 S1                 1.0000
      7 ****         1.1252  -0.2487   0.8990 C.3            1 S1                 0.0000
      8 ****         1.6136  -1.7043   0.9950 C.3            1 S1                 0.0000
      9 ****         1.1620  -2.4119  -0.1438 O.3            1 S1                 0.0000
     10 ****         3.1265  -1.7663   1.1362 C.ar           1 S1                 0.0000
     11 ****         3.9741  -1.5907   0.0205 C.ar           1 S1                 0.0000
     12 ****         5.3682  -1.6516   0.2172 C.ar           1 S1                 0.0000
     13 ****         5.9380  -1.8666   1.4222 N.ar           1 S1                 0.0000
     14 ****         5.1232  -2.0312   2.4860 C.ar           1 S1                 0.0000
     15 ****         3.7172  -1.9892   2.3978 C.ar           1 S1                 0.0000
     16 ****        -0.7797   1.8792  -0.4834 C.3            1 S1                 0.0000
     17 ****        -1.6545   1.2370  -1.5824 C.3            1 S1                 0.0000
     18 ****        -1.4415   1.9779  -2.9146 C.3            1 S1                 0.0000
     19 ****        -3.7175  -0.5036  -2.3926 H              1 S1                 0.0000
     20 ****        -4.0873   1.0603  -3.1186 H              1 S1                 0.0000
     21 ****        -5.0803   0.4491  -1.8141 H              1 S1                 0.0000
     22 ****        -3.4915   2.2262  -1.0345 H              1 S1                 0.0000
     23 ****        -4.3331   0.5415   0.5468 H              1 S1                 0.0000
     24 ****        -3.0413  -0.5527   0.1308 H              1 S1                 0.0000
     25 ****        -2.7563   2.1694   1.4827 H              1 S1                 0.0000
     26 ****        -2.5238   0.6214   2.2493 H              1 S1                 0.0000
     27 ****        -0.3906   1.7749   1.6362 H              1 S1                 0.0000
     28 ****        -0.6727  -0.6355   1.7426 H              1 S1                 0.0000
     29 ****         1.5260   0.2188  -0.0004 H              1 S1                 0.0000
     30 ****         1.5028   0.3193   1.7505 H              1 S1                 0.0000
     31 ****         1.1668  -2.1781   1.8704 H              1 S1                 0.0000
     32 ****         1.4335  -3.3142  -0.0633 H              1 S1                 0.0000
     33 ****         3.5709  -1.4120  -0.9657 H              1 S1                 0.0000
     34 ****         6.0432  -1.5221  -0.6159 H              1 S1                 0.0000
     35 ****         5.6060  -2.2003   3.4373 H              1 S1                 0.0000
     36 ****         3.1118  -2.1251   3.2820 H              1 S1                 0.0000
     37 ****        -1.0653   2.9267  -0.3755 H              1 S1                 0.0000
     38 ****         0.2643   1.8964  -0.7950 H              1 S1                 0.0000
     39 ****        -1.3142   0.2103  -1.7250 H              1 S1                 0.0000
     40 ****        -1.8306   2.9956  -2.8700 H              1 S1                 0.0000
     41 ****        -1.9288   1.4681  -3.7452 H              1 S1                 0.0000
     42 ****        -0.3814   2.0403  -3.1622 H              1 S1                 0.0000
     43 ****        -0.7057  -0.6875   0.1061 H              1 S1                 0.0000
     44 ****         1.5603  -2.0121  -0.9694 LP             1 S1                 0.0000
     45 ****         0.1646  -2.3632  -0.1977 LP             1 S1                 0.0000
     46 ****         6.9322  -1.9028   1.5235 LP             1 S1                 0.0000
@<TRIPOS>BOND
    1    1    2 1     
    2    1   19 1     
    3    1   20 1     
    4    1   21 1     
    5    2   17 1     
    6    2    3 1     
    7    2   22 1     
    8    3    4 1     
    9    3   23 1     
   10    3   24 1     
   11    4    5 1     
   12    4   25 1     
   13    4   26 1     
   14    5    6 1     
   15    5   16 1     
   16    5   27 1     
   17    6    7 1     
   18    6   28 1     
   19    6   43 1     
   20    7    8 1     
   21    7   29 1     
   22    7   30 1     
   23    8    9 1     
   24    8   10 1     
   25    8   31 1     
   26    9   32 1     
   27   10   15 ar    
   28   10   11 ar    
   29   11   12 ar    
   30   11   33 1     
   31   12   13 ar    
   32   12   34 1     
   33   13   14 ar    
   34   14   15 ar    
   35   14   35 1     
   36   15   36 1     
   37   16   17 1     
   38   16   37 1     
   39   16   38 1     
   40   17   18 1     
   41   17   39 1     
   42   18   40 1     
   43   18   41 1     
   44   18   42 1     
   45    9   44 1     
   46    9   45 1     
   47   13   46 1     
@<TRIPOS>SUBSTRUCTURE
      1 S1             1
@<TRIPOS>SET
LONE_PAIRS      STATIC     ATOMS    <user>   **** ""
3 44 45 46
DONOR_HYDROGENS      STATIC     ATOMS    <user>   **** ""
3 28 43 32
ATOM$BLUE        STATIC     ATOMS    COLORGROUP SYSTEM
3 44 45 46
ATOM$RED        STATIC     ATOMS    COLORGROUP SYSTEM
3 28 43 32
