#       Name:                AV-unprocessed.smi:3024
#       Creating user name   scv26
#       Creation time:       Fri Mar 27 16:43:59 2020


#       File generated by GOLD software.
#

@<TRIPOS>MOLECULE
AV-unprocessed.smi:3024
    36    37     1
SMALL
NO_CHARGES


@<TRIPOS>ATOM
      1 ****         0.0031   1.2039   0.9039 O.2            1 S1                 0.0000
      2 ****        -0.4625   0.0648   0.8872 C.2            1 S1                 0.0000
      3 ****         0.2912  -1.0436   0.8743 N.am           1 S1                 0.0000
      4 ****         1.7496  -1.0665   0.8600 C.3            1 S1                 0.0000
      5 ****         2.2993  -1.0805  -0.5758 C.3            1 S1                 0.0000
      6 ****         3.8188  -1.2174  -0.6517 C.3            1 S1                 0.0000
      7 ****         4.1708  -0.5802  -1.9875 C.3            1 S1                 0.0000
      8 ****         2.9051   0.1866  -2.3821 C.3            1 S1                 0.0000
      9 ****         2.0818   0.1621  -1.2250 O.3            1 S1                 0.0000
     10 ****        -1.7716  -0.2396   0.9017 N.am           1 S1                 0.0000
     11 ****        -2.8832   0.6455   0.9106 C.ar           1 S1                 0.0000
     12 ****        -4.1192   0.1515   1.3762 C.ar           1 S1                 0.0000
     13 ****        -5.2411   1.0018   1.3797 C.ar           1 S1                 0.0000
     14 ****        -5.0846   2.3183   0.9049 C.ar           1 S1                 0.0000
     15 ****        -3.9136   2.8029   0.4406 N.ar           1 S1                 0.0000
     16 ****        -2.8406   1.9823   0.4421 C.ar           1 S1                 0.0000
     17 ****        -0.1770  -1.9378   0.8667 H              1 S1                 0.0000
     18 ****         2.1596  -0.2275   1.4249 H              1 S1                 0.0000
     19 ****         2.0678  -1.9709   1.3788 H              1 S1                 0.0000
     20 ****         1.8284  -1.8755  -1.1577 H              1 S1                 0.0000
     21 ****         4.2891  -0.6526   0.1544 H              1 S1                 0.0000
     22 ****         4.1514  -2.2528  -0.5741 H              1 S1                 0.0000
     23 ****         5.0291   0.0848  -1.8858 H              1 S1                 0.0000
     24 ****         4.4157  -1.3320  -2.7386 H              1 S1                 0.0000
     25 ****         3.1140   1.2104  -2.6936 H              1 S1                 0.0000
     26 ****         2.3895  -0.3197  -3.1992 H              1 S1                 0.0000
     27 ****        -1.9983  -1.2206   0.9715 H              1 S1                 0.0000
     28 ****        -4.2084  -0.8649   1.7310 H              1 S1                 0.0000
     29 ****        -6.1991   0.6534   1.7362 H              1 S1                 0.0000
     30 ****        -5.9239   2.9979   0.8918 H              1 S1                 0.0000
     31 ****        -1.9413   2.4172   0.0348 H              1 S1                 0.0000
     32 ****         0.9939   1.3390   0.9085 LP             1 S1                 0.0000
     33 ****        -0.6094   1.9943   0.9129 LP             1 S1                 0.0000
     34 ****         2.3282   0.9145  -0.6142 LP             1 S1                 0.0000
     35 ****         1.1206   0.2469  -1.4875 LP             1 S1                 0.0000
     36 ****        -3.8424   3.7422   0.1052 LP             1 S1                 0.0000
@<TRIPOS>BOND
    1    1    2 2     
    2    2    3 am    
    3    2   10 am    
    4    3    4 1     
    5    3   17 1     
    6    4    5 1     
    7    4   18 1     
    8    4   19 1     
    9    5    9 1     
   10    5    6 1     
   11    5   20 1     
   12    6    7 1     
   13    6   21 1     
   14    6   22 1     
   15    7    8 1     
   16    7   23 1     
   17    7   24 1     
   18    8    9 1     
   19    8   25 1     
   20    8   26 1     
   21   10   11 1     
   22   10   27 1     
   23   11   16 ar    
   24   11   12 ar    
   25   12   13 ar    
   26   12   28 1     
   27   13   14 ar    
   28   13   29 1     
   29   14   15 ar    
   30   14   30 1     
   31   15   16 ar    
   32   16   31 1     
   33    1   32 1     
   34    1   33 1     
   35    9   34 1     
   36    9   35 1     
   37   15   36 1     
@<TRIPOS>SUBSTRUCTURE
      1 S1             1
@<TRIPOS>SET
LONE_PAIRS      STATIC     ATOMS    <user>   **** ""
5 32 33 34 35 36
DONOR_HYDROGENS      STATIC     ATOMS    <user>   **** ""
2 17 27
ATOM$BLUE        STATIC     ATOMS    COLORGROUP SYSTEM
5 32 33 34 35 36
ATOM$RED        STATIC     ATOMS    COLORGROUP SYSTEM
2 17 27
