AV-unprocessed.smi:1982|AV-procd|sdf|8021|dock8
  -GOLD-   2272010213D 1   1.00000     0.00000
 Structure written by MMmdl.
 36 37  0  0  0  0  0  0  0  0  1 V2000
  153.0761  142.6242  162.2293 C   0  0  0  0  0  0  0  0  0  0  0  0
  152.1425  143.2082  161.1558 C   0  0  1  0  0  0  0  0  0  0  0  0
  152.3529  144.7252  160.9785 C   0  0  0  0  0  0  0  0  0  0  0  0
  151.3442  145.3190  159.9832 C   0  0  0  0  0  0  0  0  0  0  0  0
  151.3830  144.5846  158.6350 C   0  0  0  0  0  0  0  0  0  0  0  0
  151.1715  143.0689  158.8161 C   0  0  1  0  0  0  0  0  0  0  0  0
  151.1946  142.4101  157.5132 N   0  0  0  0  0  0  0  0  0  0  0  0
  150.8433  141.1365  157.2768 C   0  0  0  0  0  0  0  0  0  0  0  0
  150.4009  140.3801  158.1408 O   0  0  0  0  0  0  0  0  0  0  0  0
  151.0400  140.6334  155.8472 C   0  0  0  0  0  0  0  0  0  0  0  0
  151.8032  139.3994  155.8387 N   0  0  0  0  0  0  0  0  0  0  0  0
  151.5105  138.1910  155.3537 C   0  0  0  0  0  0  0  0  0  0  0  0
  152.4878  137.3256  155.5765 N   0  0  0  0  0  0  0  0  0  0  0  0
  153.4336  138.0840  156.2463 N   0  0  0  0  0  0  0  0  0  0  0  0
  153.0329  139.3155  156.4051 N   0  0  0  0  0  0  0  0  0  0  0  0
  152.2099  142.4583  159.7984 C   0  0  1  0  0  0  0  0  0  0  0  0
  153.6366  142.3764  159.2046 C   0  0  0  0  0  0  0  0  0  0  0  0
  154.1257  142.8000  161.9941 H   0  0  0  0  0  0  0  0  0  0  0  0
  152.9295  141.5493  162.3362 H   0  0  0  0  0  0  0  0  0  0  0  0
  152.8815  143.0794  163.2008 H   0  0  0  0  0  0  0  0  0  0  0  0
  151.1286  143.0735  161.5360 H   0  0  0  0  0  0  0  0  0  0  0  0
  152.2489  145.2296  161.9398 H   0  0  0  0  0  0  0  0  0  0  0  0
  153.3688  144.9274  160.6384 H   0  0  0  0  0  0  0  0  0  0  0  0
  150.3392  145.2549  160.4027 H   0  0  0  0  0  0  0  0  0  0  0  0
  151.5486  146.3796  159.8349 H   0  0  0  0  0  0  0  0  0  0  0  0
  150.6131  144.9927  157.9791 H   0  0  0  0  0  0  0  0  0  0  0  0
  152.3365  144.7769  158.1418 H   0  0  0  0  0  0  0  0  0  0  0  0
  150.1758  142.9310  159.2428 H   0  0  0  0  0  0  0  0  0  0  0  0
  151.5475  142.9533  156.7384 H   0  0  0  0  0  0  0  0  0  0  0  0
  150.0735  140.4512  155.3756 H   0  0  0  0  0  0  0  0  0  0  0  0
  151.5555  141.3873  155.2504 H   0  0  0  0  0  0  0  0  0  0  0  0
  150.5876  137.9466  154.8485 H   0  0  0  0  0  0  0  0  0  0  0  0
  151.9031  141.4291  159.9910 H   0  0  0  0  0  0  0  0  0  0  0  0
  154.0495  143.3617  158.9909 H   0  0  0  0  0  0  0  0  0  0  0  0
  153.6542  141.8060  158.2758 H   0  0  0  0  0  0  0  0  0  0  0  0
  154.3232  141.8721  159.8834 H   0  0  0  0  0  0  0  0  0  0  0  0
  1  2  1  0  0  0  0
  1 18  1  0  0  0  0
  1 19  1  0  0  0  0
  1 20  1  0  0  0  0
  2 16  1  0  0  0  0
  2  3  1  0  0  0  0
  2 21  1  0  0  0  0
  3  4  1  0  0  0  0
  3 22  1  0  0  0  0
  3 23  1  0  0  0  0
  4  5  1  0  0  0  0
  4 24  1  0  0  0  0
  4 25  1  0  0  0  0
  5  6  1  0  0  0  0
  5 26  1  0  0  0  0
  5 27  1  0  0  0  0
  6  7  1  0  0  0  0
  6 16  1  0  0  0  0
  6 28  1  0  0  0  0
  7  8  1  0  0  0  0
  7 29  1  0  0  0  0
  8  9  2  0  0  0  0
  8 10  1  0  0  0  0
 10 11  1  0  0  0  0
 10 30  1  0  0  0  0
 10 31  1  0  0  0  0
 11 15  1  0  0  0  0
 11 12  1  0  0  0  0
 12 13  2  0  0  0  0
 12 32  1  0  0  0  0
 13 14  1  0  0  0  0
 14 15  2  0  0  0  0
 16 17  1  0  0  0  0
 16 33  1  0  0  0  0
 17 34  1  0  0  0  0
 17 35  1  0  0  0  0
 17 36  1  0  0  0  0
M  END
> <s_m_source_file>
AV-unprocessed.smi

> <i_m_source_file_index>
1982

> <i_lp_mmshare_version>
43012

> <i_f3d_flags>
0

> <s_epik_input>
W0NIM11bQ0BASF0xW0NIMl1bQ0gyXVtDSDJdW0NASF0oW0NASF0xW0NIM10pW05IXUMoPU8pW0NIMl1uMltjSF1ubm4y

> <s_epik_cmdline>
J2VwaWtfcHl0aG9uJywgJy1waCcsICc3LjAnLCAnLXRuJywgJzgnLCAnLW1hJywgJzIwMCcsICctbWV0YWxfYmluZGluZycsICctaW1hZScsICc8aW5maWxlLm1hZT4nLCAnLW9tYWUnLCAnPG91dGZpbGUubWFlPic=

> <r_lp_tautomer_probability>
1

> <r_epik_Ionization_Penalty>
5.03816e-07

> <r_epik_Ionization_Penalty_Charging>
0

> <r_epik_Ionization_Penalty_Neutral>
5.03816e-07

> <r_epik_State_Penalty>
-0

> <r_epik_Charging_Adjusted_Penalty>
0

> <i_epik_Tot_Q>
0

> <i_epik_Tot_abs_Q>
0

> <r_epik_Metal_State_Penalty>
-0

> <b_epik_Metal_Only>
0

> <s_lp_Force_Field>
OPLS_2005

> <r_lp_Energy>
14.9892

> <b_lp_Chiralities_Consistent>
1

> <s_lp_Variant>
AV-unprocessed.smi:1982-2

> <Gold.Version>
5.8.1

> <Gold.Id.Protein>
6NUR|6NUR_protein|mol2

> <Gold.PLP.Fitness>
44.0973

> <Gold.PLP.PLP>
-39.2889

> <Gold.PLP.part.hbond>
-2.9945

> <Gold.PLP.part.metal>
0.0000

> <Gold.PLP.part.buried>
-6.8126

> <Gold.PLP.part.nonpolar>
-30.3024

> <Gold.PLP.part.repulsive>
0.0589

> <Gold.PLP.ligand.clash>
0.0000

> <Gold.PLP.ligand.torsion>
0.1449

> <Gold.PLP.Chemscore.Hbond>
1.6953

> <Gold.PLP.Chemscore.CHOScore>
0.0000

> <Gold.PLP.Chemscore.Metal>
0.0000

> <Gold.Chemscore.Hbonds>
donor molecule, donor type, donor heavy atom, donor atom, acceptor molecule, acceptor atom, score
      P1  H  7997  8008       L1    15  0.99
      P1  H 10752 10765       L1    13  0.70

> <Gold.PLP.Chemscore.Internal.Correction>
0.0125

> <Gold.Rescore>
     Score         DG    S(hbond)    S(metal)    S(lipo)     H(rot)  DE(clash)    DE(int)     intcor
     17.51     -17.72       1.77        0.00      95.78       1.91       0.02       0.19       ----

> <Gold.Chemscore.Fitness>
17.5090

> <Gold.Chemscore.DG>
-17.7160

> <Gold.Chemscore.ZeroCoef>
-5.4800

> <Gold.Chemscore.Hbond>
1.7690

> <Gold.Chemscore.Metal>
0.0000

> <Gold.Chemscore.Lipo>
95.7823

> <Gold.Chemscore.Internal_Hbond>
0.0000

> <Gold.Chemscore.DEClash>
0.0202

> <Gold.Chemscore.DEInternal>
0.1868

> <Gold.Chemscore.Rot>
1.9058

> <Gold.Chemscore.Internal.Correction>
   9.000000E+99

> <Gold.Chemscore.Hbonds>
donor molecule, donor type, donor heavy atom, donor atom, acceptor molecule, acceptor atom, score
      P1  H  7997  8008       L1    15  0.37
      P1  H 10752 10765       L1    13  0.65

> <Gold.Chemscore.Hbond.Weighted>
-5.9083

> <Gold.Chemscore.Metal.Weighted>
-0.0000

> <Gold.Chemscore.Lipo.Weighted>
-11.2065

> <Gold.Chemscore.Internal_Hbond.Weighted>
0.0000

> <Gold.Chemscore.DEClash.Weighted>
0.0202

> <Gold.Chemscore.DEInternal.Weighted>
0.1868

> <Gold.Chemscore.Rot.Weighted>
4.8788

> <Gold.Chemscore.Internal.Correction.Weighted>
   9.000000E+99

> <Gold.Protein.RotatedTorsions>
[ 6907 6896 6895 6894 ] final   52.20 input  -60.11 | X-H torsion
[ 7974 7965 7964 7962 ] final   21.22 input  175.53 | X-H torsion
[ 8008 7997 7996 7995 ] final  -46.81 input   59.86 | X-H torsion
[ 10167 10162 10161 10158 ] final  -14.51 input  -65.29 | X-H torsion
[ 10718 10713 10712 10709 ] final   43.49 input   66.30 | X-H torsion
[ 10763 10752 10751 10750 ] final -163.53 input  -60.55 | X-H torsion
[ 11005 11000 10999 10996 ] final  137.58 input  -57.11 | X-H torsion

> <Gold.Protein.ActiveResidues>
 VAL166  LYS551  ARG553  GLY616  TRP617  ASP618  TYR619  PRO620  LYS621  CYS622 
 ASP623  PHE694  ASN695  SER759  ASP760  ASP761  ALA762  ILE779  LEU786  VAL792 
 PHE793  MET794  SER795  GLU796  ALA797  LYS798  CYS799  TRP800  GLU811  SER814 

> <Gold.Protein.RotatedAtoms>
  152.3208  134.7382  160.0313 H   0  0  0  0  0  0  0  0  0  0  0  0  # atno 6907 bound_to 6896
  151.7831  133.3346  159.3485 H   0  0  0  0  0  0  0  0  0  0  0  0  # atno 6908 bound_to 6896
  150.7369  134.5843  159.5999 H   0  0  0  0  0  0  0  0  0  0  0  0  # atno 6909 bound_to 6896
  146.2080  139.8058  142.8711 H   0  0  0  0  0  0  0  0  0  0  0  0  # atno 7974 bound_to 7965
  154.4010  140.1362  156.4072 H   0  0  0  0  0  0  0  0  0  0  0  0  # atno 8008 bound_to 7997
  155.7768  140.3482  155.5256 H   0  0  0  0  0  0  0  0  0  0  0  0  # atno 8009 bound_to 7997
  155.8713  140.0972  157.1539 H   0  0  0  0  0  0  0  0  0  0  0  0  # atno 8010 bound_to 7997
  140.7202  143.5314  150.9515 H   0  0  0  0  0  0  0  0  0  0  0  0  # atno 10167 bound_to 10162
  157.4165  130.7944  149.7477 H   0  0  0  0  0  0  0  0  0  0  0  0  # atno 10718 bound_to 10713
  154.7114  135.3007  154.9192 H   0  0  0  0  0  0  0  0  0  0  0  0  # atno 10763 bound_to 10752
  154.0092  135.6697  153.4768 H   0  0  0  0  0  0  0  0  0  0  0  0  # atno 10764 bound_to 10752
  153.0758  135.5036  154.8314 H   0  0  0  0  0  0  0  0  0  0  0  0  # atno 10765 bound_to 10752
  140.0124  134.9433  157.0305 H   0  0  0  0  0  0  0  0  0  0  0  0  # atno 11005 bound_to 11000
  145.3248  141.0252  143.3480 LP  0  0  0  0  0  0  0  0  0  0  0  0  # atno 17320 bound_to 7965
  144.8841  139.4864  143.6709 LP  0  0  0  0  0  0  0  0  0  0  0  0  # atno 17321 bound_to 7965
  139.9034  143.6807  152.3127 LP  0  0  0  0  0  0  0  0  0  0  0  0  # atno 17342 bound_to 10162
  139.7165  144.7611  151.1025 LP  0  0  0  0  0  0  0  0  0  0  0  0  # atno 17343 bound_to 10162
  155.9867  130.3973  150.3201 LP  0  0  0  0  0  0  0  0  0  0  0  0  # atno 17370 bound_to 10713
  157.1344  131.0280  151.2955 LP  0  0  0  0  0  0  0  0  0  0  0  0  # atno 17371 bound_to 10713
  140.4531  134.1562  155.7183 LP  0  0  0  0  0  0  0  0  0  0  0  0  # atno 17394 bound_to 11000
  141.1720  133.8590  157.1541 LP  0  0  0  0  0  0  0  0  0  0  0  0  # atno 17395 bound_to 11000

$$$$
