AV-unprocessed.smi:304|AV-procd|sdf|2277|dock10
  -GOLD-   2262022173D 1   1.00000     0.00000
 Structure written by MMmdl.
 36 38  0  0  0  0  0  0  0  0  1 V2000
  149.2556  142.1332  156.7074 O   0  0  0  0  0  0  0  0  0  0  0  0
  150.5620  141.8611  157.1756 C   0  0  1  0  0  0  0  0  0  0  0  0
  151.1867  140.7870  156.2715 C   0  0  0  0  0  0  0  0  0  0  0  0
  150.5276  140.7987  155.0163 O   0  0  0  0  0  0  0  0  0  0  0  0
  150.2224  139.4956  154.5457 C   0  0  0  0  0  0  0  0  0  0  0  0
  148.8719  139.5448  153.9050 C   0  0  0  0  0  0  0  0  0  0  0  0
  148.1368  138.4801  153.4493 C   0  0  0  0  0  0  0  0  0  0  0  0
  146.8738  138.8579  152.9056 C   0  0  0  0  0  0  0  0  0  0  0  0
  146.6550  140.2085  152.9603 C   0  0  0  0  0  0  0  0  0  0  0  0
  148.0004  141.0451  153.6847 S   0  0  0  0  0  0  0  0  0  0  0  0
  151.3813  143.1663  157.1662 C   0  0  0  0  0  0  0  0  0  0  0  0
  151.4437  143.7959  158.4736 N   0  0  0  0  0  0  0  0  0  0  0  0
  150.8620  144.9533  158.8419 C   0  0  0  0  0  0  0  0  0  0  0  0
  151.0432  145.3545  160.0968 N   0  0  0  0  0  0  0  0  0  0  0  0
  151.8361  144.3389  160.6031 C   0  0  0  0  0  0  0  0  0  0  0  0
  152.3833  144.1604  161.8936 C   0  0  0  0  0  0  0  0  0  0  0  0
  153.1742  143.0294  162.1845 C   0  0  0  0  0  0  0  0  0  0  0  0
  153.6906  142.8736  163.4266 F   0  0  0  0  0  0  0  0  0  0  0  0
  153.4303  142.0617  161.1903 C   0  0  0  0  0  0  0  0  0  0  0  0
  154.1919  140.9796  161.4780 F   0  0  0  0  0  0  0  0  0  0  0  0
  152.8955  142.2181  159.8972 C   0  0  0  0  0  0  0  0  0  0  0  0
  152.1057  143.3473  159.6118 C   0  0  0  0  0  0  0  0  0  0  0  0
  149.2930  142.8932  156.1465 H   0  0  0  0  0  0  0  0  0  0  0  0
  150.5009  141.4880  158.1989 H   0  0  0  0  0  0  0  0  0  0  0  0
  152.2616  140.9412  156.1603 H   0  0  0  0  0  0  0  0  0  0  0  0
  151.0466  139.8020  156.7199 H   0  0  0  0  0  0  0  0  0  0  0  0
  150.9723  139.1677  153.8242 H   0  0  0  0  0  0  0  0  0  0  0  0
  150.2158  138.7827  155.3713 H   0  0  0  0  0  0  0  0  0  0  0  0
  148.4601  137.4501  153.4859 H   0  0  0  0  0  0  0  0  0  0  0  0
  146.1794  138.1358  152.5021 H   0  0  0  0  0  0  0  0  0  0  0  0
  145.7894  140.7601  152.6244 H   0  0  0  0  0  0  0  0  0  0  0  0
  152.4027  142.9665  156.8389 H   0  0  0  0  0  0  0  0  0  0  0  0
  150.9611  143.8772  156.4537 H   0  0  0  0  0  0  0  0  0  0  0  0
  150.2719  145.5345  158.1481 H   0  0  0  0  0  0  0  0  0  0  0  0
  152.1950  144.8951  162.6621 H   0  0  0  0  0  0  0  0  0  0  0  0
  153.0926  141.4805  159.1338 H   0  0  0  0  0  0  0  0  0  0  0  0
  1  2  1  0  0  0  0
  1 23  1  0  0  0  0
  2  3  1  0  0  0  0
  2 11  1  0  0  0  0
  2 24  1  0  0  0  0
  3  4  1  0  0  0  0
  3 25  1  0  0  0  0
  3 26  1  0  0  0  0
  4  5  1  0  0  0  0
  5  6  1  0  0  0  0
  5 27  1  0  0  0  0
  5 28  1  0  0  0  0
  6 10  1  0  0  0  0
  6  7  2  0  0  0  0
  7  8  1  0  0  0  0
  7 29  1  0  0  0  0
  8  9  2  0  0  0  0
  8 30  1  0  0  0  0
  9 10  1  0  0  0  0
  9 31  1  0  0  0  0
 11 12  1  0  0  0  0
 11 32  1  0  0  0  0
 11 33  1  0  0  0  0
 12 22  1  0  0  0  0
 12 13  1  0  0  0  0
 13 14  2  0  0  0  0
 13 34  1  0  0  0  0
 14 15  1  0  0  0  0
 15 22  2  0  0  0  0
 15 16  1  0  0  0  0
 16 17  2  0  0  0  0
 16 35  1  0  0  0  0
 17 18  1  0  0  0  0
 17 19  1  0  0  0  0
 19 20  1  0  0  0  0
 19 21  2  0  0  0  0
 21 22  1  0  0  0  0
 21 36  1  0  0  0  0
M  END
> <s_m_source_file>
AV-unprocessed.smi

> <i_m_source_file_index>
304

> <i_lp_mmshare_version>
43012

> <i_f3d_flags>
0

> <s_epik_input>
W2NIXTFjKEYpYyhGKVtjSF1jKGMxMiluKFtjSF1uMilbQ0gyXVtDQEhdKFtPSF0pW0NIMl1PW0NIMl1jM1tjSF1bY0hdW2NIXXMz

> <s_epik_cmdline>
J2VwaWtfcHl0aG9uJywgJy1waCcsICc3LjAnLCAnLXRuJywgJzgnLCAnLW1hJywgJzIwMCcsICctbWV0YWxfYmluZGluZycsICctaW1hZScsICc8aW5maWxlLm1hZT4nLCAnLW9tYWUnLCAnPG91dGZpbGUubWFlPic=

> <r_epik_Ionization_Penalty>
0.0152118

> <r_epik_Ionization_Penalty_Charging>
0

> <r_epik_Ionization_Penalty_Neutral>
0.0152118

> <r_epik_State_Penalty>
0.0119413

> <r_epik_Charging_Adjusted_Penalty>
0.0119413

> <i_epik_Tot_Q>
0

> <i_epik_Tot_abs_Q>
0

> <r_epik_Metal_State_Penalty>
1.20623e-05

> <b_epik_Metal_Only>
0

> <s_lp_Force_Field>
OPLS_2005

> <r_lp_Energy>
8.44111

> <b_lp_Chiralities_Consistent>
1

> <s_lp_Variant>
AV-unprocessed.smi:304-2

> <Gold.Version>
5.8.1

> <Gold.Id.Protein>
6NUR|6NUR_protein|mol2

> <Gold.PLP.Fitness>
60.4174

> <Gold.PLP.PLP>
-54.2305

> <Gold.PLP.part.hbond>
-2.0000

> <Gold.PLP.part.metal>
0.0000

> <Gold.PLP.part.buried>
0.8265

> <Gold.PLP.part.nonpolar>
-53.0993

> <Gold.PLP.part.repulsive>
0.2859

> <Gold.PLP.ligand.clash>
0.0000

> <Gold.PLP.ligand.torsion>
1.7577

> <Gold.PLP.Chemscore.Hbond>
1.2496

> <Gold.PLP.Chemscore.CHOScore>
1.9293

> <Gold.PLP.Chemscore.Metal>
0.0000

> <Gold.Chemscore.Hbonds>
donor molecule, donor type, donor heavy atom, donor atom, acceptor molecule, acceptor atom, score
      L1  H     1    23       P1  8028  1.00
      P1  H  7989  7998       L1     4  0.21
      L1  C     9    31       P1 10175  1.00
      L1  C    13    34       P1  8028  0.01
      L1  C    13    34       P1  8029  0.93

> <Gold.PLP.Chemscore.Internal.Correction>
0.1656

> <Gold.Rescore>
     Score         DG    S(hbond)    S(metal)    S(lipo)     H(rot)  DE(clash)    DE(int)     intcor
     15.69     -17.76       0.98        0.00     134.71       2.64       0.32       1.74       ----

> <Gold.Chemscore.Fitness>
15.6939

> <Gold.Chemscore.DG>
-17.7613

> <Gold.Chemscore.ZeroCoef>
-5.4800

> <Gold.Chemscore.Hbond>
0.9817

> <Gold.Chemscore.Metal>
0.0000

> <Gold.Chemscore.Lipo>
134.7137

> <Gold.Chemscore.Internal_Hbond>
0.0000

> <Gold.Chemscore.DEClash>
0.3224

> <Gold.Chemscore.DEInternal>
1.7450

> <Gold.Chemscore.Rot>
2.6403

> <Gold.Chemscore.Internal.Correction>
   9.000000E+99

> <Gold.Chemscore.Hbonds>
donor molecule, donor type, donor heavy atom, donor atom, acceptor molecule, acceptor atom, score
      L1  H     1    23       P1  8028  0.97

> <Gold.Chemscore.Hbond.Weighted>
-3.2790

> <Gold.Chemscore.Metal.Weighted>
-0.0000

> <Gold.Chemscore.Lipo.Weighted>
-15.7615

> <Gold.Chemscore.Internal_Hbond.Weighted>
0.0000

> <Gold.Chemscore.DEClash.Weighted>
0.3224

> <Gold.Chemscore.DEInternal.Weighted>
1.7450

> <Gold.Chemscore.Rot.Weighted>
6.7592

> <Gold.Chemscore.Internal.Correction.Weighted>
   9.000000E+99

> <Gold.Protein.RotatedTorsions>
[ 6907 6896 6895 6894 ] final  -83.11 input  -60.11 | X-H torsion
[ 7974 7965 7964 7962 ] final   81.63 input  175.53 | X-H torsion
[ 8008 7997 7996 7995 ] final  169.13 input   59.86 | X-H torsion
[ 10167 10162 10161 10158 ] final  -50.96 input  -65.29 | X-H torsion
[ 10718 10713 10712 10709 ] final  117.65 input   66.30 | X-H torsion
[ 10763 10752 10751 10750 ] final -146.64 input  -60.55 | X-H torsion
[ 11005 11000 10999 10996 ] final -153.18 input  -57.11 | X-H torsion

> <Gold.Protein.ActiveResidues>
 VAL166  LYS551  ARG553  GLY616  TRP617  ASP618  TYR619  PRO620  LYS621  CYS622 
 ASP623  PHE694  ASN695  SER759  ASP760  ASP761  ALA762  ILE779  LEU786  VAL792 
 PHE793  MET794  SER795  GLU796  ALA797  LYS798  CYS799  TRP800  GLU811  SER814 

> <Gold.Protein.RotatedAtoms>
  150.6889  134.3562  159.4930 H   0  0  0  0  0  0  0  0  0  0  0  0  # atno 6907 bound_to 6896
  152.1397  134.9069  160.0563 H   0  0  0  0  0  0  0  0  0  0  0  0  # atno 6908 bound_to 6896
  152.0207  133.3863  159.4294 H   0  0  0  0  0  0  0  0  0  0  0  0  # atno 6909 bound_to 6896
  145.6356  139.2414  143.2060 H   0  0  0  0  0  0  0  0  0  0  0  0  # atno 7974 bound_to 7965
  156.1485  140.1572  156.8808 H   0  0  0  0  0  0  0  0  0  0  0  0  # atno 8008 bound_to 7997
  154.5049  140.0815  156.7912 H   0  0  0  0  0  0  0  0  0  0  0  0  # atno 8009 bound_to 7997
  155.3942  140.3411  155.4255 H   0  0  0  0  0  0  0  0  0  0  0  0  # atno 8010 bound_to 7997
  140.6612  143.2638  151.4434 H   0  0  0  0  0  0  0  0  0  0  0  0  # atno 10167 bound_to 10162
  157.6082  131.1039  150.7645 H   0  0  0  0  0  0  0  0  0  0  0  0  # atno 10718 bound_to 10713
  154.8326  135.3381  154.6694 H   0  0  0  0  0  0  0  0  0  0  0  0  # atno 10763 bound_to 10752
  153.7312  135.6952  153.4993 H   0  0  0  0  0  0  0  0  0  0  0  0  # atno 10764 bound_to 10752
  153.2311  135.4416  155.0548 H   0  0  0  0  0  0  0  0  0  0  0  0  # atno 10765 bound_to 10752
  140.7109  134.3833  157.5198 H   0  0  0  0  0  0  0  0  0  0  0  0  # atno 11005 bound_to 11000
  146.1322  140.7171  142.9407 LP  0  0  0  0  0  0  0  0  0  0  0  0  # atno 17320 bound_to 7965
  144.7177  140.4266  143.7032 LP  0  0  0  0  0  0  0  0  0  0  0  0  # atno 17321 bound_to 7965
  139.5847  144.1632  152.2013 LP  0  0  0  0  0  0  0  0  0  0  0  0  # atno 17342 bound_to 10162
  140.0968  144.5574  150.7016 LP  0  0  0  0  0  0  0  0  0  0  0  0  # atno 17343 bound_to 10162
  156.8029  130.4927  149.5367 LP  0  0  0  0  0  0  0  0  0  0  0  0  # atno 17370 bound_to 10713
  156.1176  130.6086  151.0144 LP  0  0  0  0  0  0  0  0  0  0  0  0  # atno 17371 bound_to 10713
  139.8872  134.8889  156.2543 LP  0  0  0  0  0  0  0  0  0  0  0  0  # atno 17394 bound_to 11000
  141.0085  133.7109  156.1073 LP  0  0  0  0  0  0  0  0  0  0  0  0  # atno 17395 bound_to 11000

$$$$
