AV-unprocessed.smi:675|AV-procd|sdf|3305|dock2
  -GOLD-   22720 0263D 1   1.00000     0.00000
 Structure written by MMmdl.
 28 29  0  0  0  0  0  0  0  0  2 V2000
  152.6933  135.4301  157.0779 O   0  0  0  0  0  0  0  0  0  0  0  0
  152.6003  136.4881  157.6985 C   0  0  0  0  0  0  0  0  0  0  0  0
  152.8724  136.5860  159.0326 N   0  5  0  0  0  0  0  0  0  0  0  0
  152.7709  137.7523  159.7414 C   0  0  0  0  0  0  0  0  0  0  0  0
  153.0169  137.8098  160.9461 O   0  0  0  0  0  0  0  0  0  0  0  0
  152.3768  138.8869  159.0884 N   0  0  0  0  0  0  0  0  0  0  0  0
  152.2109  140.1854  159.7610 C   0  0  0  0  0  0  0  0  0  0  0  0
  153.1885  141.2582  159.2295 C   0  0  2  0  0  0  0  0  0  0  0  0
  154.4421  141.0512  159.8496 O   0  0  0  0  0  0  0  0  0  0  0  0
  152.6755  142.6855  159.4233 C   0  0  0  0  0  0  0  0  0  0  0  0
  152.3247  143.4479  158.2856 C   0  0  0  0  0  0  0  0  0  0  0  0
  151.8726  144.7739  158.4190 C   0  0  0  0  0  0  0  0  0  0  0  0
  151.7666  145.3543  159.6952 C   0  0  0  0  0  0  0  0  0  0  0  0
  152.1151  144.6070  160.8348 C   0  0  0  0  0  0  0  0  0  0  0  0
  152.5697  143.2789  160.7083 C   0  0  0  0  0  0  0  0  0  0  0  0
  152.9952  142.4238  162.1502 Cl  0  0  0  0  0  0  0  0  0  0  0  0
  152.0926  138.8412  157.7133 C   0  0  0  0  0  0  0  0  0  0  0  0
  152.1843  137.7023  157.0000 C   0  0  0  0  0  0  0  0  0  0  0  0
  151.8144  137.6756  155.3127 Cl  0  0  0  0  0  0  0  0  0  0  0  0
  151.1842  140.5454  159.6788 H   0  0  0  0  0  0  0  0  0  0  0  0
  152.3709  140.0457  160.8314 H   0  0  0  0  0  0  0  0  0  0  0  0
  153.3650  141.0706  158.1718 H   0  0  0  0  0  0  0  0  0  0  0  0
  155.0857  140.8934  159.1762 H   0  0  0  0  0  0  0  0  0  0  0  0
  152.4142  143.0194  157.2981 H   0  0  0  0  0  0  0  0  0  0  0  0
  151.6129  145.3469  157.5413 H   0  0  0  0  0  0  0  0  0  0  0  0
  151.4229  146.3728  159.8002 H   0  0  0  0  0  0  0  0  0  0  0  0
  152.0379  145.0579  161.8131 H   0  0  0  0  0  0  0  0  0  0  0  0
  151.7865  139.7829  157.2812 H   0  0  0  0  0  0  0  0  0  0  0  0
  1  2  2  0  0  0  0
  2 18  1  0  0  0  0
  2  3  1  0  0  0  0
  3  4  1  0  0  0  0
  4  5  2  0  0  0  0
  4  6  1  0  0  0  0
  6  7  1  0  0  0  0
  6 17  1  0  0  0  0
  7  8  1  0  0  0  0
  7 20  1  0  0  0  0
  7 21  1  0  0  0  0
  8  9  1  0  0  0  0
  8 10  1  0  0  0  0
  8 22  1  0  0  0  0
  9 23  1  0  0  0  0
 10 15  1  0  0  0  0
 10 11  2  0  0  0  0
 11 12  1  0  0  0  0
 11 24  1  0  0  0  0
 12 13  2  0  0  0  0
 12 25  1  0  0  0  0
 13 14  1  0  0  0  0
 13 26  1  0  0  0  0
 14 15  2  0  0  0  0
 14 27  1  0  0  0  0
 15 16  1  0  0  0  0
 17 18  2  0  0  0  0
 17 28  1  0  0  0  0
 18 19  1  0  0  0  0
M  CHG  1   3  -1
M  END
> <s_m_source_file>
AV-unprocessed.smi

> <i_m_source_file_index>
675

> <i_lp_mmshare_version>
43012

> <i_f3d_flags>
0

> <s_epik_input>
Tz1jMVtuSF1jKD1PKW4oW2NIXWMxQ2wpW0NIMl1bQ0BIXShbT0hdKWMyW2NIXVtjSF1bY0hdW2NIXWMyQ2w=

> <s_epik_cmdline>
J2VwaWtfcHl0aG9uJywgJy1waCcsICc3LjAnLCAnLXRuJywgJzgnLCAnLW1hJywgJzIwMCcsICctbWV0YWxfYmluZGluZycsICctaW1hZScsICc8aW5maWxlLm1hZT4nLCAnLW9tYWUnLCAnPG91dGZpbGUubWFlPic=

> <r_epik_Ionization_Penalty>
1.79791

> <r_epik_Ionization_Penalty_Charging>
3.23819e-08

> <r_epik_Ionization_Penalty_Neutral>
1.79791

> <r_epik_State_Penalty>
1.91135

> <r_epik_Charging_Adjusted_Penalty>
1.91135

> <i_epik_Tot_Q>
-1

> <i_epik_Tot_abs_Q>
1

> <r_epik_Metal_State_Penalty>
0.014155

> <b_epik_Metal_Only>
0

> <s_lp_Force_Field>
OPLS_2005

> <r_lp_Energy>
20.012

> <b_lp_Chiralities_Consistent>
1

> <s_lp_Variant>
AV-unprocessed.smi:675-3

> <Gold.Version>
5.8.1

> <Gold.Id.Protein>
6NUR|6NUR_protein|mol2

> <Gold.PLP.Fitness>
48.2039

> <Gold.PLP.PLP>
-40.4258

> <Gold.PLP.part.hbond>
-2.0000

> <Gold.PLP.part.metal>
0.0000

> <Gold.PLP.part.buried>
-5.5974

> <Gold.PLP.part.nonpolar>
-34.5808

> <Gold.PLP.part.repulsive>
0.0000

> <Gold.PLP.ligand.clash>
0.0000

> <Gold.PLP.ligand.torsion>
0.3570

> <Gold.PLP.Chemscore.Hbond>
2.8240

> <Gold.PLP.Chemscore.CHOScore>
0.0000

> <Gold.PLP.Chemscore.Metal>
0.0000

> <Gold.Chemscore.Hbonds>
donor molecule, donor type, donor heavy atom, donor atom, acceptor molecule, acceptor atom, score
      P1  H  6896  6907       L1     3  1.82
      P1  H 10752 10765       L1     1  1.00

> <Gold.PLP.Chemscore.Internal.Correction>
0.0202

> <Gold.Rescore>
     Score         DG    S(hbond)    S(metal)    S(lipo)     H(rot)  DE(clash)    DE(int)     intcor
     18.69     -19.15       1.54        0.00     119.48       2.13       0.15       0.31       ----

> <Gold.Chemscore.Fitness>
18.6927

> <Gold.Chemscore.DG>
-19.1482

> <Gold.Chemscore.ZeroCoef>
-5.4800

> <Gold.Chemscore.Hbond>
1.5376

> <Gold.Chemscore.Metal>
0.0000

> <Gold.Chemscore.Lipo>
119.4831

> <Gold.Chemscore.Internal_Hbond>
0.0000

> <Gold.Chemscore.DEClash>
0.1478

> <Gold.Chemscore.DEInternal>
0.3077

> <Gold.Chemscore.Rot>
2.1278

> <Gold.Chemscore.Internal.Correction>
   9.000000E+99

> <Gold.Chemscore.Hbonds>
donor molecule, donor type, donor heavy atom, donor atom, acceptor molecule, acceptor atom, score
      P1  H  6896  6907       L1     3  0.49
      P1  H 10752 10765       L1     1  0.98

> <Gold.Chemscore.Hbond.Weighted>
-5.1357

> <Gold.Chemscore.Metal.Weighted>
-0.0000

> <Gold.Chemscore.Lipo.Weighted>
-13.9795

> <Gold.Chemscore.Internal_Hbond.Weighted>
0.0000

> <Gold.Chemscore.DEClash.Weighted>
0.1478

> <Gold.Chemscore.DEInternal.Weighted>
0.3077

> <Gold.Chemscore.Rot.Weighted>
5.4470

> <Gold.Chemscore.Internal.Correction.Weighted>
   9.000000E+99

> <Gold.Protein.RotatedTorsions>
[ 6907 6896 6895 6894 ] final   27.30 input  -60.11 | X-H torsion
[ 7974 7965 7964 7962 ] final   33.44 input  175.53 | X-H torsion
[ 8008 7997 7996 7995 ] final  -30.79 input   59.86 | X-H torsion
[ 10167 10162 10161 10158 ] final -151.88 input  -65.29 | X-H torsion
[ 10718 10713 10712 10709 ] final   -7.79 input   66.30 | X-H torsion
[ 10763 10752 10751 10750 ] final -130.20 input  -60.55 | X-H torsion
[ 11005 11000 10999 10996 ] final  -73.81 input  -57.11 | X-H torsion

> <Gold.Protein.ActiveResidues>
 VAL166  LYS551  ARG553  GLY616  TRP617  ASP618  TYR619  PRO620  LYS621  CYS622 
 ASP623  PHE694  ASN695  SER759  ASP760  ASP761  ALA762  ILE779  LEU786  VAL792 
 PHE793  MET794  SER795  GLU796  ALA797  LYS798  CYS799  TRP800  GLU811  SER814 

> <Gold.Protein.RotatedAtoms>
  152.0002  134.9932  160.0564 H   0  0  0  0  0  0  0  0  0  0  0  0  # atno 6907 bound_to 6896
  152.1526  133.4527  159.4829 H   0  0  0  0  0  0  0  0  0  0  0  0  # atno 6908 bound_to 6896
  150.6877  134.2088  159.4394 H   0  0  0  0  0  0  0  0  0  0  0  0  # atno 6909 bound_to 6896
  146.1420  139.6396  142.9156 H   0  0  0  0  0  0  0  0  0  0  0  0  # atno 7974 bound_to 7965
  154.4237  140.1782  156.1463 H   0  0  0  0  0  0  0  0  0  0  0  0  # atno 8008 bound_to 7997
  155.9951  140.3365  155.6766 H   0  0  0  0  0  0  0  0  0  0  0  0  # atno 8009 bound_to 7997
  155.6320  140.0671  157.2637 H   0  0  0  0  0  0  0  0  0  0  0  0  # atno 8010 bound_to 7997
  139.7229  143.8928  152.2509 H   0  0  0  0  0  0  0  0  0  0  0  0  # atno 10167 bound_to 10162
  156.7120  130.5125  149.5889 H   0  0  0  0  0  0  0  0  0  0  0  0  # atno 10718 bound_to 10713
  154.8756  135.3870  154.4044 H   0  0  0  0  0  0  0  0  0  0  0  0  # atno 10763 bound_to 10752
  153.4765  135.7030  153.5968 H   0  0  0  0  0  0  0  0  0  0  0  0  # atno 10764 bound_to 10752
  153.4402  135.3858  155.2191 H   0  0  0  0  0  0  0  0  0  0  0  0  # atno 10765 bound_to 10752
  141.1627  133.6890  156.7268 H   0  0  0  0  0  0  0  0  0  0  0  0  # atno 11005 bound_to 11000
  145.5024  141.0437  143.2533 LP  0  0  0  0  0  0  0  0  0  0  0  0  # atno 17320 bound_to 7965
  144.7803  139.6540  143.7157 LP  0  0  0  0  0  0  0  0  0  0  0  0  # atno 17321 bound_to 7965
  139.8829  144.7008  150.8857 LP  0  0  0  0  0  0  0  0  0  0  0  0  # atno 17342 bound_to 10162
  140.7757  143.3647  151.1762 LP  0  0  0  0  0  0  0  0  0  0  0  0  # atno 17343 bound_to 10162
  156.1654  130.6402  151.0772 LP  0  0  0  0  0  0  0  0  0  0  0  0  # atno 17370 bound_to 10713
  157.6932  131.0803  150.7046 LP  0  0  0  0  0  0  0  0  0  0  0  0  # atno 17371 bound_to 10713
  140.2774  134.8344  157.3903 LP  0  0  0  0  0  0  0  0  0  0  0  0  # atno 17394 bound_to 11000
  140.1464  134.4905  155.7993 LP  0  0  0  0  0  0  0  0  0  0  0  0  # atno 17395 bound_to 11000

$$$$
