#       Name:                AV-unprocessed.smi:419
#       Creating user name   scv26
#       Creation time:       Thu Mar 26 22:49:00 2020


#       File generated by GOLD software.
#

@<TRIPOS>MOLECULE
AV-unprocessed.smi:419
    52    54     1
SMALL
NO_CHARGES


@<TRIPOS>ATOM
      1 ****        -7.5101   3.6116  -0.6636 C.3            1 S1                 0.0000
      2 ****        -7.0426   2.2748  -0.7703 O.3            1 S1                 0.0000
      3 ****        -5.7038   2.0361  -0.5452 C.ar           1 S1                 0.0000
      4 ****        -4.7599   3.0381  -0.2111 C.ar           1 S1                 0.0000
      5 ****        -3.4086   2.7021  -0.0005 C.ar           1 S1                 0.0000
      6 ****        -2.9660   1.3696  -0.1152 C.ar           1 S1                 0.0000
      7 ****        -1.6263   1.1319   0.1064 O.3            1 S1                 0.0000
      8 ****        -1.1577  -0.2078   0.0232 C.3            1 S1                 0.0000
      9 ****         0.3555  -0.2282   0.2975 C.3            1 S1                 0.0000
     10 ****         0.5303  -0.1472   1.6985 O.3            1 S1                 0.0000
     11 ****         1.0048  -1.5431  -0.1815 C.3            1 S1                 0.0000
     12 ****         2.4547  -1.4141  -0.3210 N.am           1 S1                 0.0000
     13 ****         3.1185  -0.8850  -1.3762 C.2            1 S1                 0.0000
     14 ****         2.6030  -0.4198  -2.3927 O.2            1 S1                 0.0000
     15 ****         4.4447  -0.9541  -1.1150 N.am           1 S1                 0.0000
     16 ****         5.5321  -0.4994  -1.9727 C.3            1 S1                 0.0000
     17 ****         4.6350  -1.5304   0.1474 C.ar           1 S1                 0.0000
     18 ****         5.8097  -1.8054   0.8682 C.ar           1 S1                 0.0000
     19 ****         5.6608  -2.3994   2.1434 C.ar           1 S1                 0.0000
     20 ****         4.3732  -2.6983   2.6601 C.ar           1 S1                 0.0000
     21 ****         3.2072  -2.4097   1.9128 C.ar           1 S1                 0.0000
     22 ****         3.3834  -1.8210   0.6482 C.ar           1 S1                 0.0000
     23 ****        -3.9102   0.3676  -0.4480 C.ar           1 S1                 0.0000
     24 ****        -5.2612   0.7036  -0.6596 C.ar           1 S1                 0.0000
     25 ****        -8.5795   3.6366  -0.8727 H              1 S1                 0.0000
     26 ****        -7.0181   4.2649  -1.3854 H              1 S1                 0.0000
     27 ****        -7.3614   4.0062   0.3424 H              1 S1                 0.0000
     28 ****        -5.0469   4.0737  -0.1104 H              1 S1                 0.0000
     29 ****        -2.7018   3.4787   0.2527 H              1 S1                 0.0000
     30 ****        -1.6882  -0.8642   0.7159 H              1 S1                 0.0000
     31 ****        -1.3447  -0.5699  -0.9891 H              1 S1                 0.0000
     32 ****         0.8263   0.6268  -0.1899 H              1 S1                 0.0000
     33 ****         0.0802  -0.8743   2.1001 H              1 S1                 0.0000
     34 ****         0.7472  -2.3747   0.4754 H              1 S1                 0.0000
     35 ****         0.6066  -1.8139  -1.1607 H              1 S1                 0.0000
     36 ****         6.3102  -1.2605  -2.0358 H              1 S1                 0.0000
     37 ****         5.9748   0.4102  -1.5665 H              1 S1                 0.0000
     38 ****         5.1911  -0.2887  -2.9873 H              1 S1                 0.0000
     39 ****         6.7859  -1.5732   0.4686 H              1 S1                 0.0000
     40 ****         6.5379  -2.6267   2.7313 H              1 S1                 0.0000
     41 ****         4.2818  -3.1502   3.6369 H              1 S1                 0.0000
     42 ****         2.2255  -2.6315   2.3037 H              1 S1                 0.0000
     43 ****        -3.6250  -0.6683  -0.5494 H              1 S1                 0.0000
     44 ****        -5.9669  -0.0733  -0.9147 H              1 S1                 0.0000
     45 ****        -7.2486   1.9611  -1.6972 LP             1 S1                 0.0000
     46 ****        -7.5571   1.7266  -0.1109 LP             1 S1                 0.0000
     47 ****        -1.4148   1.4632   1.0260 LP             1 S1                 0.0000
     48 ****        -1.1153   1.6668  -0.5664 LP             1 S1                 0.0000
     49 ****         0.1493   0.7134   2.0366 LP             1 S1                 0.0000
     50 ****         1.5045  -0.1901   1.9197 LP             1 S1                 0.0000
     51 ****         1.6077  -0.4118  -2.4898 LP             1 S1                 0.0000
     52 ****         3.1794  -0.0499  -3.1213 LP             1 S1                 0.0000
@<TRIPOS>BOND
    1    1    2 1     
    2    1   25 1     
    3    1   26 1     
    4    1   27 1     
    5    2    3 1     
    6    3   24 ar    
    7    3    4 ar    
    8    4    5 ar    
    9    4   28 1     
   10    5    6 ar    
   11    5   29 1     
   12    6    7 1     
   13    6   23 ar    
   14    7    8 1     
   15    8    9 1     
   16    8   30 1     
   17    8   31 1     
   18    9   10 1     
   19    9   11 1     
   20    9   32 1     
   21   10   33 1     
   22   11   12 1     
   23   11   34 1     
   24   11   35 1     
   25   12   22 1     
   26   12   13 am    
   27   13   14 2     
   28   13   15 am    
   29   15   16 1     
   30   15   17 1     
   31   16   36 1     
   32   16   37 1     
   33   16   38 1     
   34   17   22 ar    
   35   17   18 ar    
   36   18   19 ar    
   37   18   39 1     
   38   19   20 ar    
   39   19   40 1     
   40   20   21 ar    
   41   20   41 1     
   42   21   22 ar    
   43   21   42 1     
   44   23   24 ar    
   45   23   43 1     
   46   24   44 1     
   47    2   45 1     
   48    2   46 1     
   49    7   47 1     
   50    7   48 1     
   51   10   49 1     
   52   10   50 1     
   53   14   51 1     
   54   14   52 1     
@<TRIPOS>SUBSTRUCTURE
      1 S1             1
@<TRIPOS>SET
LONE_PAIRS      STATIC     ATOMS    <user>   **** ""
8 45 46 47 48 49 50 51 52
DONOR_HYDROGENS      STATIC     ATOMS    <user>   **** ""
1 33
ATOM$BLUE        STATIC     ATOMS    COLORGROUP SYSTEM
8 45 46 47 48 49 50 51 52
ATOM$RED        STATIC     ATOMS    COLORGROUP SYSTEM
1 33
