AV-unprocessed.smi:17|AV-procd|sdf|101|dock9
  -GOLD-   2262015253D 1   1.00000     0.00000
 Structure written by MMmdl.
 57 59  0  0  0  0  0  0  0  0  1 V2000
  147.6686  132.7681  157.2950 C   0  0  0  0  0  0  0  0  0  0  0  0
  147.5369  134.2758  157.0371 C   0  0  0  0  0  0  0  0  0  0  0  0
  148.1420  134.6796  155.7644 N   0  0  0  0  0  0  0  0  0  0  0  0
  149.0787  135.6673  155.7722 C   0  0  0  0  0  0  0  0  0  0  0  0
  149.7792  135.8932  154.6292 N   0  0  0  0  0  0  0  0  0  0  0  0
  150.7013  136.8573  154.5746 C   0  0  0  0  0  0  0  0  0  0  0  0
  151.0854  137.6973  155.5354 N   0  0  0  0  0  0  0  0  0  0  0  0
  150.4049  137.4674  156.6936 C   0  0  0  0  0  0  0  0  0  0  0  0
  149.3952  136.4829  156.9004 C   0  0  0  0  0  0  0  0  0  0  0  0
  148.9530  136.5423  158.2184 N   0  0  0  0  0  0  0  0  0  0  0  0
  149.6451  137.5114  158.7507 C   0  0  0  0  0  0  0  0  0  0  0  0
  150.5451  138.1181  157.9064 N   0  0  0  0  0  0  0  0  0  0  0  0
  151.4440  139.2082  158.2406 C   0  0  0  0  0  0  0  0  0  0  0  0
  151.0275  140.5380  157.5573 C   0  0  2  0  0  0  0  0  0  0  0  0
  151.8368  140.7253  156.2524 C   0  0  0  0  0  0  0  0  0  0  0  0
  151.1743  140.1731  155.1340 O   0  0  0  0  0  0  0  0  0  0  0  0
  151.1667  141.7367  158.5346 C   0  0  1  0  0  0  0  0  0  0  0  0
  152.4773  141.8149  159.2986 C   0  0  0  0  0  0  0  0  0  0  0  0
  152.4994  143.2668  159.7583 C   0  0  0  0  0  0  0  0  0  0  0  0
  151.8703  144.0007  158.7160 O   0  0  0  0  0  0  0  0  0  0  0  0
  151.1665  143.1124  157.8530 C   0  0  0  0  0  0  0  0  0  0  0  0
  147.7043  134.0908  154.4937 C   0  0  2  0  0  0  0  0  0  0  0  0
  148.8304  133.2711  153.8423 C   0  0  0  0  0  0  0  0  0  0  0  0
  147.1249  135.1389  153.5191 C   0  0  0  0  0  0  0  0  0  0  0  0
  146.6103  134.4172  151.8930 S   0  0  0  0  0  0  0  0  0  0  0  0
  146.1520  135.9081  150.9161 C   0  0  0  0  0  0  0  0  0  0  0  0
  147.8005  133.8260  151.2632 O   0  0  0  0  0  0  0  0  0  0  0  0
  145.4012  133.6007  152.0817 O   0  0  0  0  0  0  0  0  0  0  0  0
  147.2382  132.5036  158.2607 H   0  0  0  0  0  0  0  0  0  0  0  0
  148.7134  132.4564  157.3012 H   0  0  0  0  0  0  0  0  0  0  0  0
  147.1503  132.1865  156.5321 H   0  0  0  0  0  0  0  0  0  0  0  0
  146.4877  134.5696  157.0697 H   0  0  0  0  0  0  0  0  0  0  0  0
  148.0162  134.8117  157.8553 H   0  0  0  0  0  0  0  0  0  0  0  0
  151.2032  136.9719  153.6252 H   0  0  0  0  0  0  0  0  0  0  0  0
  149.5254  137.8061  159.7832 H   0  0  0  0  0  0  0  0  0  0  0  0
  151.4850  139.3071  159.3252 H   0  0  0  0  0  0  0  0  0  0  0  0
  152.4510  138.9067  157.9495 H   0  0  0  0  0  0  0  0  0  0  0  0
  149.9752  140.4632  157.2758 H   0  0  0  0  0  0  0  0  0  0  0  0
  152.0489  141.7798  156.0726 H   0  0  0  0  0  0  0  0  0  0  0  0
  152.7977  140.2148  156.3251 H   0  0  0  0  0  0  0  0  0  0  0  0
  150.7538  139.3693  155.3993 H   0  0  0  0  0  0  0  0  0  0  0  0
  150.3512  141.7091  159.2593 H   0  0  0  0  0  0  0  0  0  0  0  0
  152.5312  141.1176  160.1350 H   0  0  0  0  0  0  0  0  0  0  0  0
  153.3203  141.6211  158.6335 H   0  0  0  0  0  0  0  0  0  0  0  0
  151.9144  143.3851  160.6711 H   0  0  0  0  0  0  0  0  0  0  0  0
  153.5089  143.6304  159.9515 H   0  0  0  0  0  0  0  0  0  0  0  0
  151.6960  143.0747  156.9001 H   0  0  0  0  0  0  0  0  0  0  0  0
  150.1597  143.4836  157.6627 H   0  0  0  0  0  0  0  0  0  0  0  0
  146.8895  133.3949  154.6810 H   0  0  0  0  0  0  0  0  0  0  0  0
  148.4746  132.7595  152.9478 H   0  0  0  0  0  0  0  0  0  0  0  0
  149.2077  132.5098  154.5256 H   0  0  0  0  0  0  0  0  0  0  0  0
  149.6700  133.9014  153.5491 H   0  0  0  0  0  0  0  0  0  0  0  0
  146.2891  135.6955  153.9412 H   0  0  0  0  0  0  0  0  0  0  0  0
  147.8996  135.8714  153.2914 H   0  0  0  0  0  0  0  0  0  0  0  0
  145.9183  135.6090  149.8946 H   0  0  0  0  0  0  0  0  0  0  0  0
  146.9859  136.6090  150.9033 H   0  0  0  0  0  0  0  0  0  0  0  0
  145.2789  136.3880  151.3518 H   0  0  0  0  0  0  0  0  0  0  0  0
  1  2  1  0  0  0  0
  1 29  1  0  0  0  0
  1 30  1  0  0  0  0
  1 31  1  0  0  0  0
  2  3  1  0  0  0  0
  2 32  1  0  0  0  0
  2 33  1  0  0  0  0
  3  4  1  0  0  0  0
  3 22  1  0  0  0  0
  4  9  1  0  0  0  0
  4  5  2  0  0  0  0
  5  6  1  0  0  0  0
  6  7  2  0  0  0  0
  6 34  1  0  0  0  0
  7  8  1  0  0  0  0
  8 12  1  0  0  0  0
  8  9  2  0  0  0  0
  9 10  1  0  0  0  0
 10 11  2  0  0  0  0
 11 12  1  0  0  0  0
 11 35  1  0  0  0  0
 12 13  1  0  0  0  0
 13 14  1  0  0  0  0
 13 36  1  0  0  0  0
 13 37  1  0  0  0  0
 14 15  1  0  0  0  0
 14 17  1  0  0  0  0
 14 38  1  0  0  0  0
 15 16  1  0  0  0  0
 15 39  1  0  0  0  0
 15 40  1  0  0  0  0
 16 41  1  0  0  0  0
 17 21  1  0  0  0  0
 17 18  1  0  0  0  0
 17 42  1  0  0  0  0
 18 19  1  0  0  0  0
 18 43  1  0  0  0  0
 18 44  1  0  0  0  0
 19 20  1  0  0  0  0
 19 45  1  0  0  0  0
 19 46  1  0  0  0  0
 20 21  1  0  0  0  0
 21 47  1  0  0  0  0
 21 48  1  0  0  0  0
 22 23  1  0  0  0  0
 22 24  1  0  0  0  0
 22 49  1  0  0  0  0
 23 50  1  0  0  0  0
 23 51  1  0  0  0  0
 23 52  1  0  0  0  0
 24 25  1  0  0  0  0
 24 53  1  0  0  0  0
 24 54  1  0  0  0  0
 25 26  1  0  0  0  0
 25 27  2  0  0  0  0
 25 28  2  0  0  0  0
 26 55  1  0  0  0  0
 26 56  1  0  0  0  0
 26 57  1  0  0  0  0
M  END
> <s_m_source_file>
AV-unprocessed.smi

> <i_m_source_file_index>
17

> <i_lp_mmshare_version>
43012

> <i_f3d_flags>
0

> <s_epik_input>
W0NIM11TKD1PKSg9TylbQ0gyXVtDQEBIXShbQ0gzXSlOKFtDSDJdW0NIM10pYyhuW2NIXW4xKWMoYzEyKW5bY0hdbjJbQ0gyXVtDQEhdKFtDSDJdW09IXSlbQ0BASF0zW0NIMl1bQ0gyXU9bQ0gyXTM=

> <s_epik_cmdline>
J2VwaWtfcHl0aG9uJywgJy1waCcsICc3LjAnLCAnLXRuJywgJzgnLCAnLW1hJywgJzIwMCcsICctbWV0YWxfYmluZGluZycsICctaW1hZScsICc8aW5maWxlLm1hZT4nLCAnLW9tYWUnLCAnPG91dGZpbGUubWFlPic=

> <r_lp_tautomer_probability>
1

> <r_epik_Ionization_Penalty>
0.00119955

> <r_epik_Ionization_Penalty_Charging>
0

> <r_epik_Ionization_Penalty_Neutral>
0.00119955

> <r_epik_State_Penalty>
0.000665399

> <r_epik_Charging_Adjusted_Penalty>
0.000665399

> <i_epik_Tot_Q>
0

> <i_epik_Tot_abs_Q>
0

> <r_epik_Metal_State_Penalty>
-0

> <b_epik_Metal_Only>
0

> <s_lp_Force_Field>
OPLS_2005

> <r_lp_Energy>
37.2201

> <b_lp_Chiralities_Consistent>
1

> <s_lp_Variant>
AV-unprocessed.smi:17-3

> <Gold.Version>
5.8.1

> <Gold.Id.Protein>
6NUR|6NUR_protein|mol2

> <Gold.PLP.Fitness>
41.5196

> <Gold.PLP.PLP>
-34.8224

> <Gold.PLP.part.hbond>
-2.0000

> <Gold.PLP.part.metal>
0.0000

> <Gold.PLP.part.buried>
-7.6417

> <Gold.PLP.part.nonpolar>
-26.5740

> <Gold.PLP.part.repulsive>
0.6521

> <Gold.PLP.ligand.clash>
0.0000

> <Gold.PLP.ligand.torsion>
1.5554

> <Gold.PLP.Chemscore.Hbond>
2.0000

> <Gold.PLP.Chemscore.CHOScore>
1.0462

> <Gold.PLP.Chemscore.Metal>
0.0000

> <Gold.Chemscore.Hbonds>
donor molecule, donor type, donor heavy atom, donor atom, acceptor molecule, acceptor atom, score
      P1  H  7989  7998       L1    16  1.00
      L1  C     6    34       P1  7949  1.00

> <Gold.PLP.Chemscore.Internal.Correction>
0.6694

> <Gold.Rescore>
     Score         DG    S(hbond)    S(metal)    S(lipo)     H(rot)  DE(clash)    DE(int)     intcor
      3.15     -10.41       1.39        0.00      79.08       3.51       0.73       6.54       ----

> <Gold.Chemscore.Fitness>
3.1451

> <Gold.Chemscore.DG>
-10.4134

> <Gold.Chemscore.ZeroCoef>
-5.4800

> <Gold.Chemscore.Hbond>
1.3940

> <Gold.Chemscore.Metal>
0.0000

> <Gold.Chemscore.Lipo>
79.0820

> <Gold.Chemscore.Internal_Hbond>
0.0000

> <Gold.Chemscore.DEClash>
0.7300

> <Gold.Chemscore.DEInternal>
6.5383

> <Gold.Chemscore.Rot>
3.5059

> <Gold.Chemscore.Internal.Correction>
   9.000000E+99

> <Gold.Chemscore.Hbonds>
donor molecule, donor type, donor heavy atom, donor atom, acceptor molecule, acceptor atom, score
      P1  H  7989  7998       L1    16  0.92

> <Gold.Chemscore.Hbond.Weighted>
-4.6558

> <Gold.Chemscore.Metal.Weighted>
-0.0000

> <Gold.Chemscore.Lipo.Weighted>
-9.2526

> <Gold.Chemscore.Internal_Hbond.Weighted>
0.0000

> <Gold.Chemscore.DEClash.Weighted>
0.7300

> <Gold.Chemscore.DEInternal.Weighted>
6.5383

> <Gold.Chemscore.Rot.Weighted>
8.9750

> <Gold.Chemscore.Internal.Correction.Weighted>
   9.000000E+99

> <Gold.Protein.RotatedTorsions>
[ 6907 6896 6895 6894 ] final   65.20 input  -60.11 | X-H torsion
[ 7974 7965 7964 7962 ] final  -16.87 input  175.53 | X-H torsion
[ 8008 7997 7996 7995 ] final -130.05 input   59.86 | X-H torsion
[ 10167 10162 10161 10158 ] final  -32.16 input  -65.29 | X-H torsion
[ 10718 10713 10712 10709 ] final -176.88 input   66.30 | X-H torsion
[ 10763 10752 10751 10750 ] final -161.77 input  -60.55 | X-H torsion
[ 11005 11000 10999 10996 ] final -154.76 input  -57.11 | X-H torsion

> <Gold.Protein.ActiveResidues>
 VAL166  LYS551  ARG553  GLY616  TRP617  ASP618  TYR619  PRO620  LYS621  CYS622 
 ASP623  PHE694  ASN695  SER759  ASP760  ASP761  ALA762  ILE779  LEU786  VAL792 
 PHE793  MET794  SER795  GLU796  ALA797  LYS798  CYS799  TRP800  GLU811  SER814 

> <Gold.Protein.RotatedAtoms>
  152.4390  134.5630  159.9899 H   0  0  0  0  0  0  0  0  0  0  0  0  # atno 6907 bound_to 6896
  151.5732  133.3381  159.3001 H   0  0  0  0  0  0  0  0  0  0  0  0  # atno 6908 bound_to 6896
  150.8292  134.7572  159.6903 H   0  0  0  0  0  0  0  0  0  0  0  0  # atno 6909 bound_to 6896
  146.1967  140.3698  142.8438 H   0  0  0  0  0  0  0  0  0  0  0  0  # atno 7974 bound_to 7965
  155.2894  140.0447  157.3022 H   0  0  0  0  0  0  0  0  0  0  0  0  # atno 8008 bound_to 7997
  154.5550  140.2329  155.8392 H   0  0  0  0  0  0  0  0  0  0  0  0  # atno 8009 bound_to 7997
  156.1999  140.3028  155.9513 H   0  0  0  0  0  0  0  0  0  0  0  0  # atno 8010 bound_to 7997
  140.7225  143.3716  151.1768 H   0  0  0  0  0  0  0  0  0  0  0  0  # atno 10167 bound_to 10162
  156.8212  130.9620  151.3111 H   0  0  0  0  0  0  0  0  0  0  0  0  # atno 10718 bound_to 10713
  154.7274  135.3039  154.8948 H   0  0  0  0  0  0  0  0  0  0  0  0  # atno 10763 bound_to 10752
  153.9801  135.6731  153.4754 H   0  0  0  0  0  0  0  0  0  0  0  0  # atno 10764 bound_to 10752
  153.0887  135.4970  154.8568 H   0  0  0  0  0  0  0  0  0  0  0  0  # atno 10765 bound_to 10752
  140.6939  134.4012  157.5216 H   0  0  0  0  0  0  0  0  0  0  0  0  # atno 11005 bound_to 11000
  144.8596  140.7120  143.6116 LP  0  0  0  0  0  0  0  0  0  0  0  0  # atno 17320 bound_to 7965
  145.3619  139.1680  143.4379 LP  0  0  0  0  0  0  0  0  0  0  0  0  # atno 17321 bound_to 7965
  139.7288  143.9106  152.3012 LP  0  0  0  0  0  0  0  0  0  0  0  0  # atno 17342 bound_to 10162
  139.8888  144.6977  150.8794 LP  0  0  0  0  0  0  0  0  0  0  0  0  # atno 17343 bound_to 10162
  157.6455  130.8841  149.9531 LP  0  0  0  0  0  0  0  0  0  0  0  0  # atno 17370 bound_to 10713
  156.0987  130.3657  150.0257 LP  0  0  0  0  0  0  0  0  0  0  0  0  # atno 17371 bound_to 10713
  139.8916  134.8776  156.2313 LP  0  0  0  0  0  0  0  0  0  0  0  0  # atno 17394 bound_to 11000
  141.0219  133.7036  156.1283 LP  0  0  0  0  0  0  0  0  0  0  0  0  # atno 17395 bound_to 11000

$$$$
