AV-unprocessed.smi:1341|AV-procd|sdf|5505|dock8
  -GOLD-   22720 5 83D 1   1.00000     0.00000
 Structure written by MMmdl.
 34 35  0  0  0  0  0  0  0  0  1 V2000
  152.9968  138.0252  153.7524 C   0  0  0  0  0  0  0  0  0  0  0  0
  151.8237  137.4885  153.3849 C   0  0  0  0  0  0  0  0  0  0  0  0
  150.8633  136.7949  154.3311 C   0  0  0  0  0  0  0  0  0  0  0  0
  150.2930  135.5952  153.7312 N   0  0  0  0  0  0  0  0  0  0  0  0
  150.5770  134.3341  154.0971 C   0  0  0  0  0  0  0  0  0  0  0  0
  151.3614  134.0484  155.0022 O   0  0  0  0  0  0  0  0  0  0  0  0
  149.8315  133.2716  153.3395 C   0  0  0  0  0  0  0  0  0  0  0  0
  148.6841  133.6458  152.7241 N   0  0  0  0  0  0  0  0  0  0  0  0
  148.0113  132.7348  152.0098 C   0  0  0  0  0  0  0  0  0  0  0  0
  146.8248  133.1460  151.3887 N   0  0  0  0  0  0  0  0  0  0  0  0
  146.4687  134.5609  151.2529 C   0  0  0  0  0  0  0  0  0  0  0  0
  144.9427  134.7470  151.2928 C   0  0  0  0  0  0  0  0  0  0  0  0
  144.3319  133.9357  150.2971 O   0  0  0  0  0  0  0  0  0  0  0  0
  144.5860  132.5545  150.5208 C   0  0  0  0  0  0  0  0  0  0  0  0
  146.0988  132.2848  150.4517 C   0  0  0  0  0  0  0  0  0  0  0  0
  148.3892  131.4609  151.8484 N   0  0  0  0  0  0  0  0  0  0  0  0
  149.5309  131.0635  152.4474 C   0  0  0  0  0  0  0  0  0  0  0  0
  150.3123  131.9428  153.2212 C   0  0  0  0  0  0  0  0  0  0  0  0
  151.7556  131.3693  153.9842 Cl  0  0  0  0  0  0  0  0  0  0  0  0
  153.3355  137.9877  154.7774 H   0  0  0  0  0  0  0  0  0  0  0  0
  153.6351  138.5107  153.0288 H   0  0  0  0  0  0  0  0  0  0  0  0
  151.5185  137.5506  152.3503 H   0  0  0  0  0  0  0  0  0  0  0  0
  151.3800  136.5148  155.2497 H   0  0  0  0  0  0  0  0  0  0  0  0
  150.0715  137.4905  154.6132 H   0  0  0  0  0  0  0  0  0  0  0  0
  149.6325  135.7278  152.9787 H   0  0  0  0  0  0  0  0  0  0  0  0
  146.9070  135.1743  152.0395 H   0  0  0  0  0  0  0  0  0  0  0  0
  146.8657  134.9301  150.3067 H   0  0  0  0  0  0  0  0  0  0  0  0
  144.5461  134.4960  152.2780 H   0  0  0  0  0  0  0  0  0  0  0  0
  144.6878  135.7899  151.1043 H   0  0  0  0  0  0  0  0  0  0  0  0
  144.1801  132.2492  151.4868 H   0  0  0  0  0  0  0  0  0  0  0  0
  144.0668  131.9714  149.7601 H   0  0  0  0  0  0  0  0  0  0  0  0
  146.4673  132.4772  149.4435 H   0  0  0  0  0  0  0  0  0  0  0  0
  146.2652  131.2268  150.6519 H   0  0  0  0  0  0  0  0  0  0  0  0
  149.8205  130.0323  152.3100 H   0  0  0  0  0  0  0  0  0  0  0  0
  1  2  2  0  0  0  0
  1 20  1  0  0  0  0
  1 21  1  0  0  0  0
  2  3  1  0  0  0  0
  2 22  1  0  0  0  0
  3  4  1  0  0  0  0
  3 23  1  0  0  0  0
  3 24  1  0  0  0  0
  4  5  1  0  0  0  0
  4 25  1  0  0  0  0
  5  6  2  0  0  0  0
  5  7  1  0  0  0  0
  7 18  1  0  0  0  0
  7  8  2  0  0  0  0
  8  9  1  0  0  0  0
  9 10  1  0  0  0  0
  9 16  2  0  0  0  0
 10 15  1  0  0  0  0
 10 11  1  0  0  0  0
 11 12  1  0  0  0  0
 11 26  1  0  0  0  0
 11 27  1  0  0  0  0
 12 13  1  0  0  0  0
 12 28  1  0  0  0  0
 12 29  1  0  0  0  0
 13 14  1  0  0  0  0
 14 15  1  0  0  0  0
 14 30  1  0  0  0  0
 14 31  1  0  0  0  0
 15 32  1  0  0  0  0
 15 33  1  0  0  0  0
 16 17  1  0  0  0  0
 17 18  2  0  0  0  0
 17 34  1  0  0  0  0
 18 19  1  0  0  0  0
M  END
> <s_m_source_file>
AV-unprocessed.smi

> <i_m_source_file_index>
1341

> <i_lp_mmshare_version>
43012

> <i_f3d_flags>
0

> <s_epik_input>
W0NIMl09W0NIXVtDSDJdW05IXUMoPU8pYzFuYyhuW2NIXWMxQ2wpTjJbQ0gyXVtDSDJdT1tDSDJdW0NIMl0y

> <s_epik_cmdline>
J2VwaWtfcHl0aG9uJywgJy1waCcsICc3LjAnLCAnLXRuJywgJzgnLCAnLW1hJywgJzIwMCcsICctbWV0YWxfYmluZGluZycsICctaW1hZScsICc8aW5maWxlLm1hZT4nLCAnLW9tYWUnLCAnPG91dGZpbGUubWFlPic=

> <r_lp_tautomer_probability>
1

> <r_epik_Ionization_Penalty>
2.38615e-05

> <r_epik_Ionization_Penalty_Charging>
0

> <r_epik_Ionization_Penalty_Neutral>
2.38615e-05

> <r_epik_State_Penalty>
-0

> <r_epik_Charging_Adjusted_Penalty>
0

> <i_epik_Tot_Q>
0

> <i_epik_Tot_abs_Q>
0

> <r_epik_Metal_State_Penalty>
0.0225026

> <b_epik_Metal_Only>
0

> <s_lp_Force_Field>
OPLS_2005

> <r_lp_Energy>
14.7295

> <b_lp_Chiralities_Consistent>
1

> <s_lp_Variant>
AV-unprocessed.smi:1341-1

> <Gold.Version>
5.8.1

> <Gold.Id.Protein>
6NUR|6NUR_protein|mol2

> <Gold.PLP.Fitness>
37.0177

> <Gold.PLP.PLP>
-34.8616

> <Gold.PLP.part.hbond>
-1.0000

> <Gold.PLP.part.metal>
0.0000

> <Gold.PLP.part.buried>
-5.6700

> <Gold.PLP.part.nonpolar>
-30.6361

> <Gold.PLP.part.repulsive>
2.7966

> <Gold.PLP.ligand.clash>
0.0000

> <Gold.PLP.ligand.torsion>
0.4653

> <Gold.PLP.Chemscore.Hbond>
0.9920

> <Gold.PLP.Chemscore.CHOScore>
0.0000

> <Gold.PLP.Chemscore.Metal>
0.0000

> <Gold.Chemscore.Hbonds>
donor molecule, donor type, donor heavy atom, donor atom, acceptor molecule, acceptor atom, score
      L1  H     4    25       P1  7948  0.19
      P1  H 10752 10765       L1     6  0.13

> <Gold.PLP.Chemscore.Internal.Correction>
0.1108

> <Gold.Rescore>
     Score         DG    S(hbond)    S(metal)    S(lipo)     H(rot)  DE(clash)    DE(int)     intcor
     11.90     -13.68       0.95        0.00      68.53       1.16       0.12       1.66       ----

> <Gold.Chemscore.Fitness>
11.8961

> <Gold.Chemscore.DG>
-13.6822

> <Gold.Chemscore.ZeroCoef>
-5.4800

> <Gold.Chemscore.Hbond>
0.9473

> <Gold.Chemscore.Metal>
0.0000

> <Gold.Chemscore.Lipo>
68.5320

> <Gold.Chemscore.Internal_Hbond>
0.0000

> <Gold.Chemscore.DEClash>
0.1239

> <Gold.Chemscore.DEInternal>
1.6622

> <Gold.Chemscore.Rot>
1.1641

> <Gold.Chemscore.Internal.Correction>
   9.000000E+99

> <Gold.Chemscore.Hbonds>
donor molecule, donor type, donor heavy atom, donor atom, acceptor molecule, acceptor atom, score
      P1  H 10752 10765       L1     6  0.10

> <Gold.Chemscore.Hbond.Weighted>
-3.1641

> <Gold.Chemscore.Metal.Weighted>
-0.0000

> <Gold.Chemscore.Lipo.Weighted>
-8.0182

> <Gold.Chemscore.Internal_Hbond.Weighted>
0.0000

> <Gold.Chemscore.DEClash.Weighted>
0.1239

> <Gold.Chemscore.DEInternal.Weighted>
1.6622

> <Gold.Chemscore.Rot.Weighted>
2.9802

> <Gold.Chemscore.Internal.Correction.Weighted>
   9.000000E+99

> <Gold.Protein.RotatedTorsions>
[ 6907 6896 6895 6894 ] final  155.52 input  -60.11 | X-H torsion
[ 7974 7965 7964 7962 ] final  -18.14 input  175.53 | X-H torsion
[ 8008 7997 7996 7995 ] final -150.77 input   59.86 | X-H torsion
[ 10167 10162 10161 10158 ] final   88.90 input  -65.29 | X-H torsion
[ 10718 10713 10712 10709 ] final   29.35 input   66.30 | X-H torsion
[ 10763 10752 10751 10750 ] final -152.20 input  -60.55 | X-H torsion
[ 11005 11000 10999 10996 ] final  -34.74 input  -57.11 | X-H torsion

> <Gold.Protein.ActiveResidues>
 VAL166  LYS551  ARG553  GLY616  TRP617  ASP618  TYR619  PRO620  LYS621  CYS622 
 ASP623  PHE694  ASN695  SER759  ASP760  ASP761  ALA762  ILE779  LEU786  VAL792 
 PHE793  MET794  SER795  GLU796  ALA797  LYS798  CYS799  TRP800  GLU811  SER814 

> <Gold.Protein.RotatedAtoms>
  152.0429  133.3985  159.4344 H   0  0  0  0  0  0  0  0  0  0  0  0  # atno 6907 bound_to 6896
  150.6874  134.3394  159.4870 H   0  0  0  0  0  0  0  0  0  0  0  0  # atno 6908 bound_to 6896
  152.1195  134.9216  160.0614 H   0  0  0  0  0  0  0  0  0  0  0  0  # atno 6909 bound_to 6896
  146.1907  140.3879  142.8459 H   0  0  0  0  0  0  0  0  0  0  0  0  # atno 7974 bound_to 7965
  155.6288  140.0689  157.2655 H   0  0  0  0  0  0  0  0  0  0  0  0  # atno 8008 bound_to 7997
  154.4211  140.1771  156.1498 H   0  0  0  0  0  0  0  0  0  0  0  0  # atno 8009 bound_to 7997
  155.9950  140.3341  155.6793 H   0  0  0  0  0  0  0  0  0  0  0  0  # atno 8010 bound_to 7997
  139.8626  144.6535  150.9040 H   0  0  0  0  0  0  0  0  0  0  0  0  # atno 10167 bound_to 10162
  157.2454  130.7089  149.6379 H   0  0  0  0  0  0  0  0  0  0  0  0  # atno 10718 bound_to 10713
  154.8009  135.3242  154.7551 H   0  0  0  0  0  0  0  0  0  0  0  0  # atno 10763 bound_to 10752
  153.8219  135.6887  153.4830 H   0  0  0  0  0  0  0  0  0  0  0  0  # atno 10764 bound_to 10752
  153.1726  135.4617  154.9866 H   0  0  0  0  0  0  0  0  0  0  0  0  # atno 10765 bound_to 10752
  140.9740  133.7093  156.1572 H   0  0  0  0  0  0  0  0  0  0  0  0  # atno 11005 bound_to 11000
  144.8481  140.6960  143.6186 LP  0  0  0  0  0  0  0  0  0  0  0  0  # atno 17320 bound_to 7965
  145.3802  139.1639  143.4285 LP  0  0  0  0  0  0  0  0  0  0  0  0  # atno 17321 bound_to 7965
  140.7773  143.3731  151.1613 LP  0  0  0  0  0  0  0  0  0  0  0  0  # atno 17342 bound_to 10162
  139.7359  143.9000  152.3034 LP  0  0  0  0  0  0  0  0  0  0  0  0  # atno 17343 bound_to 10162
  155.9668  130.4444  150.5462 LP  0  0  0  0  0  0  0  0  0  0  0  0  # atno 17370 bound_to 10713
  157.3334  131.0704  151.1843 LP  0  0  0  0  0  0  0  0  0  0  0  0  # atno 17371 bound_to 10713
  140.7286  134.4280  157.5568 LP  0  0  0  0  0  0  0  0  0  0  0  0  # atno 17394 bound_to 11000
  139.8923  134.8757  156.2276 LP  0  0  0  0  0  0  0  0  0  0  0  0  # atno 17395 bound_to 11000

$$$$
