#       Name:                AV-unprocessed.smi:3348
#       Creating user name   scv26
#       Creation time:       Fri Mar 27 19:35:57 2020


#       File generated by GOLD software.
#

@<TRIPOS>MOLECULE
AV-unprocessed.smi:3348
    50    51     1
SMALL
NO_CHARGES


@<TRIPOS>ATOM
      1 ****        -2.0707   2.9387  -0.1916 C.3            1 S1                 0.0000
      2 ****        -0.9687   2.4503   0.7645 C.3            1 S1                 0.0000
      3 ****        -1.2161   2.8774   2.2320 C.3            1 S1                 0.0000
      4 ****        -1.4840   4.2969   2.3779 N.pl3          1 S1                 0.0000
      5 ****        -2.6694   4.9149   2.7168 C.2            1 S1                 0.0000
      6 ****        -2.4357   6.2599   2.7345 C.2            1 S1                 0.0000
      7 ****        -1.0583   6.3678   2.3944 C.2            1 S1                 0.0000
      8 ****        -0.4904   5.1912   2.1847 N.2            1 S1                 0.0000
      9 ****        -0.8365   0.9959   0.6379 N.3            1 S1                 0.0000
     10 ****         0.3122   0.4069   1.3244 C.3            1 S1                 0.0000
     11 ****         0.4166  -1.0908   1.0206 C.3            1 S1                 0.0000
     12 ****         0.8643  -1.2539  -0.3174 O.3            1 S1                 0.0000
     13 ****         1.0392  -2.6056  -0.7260 C.3            1 S1                 0.0000
     14 ****        -0.3262  -3.2178  -1.1084 C.3            1 S1                 0.0000
     15 ****        -0.1721  -4.6292  -1.6934 C.3            1 S1                 0.0000
     16 ****         0.7801  -4.6256  -2.8969 C.3            1 S1                 0.0000
     17 ****         2.1442  -4.0305  -2.5170 C.3            1 S1                 0.0000
     18 ****         2.0062  -2.6104  -1.9324 C.3            1 S1                 0.0000
     19 ****         3.3858  -2.0428  -1.5608 C.3            1 S1                 0.0000
     20 ****        -2.1232   4.0270  -0.2242 H              1 S1                 0.0000
     21 ****        -3.0502   2.5657   0.1092 H              1 S1                 0.0000
     22 ****        -1.8838   2.5989  -1.2108 H              1 S1                 0.0000
     23 ****        -0.0369   2.9112   0.4338 H              1 S1                 0.0000
     24 ****        -2.0647   2.3282   2.6429 H              1 S1                 0.0000
     25 ****        -0.3568   2.6389   2.8592 H              1 S1                 0.0000
     26 ****        -3.5706   4.3523   2.9115 H              1 S1                 0.0000
     27 ****        -3.1411   7.0465   2.9571 H              1 S1                 0.0000
     28 ****        -0.4583   7.2601   2.2953 H              1 S1                 0.0000
     29 ****        -0.8014   0.7447  -0.3452 H              1 S1                 0.0000
     30 ****         1.2352   0.9082   1.0304 H              1 S1                 0.0000
     31 ****         0.2105   0.5357   2.4014 H              1 S1                 0.0000
     32 ****         1.1399  -1.5449   1.6991 H              1 S1                 0.0000
     33 ****        -0.5420  -1.5810   1.1913 H              1 S1                 0.0000
     34 ****         1.4896  -3.1868   0.0813 H              1 S1                 0.0000
     35 ****        -0.9847  -3.2645  -0.2417 H              1 S1                 0.0000
     36 ****        -0.8224  -2.5758  -1.8373 H              1 S1                 0.0000
     37 ****         0.2086  -5.3047  -0.9262 H              1 S1                 0.0000
     38 ****        -1.1470  -5.0160  -1.9913 H              1 S1                 0.0000
     39 ****         0.9086  -5.6411  -3.2725 H              1 S1                 0.0000
     40 ****         0.3416  -4.0467  -3.7110 H              1 S1                 0.0000
     41 ****         2.6330  -4.6818  -1.7910 H              1 S1                 0.0000
     42 ****         2.7891  -4.0106  -3.3962 H              1 S1                 0.0000
     43 ****         1.5828  -1.9697  -2.7075 H              1 S1                 0.0000
     44 ****         3.8594  -2.6337  -0.7764 H              1 S1                 0.0000
     45 ****         3.3102  -1.0157  -1.2034 H              1 S1                 0.0000
     46 ****         4.0532  -2.0386  -2.4230 H              1 S1                 0.0000
     47 ****         0.4609   5.0058   1.9385 LP             1 S1                 0.0000
     48 ****        -1.6427   0.6183   1.0934 LP             1 S1                 0.0000
     49 ****         1.7421  -0.7841  -0.4114 LP             1 S1                 0.0000
     50 ****         0.1924  -0.8296  -0.9244 LP             1 S1                 0.0000
@<TRIPOS>BOND
    1    1    2 1     
    2    1   20 1     
    3    1   21 1     
    4    1   22 1     
    5    2    3 1     
    6    2    9 1     
    7    2   23 1     
    8    3    4 1     
    9    3   24 1     
   10    3   25 1     
   11    4    8 1     
   12    4    5 1     
   13    5    6 2     
   14    5   26 1     
   15    6    7 1     
   16    6   27 1     
   17    7    8 2     
   18    7   28 1     
   19    9   10 1     
   20    9   29 1     
   21   10   11 1     
   22   10   30 1     
   23   10   31 1     
   24   11   12 1     
   25   11   32 1     
   26   11   33 1     
   27   12   13 1     
   28   13   18 1     
   29   13   14 1     
   30   13   34 1     
   31   14   15 1     
   32   14   35 1     
   33   14   36 1     
   34   15   16 1     
   35   15   37 1     
   36   15   38 1     
   37   16   17 1     
   38   16   39 1     
   39   16   40 1     
   40   17   18 1     
   41   17   41 1     
   42   17   42 1     
   43   18   19 1     
   44   18   43 1     
   45   19   44 1     
   46   19   45 1     
   47   19   46 1     
   48    8   47 1     
   49    9   48 1     
   50   12   49 1     
   51   12   50 1     
@<TRIPOS>SUBSTRUCTURE
      1 S1             1
@<TRIPOS>SET
LONE_PAIRS      STATIC     ATOMS    <user>   **** ""
4 47 48 49 50
DONOR_HYDROGENS      STATIC     ATOMS    <user>   **** ""
1 29
ATOM$BLUE        STATIC     ATOMS    COLORGROUP SYSTEM
4 47 48 49 50
ATOM$RED        STATIC     ATOMS    COLORGROUP SYSTEM
1 29
