AV-unprocessed.smi:2083|AV-procd|sdf|8511|dock7
  -GOLD-   2272011223D 1   1.00000     0.00000
 Structure written by MMmdl.
 44 45  0  0  0  0  0  0  0  0  3 V2000
  153.9989  140.3993  160.6125 C   0  0  0  0  0  0  0  0  0  0  0  0
  153.9895  139.5324  159.4004 C   0  0  0  0  0  0  0  0  0  0  0  0
  153.0315  138.7427  158.8298 C   0  0  0  0  0  0  0  0  0  0  0  0
  153.6945  138.2021  157.6957 C   0  0  0  0  0  0  0  0  0  0  0  0
  153.0190  137.3111  156.8206 N   0  0  0  0  0  0  0  0  0  0  0  0
  151.9269  136.5614  157.0571 C   0  0  0  0  0  0  0  0  0  0  0  0
  151.3702  136.5978  158.1611 O   0  0  0  0  0  0  0  0  0  0  0  0
  151.5699  135.8204  155.9727 N   0  5  0  0  0  0  0  0  0  0  0  0
  150.1950  135.6324  155.5130 C   0  0  0  0  0  0  0  0  0  0  0  0
  150.1102  134.4179  154.5330 C   0  0  1  0  0  0  0  0  0  0  0  0
  150.7280  133.1205  155.1070 C   0  0  0  0  0  0  0  0  0  0  0  0
  148.7452  134.1292  153.9732 N   0  3  1  0  0  0  0  0  0  0  0  0
  148.6454  133.0855  152.9095 C   0  0  0  0  0  0  0  0  0  0  0  0
  147.2871  133.1679  152.1965 C   0  0  0  0  0  0  0  0  0  0  0  0
  146.1306  133.0547  153.2009 C   0  0  0  0  0  0  0  0  0  0  0  0
  146.2641  134.0909  154.3335 C   0  0  2  0  0  0  0  0  0  0  0  0
  145.9264  135.5206  153.8752 C   0  0  0  0  0  0  0  0  0  0  0  0
  147.6585  134.0023  154.9874 C   0  0  0  0  0  0  0  0  0  0  0  0
  154.9456  138.6240  157.5857 N   0  0  0  0  0  0  0  0  0  0  0  0
  155.1411  139.4778  158.6779 O   0  0  0  0  0  0  0  0  0  0  0  0
  152.9876  140.5541  160.9887 H   0  0  0  0  0  0  0  0  0  0  0  0
  154.4282  141.3757  160.3871 H   0  0  0  0  0  0  0  0  0  0  0  0
  154.5894  139.9441  161.4075 H   0  0  0  0  0  0  0  0  0  0  0  0
  152.0195  138.5794  159.1695 H   0  0  0  0  0  0  0  0  0  0  0  0
  153.4156  137.2251  155.8966 H   0  0  0  0  0  0  0  0  0  0  0  0
  149.5019  135.4684  156.3390 H   0  0  0  0  0  0  0  0  0  0  0  0
  149.8349  136.5247  155.0003 H   0  0  0  0  0  0  0  0  0  0  0  0
  150.7249  134.6687  153.6667 H   0  0  0  0  0  0  0  0  0  0  0  0
  151.7912  133.2341  155.3266 H   0  0  0  0  0  0  0  0  0  0  0  0
  150.6473  132.3066  154.3858 H   0  0  0  0  0  0  0  0  0  0  0  0
  150.2413  132.7894  156.0253 H   0  0  0  0  0  0  0  0  0  0  0  0
  149.4381  133.2103  152.1729 H   0  0  0  0  0  0  0  0  0  0  0  0
  148.7671  132.0907  153.3408 H   0  0  0  0  0  0  0  0  0  0  0  0
  147.2150  134.1067  151.6465 H   0  0  0  0  0  0  0  0  0  0  0  0
  147.2106  132.3731  151.4539 H   0  0  0  0  0  0  0  0  0  0  0  0
  145.1730  133.1654  152.6910 H   0  0  0  0  0  0  0  0  0  0  0  0
  146.1326  132.0523  153.6312 H   0  0  0  0  0  0  0  0  0  0  0  0
  145.5289  133.8329  155.0969 H   0  0  0  0  0  0  0  0  0  0  0  0
  146.6343  135.8891  153.1325 H   0  0  0  0  0  0  0  0  0  0  0  0
  145.9427  136.2137  154.7168 H   0  0  0  0  0  0  0  0  0  0  0  0
  144.9299  135.5658  153.4349 H   0  0  0  0  0  0  0  0  0  0  0  0
  147.7528  133.0484  155.5079 H   0  0  0  0  0  0  0  0  0  0  0  0
  147.7546  134.7813  155.7448 H   0  0  0  0  0  0  0  0  0  0  0  0
  148.5186  134.9881  153.4936 H   0  0  0  0  0  0  0  0  0  0  0  0
  1  2  1  0  0  0  0
  1 21  1  0  0  0  0
  1 22  1  0  0  0  0
  1 23  1  0  0  0  0
  2 20  1  0  0  0  0
  2  3  2  0  0  0  0
  3  4  1  0  0  0  0
  3 24  1  0  0  0  0
  4  5  1  0  0  0  0
  4 19  2  0  0  0  0
  5  6  1  0  0  0  0
  5 25  1  0  0  0  0
  6  7  2  0  0  0  0
  6  8  1  0  0  0  0
  8  9  1  0  0  0  0
  9 10  1  0  0  0  0
  9 26  1  0  0  0  0
  9 27  1  0  0  0  0
 10 11  1  0  0  0  0
 10 12  1  0  0  0  0
 10 28  1  0  0  0  0
 11 29  1  0  0  0  0
 11 30  1  0  0  0  0
 11 31  1  0  0  0  0
 12 18  1  0  0  0  0
 12 13  1  0  0  0  0
 12 44  1  0  0  0  0
 13 14  1  0  0  0  0
 13 32  1  0  0  0  0
 13 33  1  0  0  0  0
 14 15  1  0  0  0  0
 14 34  1  0  0  0  0
 14 35  1  0  0  0  0
 15 16  1  0  0  0  0
 15 36  1  0  0  0  0
 15 37  1  0  0  0  0
 16 17  1  0  0  0  0
 16 18  1  0  0  0  0
 16 38  1  0  0  0  0
 17 39  1  0  0  0  0
 17 40  1  0  0  0  0
 17 41  1  0  0  0  0
 18 42  1  0  0  0  0
 18 43  1  0  0  0  0
 19 20  1  0  0  0  0
M  CHG  1   8  -1
M  CHG  1  12   1
M  END
> <s_m_source_file>
AV-unprocessed.smi

> <i_m_source_file_index>
2083

> <i_lp_mmshare_version>
43012

> <i_f3d_flags>
0

> <s_epik_input>
W0NIM11jMVtjSF1jKG5vMSlbTkhdQyg9TylbTkhdW0NIMl1bQ0BIXShbQ0gzXSlOMltDSDJdW0NIMl1bQ0gyXVtDQEBIXShbQ0gzXSlbQ0gyXTI=

> <s_epik_cmdline>
J2VwaWtfcHl0aG9uJywgJy1waCcsICc3LjAnLCAnLXRuJywgJzgnLCAnLW1hJywgJzIwMCcsICctbWV0YWxfYmluZGluZycsICctaW1hZScsICc8aW5maWxlLm1hZT4nLCAnLW9tYWUnLCAnPG91dGZpbGUubWFlPic=

> <r_epik_Ionization_Penalty>
6.76934

> <r_epik_Ionization_Penalty_Charging>
6.76934

> <r_epik_Ionization_Penalty_Neutral>
5.77849e-06

> <r_epik_State_Penalty>
6.79457

> <r_epik_Charging_Adjusted_Penalty>
13.5639

> <i_epik_Tot_Q>
0

> <i_epik_Tot_abs_Q>
2

> <r_epik_Metal_State_Penalty>
2.72837

> <b_epik_Metal_Only>
1

> <s_lp_Force_Field>
OPLS_2005

> <r_lp_Energy>
23.3528

> <b_lp_Chiralities_Consistent>
1

> <s_lp_Variant>
AV-unprocessed.smi:2083-22

> <Gold.Version>
5.8.1

> <Gold.Id.Protein>
6NUR|6NUR_protein|mol2

> <Gold.PLP.Fitness>
36.9845

> <Gold.PLP.PLP>
-26.1085

> <Gold.PLP.part.hbond>
-4.7033

> <Gold.PLP.part.metal>
0.0000

> <Gold.PLP.part.buried>
-3.5827

> <Gold.PLP.part.nonpolar>
-18.1426

> <Gold.PLP.part.repulsive>
0.1735

> <Gold.PLP.ligand.clash>
0.0000

> <Gold.PLP.ligand.torsion>
0.6661

> <Gold.PLP.Chemscore.Hbond>
4.0000

> <Gold.PLP.Chemscore.CHOScore>
0.0000

> <Gold.PLP.Chemscore.Metal>
0.0000

> <Gold.Chemscore.Hbonds>
donor molecule, donor type, donor heavy atom, donor atom, acceptor molecule, acceptor atom, score
      L1  H    12    44       P1  7948  1.60
      P1  H  6896  6908       L1     7  0.02
      P1  H 10752 10765       L1     8  2.00

> <Gold.PLP.Chemscore.Internal.Correction>
0.2082

> <Gold.Rescore>
     Score         DG    S(hbond)    S(metal)    S(lipo)     H(rot)  DE(clash)    DE(int)     intcor
     13.36     -15.45       2.21        0.00      55.34       1.52       0.01       2.07       ----

> <Gold.Chemscore.Fitness>
13.3635

> <Gold.Chemscore.DG>
-15.4468

> <Gold.Chemscore.ZeroCoef>
-5.4800

> <Gold.Chemscore.Hbond>
2.2097

> <Gold.Chemscore.Metal>
0.0000

> <Gold.Chemscore.Lipo>
55.3427

> <Gold.Chemscore.Internal_Hbond>
0.0000

> <Gold.Chemscore.DEClash>
0.0149

> <Gold.Chemscore.DEInternal>
2.0684

> <Gold.Chemscore.Rot>
1.5190

> <Gold.Chemscore.Internal.Correction>
   9.000000E+99

> <Gold.Chemscore.Hbonds>
donor molecule, donor type, donor heavy atom, donor atom, acceptor molecule, acceptor atom, score
      L1  H    12    44       P1  7948  0.62
      P1  H  6896  6908       L1     7  0.04
      P1  H 10752 10765       L1     8  0.60

> <Gold.Chemscore.Hbond.Weighted>
-7.3803

> <Gold.Chemscore.Metal.Weighted>
-0.0000

> <Gold.Chemscore.Lipo.Weighted>
-6.4751

> <Gold.Chemscore.Internal_Hbond.Weighted>
0.0000

> <Gold.Chemscore.DEClash.Weighted>
0.0149

> <Gold.Chemscore.DEInternal.Weighted>
2.0684

> <Gold.Chemscore.Rot.Weighted>
3.8886

> <Gold.Chemscore.Internal.Correction.Weighted>
   9.000000E+99

> <Gold.Protein.RotatedTorsions>
[ 6907 6896 6895 6894 ] final -102.82 input  -60.11 | X-H torsion
[ 7974 7965 7964 7962 ] final  162.81 input  175.53 | X-H torsion
[ 8008 7997 7996 7995 ] final  -16.54 input   59.86 | X-H torsion
[ 10167 10162 10161 10158 ] final -113.43 input  -65.29 | X-H torsion
[ 10718 10713 10712 10709 ] final    1.62 input   66.30 | X-H torsion
[ 10763 10752 10751 10750 ] final -152.71 input  -60.55 | X-H torsion
[ 11005 11000 10999 10996 ] final  -11.53 input  -57.11 | X-H torsion

> <Gold.Protein.ActiveResidues>
 VAL166  LYS551  ARG553  GLY616  TRP617  ASP618  TYR619  PRO620  LYS621  CYS622 
 ASP623  PHE694  ASN695  SER759  ASP760  ASP761  ALA762  ILE779  LEU786  VAL792 
 PHE793  MET794  SER795  GLU796  ALA797  LYS798  CYS799  TRP800  GLU811  SER814 

> <Gold.Protein.RotatedAtoms>
  150.7213  134.0523  159.3802 H   0  0  0  0  0  0  0  0  0  0  0  0  # atno 6907 bound_to 6896
  151.8500  135.0559  160.0467 H   0  0  0  0  0  0  0  0  0  0  0  0  # atno 6908 bound_to 6896
  152.2798  133.5423  159.5527 H   0  0  0  0  0  0  0  0  0  0  0  0  # atno 6909 bound_to 6896
  144.7619  139.8093  143.6329 H   0  0  0  0  0  0  0  0  0  0  0  0  # atno 7974 bound_to 7965
  154.5045  140.2167  155.9278 H   0  0  0  0  0  0  0  0  0  0  0  0  # atno 8008 bound_to 7997
  156.1476  140.3167  155.8563 H   0  0  0  0  0  0  0  0  0  0  0  0  # atno 8009 bound_to 7997
  155.4000  140.0483  157.3028 H   0  0  0  0  0  0  0  0  0  0  0  0  # atno 8010 bound_to 7997
  140.1120  143.4519  152.1746 H   0  0  0  0  0  0  0  0  0  0  0  0  # atno 10167 bound_to 10162
  156.8509  130.5553  149.5670 H   0  0  0  0  0  0  0  0  0  0  0  0  # atno 10718 bound_to 10713
  154.7976  135.3230  154.7628 H   0  0  0  0  0  0  0  0  0  0  0  0  # atno 10763 bound_to 10752
  153.8303  135.6880  153.4820 H   0  0  0  0  0  0  0  0  0  0  0  0  # atno 10764 bound_to 10752
  153.1676  135.4636  154.9800 H   0  0  0  0  0  0  0  0  0  0  0  0  # atno 10765 bound_to 10752
  140.7563  133.8551  155.9087 H   0  0  0  0  0  0  0  0  0  0  0  0  # atno 11005 bound_to 11000
  146.1690  139.4833  142.9940 LP  0  0  0  0  0  0  0  0  0  0  0  0  # atno 17320 bound_to 7965
  145.6593  141.0244  143.1718 LP  0  0  0  0  0  0  0  0  0  0  0  0  # atno 17321 bound_to 7965
  139.5614  144.7408  151.4144 LP  0  0  0  0  0  0  0  0  0  0  0  0  # atno 17342 bound_to 10162
  140.6920  143.7838  150.7270 LP  0  0  0  0  0  0  0  0  0  0  0  0  # atno 17343 bound_to 10162
  156.0828  130.5834  150.9595 LP  0  0  0  0  0  0  0  0  0  0  0  0  # atno 17370 bound_to 10713
  157.6304  131.0921  150.8453 LP  0  0  0  0  0  0  0  0  0  0  0  0  # atno 17371 bound_to 10713
  140.9705  134.1538  157.4580 LP  0  0  0  0  0  0  0  0  0  0  0  0  # atno 17394 bound_to 11000
  139.8778  134.9977  156.5859 LP  0  0  0  0  0  0  0  0  0  0  0  0  # atno 17395 bound_to 11000

$$$$
