AV-unprocessed.smi:2670|AV-procd|sdf|10345|dock7
  -GOLD-   2272014373D 1   1.00000     0.00000
 Structure written by MMmdl.
 40 41  0  0  0  0  0  0  0  0  2 V2000
  153.4023  143.1886  163.7271 C   0  0  0  0  0  0  0  0  0  0  0  0
  153.2454  142.9337  162.2571 C   0  0  0  0  0  0  0  0  0  0  0  0
  152.5027  143.6874  161.3062 C   0  0  0  0  0  0  0  0  0  0  0  0
  152.6932  143.0251  160.1262 C   0  0  0  0  0  0  0  0  0  0  0  0
  152.1679  143.3317  158.7610 C   0  0  0  0  0  0  0  0  0  0  0  0
  153.5151  141.9439  160.4007 N   0  0  0  0  0  0  0  0  0  0  0  0
  154.0161  140.9122  159.5036 C   0  0  0  0  0  0  0  0  0  0  0  0
  152.8893  140.0080  158.9994 C   0  0  0  0  0  0  0  0  0  0  0  0
  151.7444  140.1829  159.4128 O   0  0  0  0  0  0  0  0  0  0  0  0
  153.2665  139.0488  158.1339 N   0  0  0  0  0  0  0  0  0  0  0  0
  152.5224  137.9884  157.4331 C   0  0  0  0  0  0  0  0  0  0  0  0
  153.1703  136.6649  157.9119 C   0  0  0  0  0  0  0  0  0  0  0  0
  153.1469  136.4065  159.1361 O   0  0  0  0  0  0  0  0  0  0  0  0
  153.7291  135.9449  157.0534 O   0  5  0  0  0  0  0  0  0  0  0  0
  150.9775  137.9455  157.6777 C   0  0  0  0  0  0  0  0  0  0  0  0
  150.1970  139.0867  156.9946 C   0  0  0  0  0  0  0  0  0  0  0  0
  150.5088  139.1647  155.4967 C   0  0  0  0  0  0  0  0  0  0  0  0
  152.0168  139.3132  155.2703 C   0  0  0  0  0  0  0  0  0  0  0  0
  152.7907  138.1473  155.9080 C   0  0  0  0  0  0  0  0  0  0  0  0
  153.8444  141.8893  161.7101 N   0  0  0  0  0  0  0  0  0  0  0  0
  152.9303  144.1276  164.0169 H   0  0  0  0  0  0  0  0  0  0  0  0
  154.4547  143.2469  164.0063 H   0  0  0  0  0  0  0  0  0  0  0  0
  152.9438  142.3925  164.3138 H   0  0  0  0  0  0  0  0  0  0  0  0
  151.9172  144.5806  161.4661 H   0  0  0  0  0  0  0  0  0  0  0  0
  151.3387  144.0375  158.8128 H   0  0  0  0  0  0  0  0  0  0  0  0
  151.8085  142.4313  158.2628 H   0  0  0  0  0  0  0  0  0  0  0  0
  152.9454  143.7765  158.1397 H   0  0  0  0  0  0  0  0  0  0  0  0
  154.5085  141.3771  158.6479 H   0  0  0  0  0  0  0  0  0  0  0  0
  154.7773  140.3335  160.0289 H   0  0  0  0  0  0  0  0  0  0  0  0
  154.2546  139.0370  157.9278 H   0  0  0  0  0  0  0  0  0  0  0  0
  150.5869  137.0080  157.2781 H   0  0  0  0  0  0  0  0  0  0  0  0
  150.7388  137.9144  158.7408 H   0  0  0  0  0  0  0  0  0  0  0  0
  149.1272  138.9371  157.1410 H   0  0  0  0  0  0  0  0  0  0  0  0
  150.4332  140.0438  157.4574 H   0  0  0  0  0  0  0  0  0  0  0  0
  150.1467  138.2656  154.9965 H   0  0  0  0  0  0  0  0  0  0  0  0
  149.9787  140.0058  155.0490 H   0  0  0  0  0  0  0  0  0  0  0  0
  152.2271  139.3543  154.2013 H   0  0  0  0  0  0  0  0  0  0  0  0
  152.3611  140.2598  155.6888 H   0  0  0  0  0  0  0  0  0  0  0  0
  153.8559  138.2882  155.7155 H   0  0  0  0  0  0  0  0  0  0  0  0
  152.5125  137.2287  155.3878 H   0  0  0  0  0  0  0  0  0  0  0  0
  1  2  1  0  0  0  0
  1 21  1  0  0  0  0
  1 22  1  0  0  0  0
  1 23  1  0  0  0  0
  2 20  2  0  0  0  0
  2  3  1  0  0  0  0
  3  4  2  0  0  0  0
  3 24  1  0  0  0  0
  4  5  1  0  0  0  0
  4  6  1  0  0  0  0
  5 25  1  0  0  0  0
  5 26  1  0  0  0  0
  5 27  1  0  0  0  0
  6  7  1  0  0  0  0
  6 20  1  0  0  0  0
  7  8  1  0  0  0  0
  7 28  1  0  0  0  0
  7 29  1  0  0  0  0
  8  9  2  0  0  0  0
  8 10  1  0  0  0  0
 10 11  1  0  0  0  0
 10 30  1  0  0  0  0
 11 19  1  0  0  0  0
 11 12  1  0  0  0  0
 11 15  1  0  0  0  0
 12 13  2  0  0  0  0
 12 14  1  0  0  0  0
 15 16  1  0  0  0  0
 15 31  1  0  0  0  0
 15 32  1  0  0  0  0
 16 17  1  0  0  0  0
 16 33  1  0  0  0  0
 16 34  1  0  0  0  0
 17 18  1  0  0  0  0
 17 35  1  0  0  0  0
 17 36  1  0  0  0  0
 18 19  1  0  0  0  0
 18 37  1  0  0  0  0
 18 38  1  0  0  0  0
 19 39  1  0  0  0  0
 19 40  1  0  0  0  0
M  CHG  1  14  -1
M  END
> <s_m_source_file>
AV-unprocessed.smi

> <i_m_source_file_index>
2670

> <i_lp_mmshare_version>
43012

> <i_f3d_flags>
0

> <s_epik_input>
W0NIM11jMVtjSF1jKFtDSDNdKW4objEpW0NIMl1DKD1PKVtOSF1DMihDKD1PKVtPSF0pW0NIMl1bQ0gyXVtDSDJdW0NIMl1bQ0gyXTI=

> <s_epik_cmdline>
J2VwaWtfcHl0aG9uJywgJy1waCcsICc3LjAnLCAnLXRuJywgJzgnLCAnLW1hJywgJzIwMCcsICctbWV0YWxfYmluZGluZycsICctaW1hZScsICc8aW5maWxlLm1hZT4nLCAnLW9tYWUnLCAnPG91dGZpbGUubWFlPic=

> <r_lp_tautomer_probability>
1

> <r_epik_Ionization_Penalty>
0.000789686

> <r_epik_Ionization_Penalty_Charging>
0.000323848

> <r_epik_Ionization_Penalty_Neutral>
0.000465838

> <r_epik_State_Penalty>
-0

> <r_epik_Charging_Adjusted_Penalty>
0.000323848

> <i_epik_Tot_Q>
-1

> <i_epik_Tot_abs_Q>
1

> <r_epik_Metal_State_Penalty>
-0

> <b_epik_Metal_Only>
0

> <s_lp_Force_Field>
OPLS_2005

> <r_lp_Energy>
8.13654

> <b_lp_Chiralities_Consistent>
1

> <s_lp_Variant>
AV-unprocessed.smi:2670-1

> <Gold.Version>
5.8.1

> <Gold.Id.Protein>
6NUR|6NUR_protein|mol2

> <Gold.PLP.Fitness>
49.6172

> <Gold.PLP.PLP>
-38.0394

> <Gold.PLP.part.hbond>
-2.4536

> <Gold.PLP.part.metal>
0.0000

> <Gold.PLP.part.buried>
-5.4325

> <Gold.PLP.part.nonpolar>
-30.3396

> <Gold.PLP.part.repulsive>
0.9175

> <Gold.PLP.ligand.clash>
0.0000

> <Gold.PLP.ligand.torsion>
0.1236

> <Gold.PLP.Chemscore.Hbond>
3.9200

> <Gold.PLP.Chemscore.CHOScore>
0.0000

> <Gold.PLP.Chemscore.Metal>
0.0000

> <Gold.Chemscore.Hbonds>
donor molecule, donor type, donor heavy atom, donor atom, acceptor molecule, acceptor atom, score
      P1  H  6896  6909       L1    13  1.86
      P1  H 10752 10763       L1    14  2.00

> <Gold.PLP.Chemscore.Internal.Correction>
0.0649

> <Gold.Rescore>
     Score         DG    S(hbond)    S(metal)    S(lipo)     H(rot)  DE(clash)    DE(int)     intcor
     17.28     -18.89       1.94        0.00     101.24       1.91       0.17       1.44       ----

> <Gold.Chemscore.Fitness>
17.2788

> <Gold.Chemscore.DG>
-18.8882

> <Gold.Chemscore.ZeroCoef>
-5.4800

> <Gold.Chemscore.Hbond>
1.9358

> <Gold.Chemscore.Metal>
0.0000

> <Gold.Chemscore.Lipo>
101.2373

> <Gold.Chemscore.Internal_Hbond>
0.0000

> <Gold.Chemscore.DEClash>
0.1720

> <Gold.Chemscore.DEInternal>
1.4374

> <Gold.Chemscore.Rot>
1.9149

> <Gold.Chemscore.Internal.Correction>
   9.000000E+99

> <Gold.Chemscore.Hbonds>
donor molecule, donor type, donor heavy atom, donor atom, acceptor molecule, acceptor atom, score
      P1  H  6896  6909       L1    13  0.89
      P1  H 10752 10763       L1    14  1.00

> <Gold.Chemscore.Hbond.Weighted>
-6.4657

> <Gold.Chemscore.Metal.Weighted>
-0.0000

> <Gold.Chemscore.Lipo.Weighted>
-11.8448

> <Gold.Chemscore.Internal_Hbond.Weighted>
0.0000

> <Gold.Chemscore.DEClash.Weighted>
0.1720

> <Gold.Chemscore.DEInternal.Weighted>
1.4374

> <Gold.Chemscore.Rot.Weighted>
4.9023

> <Gold.Chemscore.Internal.Correction.Weighted>
   9.000000E+99

> <Gold.Protein.RotatedTorsions>
[ 6907 6896 6895 6894 ] final  161.57 input  -60.11 | X-H torsion
[ 7974 7965 7964 7962 ] final   36.00 input  175.53 | X-H torsion
[ 8008 7997 7996 7995 ] final -133.34 input   59.86 | X-H torsion
[ 10167 10162 10161 10158 ] final -155.10 input  -65.29 | X-H torsion
[ 10718 10713 10712 10709 ] final -109.56 input   66.30 | X-H torsion
[ 10763 10752 10751 10750 ] final  136.06 input  -60.55 | X-H torsion
[ 11005 11000 10999 10996 ] final  108.08 input  -57.11 | X-H torsion

> <Gold.Protein.ActiveResidues>
 VAL166  LYS551  ARG553  GLY616  TRP617  ASP618  TYR619  PRO620  LYS621  CYS622 
 ASP623  PHE694  ASN695  SER759  ASP760  ASP761  ALA762  ILE779  LEU786  VAL792 
 PHE793  MET794  SER795  GLU796  ALA797  LYS798  CYS799  TRP800  GLU811  SER814 

> <Gold.Protein.RotatedAtoms>
  151.9535  133.3673  159.4008 H   0  0  0  0  0  0  0  0  0  0  0  0  # atno 6907 bound_to 6896
  150.6976  134.4315  159.5260 H   0  0  0  0  0  0  0  0  0  0  0  0  # atno 6908 bound_to 6896
  152.1992  134.8603  160.0560 H   0  0  0  0  0  0  0  0  0  0  0  0  # atno 6909 bound_to 6896
  146.1243  139.6072  142.9269 H   0  0  0  0  0  0  0  0  0  0  0  0  # atno 7974 bound_to 7965
  155.3439  140.0473  157.3045 H   0  0  0  0  0  0  0  0  0  0  0  0  # atno 8008 bound_to 7997
  154.5262  140.2242  155.8850 H   0  0  0  0  0  0  0  0  0  0  0  0  # atno 8009 bound_to 7997
  156.1742  140.3089  155.9035 H   0  0  0  0  0  0  0  0  0  0  0  0  # atno 8010 bound_to 7997
  139.6959  143.9344  152.2406 H   0  0  0  0  0  0  0  0  0  0  0  0  # atno 10167 bound_to 10162
  156.0543  130.5770  150.8116 H   0  0  0  0  0  0  0  0  0  0  0  0  # atno 10718 bound_to 10713
  153.8503  135.3080  155.3432 H   0  0  0  0  0  0  0  0  0  0  0  0  # atno 10763 bound_to 10752
  154.7894  135.4791  154.0022 H   0  0  0  0  0  0  0  0  0  0  0  0  # atno 10764 bound_to 10752
  153.1522  135.6845  153.8958 H   0  0  0  0  0  0  0  0  0  0  0  0  # atno 10765 bound_to 10752
  139.8838  134.9420  156.5918 H   0  0  0  0  0  0  0  0  0  0  0  0  # atno 11005 bound_to 11000
  145.5399  141.0421  143.2336 LP  0  0  0  0  0  0  0  0  0  0  0  0  # atno 17320 bound_to 7965
  144.7627  139.6918  143.7227 LP  0  0  0  0  0  0  0  0  0  0  0  0  # atno 17321 bound_to 7965
  139.9172  144.6821  150.8499 LP  0  0  0  0  0  0  0  0  0  0  0  0  # atno 17342 bound_to 10162
  140.7696  143.3400  151.2227 LP  0  0  0  0  0  0  0  0  0  0  0  0  # atno 17343 bound_to 10162
  157.5499  131.0943  150.9710 LP  0  0  0  0  0  0  0  0  0  0  0  0  # atno 17370 bound_to 10713
  156.9972  130.5586  149.5308 LP  0  0  0  0  0  0  0  0  0  0  0  0  # atno 17371 bound_to 10713
  140.7950  133.8552  155.8678 LP  0  0  0  0  0  0  0  0  0  0  0  0  # atno 17394 bound_to 11000
  140.9644  134.1614  157.4628 LP  0  0  0  0  0  0  0  0  0  0  0  0  # atno 17395 bound_to 11000

$$$$
