AV-unprocessed.smi:1641|AV-procd|sdf|6564|dock10
  -GOLD-   22720 7253D 1   1.00000     0.00000
 Structure written by MMmdl.
 40 41  0  0  0  0  0  0  0  0  2 V2000
  143.2063  135.3272  162.8692 C   0  0  0  0  0  0  0  0  0  0  0  0
  144.5763  135.5817  162.3409 C   0  0  0  0  0  0  0  0  0  0  0  0
  145.5081  134.6289  162.2545 N   0  0  0  0  0  0  0  0  0  0  0  0
  146.7004  135.1098  161.7326 N   0  0  0  0  0  0  0  0  0  0  0  0
  146.6583  136.4185  161.4443 C   0  0  0  0  0  0  0  0  0  0  0  0
  147.7080  137.0779  160.9267 N   0  5  0  0  0  0  0  0  0  0  0  0
  148.5082  136.4703  160.0210 C   0  0  0  0  0  0  0  0  0  0  0  0
  148.5708  135.2586  159.8009 O   0  0  0  0  0  0  0  0  0  0  0  0
  149.2826  137.3212  159.3333 N   0  0  0  0  0  0  0  0  0  0  0  0
  150.2582  136.9678  158.3080 C   0  0  0  0  0  0  0  0  0  0  0  0
  149.7183  137.3414  156.9181 C   0  0  0  0  0  0  0  0  0  0  0  0
  149.7389  138.7708  156.6109 N   0  0  0  0  0  0  0  0  0  0  0  0
  149.0065  139.0505  155.3830 C   0  0  0  0  0  0  0  0  0  0  0  0
  148.9738  140.5554  155.0626 C   0  0  2  0  0  0  0  0  0  0  0  0
  148.2732  140.8467  153.7315 C   0  0  0  0  0  0  0  0  0  0  0  0
  150.3092  141.0502  154.9794 O   0  0  0  0  0  0  0  0  0  0  0  0
  151.1241  140.7965  156.1252 C   0  0  1  0  0  0  0  0  0  0  0  0
  150.7504  141.7113  157.3041 C   0  0  0  0  0  0  0  0  0  0  0  0
  151.0965  139.2967  156.4841 C   0  0  0  0  0  0  0  0  0  0  0  0
  145.0972  137.1637  161.7863 S   0  0  0  0  0  0  0  0  0  0  0  0
  143.1910  135.4759  163.9490 H   0  0  0  0  0  0  0  0  0  0  0  0
  142.8974  134.3047  162.6503 H   0  0  0  0  0  0  0  0  0  0  0  0
  142.4929  136.0118  162.4102 H   0  0  0  0  0  0  0  0  0  0  0  0
  149.1888  138.3028  159.5493 H   0  0  0  0  0  0  0  0  0  0  0  0
  151.2113  137.4727  158.4728 H   0  0  0  0  0  0  0  0  0  0  0  0
  150.4460  135.8972  158.3842 H   0  0  0  0  0  0  0  0  0  0  0  0
  150.2662  136.7914  156.1514 H   0  0  0  0  0  0  0  0  0  0  0  0
  148.6878  136.9869  156.8614 H   0  0  0  0  0  0  0  0  0  0  0  0
  149.4600  138.5086  154.5513 H   0  0  0  0  0  0  0  0  0  0  0  0
  147.9836  138.6826  155.4730 H   0  0  0  0  0  0  0  0  0  0  0  0
  148.4399  141.0843  155.8526 H   0  0  0  0  0  0  0  0  0  0  0  0
  147.2407  140.4968  153.7471 H   0  0  0  0  0  0  0  0  0  0  0  0
  148.7814  140.3549  152.9015 H   0  0  0  0  0  0  0  0  0  0  0  0
  148.2580  141.9173  153.5257 H   0  0  0  0  0  0  0  0  0  0  0  0
  152.1441  141.0524  155.8371 H   0  0  0  0  0  0  0  0  0  0  0  0
  151.4511  141.5844  158.1295 H   0  0  0  0  0  0  0  0  0  0  0  0
  149.7536  141.4975  157.6895 H   0  0  0  0  0  0  0  0  0  0  0  0
  150.7769  142.7597  157.0067 H   0  0  0  0  0  0  0  0  0  0  0  0
  151.6542  139.1453  157.4078 H   0  0  0  0  0  0  0  0  0  0  0  0
  151.6278  138.7405  155.7101 H   0  0  0  0  0  0  0  0  0  0  0  0
  1  2  1  0  0  0  0
  1 21  1  0  0  0  0
  1 22  1  0  0  0  0
  1 23  1  0  0  0  0
  2 20  1  0  0  0  0
  2  3  2  0  0  0  0
  3  4  1  0  0  0  0
  4  5  2  0  0  0  0
  5  6  1  0  0  0  0
  5 20  1  0  0  0  0
  6  7  1  0  0  0  0
  7  8  2  0  0  0  0
  7  9  1  0  0  0  0
  9 10  1  0  0  0  0
  9 24  1  0  0  0  0
 10 11  1  0  0  0  0
 10 25  1  0  0  0  0
 10 26  1  0  0  0  0
 11 12  1  0  0  0  0
 11 27  1  0  0  0  0
 11 28  1  0  0  0  0
 12 19  1  0  0  0  0
 12 13  1  0  0  0  0
 13 14  1  0  0  0  0
 13 29  1  0  0  0  0
 13 30  1  0  0  0  0
 14 15  1  0  0  0  0
 14 16  1  0  0  0  0
 14 31  1  0  0  0  0
 15 32  1  0  0  0  0
 15 33  1  0  0  0  0
 15 34  1  0  0  0  0
 16 17  1  0  0  0  0
 17 18  1  0  0  0  0
 17 19  1  0  0  0  0
 17 35  1  0  0  0  0
 18 36  1  0  0  0  0
 18 37  1  0  0  0  0
 18 38  1  0  0  0  0
 19 39  1  0  0  0  0
 19 40  1  0  0  0  0
M  CHG  1   6  -1
M  END
> <s_m_source_file>
AV-unprocessed.smi

> <i_m_source_file_index>
1641

> <i_lp_mmshare_version>
43012

> <i_f3d_flags>
0

> <s_epik_input>
W0NIM11jMW5uYyhzMSlbTkhdQyg9TylbTkhdW0NIMl1bQ0gyXU4yW0NIMl1bQ0BASF0oW0NIM10pT1tDQEBIXShbQ0gzXSlbQ0gyXTI=

> <s_epik_cmdline>
J2VwaWtfcHl0aG9uJywgJy1waCcsICc3LjAnLCAnLXRuJywgJzgnLCAnLW1hJywgJzIwMCcsICctbWV0YWxfYmluZGluZycsICctaW1hZScsICc8aW5maWxlLm1hZT4nLCAnLW9tYWUnLCAnPG91dGZpbGUubWFlPic=

> <r_lp_tautomer_probability>
1

> <r_epik_Ionization_Penalty>
3.81681

> <r_epik_Ionization_Penalty_Charging>
3.36369

> <r_epik_Ionization_Penalty_Neutral>
0.45313

> <r_epik_State_Penalty>
3.571

> <r_epik_Charging_Adjusted_Penalty>
6.93469

> <i_epik_Tot_Q>
-1

> <i_epik_Tot_abs_Q>
1

> <r_epik_Metal_State_Penalty>
0.710322

> <b_epik_Metal_Only>
1

> <s_lp_Force_Field>
OPLS_2005

> <r_lp_Energy>
21.0176

> <b_lp_Chiralities_Consistent>
1

> <s_lp_Variant>
AV-unprocessed.smi:1641-9

> <Gold.Version>
5.8.1

> <Gold.Id.Protein>
6NUR|6NUR_protein|mol2

> <Gold.PLP.Fitness>
41.6744

> <Gold.PLP.PLP>
-27.7355

> <Gold.PLP.part.hbond>
-3.8815

> <Gold.PLP.part.metal>
0.0000

> <Gold.PLP.part.buried>
-4.6986

> <Gold.PLP.part.nonpolar>
-20.8348

> <Gold.PLP.part.repulsive>
0.3427

> <Gold.PLP.ligand.clash>
0.0000

> <Gold.PLP.ligand.torsion>
0.5138

> <Gold.PLP.Chemscore.Hbond>
4.9868

> <Gold.PLP.Chemscore.CHOScore>
0.0000

> <Gold.PLP.Chemscore.Metal>
0.0000

> <Gold.Chemscore.Hbonds>
donor molecule, donor type, donor heavy atom, donor atom, acceptor molecule, acceptor atom, score
      P1  H  6896  6909       L1     8  0.55
      P1  H  6931  6943       L1     6  1.86
      P1  H  6934  6947       L1     6  1.82
      P1  H  7989  7998       L1    16  0.69

> <Gold.PLP.Chemscore.Internal.Correction>
0.0063

> <Gold.Rescore>
     Score         DG    S(hbond)    S(metal)    S(lipo)     H(rot)  DE(clash)    DE(int)     intcor
     12.30     -14.34       1.83        0.00      57.63       1.57       0.00       2.04       ----

> <Gold.Chemscore.Fitness>
12.2996

> <Gold.Chemscore.DG>
-14.3362

> <Gold.Chemscore.ZeroCoef>
-5.4800

> <Gold.Chemscore.Hbond>
1.8349

> <Gold.Chemscore.Metal>
0.0000

> <Gold.Chemscore.Lipo>
57.6342

> <Gold.Chemscore.Internal_Hbond>
0.0000

> <Gold.Chemscore.DEClash>
0.0015

> <Gold.Chemscore.DEInternal>
2.0352

> <Gold.Chemscore.Rot>
1.5686

> <Gold.Chemscore.Internal.Correction>
   9.000000E+99

> <Gold.Chemscore.Hbonds>
donor molecule, donor type, donor heavy atom, donor atom, acceptor molecule, acceptor atom, score
      P1  H  6896  6909       L1     8  0.42
      P1  H  6931  6943       L1     6  0.25
      P1  H  6934  6947       L1     6  0.47
      P1  H  7989  7998       L1    16  0.23

> <Gold.Chemscore.Hbond.Weighted>
-6.1287

> <Gold.Chemscore.Metal.Weighted>
-0.0000

> <Gold.Chemscore.Lipo.Weighted>
-6.7432

> <Gold.Chemscore.Internal_Hbond.Weighted>
0.0000

> <Gold.Chemscore.DEClash.Weighted>
0.0015

> <Gold.Chemscore.DEInternal.Weighted>
2.0352

> <Gold.Chemscore.Rot.Weighted>
4.0157

> <Gold.Chemscore.Internal.Correction.Weighted>
   9.000000E+99

> <Gold.Protein.RotatedTorsions>
[ 6907 6896 6895 6894 ] final   51.74 input  -60.11 | X-H torsion
[ 7974 7965 7964 7962 ] final  -84.99 input  175.53 | X-H torsion
[ 8008 7997 7996 7995 ] final   94.47 input   59.86 | X-H torsion
[ 10167 10162 10161 10158 ] final  -84.13 input  -65.29 | X-H torsion
[ 10718 10713 10712 10709 ] final   53.22 input   66.30 | X-H torsion
[ 10763 10752 10751 10750 ] final   41.38 input  -60.55 | X-H torsion
[ 11005 11000 10999 10996 ] final   96.49 input  -57.11 | X-H torsion

> <Gold.Protein.ActiveResidues>
 VAL166  LYS551  ARG553  GLY616  TRP617  ASP618  TYR619  PRO620  LYS621  CYS622 
 ASP623  PHE694  ASN695  SER759  ASP760  ASP761  ALA762  ILE779  LEU786  VAL792 
 PHE793  MET794  SER795  GLU796  ALA797  LYS798  CYS799  TRP800  GLU811  SER814 

> <Gold.Protein.RotatedAtoms>
  152.3158  134.7441  160.0325 H   0  0  0  0  0  0  0  0  0  0  0  0  # atno 6907 bound_to 6896
  151.7906  133.3353  159.3506 H   0  0  0  0  0  0  0  0  0  0  0  0  # atno 6908 bound_to 6896
  150.7344  134.5777  159.5967 H   0  0  0  0  0  0  0  0  0  0  0  0  # atno 6909 bound_to 6896
  145.4992  140.9548  143.1769 H   0  0  0  0  0  0  0  0  0  0  0  0  # atno 7974 bound_to 7965
  156.0583  140.3299  155.7431 H   0  0  0  0  0  0  0  0  0  0  0  0  # atno 8008 bound_to 7997
  155.5494  140.0609  157.2870 H   0  0  0  0  0  0  0  0  0  0  0  0  # atno 8009 bound_to 7997
  154.4469  140.1896  156.0660 H   0  0  0  0  0  0  0  0  0  0  0  0  # atno 8010 bound_to 7997
  140.4162  143.2603  151.8952 H   0  0  0  0  0  0  0  0  0  0  0  0  # atno 10167 bound_to 10162
  157.5147  130.8524  149.8480 H   0  0  0  0  0  0  0  0  0  0  0  0  # atno 10718 bound_to 10713
  152.9910  135.6163  154.2778 H   0  0  0  0  0  0  0  0  0  0  0  0  # atno 10763 bound_to 10752
  154.2509  135.2785  155.2819 H   0  0  0  0  0  0  0  0  0  0  0  0  # atno 10764 bound_to 10752
  154.5289  135.5793  153.6800 H   0  0  0  0  0  0  0  0  0  0  0  0  # atno 10765 bound_to 10752
  139.8781  134.8953  156.4166 H   0  0  0  0  0  0  0  0  0  0  0  0  # atno 11005 bound_to 11000
  144.7790  139.6568  143.7162 LP  0  0  0  0  0  0  0  0  0  0  0  0  # atno 17320 bound_to 7965
  146.2236  139.5682  142.9602 LP  0  0  0  0  0  0  0  0  0  0  0  0  # atno 17321 bound_to 7965
  139.4782  144.5486  151.8420 LP  0  0  0  0  0  0  0  0  0  0  0  0  # atno 17342 bound_to 10162
  140.4584  144.1756  150.5904 LP  0  0  0  0  0  0  0  0  0  0  0  0  # atno 17343 bound_to 10162
  156.0312  130.3764  150.1682 LP  0  0  0  0  0  0  0  0  0  0  0  0  # atno 17370 bound_to 10713
  156.9871  130.9882  151.3423 LP  0  0  0  0  0  0  0  0  0  0  0  0  # atno 17371 bound_to 10713
  140.9163  133.7676  155.9852 LP  0  0  0  0  0  0  0  0  0  0  0  0  # atno 17394 bound_to 11000
  140.8490  134.2977  157.5283 LP  0  0  0  0  0  0  0  0  0  0  0  0  # atno 17395 bound_to 11000

$$$$
