AV-unprocessed.smi:783|AV-procd|sdf|3716|dock9
  -GOLD-   22720 1143D 1   1.00000     0.00000
 Structure written by MMmdl.
 45 46  0  0  0  0  0  0  0  0  1 V2000
  153.4428  141.4430  160.5575 C   0  0  0  0  0  0  0  0  0  0  0  0
  152.2265  141.6615  159.6343 C   0  0  2  0  0  0  0  0  0  0  0  0
  152.2340  140.7223  158.4185 C   0  0  0  0  0  0  0  0  0  0  0  0
  152.9520  139.7223  158.4035 O   0  0  0  0  0  0  0  0  0  0  0  0
  151.4172  141.0572  157.4068 N   0  0  0  0  0  0  0  0  0  0  0  0
  151.2256  140.3011  156.1687 C   0  0  0  0  0  0  0  0  0  0  0  0
  149.7238  140.0023  155.8698 C   0  0  0  0  0  0  0  0  0  0  0  0
  149.0227  139.2392  157.0443 C   0  0  0  0  0  0  0  0  0  0  0  0
  148.0851  139.7980  157.6193 O   0  0  0  0  0  0  0  0  0  0  0  0
  149.4274  138.0065  157.4558 N   0  0  0  0  0  0  0  0  0  0  0  0
  148.9068  137.2105  158.5720 C   0  0  0  0  0  0  0  0  0  0  0  0
  150.5013  137.3213  156.7292 C   0  0  0  0  0  0  0  0  0  0  0  0
  149.0163  141.3559  155.5770 C   0  0  0  0  0  0  0  0  0  0  0  0
  147.7842  141.0504  154.7192 C   0  0  0  0  0  0  0  0  0  0  0  0
  148.0955  139.7277  154.0162 C   0  0  0  0  0  0  0  0  0  0  0  0
  149.4807  139.2925  154.5141 C   0  0  0  0  0  0  0  0  0  0  0  0
  152.0980  143.0486  159.2021 N   0  0  0  0  0  0  0  0  0  0  0  0
  153.0141  144.0704  159.3514 C   0  0  0  0  0  0  0  0  0  0  0  0
  152.4546  145.2038  158.8345 C   0  0  0  0  0  0  0  0  0  0  0  0
  151.1700  144.7768  158.3978 C   0  0  0  0  0  0  0  0  0  0  0  0
  150.9559  143.4917  158.6260 N   0  0  0  0  0  0  0  0  0  0  0  0
  153.4852  140.4124  160.9112 H   0  0  0  0  0  0  0  0  0  0  0  0
  153.3843  142.0868  161.4355 H   0  0  0  0  0  0  0  0  0  0  0  0
  154.3867  141.6573  160.0541 H   0  0  0  0  0  0  0  0  0  0  0  0
  151.3367  141.4268  160.2213 H   0  0  0  0  0  0  0  0  0  0  0  0
  150.8663  141.8969  157.5095 H   0  0  0  0  0  0  0  0  0  0  0  0
  151.6406  140.9104  155.3655 H   0  0  0  0  0  0  0  0  0  0  0  0
  151.8449  139.4073  156.1680 H   0  0  0  0  0  0  0  0  0  0  0  0
  148.2607  137.7376  159.2652 H   0  0  0  0  0  0  0  0  0  0  0  0
  149.7317  136.8187  159.1682 H   0  0  0  0  0  0  0  0  0  0  0  0
  148.3460  136.3582  158.1877 H   0  0  0  0  0  0  0  0  0  0  0  0
  151.4398  137.8690  156.8258 H   0  0  0  0  0  0  0  0  0  0  0  0
  150.2597  137.2384  155.6682 H   0  0  0  0  0  0  0  0  0  0  0  0
  150.6725  136.3086  157.0966 H   0  0  0  0  0  0  0  0  0  0  0  0
  148.7612  141.9260  156.4715 H   0  0  0  0  0  0  0  0  0  0  0  0
  149.6784  141.9994  154.9954 H   0  0  0  0  0  0  0  0  0  0  0  0
  146.8998  140.9387  155.3477 H   0  0  0  0  0  0  0  0  0  0  0  0
  147.5811  141.8540  154.0105 H   0  0  0  0  0  0  0  0  0  0  0  0
  147.3455  138.9831  154.2858 H   0  0  0  0  0  0  0  0  0  0  0  0
  148.0788  139.8282  152.9305 H   0  0  0  0  0  0  0  0  0  0  0  0
  150.2355  139.6119  153.7942 H   0  0  0  0  0  0  0  0  0  0  0  0
  149.5263  138.2063  154.5492 H   0  0  0  0  0  0  0  0  0  0  0  0
  153.9792  143.9076  159.8083 H   0  0  0  0  0  0  0  0  0  0  0  0
  152.8938  146.1890  158.7814 H   0  0  0  0  0  0  0  0  0  0  0  0
  150.3902  145.3593  157.9291 H   0  0  0  0  0  0  0  0  0  0  0  0
  1  2  1  0  0  0  0
  1 22  1  0  0  0  0
  1 23  1  0  0  0  0
  1 24  1  0  0  0  0
  2  3  1  0  0  0  0
  2 17  1  0  0  0  0
  2 25  1  0  0  0  0
  3  4  2  0  0  0  0
  3  5  1  0  0  0  0
  5  6  1  0  0  0  0
  5 26  1  0  0  0  0
  6  7  1  0  0  0  0
  6 27  1  0  0  0  0
  6 28  1  0  0  0  0
  7 16  1  0  0  0  0
  7  8  1  0  0  0  0
  7 13  1  0  0  0  0
  8  9  2  0  0  0  0
  8 10  1  0  0  0  0
 10 11  1  0  0  0  0
 10 12  1  0  0  0  0
 11 29  1  0  0  0  0
 11 30  1  0  0  0  0
 11 31  1  0  0  0  0
 12 32  1  0  0  0  0
 12 33  1  0  0  0  0
 12 34  1  0  0  0  0
 13 14  1  0  0  0  0
 13 35  1  0  0  0  0
 13 36  1  0  0  0  0
 14 15  1  0  0  0  0
 14 37  1  0  0  0  0
 14 38  1  0  0  0  0
 15 16  1  0  0  0  0
 15 39  1  0  0  0  0
 15 40  1  0  0  0  0
 16 41  1  0  0  0  0
 16 42  1  0  0  0  0
 17 21  1  0  0  0  0
 17 18  1  0  0  0  0
 18 19  2  0  0  0  0
 18 43  1  0  0  0  0
 19 20  1  0  0  0  0
 19 44  1  0  0  0  0
 20 21  2  0  0  0  0
 20 45  1  0  0  0  0
M  END
> <s_m_source_file>
AV-unprocessed.smi

> <i_m_source_file_index>
783

> <i_lp_mmshare_version>
43012

> <i_f3d_flags>
0

> <s_epik_input>
bjFbY0hdW2NIXVtjSF1uMVtDQEhdKFtDSDNdKUMoPU8pW05IXVtDSDJdQzIoQyg9TylOKFtDSDNdKVtDSDNdKVtDSDJdW0NIMl1bQ0gyXVtDSDJdMg==

> <s_epik_cmdline>
J2VwaWtfcHl0aG9uJywgJy1waCcsICc3LjAnLCAnLXRuJywgJzgnLCAnLW1hJywgJzIwMCcsICctbWV0YWxfYmluZGluZycsICctaW1hZScsICc8aW5maWxlLm1hZT4nLCAnLW9tYWUnLCAnPG91dGZpbGUubWFlPic=

> <r_lp_tautomer_probability>
1

> <r_epik_Ionization_Penalty>
3.31274e-05

> <r_epik_Ionization_Penalty_Charging>
0

> <r_epik_Ionization_Penalty_Neutral>
3.31274e-05

> <r_epik_State_Penalty>
-0

> <r_epik_Charging_Adjusted_Penalty>
0

> <i_epik_Tot_Q>
0

> <i_epik_Tot_abs_Q>
0

> <r_epik_Metal_State_Penalty>
-0

> <b_epik_Metal_Only>
0

> <s_lp_Force_Field>
OPLS_2005

> <r_lp_Energy>
39.8422

> <b_lp_Chiralities_Consistent>
1

> <s_lp_Variant>
AV-unprocessed.smi:783-1

> <Gold.Version>
5.8.1

> <Gold.Id.Protein>
6NUR|6NUR_protein|mol2

> <Gold.PLP.Fitness>
42.5302

> <Gold.PLP.PLP>
-37.7926

> <Gold.PLP.part.hbond>
-1.0000

> <Gold.PLP.part.metal>
0.0000

> <Gold.PLP.part.buried>
-5.0881

> <Gold.PLP.part.nonpolar>
-32.3383

> <Gold.PLP.part.repulsive>
0.1794

> <Gold.PLP.ligand.clash>
0.0000

> <Gold.PLP.ligand.torsion>
0.8188

> <Gold.PLP.Chemscore.Hbond>
1.0000

> <Gold.PLP.Chemscore.CHOScore>
1.0246

> <Gold.PLP.Chemscore.Metal>
0.0000

> <Gold.Chemscore.Hbonds>
donor molecule, donor type, donor heavy atom, donor atom, acceptor molecule, acceptor atom, score
      P1  H  7997  8009       L1     4  0.67
      L1  C    20    45       P1  8028  0.17
      L1  C    20    45       P1  8029  0.50

> <Gold.PLP.Chemscore.Internal.Correction>
0.3013

> <Gold.Rescore>
     Score         DG    S(hbond)    S(metal)    S(lipo)     H(rot)  DE(clash)    DE(int)     intcor
     14.69     -15.77       0.99        0.00     100.17       1.84       0.00       1.08       ----

> <Gold.Chemscore.Fitness>
14.6894

> <Gold.Chemscore.DG>
-15.7717

> <Gold.Chemscore.ZeroCoef>
-5.4800

> <Gold.Chemscore.Hbond>
0.9866

> <Gold.Chemscore.Metal>
0.0000

> <Gold.Chemscore.Lipo>
100.1668

> <Gold.Chemscore.Internal_Hbond>
0.0000

> <Gold.Chemscore.DEClash>
0.0038

> <Gold.Chemscore.DEInternal>
1.0785

> <Gold.Chemscore.Rot>
1.8449

> <Gold.Chemscore.Internal.Correction>
   9.000000E+99

> <Gold.Chemscore.Hbonds>
donor molecule, donor type, donor heavy atom, donor atom, acceptor molecule, acceptor atom, score
      P1  H  7997  8009       L1     4  0.43

> <Gold.Chemscore.Hbond.Weighted>
-3.2951

> <Gold.Chemscore.Metal.Weighted>
-0.0000

> <Gold.Chemscore.Lipo.Weighted>
-11.7195

> <Gold.Chemscore.Internal_Hbond.Weighted>
0.0000

> <Gold.Chemscore.DEClash.Weighted>
0.0038

> <Gold.Chemscore.DEInternal.Weighted>
1.0785

> <Gold.Chemscore.Rot.Weighted>
4.7229

> <Gold.Chemscore.Internal.Correction.Weighted>
   9.000000E+99

> <Gold.Protein.RotatedTorsions>
[ 6907 6896 6895 6894 ] final  109.74 input  -60.11 | X-H torsion
[ 7974 7965 7964 7962 ] final -146.17 input  175.53 | X-H torsion
[ 8008 7997 7996 7995 ] final  160.36 input   59.86 | X-H torsion
[ 10167 10162 10161 10158 ] final  136.05 input  -65.29 | X-H torsion
[ 10718 10713 10712 10709 ] final   52.78 input   66.30 | X-H torsion
[ 10763 10752 10751 10750 ] final   81.48 input  -60.55 | X-H torsion
[ 11005 11000 10999 10996 ] final  -41.23 input  -57.11 | X-H torsion

> <Gold.Protein.ActiveResidues>
 VAL166  LYS551  ARG553  GLY616  TRP617  ASP618  TYR619  PRO620  LYS621  CYS622 
 ASP623  PHE694  ASN695  SER759  ASP760  ASP761  ALA762  ILE779  LEU786  VAL792 
 PHE793  MET794  SER795  GLU796  ALA797  LYS798  CYS799  TRP800  GLU811  SER814 

> <Gold.Protein.RotatedAtoms>
  152.5053  133.8901  159.7389 H   0  0  0  0  0  0  0  0  0  0  0  0  # atno 6907 bound_to 6896
  150.9342  133.6723  159.2811 H   0  0  0  0  0  0  0  0  0  0  0  0  # atno 6908 bound_to 6896
  151.4057  135.0982  159.9622 H   0  0  0  0  0  0  0  0  0  0  0  0  # atno 6909 bound_to 6896
  144.8177  140.5490  143.5599 H   0  0  0  0  0  0  0  0  0  0  0  0  # atno 7974 bound_to 7965
  156.2177  140.1806  156.7550 H   0  0  0  0  0  0  0  0  0  0  0  0  # atno 8008 bound_to 7997
  154.5817  140.0665  156.9142 H   0  0  0  0  0  0  0  0  0  0  0  0  # atno 8009 bound_to 7997
  155.2491  140.3327  155.4286 H   0  0  0  0  0  0  0  0  0  0  0  0  # atno 8010 bound_to 7997
  139.5194  144.6485  151.5370 H   0  0  0  0  0  0  0  0  0  0  0  0  # atno 10167 bound_to 10162
  157.5106  130.8498  149.8431 H   0  0  0  0  0  0  0  0  0  0  0  0  # atno 10718 bound_to 10713
  153.1121  135.4764  154.9052 H   0  0  0  0  0  0  0  0  0  0  0  0  # atno 10763 bound_to 10752
  154.7491  135.3101  154.8593 H   0  0  0  0  0  0  0  0  0  0  0  0  # atno 10764 bound_to 10752
  153.9180  135.6858  153.4802 H   0  0  0  0  0  0  0  0  0  0  0  0  # atno 10765 bound_to 10752
  141.0231  133.6853  156.2429 H   0  0  0  0  0  0  0  0  0  0  0  0  # atno 11005 bound_to 11000
  145.5176  139.1477  143.3570 LP  0  0  0  0  0  0  0  0  0  0  0  0  # atno 17320 bound_to 7965
  146.2481  140.5316  142.8905 LP  0  0  0  0  0  0  0  0  0  0  0  0  # atno 17321 bound_to 7965
  140.6280  143.9131  150.6581 LP  0  0  0  0  0  0  0  0  0  0  0  0  # atno 17342 bound_to 10162
  140.2426  143.3652  152.1474 LP  0  0  0  0  0  0  0  0  0  0  0  0  # atno 17343 bound_to 10162
  156.0287  130.3771  150.1750 LP  0  0  0  0  0  0  0  0  0  0  0  0  # atno 17370 bound_to 10713
  156.9939  130.9902  151.3408 LP  0  0  0  0  0  0  0  0  0  0  0  0  # atno 17371 bound_to 10713
  140.6538  134.5039  157.5579 LP  0  0  0  0  0  0  0  0  0  0  0  0  # atno 17394 bound_to 11000
  139.9159  134.8248  156.1370 LP  0  0  0  0  0  0  0  0  0  0  0  0  # atno 17395 bound_to 11000

$$$$
