AV-unprocessed.smi:1076|AV-procd|sdf|4698|dock3
  -GOLD-   22720 3223D 1   1.00000     0.00000
 Structure written by MMmdl.
 45 46  0  0  0  0  0  0  0  0  2 V2000
  151.6988  141.8733  158.2860 C   0  0  0  0  0  0  0  0  0  0  0  0
  151.4403  141.0794  157.0380 C   0  0  0  0  0  0  0  0  0  0  0  0
  150.6945  141.4739  155.8910 C   0  0  0  0  0  0  0  0  0  0  0  0
  150.6590  140.5395  154.9551 N   0  0  0  0  0  0  0  0  0  0  0  0
  151.3760  139.5181  155.4712 N   0  0  0  0  0  0  0  0  0  0  0  0
  151.5613  138.3041  154.6966 C   0  0  0  0  0  0  0  0  0  0  0  0
  150.7512  137.1128  155.2490 C   0  0  1  0  0  0  0  0  0  0  0  0
  149.3872  137.5774  155.7762 C   0  0  0  0  0  0  0  0  0  0  0  0
  150.5489  136.0801  154.2085 N   0  3  0  0  0  0  0  0  0  0  0  0
  150.6891  134.6828  154.6768 C   0  0  0  0  0  0  0  0  0  0  0  0
  149.6391  134.3224  155.7465 C   0  0  0  0  0  0  0  0  0  0  0  0
  149.9464  133.0469  156.5539 C   0  0  0  0  0  0  0  0  0  0  0  0
  150.1111  133.1367  157.7717 O   0  0  0  0  0  0  0  0  0  0  0  0
  150.0151  131.8609  155.9033 N   0  0  0  0  0  0  0  0  0  0  0  0
  150.1708  130.5762  156.5907 C   0  0  0  0  0  0  0  0  0  0  0  0
  148.8844  129.7576  156.3754 C   0  0  0  0  0  0  0  0  0  0  0  0
  148.6454  129.5924  154.9793 O   0  0  0  0  0  0  0  0  0  0  0  0
  148.5278  130.8282  154.2776 C   0  0  0  0  0  0  0  0  0  0  0  0
  149.8147  131.6505  154.4664 C   0  0  0  0  0  0  0  0  0  0  0  0
  151.8583  139.8163  156.7276 C   0  0  0  0  0  0  0  0  0  0  0  0
  150.9102  142.6026  158.4721 H   0  0  0  0  0  0  0  0  0  0  0  0
  152.6377  142.4238  158.2239 H   0  0  0  0  0  0  0  0  0  0  0  0
  151.7578  141.2337  159.1668 H   0  0  0  0  0  0  0  0  0  0  0  0
  150.1825  142.4079  155.7111 H   0  0  0  0  0  0  0  0  0  0  0  0
  151.2609  138.5145  153.6692 H   0  0  0  0  0  0  0  0  0  0  0  0
  152.6254  138.0639  154.6633 H   0  0  0  0  0  0  0  0  0  0  0  0
  151.2931  136.6766  156.0903 H   0  0  0  0  0  0  0  0  0  0  0  0
  149.5026  138.3270  156.5599 H   0  0  0  0  0  0  0  0  0  0  0  0
  148.8261  136.7439  156.2002 H   0  0  0  0  0  0  0  0  0  0  0  0
  148.7819  138.0170  154.9825 H   0  0  0  0  0  0  0  0  0  0  0  0
  149.6154  136.1833  153.8358 H   0  0  0  0  0  0  0  0  0  0  0  0
  150.5750  134.0059  153.8298 H   0  0  0  0  0  0  0  0  0  0  0  0
  151.6979  134.5283  155.0630 H   0  0  0  0  0  0  0  0  0  0  0  0
  149.5379  135.1652  156.4316 H   0  0  0  0  0  0  0  0  0  0  0  0
  148.6731  134.1906  155.2576 H   0  0  0  0  0  0  0  0  0  0  0  0
  151.0298  130.0446  156.1790 H   0  0  0  0  0  0  0  0  0  0  0  0
  150.3650  130.6840  157.6586 H   0  0  0  0  0  0  0  0  0  0  0  0
  148.9801  128.7742  156.8360 H   0  0  0  0  0  0  0  0  0  0  0  0
  148.0292  130.2483  156.8432 H   0  0  0  0  0  0  0  0  0  0  0  0
  148.3636  130.6201  153.2202 H   0  0  0  0  0  0  0  0  0  0  0  0
  147.6570  131.3800  154.6350 H   0  0  0  0  0  0  0  0  0  0  0  0
  149.7569  132.5708  153.8876 H   0  0  0  0  0  0  0  0  0  0  0  0
  150.6680  131.1036  154.0623 H   0  0  0  0  0  0  0  0  0  0  0  0
  152.4557  139.1136  157.2900 H   0  0  0  0  0  0  0  0  0  0  0  0
  151.2116  136.2464  153.4643 H   0  0  0  0  0  0  0  0  0  0  0  0
  1  2  1  0  0  0  0
  1 21  1  0  0  0  0
  1 22  1  0  0  0  0
  1 23  1  0  0  0  0
  2 20  2  0  0  0  0
  2  3  1  0  0  0  0
  3  4  2  0  0  0  0
  3 24  1  0  0  0  0
  4  5  1  0  0  0  0
  5  6  1  0  0  0  0
  5 20  1  0  0  0  0
  6  7  1  0  0  0  0
  6 25  1  0  0  0  0
  6 26  1  0  0  0  0
  7  8  1  0  0  0  0
  7  9  1  0  0  0  0
  7 27  1  0  0  0  0
  8 28  1  0  0  0  0
  8 29  1  0  0  0  0
  8 30  1  0  0  0  0
  9 10  1  0  0  0  0
  9 31  1  0  0  0  0
  9 45  1  0  0  0  0
 10 11  1  0  0  0  0
 10 32  1  0  0  0  0
 10 33  1  0  0  0  0
 11 12  1  0  0  0  0
 11 34  1  0  0  0  0
 11 35  1  0  0  0  0
 12 13  2  0  0  0  0
 12 14  1  0  0  0  0
 14 19  1  0  0  0  0
 14 15  1  0  0  0  0
 15 16  1  0  0  0  0
 15 36  1  0  0  0  0
 15 37  1  0  0  0  0
 16 17  1  0  0  0  0
 16 38  1  0  0  0  0
 16 39  1  0  0  0  0
 17 18  1  0  0  0  0
 18 19  1  0  0  0  0
 18 40  1  0  0  0  0
 18 41  1  0  0  0  0
 19 42  1  0  0  0  0
 19 43  1  0  0  0  0
 20 44  1  0  0  0  0
M  CHG  1   9   1
M  END
> <s_m_source_file>
AV-unprocessed.smi

> <i_m_source_file_index>
1076

> <i_lp_mmshare_version>
43012

> <i_f3d_flags>
0

> <s_epik_input>
W0NIM11jMVtjSF1ubihbY0hdMSlbQ0gyXVtDQEhdKFtDSDNdKVtOSF1bQ0gyXVtDSDJdQyg9TylOMltDSDJdW0NIMl1PW0NIMl1bQ0gyXTI=

> <s_epik_cmdline>
J2VwaWtfcHl0aG9uJywgJy1waCcsICc3LjAnLCAnLXRuJywgJzgnLCAnLW1hJywgJzIwMCcsICctbWV0YWxfYmluZGluZycsICctaW1hZScsICc8aW5maWxlLm1hZT4nLCAnLW9tYWUnLCAnPG91dGZpbGUubWFlPic=

> <r_lp_tautomer_probability>
1

> <r_epik_Ionization_Penalty>
0.00797518

> <r_epik_Ionization_Penalty_Charging>
0.0079672

> <r_epik_Ionization_Penalty_Neutral>
7.97619e-06

> <r_epik_State_Penalty>
0.00597998

> <r_epik_Charging_Adjusted_Penalty>
0.0139472

> <i_epik_Tot_Q>
1

> <i_epik_Tot_abs_Q>
1

> <r_epik_Metal_State_Penalty>
0.00598062

> <b_epik_Metal_Only>
0

> <s_lp_Force_Field>
OPLS_2005

> <r_lp_Energy>
23.7914

> <b_lp_Chiralities_Consistent>
1

> <s_lp_Variant>
AV-unprocessed.smi:1076-2

> <Gold.Version>
5.8.1

> <Gold.Id.Protein>
6NUR|6NUR_protein|mol2

> <Gold.PLP.Fitness>
42.1320

> <Gold.PLP.PLP>
-27.5648

> <Gold.PLP.part.hbond>
-4.0000

> <Gold.PLP.part.metal>
0.0000

> <Gold.PLP.part.buried>
-1.8693

> <Gold.PLP.part.nonpolar>
-21.0977

> <Gold.PLP.part.repulsive>
0.1719

> <Gold.PLP.ligand.clash>
0.0000

> <Gold.PLP.ligand.torsion>
0.9836

> <Gold.PLP.Chemscore.Hbond>
4.4872

> <Gold.PLP.Chemscore.CHOScore>
0.9907

> <Gold.PLP.Chemscore.Metal>
0.0000

> <Gold.Chemscore.Hbonds>
donor molecule, donor type, donor heavy atom, donor atom, acceptor molecule, acceptor atom, score
      L1  H     9    31       P1  7948  1.10
      L1  H     9    45       P1  7949  1.34
      P1  H  6896  6908       L1    13  1.00
      P1  H  7989  7998       L1     4  1.00
      L1  C     3    24       P1  8028  0.70

> <Gold.PLP.Chemscore.Internal.Correction>
0.1007

> <Gold.Rescore>
     Score         DG    S(hbond)    S(metal)    S(lipo)     H(rot)  DE(clash)    DE(int)     intcor
     14.73     -16.20       2.39        0.00      66.89       1.98       0.50       0.97       ----

> <Gold.Chemscore.Fitness>
14.7348

> <Gold.Chemscore.DG>
-16.2003

> <Gold.Chemscore.ZeroCoef>
-5.4800

> <Gold.Chemscore.Hbond>
2.3871

> <Gold.Chemscore.Metal>
0.0000

> <Gold.Chemscore.Lipo>
66.8858

> <Gold.Chemscore.Internal_Hbond>
0.0000

> <Gold.Chemscore.DEClash>
0.4959

> <Gold.Chemscore.DEInternal>
0.9696

> <Gold.Chemscore.Rot>
1.9837

> <Gold.Chemscore.Internal.Correction>
   9.000000E+99

> <Gold.Chemscore.Hbonds>
donor molecule, donor type, donor heavy atom, donor atom, acceptor molecule, acceptor atom, score
      L1  H     9    31       P1  7948  0.26
      L1  H     9    45       P1  7949  0.33
      P1  H  6896  6908       L1    13  0.98
      P1  H  7989  7998       L1     4  0.22

> <Gold.Chemscore.Hbond.Weighted>
-7.9729

> <Gold.Chemscore.Metal.Weighted>
-0.0000

> <Gold.Chemscore.Lipo.Weighted>
-7.8256

> <Gold.Chemscore.Internal_Hbond.Weighted>
0.0000

> <Gold.Chemscore.DEClash.Weighted>
0.4959

> <Gold.Chemscore.DEInternal.Weighted>
0.9696

> <Gold.Chemscore.Rot.Weighted>
5.0782

> <Gold.Chemscore.Internal.Correction.Weighted>
   9.000000E+99

> <Gold.Protein.RotatedTorsions>
[ 6907 6896 6895 6894 ] final   94.25 input  -60.11 | X-H torsion
[ 7974 7965 7964 7962 ] final  -93.61 input  175.53 | X-H torsion
[ 8008 7997 7996 7995 ] final  105.97 input   59.86 | X-H torsion
[ 10167 10162 10161 10158 ] final  171.95 input  -65.29 | X-H torsion
[ 10718 10713 10712 10709 ] final   72.46 input   66.30 | X-H torsion
[ 10763 10752 10751 10750 ] final  -12.21 input  -60.55 | X-H torsion
[ 11005 11000 10999 10996 ] final  -38.75 input  -57.11 | X-H torsion

> <Gold.Protein.ActiveResidues>
 VAL166  LYS551  ARG553  GLY616  TRP617  ASP618  TYR619  PRO620  LYS621  CYS622 
 ASP623  PHE694  ASN695  SER759  ASP760  ASP761  ALA762  ILE779  LEU786  VAL792 
 PHE793  MET794  SER795  GLU796  ALA797  LYS798  CYS799  TRP800  GLU811  SER814 

> <Gold.Protein.RotatedAtoms>
  152.5450  134.1223  159.8403 H   0  0  0  0  0  0  0  0  0  0  0  0  # atno 6907 bound_to 6896
  151.1277  133.5051  159.2607 H   0  0  0  0  0  0  0  0  0  0  0  0  # atno 6908 bound_to 6896
  151.1709  135.0327  159.8806 H   0  0  0  0  0  0  0  0  0  0  0  0  # atno 6909 bound_to 6896
  145.3843  140.9521  143.2376 H   0  0  0  0  0  0  0  0  0  0  0  0  # atno 7974 bound_to 7965
  156.1703  140.3121  155.8963 H   0  0  0  0  0  0  0  0  0  0  0  0  # atno 8008 bound_to 7997
  155.3599  140.0476  157.3063 H   0  0  0  0  0  0  0  0  0  0  0  0  # atno 8009 bound_to 7997
  154.5235  140.2206  155.8944 H   0  0  0  0  0  0  0  0  0  0  0  0  # atno 8010 bound_to 7997
  139.5062  144.3429  152.0000 H   0  0  0  0  0  0  0  0  0  0  0  0  # atno 10167 bound_to 10162
  157.6502  130.9580  150.0932 H   0  0  0  0  0  0  0  0  0  0  0  0  # atno 10718 bound_to 10713
  153.4952  135.7017  153.5862 H   0  0  0  0  0  0  0  0  0  0  0  0  # atno 10763 bound_to 10752
  153.4017  135.3870  155.1992 H   0  0  0  0  0  0  0  0  0  0  0  0  # atno 10764 bound_to 10752
  154.8714  135.3883  154.4416 H   0  0  0  0  0  0  0  0  0  0  0  0  # atno 10765 bound_to 10752
  141.0050  133.6936  156.2094 H   0  0  0  0  0  0  0  0  0  0  0  0  # atno 11005 bound_to 11000
  144.8485  139.5358  143.6867 LP  0  0  0  0  0  0  0  0  0  0  0  0  # atno 17320 bound_to 7965
  146.2828  139.6922  142.9217 LP  0  0  0  0  0  0  0  0  0  0  0  0  # atno 17321 bound_to 7965
  140.2867  144.3800  150.6101 LP  0  0  0  0  0  0  0  0  0  0  0  0  # atno 17342 bound_to 10162
  140.5978  143.2167  151.7131 LP  0  0  0  0  0  0  0  0  0  0  0  0  # atno 17343 bound_to 10162
  156.1876  130.3653  149.8953 LP  0  0  0  0  0  0  0  0  0  0  0  0  # atno 17370 bound_to 10713
  156.6889  130.8888  151.3585 LP  0  0  0  0  0  0  0  0  0  0  0  0  # atno 17371 bound_to 10713
  140.6827  134.4750  157.5589 LP  0  0  0  0  0  0  0  0  0  0  0  0  # atno 17394 bound_to 11000
  139.9059  134.8451  156.1710 LP  0  0  0  0  0  0  0  0  0  0  0  0  # atno 17395 bound_to 11000

$$$$
