AV-unprocessed.smi:3071|AV-procd|sdf|11714|dock4
  -GOLD-   2272017113D 1   1.00000     0.00000
 Structure written by MMmdl.
 28 29  0  0  0  0  0  0  0  0  2 V2000
  152.2820  139.4568  156.0377 C   0  0  0  0  0  0  0  0  0  0  0  0
  151.0491  140.1873  155.6123 C   0  0  0  0  0  0  0  0  0  0  0  0
  150.5301  140.1096  154.3913 N   0  0  0  0  0  0  0  0  0  0  0  0
  149.4054  140.9264  154.4300 C   0  0  0  0  0  0  0  0  0  0  0  0
  149.2842  141.4745  155.6838 C   0  0  0  0  0  0  0  0  0  0  0  0
  150.3506  140.9949  156.4347 N   0  0  0  0  0  0  0  0  0  0  0  0
  150.6251  141.3179  157.8258 C   0  0  0  0  0  0  0  0  0  0  0  0
  150.7345  142.8348  158.0685 C   0  0  1  0  0  0  0  0  0  0  0  0
  151.6821  143.2457  159.1997 C   0  0  0  0  0  0  0  0  0  0  0  0
  152.0316  144.6847  158.8399 C   0  0  0  0  0  0  0  0  0  0  0  0
  152.0841  144.6672  157.3098 C   0  0  0  0  0  0  0  0  0  0  0  0
  151.2203  143.5513  156.8725 N   0  3  0  0  0  0  0  0  0  0  0  0
  152.6374  138.8118  155.2334 H   0  0  0  0  0  0  0  0  0  0  0  0
  152.0737  138.8339  156.9078 H   0  0  0  0  0  0  0  0  0  0  0  0
  153.0736  140.1631  156.2862 H   0  0  0  0  0  0  0  0  0  0  0  0
  148.7766  141.0544  153.5610 H   0  0  0  0  0  0  0  0  0  0  0  0
  148.5474  142.1510  156.0916 H   0  0  0  0  0  0  0  0  0  0  0  0
  149.8248  140.8969  158.4361 H   0  0  0  0  0  0  0  0  0  0  0  0
  151.5417  140.8135  158.1330 H   0  0  0  0  0  0  0  0  0  0  0  0
  149.7464  143.2384  158.2932 H   0  0  0  0  0  0  0  0  0  0  0  0
  151.2288  143.1546  160.1873 H   0  0  0  0  0  0  0  0  0  0  0  0
  152.5837  142.6316  159.1835 H   0  0  0  0  0  0  0  0  0  0  0  0
  151.2356  145.3507  159.1764 H   0  0  0  0  0  0  0  0  0  0  0  0
  152.9649  145.0220  159.2921 H   0  0  0  0  0  0  0  0  0  0  0  0
  151.7588  145.6137  156.8768 H   0  0  0  0  0  0  0  0  0  0  0  0
  153.1004  144.4714  156.9661 H   0  0  0  0  0  0  0  0  0  0  0  0
  151.7727  142.9223  156.3072 H   0  0  0  0  0  0  0  0  0  0  0  0
  150.4385  143.8938  156.3324 H   0  0  0  0  0  0  0  0  0  0  0  0
  1  2  1  0  0  0  0
  1 13  1  0  0  0  0
  1 14  1  0  0  0  0
  1 15  1  0  0  0  0
  2  6  1  0  0  0  0
  2  3  2  0  0  0  0
  3  4  1  0  0  0  0
  4  5  2  0  0  0  0
  4 16  1  0  0  0  0
  5  6  1  0  0  0  0
  5 17  1  0  0  0  0
  6  7  1  0  0  0  0
  7  8  1  0  0  0  0
  7 18  1  0  0  0  0
  7 19  1  0  0  0  0
  8 12  1  0  0  0  0
  8  9  1  0  0  0  0
  8 20  1  0  0  0  0
  9 10  1  0  0  0  0
  9 21  1  0  0  0  0
  9 22  1  0  0  0  0
 10 11  1  0  0  0  0
 10 23  1  0  0  0  0
 10 24  1  0  0  0  0
 11 12  1  0  0  0  0
 11 25  1  0  0  0  0
 11 26  1  0  0  0  0
 12 27  1  0  0  0  0
 12 28  1  0  0  0  0
M  CHG  1  12   1
M  END
> <s_m_source_file>
AV-unprocessed.smi

> <i_m_source_file_index>
3071

> <i_lp_mmshare_version>
43012

> <i_f3d_flags>
0

> <s_epik_input>
W0NIM11jMW5bY0hdW2NIXW4xW0NIMl1bQ0BASF0yW0NIMl1bQ0gyXVtDSDJdW05IXTI=

> <s_epik_cmdline>
J2VwaWtfcHl0aG9uJywgJy1waCcsICc3LjAnLCAnLXRuJywgJzgnLCAnLW1hJywgJzIwMCcsICctbWV0YWxfYmluZGluZycsICctaW1hZScsICc8aW5maWxlLm1hZT4nLCAnLW9tYWUnLCAnPG91dGZpbGUubWFlPic=

> <r_lp_tautomer_probability>
1

> <r_epik_Ionization_Penalty>
0.189495

> <r_epik_Ionization_Penalty_Charging>
0.189495

> <r_epik_Ionization_Penalty_Neutral>
1.84445e-13

> <r_epik_State_Penalty>
0.339469

> <r_epik_Charging_Adjusted_Penalty>
0.528964

> <i_epik_Tot_Q>
1

> <i_epik_Tot_abs_Q>
1

> <r_epik_Metal_State_Penalty>
0.000456861

> <b_epik_Metal_Only>
0

> <s_lp_Force_Field>
OPLS_2005

> <r_lp_Energy>
26.6713

> <b_lp_Chiralities_Consistent>
1

> <s_lp_Variant>
AV-unprocessed.smi:3071-2

> <Gold.Version>
5.8.1

> <Gold.Id.Protein>
6NUR|6NUR_protein|mol2

> <Gold.PLP.Fitness>
41.0503

> <Gold.PLP.PLP>
-28.1099

> <Gold.PLP.part.hbond>
-2.0000

> <Gold.PLP.part.metal>
0.0000

> <Gold.PLP.part.buried>
-0.4825

> <Gold.PLP.part.nonpolar>
-24.7905

> <Gold.PLP.part.repulsive>
0.1271

> <Gold.PLP.ligand.clash>
0.0000

> <Gold.PLP.ligand.torsion>
0.4096

> <Gold.PLP.Chemscore.Hbond>
3.0000

> <Gold.PLP.Chemscore.CHOScore>
1.5865

> <Gold.PLP.Chemscore.Metal>
0.0000

> <Gold.Chemscore.Hbonds>
donor molecule, donor type, donor heavy atom, donor atom, acceptor molecule, acceptor atom, score
      L1  H    12    28       P1  8028  2.00
      P1  H  7989  7998       L1     3  1.00
      L1  C     4    16       P1  7957  0.39
      L1  C     5    17       P1  8028  0.59

> <Gold.PLP.Chemscore.Internal.Correction>
0.0001

> <Gold.Rescore>
     Score         DG    S(hbond)    S(metal)    S(lipo)     H(rot)  DE(clash)    DE(int)     intcor
     14.89     -15.45       1.42        0.00      71.39       1.22       0.20       0.36       ----

> <Gold.Chemscore.Fitness>
14.8909

> <Gold.Chemscore.DG>
-15.4492

> <Gold.Chemscore.ZeroCoef>
-5.4800

> <Gold.Chemscore.Hbond>
1.4187

> <Gold.Chemscore.Metal>
0.0000

> <Gold.Chemscore.Lipo>
71.3887

> <Gold.Chemscore.Internal_Hbond>
0.0000

> <Gold.Chemscore.DEClash>
0.1955

> <Gold.Chemscore.DEInternal>
0.3627

> <Gold.Chemscore.Rot>
1.2194

> <Gold.Chemscore.Internal.Correction>
   9.000000E+99

> <Gold.Chemscore.Hbonds>
donor molecule, donor type, donor heavy atom, donor atom, acceptor molecule, acceptor atom, score
      L1  H    12    28       P1  8028  1.00
      P1  H  7989  7998       L1     3  0.24

> <Gold.Chemscore.Hbond.Weighted>
-4.7384

> <Gold.Chemscore.Metal.Weighted>
-0.0000

> <Gold.Chemscore.Lipo.Weighted>
-8.3525

> <Gold.Chemscore.Internal_Hbond.Weighted>
0.0000

> <Gold.Chemscore.DEClash.Weighted>
0.1955

> <Gold.Chemscore.DEInternal.Weighted>
0.3627

> <Gold.Chemscore.Rot.Weighted>
3.1218

> <Gold.Chemscore.Internal.Correction.Weighted>
   9.000000E+99

> <Gold.Protein.RotatedTorsions>
[ 6907 6896 6895 6894 ] final -166.54 input  -60.11 | X-H torsion
[ 7974 7965 7964 7962 ] final  -51.27 input  175.53 | X-H torsion
[ 8008 7997 7996 7995 ] final -163.85 input   59.86 | X-H torsion
[ 10167 10162 10161 10158 ] final  -26.81 input  -65.29 | X-H torsion
[ 10718 10713 10712 10709 ] final  148.41 input   66.30 | X-H torsion
[ 10763 10752 10751 10750 ] final -128.90 input  -60.55 | X-H torsion
[ 11005 11000 10999 10996 ] final  -29.36 input  -57.11 | X-H torsion

> <Gold.Protein.ActiveResidues>
 VAL166  LYS551  ARG553  GLY616  TRP617  ASP618  TYR619  PRO620  LYS621  CYS622 
 ASP623  PHE694  ASN695  SER759  ASP760  ASP761  ALA762  ILE779  LEU786  VAL792 
 PHE793  MET794  SER795  GLU796  ALA797  LYS798  CYS799  TRP800  GLU811  SER814 

> <Gold.Protein.RotatedAtoms>
  151.4453  133.3632  159.2787 H   0  0  0  0  0  0  0  0  0  0  0  0  # atno 6907 bound_to 6896
  150.9129  134.8548  159.7448 H   0  0  0  0  0  0  0  0  0  0  0  0  # atno 6908 bound_to 6896
  152.4942  134.4384  159.9587 H   0  0  0  0  0  0  0  0  0  0  0  0  # atno 6909 bound_to 6896
  145.9208  140.7835  142.9648 H   0  0  0  0  0  0  0  0  0  0  0  0  # atno 7974 bound_to 7965
  155.8272  140.0928  157.1814 H   0  0  0  0  0  0  0  0  0  0  0  0  # atno 8008 bound_to 7997
  154.3979  140.1425  156.3631 H   0  0  0  0  0  0  0  0  0  0  0  0  # atno 8009 bound_to 7997
  155.8204  140.3446  155.5513 H   0  0  0  0  0  0  0  0  0  0  0  0  # atno 8010 bound_to 7997
  140.7281  143.4146  151.1049 H   0  0  0  0  0  0  0  0  0  0  0  0  # atno 10167 bound_to 10162
  157.3089  131.0884  151.1332 H   0  0  0  0  0  0  0  0  0  0  0  0  # atno 10718 bound_to 10713
  154.8757  135.3913  154.3832 H   0  0  0  0  0  0  0  0  0  0  0  0  # atno 10763 bound_to 10752
  153.4577  135.7029  153.6075 H   0  0  0  0  0  0  0  0  0  0  0  0  # atno 10764 bound_to 10752
  153.4587  135.3817  155.2294 H   0  0  0  0  0  0  0  0  0  0  0  0  # atno 10765 bound_to 10752
  140.9289  133.7351  156.0908 H   0  0  0  0  0  0  0  0  0  0  0  0  # atno 11005 bound_to 11000
  144.6753  140.1973  143.7390 LP  0  0  0  0  0  0  0  0  0  0  0  0  # atno 17320 bound_to 7965
  145.8552  139.2195  143.1749 LP  0  0  0  0  0  0  0  0  0  0  0  0  # atno 17321 bound_to 7965
  139.7784  143.8391  152.3133 LP  0  0  0  0  0  0  0  0  0  0  0  0  # atno 17342 bound_to 10162
  139.8334  144.7243  150.9422 LP  0  0  0  0  0  0  0  0  0  0  0  0  # atno 17343 bound_to 10162
  157.2662  130.6682  149.5997 LP  0  0  0  0  0  0  0  0  0  0  0  0  # atno 17370 bound_to 10713
  155.9676  130.4493  150.5654 LP  0  0  0  0  0  0  0  0  0  0  0  0  # atno 17371 bound_to 10713
  140.7889  134.3640  157.5469 LP  0  0  0  0  0  0  0  0  0  0  0  0  # atno 17394 bound_to 11000
  139.8792  134.9128  156.3068 LP  0  0  0  0  0  0  0  0  0  0  0  0  # atno 17395 bound_to 11000

$$$$
