AV-unprocessed.smi:3092|AV-procd|sdf|11784|dock2
  -GOLD-   2272017163D 1   1.00000     0.00000
 Structure written by MMmdl.
 26 27  0  0  0  0  0  0  0  0  3 V2000
  152.7610  142.1853  159.9507 C   0  0  0  0  0  0  0  0  0  0  0  0
  152.0572  143.2918  159.2989 N   0  0  0  0  0  0  0  0  0  0  0  0
  152.1900  144.6234  159.5993 C   0  0  0  0  0  0  0  0  0  0  0  0
  151.3575  145.3034  158.7508 C   0  0  0  0  0  0  0  0  0  0  0  0
  150.7502  144.3599  157.9680 N   0  3  0  0  0  0  0  0  0  0  0  0
  151.1714  143.1319  158.2992 C   0  0  0  0  0  0  0  0  0  0  0  0
  150.7232  141.8517  157.6495 C   0  0  2  0  0  0  0  0  0  0  0  0
  151.0223  141.7328  156.1570 C   0  0  0  0  0  0  0  0  0  0  0  0
  150.0703  140.6198  155.6949 C   0  0  0  0  0  0  0  0  0  0  0  0
  148.9794  140.5521  156.6921 N   0  3  0  0  0  0  0  0  0  0  0  0
  149.2157  141.6039  157.6975 C   0  0  0  0  0  0  0  0  0  0  0  0
  153.4246  142.5777  160.7219 H   0  0  0  0  0  0  0  0  0  0  0  0
  153.3514  141.6450  159.2099 H   0  0  0  0  0  0  0  0  0  0  0  0
  152.0339  141.5148  160.4097 H   0  0  0  0  0  0  0  0  0  0  0  0
  152.8518  144.9813  160.3753 H   0  0  0  0  0  0  0  0  0  0  0  0
  151.1574  146.3602  158.6475 H   0  0  0  0  0  0  0  0  0  0  0  0
  151.2212  141.0306  158.1654 H   0  0  0  0  0  0  0  0  0  0  0  0
  150.7632  142.6604  155.6444 H   0  0  0  0  0  0  0  0  0  0  0  0
  152.0705  141.5173  155.9470 H   0  0  0  0  0  0  0  0  0  0  0  0
  149.6777  140.8126  154.6960 H   0  0  0  0  0  0  0  0  0  0  0  0
  150.5814  139.6567  155.6746 H   0  0  0  0  0  0  0  0  0  0  0  0
  148.0772  140.6732  156.2535 H   0  0  0  0  0  0  0  0  0  0  0  0
  148.8623  141.3114  158.6867 H   0  0  0  0  0  0  0  0  0  0  0  0
  148.6667  142.4954  157.3905 H   0  0  0  0  0  0  0  0  0  0  0  0
  149.0168  139.6493  157.1441 H   0  0  0  0  0  0  0  0  0  0  0  0
  150.0786  144.5627  157.2383 H   0  0  0  0  0  0  0  0  0  0  0  0
  1  2  1  0  0  0  0
  1 12  1  0  0  0  0
  1 13  1  0  0  0  0
  1 14  1  0  0  0  0
  2  6  1  0  0  0  0
  2  3  1  0  0  0  0
  3  4  2  0  0  0  0
  3 15  1  0  0  0  0
  4  5  1  0  0  0  0
  4 16  1  0  0  0  0
  5  6  2  0  0  0  0
  5 26  1  0  0  0  0
  6  7  1  0  0  0  0
  7 11  1  0  0  0  0
  7  8  1  0  0  0  0
  7 17  1  0  0  0  0
  8  9  1  0  0  0  0
  8 18  1  0  0  0  0
  8 19  1  0  0  0  0
  9 10  1  0  0  0  0
  9 20  1  0  0  0  0
  9 21  1  0  0  0  0
 10 11  1  0  0  0  0
 10 22  1  0  0  0  0
 10 25  1  0  0  0  0
 11 23  1  0  0  0  0
 11 24  1  0  0  0  0
M  CHG  1   5   1
M  CHG  1  10   1
M  END
> <s_m_source_file>
AV-unprocessed.smi

> <i_m_source_file_index>
3092

> <i_lp_mmshare_version>
43012

> <i_f3d_flags>
0

> <s_epik_input>
W0NIM11uMVtjSF1bY0hdbmMxW0NAQEhdMltDSDJdW0NIMl1bTkhdW0NIMl0y

> <s_epik_cmdline>
J2VwaWtfcHl0aG9uJywgJy1waCcsICc3LjAnLCAnLXRuJywgJzgnLCAnLW1hJywgJzIwMCcsICctbWV0YWxfYmluZGluZycsICctaW1hZScsICc8aW5maWxlLm1hZT4nLCAnLW9tYWUnLCAnPG91dGZpbGUubWFlPic=

> <r_lp_tautomer_probability>
1

> <r_epik_Ionization_Penalty>
0.803493

> <r_epik_Ionization_Penalty_Charging>
0.000689375

> <r_epik_Ionization_Penalty_Neutral>
0.802804

> <r_epik_State_Penalty>
0.834355

> <r_epik_Charging_Adjusted_Penalty>
0.835044

> <i_epik_Tot_Q>
2

> <i_epik_Tot_abs_Q>
2

> <r_epik_Metal_State_Penalty>
4.76097

> <b_epik_Metal_Only>
0

> <s_lp_Force_Field>
OPLS_2005

> <r_lp_Energy>
35.9538

> <b_lp_Chiralities_Consistent>
1

> <s_lp_Variant>
AV-unprocessed.smi:3092-3

> <Gold.Version>
5.8.1

> <Gold.Id.Protein>
6NUR|6NUR_protein|mol2

> <Gold.PLP.Fitness>
33.3897

> <Gold.PLP.PLP>
-27.4038

> <Gold.PLP.part.hbond>
-1.1213

> <Gold.PLP.part.metal>
0.0000

> <Gold.PLP.part.buried>
-3.7885

> <Gold.PLP.part.nonpolar>
-21.9033

> <Gold.PLP.part.repulsive>
0.0896

> <Gold.PLP.ligand.clash>
0.0000

> <Gold.PLP.ligand.torsion>
0.0083

> <Gold.PLP.Chemscore.Hbond>
2.0000

> <Gold.PLP.Chemscore.CHOScore>
0.0000

> <Gold.PLP.Chemscore.Metal>
0.0000

> <Gold.Chemscore.Hbonds>
donor molecule, donor type, donor heavy atom, donor atom, acceptor molecule, acceptor atom, score
      L1  H     5    26       P1  8028  2.00

> <Gold.PLP.Chemscore.Internal.Correction>
0.0025

> <Gold.Rescore>
     Score         DG    S(hbond)    S(metal)    S(lipo)     H(rot)  DE(clash)    DE(int)     intcor
     12.58     -12.66       0.87        0.00      58.30       1.00       0.02       0.06       ----

> <Gold.Chemscore.Fitness>
12.5770

> <Gold.Chemscore.DG>
-12.6596

> <Gold.Chemscore.ZeroCoef>
-5.4800

> <Gold.Chemscore.Hbond>
0.8737

> <Gold.Chemscore.Metal>
0.0000

> <Gold.Chemscore.Lipo>
58.3042

> <Gold.Chemscore.Internal_Hbond>
0.0000

> <Gold.Chemscore.DEClash>
0.0202

> <Gold.Chemscore.DEInternal>
0.0624

> <Gold.Chemscore.Rot>
1.0000

> <Gold.Chemscore.Internal.Correction>
   9.000000E+99

> <Gold.Chemscore.Hbonds>
donor molecule, donor type, donor heavy atom, donor atom, acceptor molecule, acceptor atom, score
      L1  H     5    26       P1  8028  0.39

> <Gold.Chemscore.Hbond.Weighted>
-2.9180

> <Gold.Chemscore.Metal.Weighted>
-0.0000

> <Gold.Chemscore.Lipo.Weighted>
-6.8216

> <Gold.Chemscore.Internal_Hbond.Weighted>
0.0000

> <Gold.Chemscore.DEClash.Weighted>
0.0202

> <Gold.Chemscore.DEInternal.Weighted>
0.0624

> <Gold.Chemscore.Rot.Weighted>
2.5600

> <Gold.Chemscore.Internal.Correction.Weighted>
   9.000000E+99

> <Gold.Protein.RotatedTorsions>
[ 6907 6896 6895 6894 ] final  111.22 input  -60.11 | X-H torsion
[ 7974 7965 7964 7962 ] final -148.77 input  175.53 | X-H torsion
[ 8008 7997 7996 7995 ] final  142.95 input   59.86 | X-H torsion
[ 10167 10162 10161 10158 ] final   48.31 input  -65.29 | X-H torsion
[ 10718 10713 10712 10709 ] final -109.38 input   66.30 | X-H torsion
[ 10763 10752 10751 10750 ] final  -52.90 input  -60.55 | X-H torsion
[ 11005 11000 10999 10996 ] final   68.42 input  -57.11 | X-H torsion

> <Gold.Protein.ActiveResidues>
 VAL166  LYS551  ARG553  GLY616  TRP617  ASP618  TYR619  PRO620  LYS621  CYS622 
 ASP623  PHE694  ASN695  SER759  ASP760  ASP761  ALA762  ILE779  LEU786  VAL792 
 PHE793  MET794  SER795  GLU796  ALA797  LYS798  CYS799  TRP800  GLU811  SER814 

> <Gold.Protein.RotatedAtoms>
  152.4980  133.8688  159.7287 H   0  0  0  0  0  0  0  0  0  0  0  0  # atno 6907 bound_to 6896
  150.9180  133.6906  159.2845 H   0  0  0  0  0  0  0  0  0  0  0  0  # atno 6908 bound_to 6896
  151.4293  135.1012  159.9690 H   0  0  0  0  0  0  0  0  0  0  0  0  # atno 6909 bound_to 6896
  144.8008  140.5152  143.5708 H   0  0  0  0  0  0  0  0  0  0  0  0  # atno 7974 bound_to 7965
  156.2940  140.2275  156.4812 H   0  0  0  0  0  0  0  0  0  0  0  0  # atno 8008 bound_to 7997
  154.7851  140.0458  157.1179 H   0  0  0  0  0  0  0  0  0  0  0  0  # atno 8009 bound_to 7997
  154.9712  140.3066  155.4991 H   0  0  0  0  0  0  0  0  0  0  0  0  # atno 8010 bound_to 7997
  140.2946  144.3006  150.6233 H   0  0  0  0  0  0  0  0  0  0  0  0  # atno 10167 bound_to 10162
  156.0534  130.5761  150.8092 H   0  0  0  0  0  0  0  0  0  0  0  0  # atno 10718 bound_to 10713
  154.1502  135.6491  153.4962 H   0  0  0  0  0  0  0  0  0  0  0  0  # atno 10763 bound_to 10752
  153.0140  135.5336  154.6816 H   0  0  0  0  0  0  0  0  0  0  0  0  # atno 10764 bound_to 10752
  154.6101  135.2953  155.0412 H   0  0  0  0  0  0  0  0  0  0  0  0  # atno 10765 bound_to 10752
  139.9712  134.6896  156.0442 H   0  0  0  0  0  0  0  0  0  0  0  0  # atno 11005 bound_to 11000
  145.5557  139.1478  143.3369 LP  0  0  0  0  0  0  0  0  0  0  0  0  # atno 17320 bound_to 7965
  146.2289  140.5694  142.8984 LP  0  0  0  0  0  0  0  0  0  0  0  0  # atno 17321 bound_to 7965
  140.5703  143.2181  151.7610 LP  0  0  0  0  0  0  0  0  0  0  0  0  # atno 17342 bound_to 10162
  139.4929  144.4225  151.9961 LP  0  0  0  0  0  0  0  0  0  0  0  0  # atno 17343 bound_to 10162
  157.5482  131.0943  150.9733 LP  0  0  0  0  0  0  0  0  0  0  0  0  # atno 17370 bound_to 10713
  156.9999  130.5596  149.5310 LP  0  0  0  0  0  0  0  0  0  0  0  0  # atno 17371 bound_to 10713
  141.1392  133.6568  156.3680 LP  0  0  0  0  0  0  0  0  0  0  0  0  # atno 17394 bound_to 11000
  140.5289  134.6232  157.5343 LP  0  0  0  0  0  0  0  0  0  0  0  0  # atno 17395 bound_to 11000

$$$$
