AV-unprocessed.smi:2780|AV-procd|sdf|10715|dock1
  -GOLD-   2272015153D 1   1.00000     0.00000
 Structure written by MMmdl.
 47 49  0  0  0  0  0  0  0  0  2 V2000
  154.6208  140.9699  159.9058 C   0  0  0  0  0  0  0  0  0  0  0  0
  153.6755  141.9930  160.5130 C   0  0  0  0  0  0  0  0  0  0  0  0
  153.4434  141.9830  161.8396 C   0  0  0  0  0  0  0  0  0  0  0  0
  152.5847  142.9945  162.5625 C   0  0  0  0  0  0  0  0  0  0  0  0
  152.4326  144.2747  161.7379 C   0  0  0  0  0  0  0  0  0  0  0  0
  152.0152  143.9644  160.2912 C   0  0  1  0  0  0  0  0  0  0  0  0
  151.7835  145.2850  159.5310 C   0  0  0  0  0  0  0  0  0  0  0  0
  153.0340  143.0300  159.5678 C   0  0  2  0  0  0  0  0  0  0  0  0
  152.3698  142.3764  158.3273 C   0  0  0  0  0  0  0  0  0  0  0  0
  150.9816  141.9410  158.5827 N   0  3  0  0  0  0  0  0  0  0  0  0
  150.0777  142.0983  157.4264 C   0  0  0  0  0  0  0  0  0  0  0  0
  150.7414  141.6309  156.1216 C   0  0  0  0  0  0  0  0  0  0  0  0
  149.8141  140.9293  155.2483 N   0  0  0  0  0  0  0  0  0  0  0  0
  148.7237  141.4134  154.6326 C   0  0  0  0  0  0  0  0  0  0  0  0
  148.0408  140.5253  153.9123 N   0  0  0  0  0  0  0  0  0  0  0  0
  148.7306  139.3413  154.0768 N   0  0  0  0  0  0  0  0  0  0  0  0
  149.7704  139.6358  154.8658 C   0  0  0  0  0  0  0  0  0  0  0  0
  150.7689  138.6250  155.3327 C   0  0  0  0  0  0  0  0  0  0  0  0
  152.2512  138.8689  155.1583 C   0  0  0  0  0  0  0  0  0  0  0  0
  151.5699  137.7925  154.3554 C   0  0  0  0  0  0  0  0  0  0  0  0
  155.3863  141.4657  159.3098 H   0  0  0  0  0  0  0  0  0  0  0  0
  154.0815  140.2618  159.2772 H   0  0  0  0  0  0  0  0  0  0  0  0
  155.1303  140.3932  160.6790 H   0  0  0  0  0  0  0  0  0  0  0  0
  153.8969  141.2242  162.4611 H   0  0  0  0  0  0  0  0  0  0  0  0
  151.6127  142.5453  162.7683 H   0  0  0  0  0  0  0  0  0  0  0  0
  153.0408  143.2287  163.5249 H   0  0  0  0  0  0  0  0  0  0  0  0
  151.7008  144.9271  162.2163 H   0  0  0  0  0  0  0  0  0  0  0  0
  153.3771  144.8206  161.7357 H   0  0  0  0  0  0  0  0  0  0  0  0
  151.0582  143.4423  160.3459 H   0  0  0  0  0  0  0  0  0  0  0  0
  152.7097  145.8524  159.4337 H   0  0  0  0  0  0  0  0  0  0  0  0
  151.0670  145.9164  160.0576 H   0  0  0  0  0  0  0  0  0  0  0  0
  151.3866  145.1267  158.5297 H   0  0  0  0  0  0  0  0  0  0  0  0
  153.8579  143.6577  159.2241 H   0  0  0  0  0  0  0  0  0  0  0  0
  152.3892  143.0755  157.4900 H   0  0  0  0  0  0  0  0  0  0  0  0
  152.9211  141.4959  158.0013 H   0  0  0  0  0  0  0  0  0  0  0  0
  150.9962  140.9678  158.8531 H   0  0  0  0  0  0  0  0  0  0  0  0
  149.1771  141.5097  157.6056 H   0  0  0  0  0  0  0  0  0  0  0  0
  149.7642  143.1398  157.3420 H   0  0  0  0  0  0  0  0  0  0  0  0
  151.1820  142.4757  155.5918 H   0  0  0  0  0  0  0  0  0  0  0  0
  151.5608  140.9487  156.3509 H   0  0  0  0  0  0  0  0  0  0  0  0
  148.4176  142.4461  154.7153 H   0  0  0  0  0  0  0  0  0  0  0  0
  150.4326  138.1454  156.2501 H   0  0  0  0  0  0  0  0  0  0  0  0
  152.5631  139.7599  154.6177 H   0  0  0  0  0  0  0  0  0  0  0  0
  152.9105  138.5554  155.9650 H   0  0  0  0  0  0  0  0  0  0  0  0
  151.7729  136.7585  154.6266 H   0  0  0  0  0  0  0  0  0  0  0  0
  151.4287  137.9756  153.2920 H   0  0  0  0  0  0  0  0  0  0  0  0
  150.6141  142.4842  159.3507 H   0  0  0  0  0  0  0  0  0  0  0  0
  1  2  1  0  0  0  0
  1 21  1  0  0  0  0
  1 22  1  0  0  0  0
  1 23  1  0  0  0  0
  2  8  1  0  0  0  0
  2  3  2  0  0  0  0
  3  4  1  0  0  0  0
  3 24  1  0  0  0  0
  4  5  1  0  0  0  0
  4 25  1  0  0  0  0
  4 26  1  0  0  0  0
  5  6  1  0  0  0  0
  5 27  1  0  0  0  0
  5 28  1  0  0  0  0
  6  7  1  0  0  0  0
  6  8  1  0  0  0  0
  6 29  1  0  0  0  0
  7 30  1  0  0  0  0
  7 31  1  0  0  0  0
  7 32  1  0  0  0  0
  8  9  1  0  0  0  0
  8 33  1  0  0  0  0
  9 10  1  0  0  0  0
  9 34  1  0  0  0  0
  9 35  1  0  0  0  0
 10 11  1  0  0  0  0
 10 36  1  0  0  0  0
 10 47  1  0  0  0  0
 11 12  1  0  0  0  0
 11 37  1  0  0  0  0
 11 38  1  0  0  0  0
 12 13  1  0  0  0  0
 12 39  1  0  0  0  0
 12 40  1  0  0  0  0
 13 17  1  0  0  0  0
 13 14  1  0  0  0  0
 14 15  2  0  0  0  0
 14 41  1  0  0  0  0
 15 16  1  0  0  0  0
 16 17  2  0  0  0  0
 17 18  1  0  0  0  0
 18 20  1  0  0  0  0
 18 19  1  0  0  0  0
 18 42  1  0  0  0  0
 19 20  1  0  0  0  0
 19 43  1  0  0  0  0
 19 44  1  0  0  0  0
 20 45  1  0  0  0  0
 20 46  1  0  0  0  0
M  CHG  1  10   1
M  END
> <s_m_source_file>
AV-unprocessed.smi

> <i_m_source_file_index>
2780

> <i_lp_mmshare_version>
43012

> <i_f3d_flags>
0

> <s_epik_input>
W0NIM11DMT1bQ0hdW0NIMl1bQ0gyXVtDQEBIXShbQ0gzXSlbQ0BIXTFbQ0gyXVtOSF1bQ0gyXVtDSDJdbjJbY0hdbm5jMltDSF0zW0NIMl1bQ0gyXTM=

> <s_epik_cmdline>
J2VwaWtfcHl0aG9uJywgJy1waCcsICc3LjAnLCAnLXRuJywgJzgnLCAnLW1hJywgJzIwMCcsICctbWV0YWxfYmluZGluZycsICctaW1hZScsICc8aW5maWxlLm1hZT4nLCAnLW9tYWUnLCAnPG91dGZpbGUubWFlPic=

> <r_lp_tautomer_probability>
1

> <r_epik_Ionization_Penalty>
0.00176214

> <r_epik_Ionization_Penalty_Charging>
0.00175191

> <r_epik_Ionization_Penalty_Neutral>
1.02377e-05

> <r_epik_State_Penalty>
-0

> <r_epik_Charging_Adjusted_Penalty>
0.00175191

> <i_epik_Tot_Q>
1

> <i_epik_Tot_abs_Q>
1

> <r_epik_Metal_State_Penalty>
-0

> <b_epik_Metal_Only>
0

> <s_lp_Force_Field>
OPLS_2005

> <r_lp_Energy>
22.3616

> <b_lp_Chiralities_Consistent>
1

> <s_lp_Variant>
AV-unprocessed.smi:2780-3

> <Gold.Version>
5.8.1

> <Gold.Id.Protein>
6NUR|6NUR_protein|mol2

> <Gold.PLP.Fitness>
53.5186

> <Gold.PLP.PLP>
-52.0664

> <Gold.PLP.part.hbond>
0.0000

> <Gold.PLP.part.metal>
0.0000

> <Gold.PLP.part.buried>
-6.6127

> <Gold.PLP.part.nonpolar>
-46.0242

> <Gold.PLP.part.repulsive>
1.1742

> <Gold.PLP.ligand.clash>
0.0000

> <Gold.PLP.ligand.torsion>
0.9148

> <Gold.PLP.Chemscore.Hbond>
0.0000

> <Gold.PLP.Chemscore.CHOScore>
1.0000

> <Gold.PLP.Chemscore.Metal>
0.0000

> <Gold.Chemscore.Hbonds>
donor molecule, donor type, donor heavy atom, donor atom, acceptor molecule, acceptor atom, score
      L1  C    14    41       P1  8028  1.00

> <Gold.PLP.Chemscore.Internal.Correction>
0.2817

> <Gold.Rescore>
     Score         DG    S(hbond)    S(metal)    S(lipo)     H(rot)  DE(clash)    DE(int)     intcor
     15.56     -16.84       0.00        0.00     140.43       1.98       0.42       0.86       ----

> <Gold.Chemscore.Fitness>
15.5588

> <Gold.Chemscore.DG>
-16.8416

> <Gold.Chemscore.ZeroCoef>
-5.4800

> <Gold.Chemscore.Hbond>
0.0000

> <Gold.Chemscore.Metal>
0.0000

> <Gold.Chemscore.Lipo>
140.4286

> <Gold.Chemscore.Internal_Hbond>
0.0000

> <Gold.Chemscore.DEClash>
0.4218

> <Gold.Chemscore.DEInternal>
0.8610

> <Gold.Chemscore.Rot>
1.9799

> <Gold.Chemscore.Internal.Correction>
   9.000000E+99

> <Gold.Chemscore.Hbond.Weighted>
-0.0000

> <Gold.Chemscore.Metal.Weighted>
-0.0000

> <Gold.Chemscore.Lipo.Weighted>
-16.4301

> <Gold.Chemscore.Internal_Hbond.Weighted>
0.0000

> <Gold.Chemscore.DEClash.Weighted>
0.4218

> <Gold.Chemscore.DEInternal.Weighted>
0.8610

> <Gold.Chemscore.Rot.Weighted>
5.0685

> <Gold.Chemscore.Internal.Correction.Weighted>
   9.000000E+99

> <Gold.Protein.RotatedTorsions>
[ 6907 6896 6895 6894 ] final  -26.64 input  -60.11 | X-H torsion
[ 7974 7965 7964 7962 ] final  125.60 input  175.53 | X-H torsion
[ 8008 7997 7996 7995 ] final -131.30 input   59.86 | X-H torsion
[ 10167 10162 10161 10158 ] final  122.56 input  -65.29 | X-H torsion
[ 10718 10713 10712 10709 ] final -125.18 input   66.30 | X-H torsion
[ 10763 10752 10751 10750 ] final  -85.26 input  -60.55 | X-H torsion
[ 11005 11000 10999 10996 ] final  -82.12 input  -57.11 | X-H torsion

> <Gold.Protein.ActiveResidues>
 VAL166  LYS551  ARG553  GLY616  TRP617  ASP618  TYR619  PRO620  LYS621  CYS622 
 ASP623  PHE694  ASN695  SER759  ASP760  ASP761  ALA762  ILE779  LEU786  VAL792 
 PHE793  MET794  SER795  GLU796  ALA797  LYS798  CYS799  TRP800  GLU811  SER814 

> <Gold.Protein.RotatedAtoms>
  151.1582  135.0260  159.8698 H   0  0  0  0  0  0  0  0  0  0  0  0  # atno 6907 bound_to 6896
  152.5452  134.1310  159.8449 H   0  0  0  0  0  0  0  0  0  0  0  0  # atno 6908 bound_to 6896
  151.1402  133.4930  159.2629 H   0  0  0  0  0  0  0  0  0  0  0  0  # atno 6909 bound_to 6896
  145.0711  139.3729  143.4957 H   0  0  0  0  0  0  0  0  0  0  0  0  # atno 7974 bound_to 7965
  155.3101  140.0457  157.3034 H   0  0  0  0  0  0  0  0  0  0  0  0  # atno 8008 bound_to 7997
  154.5438  140.2296  155.8564 H   0  0  0  0  0  0  0  0  0  0  0  0  # atno 8009 bound_to 7997
  156.1905  140.3052  155.9329 H   0  0  0  0  0  0  0  0  0  0  0  0  # atno 8010 bound_to 7997
  139.5851  144.7003  151.3428 H   0  0  0  0  0  0  0  0  0  0  0  0  # atno 10167 bound_to 10162
  156.1653  130.6630  151.0105 H   0  0  0  0  0  0  0  0  0  0  0  0  # atno 10718 bound_to 10713
  154.6091  135.5491  153.7454 H   0  0  0  0  0  0  0  0  0  0  0  0  # atno 10763 bound_to 10752
  153.0187  135.6385  154.1604 H   0  0  0  0  0  0  0  0  0  0  0  0  # atno 10764 bound_to 10752
  154.1542  135.2901  155.3107 H   0  0  0  0  0  0  0  0  0  0  0  0  # atno 10765 bound_to 10752
  141.1664  133.7229  156.8524 H   0  0  0  0  0  0  0  0  0  0  0  0  # atno 11005 bound_to 11000
  146.3528  140.0456  142.8639 LP  0  0  0  0  0  0  0  0  0  0  0  0  # atno 17320 bound_to 7965
  145.1291  140.9507  143.4555 LP  0  0  0  0  0  0  0  0  0  0  0  0  # atno 17321 bound_to 7965
  140.7124  143.7355  150.7592 LP  0  0  0  0  0  0  0  0  0  0  0  0  # atno 17342 bound_to 10162
  140.0897  143.4889  152.2485 LP  0  0  0  0  0  0  0  0  0  0  0  0  # atno 17343 bound_to 10162
  157.6763  131.0849  150.7486 LP  0  0  0  0  0  0  0  0  0  0  0  0  # atno 17370 bound_to 10713
  156.7547  130.4780  149.5449 LP  0  0  0  0  0  0  0  0  0  0  0  0  # atno 17371 bound_to 10713
  140.1906  134.8968  157.3056 LP  0  0  0  0  0  0  0  0  0  0  0  0  # atno 17394 bound_to 11000
  140.2294  134.3927  155.7528 LP  0  0  0  0  0  0  0  0  0  0  0  0  # atno 17395 bound_to 11000

$$$$
