AV-unprocessed.smi:189|AV-procd|sdf|1487|dock2
  -GOLD-   2262019303D 1   1.00000     0.00000
 Structure written by MMmdl.
 53 57  0  0  0  0  0  0  0  0  1 V2000
  153.7407  138.9442  160.1405 C   0  0  0  0  0  0  0  0  0  0  0  0
  153.5779  140.2236  159.3071 C   0  0  2  0  0  0  0  0  0  0  0  0
  153.8980  141.5221  160.0867 C   0  0  0  0  0  0  0  0  0  0  0  0
  152.6224  142.3525  159.9430 C   0  0  1  0  0  0  0  0  0  0  0  0
  152.7327  143.8803  159.8770 C   0  0  0  0  0  0  0  0  0  0  0  0
  151.3269  144.4761  159.6467 C   0  0  0  0  0  0  0  0  0  0  0  0
  150.6127  143.8553  158.4229 C   0  0  0  0  0  0  0  0  0  0  0  0
  150.5956  142.3124  158.4661 C   0  0  0  0  0  0  0  0  0  0  0  0
  152.0340  141.8060  158.6539 C   0  0  2  0  0  0  0  0  0  0  0  0
  152.2104  140.3730  158.8003 N   0  0  0  0  0  0  0  0  0  0  0  0
  151.8865  139.6370  157.7133 C   0  0  0  0  0  0  0  0  0  0  0  0
  152.4511  139.9008  156.5052 N   0  0  0  0  0  0  0  0  0  0  0  0
  152.1142  139.1692  155.4386 C   0  0  0  0  0  0  0  0  0  0  0  0
  151.2505  138.1539  155.3609 N   0  0  0  0  0  0  0  0  0  0  0  0
  150.6771  137.8958  156.5720 C   0  0  0  0  0  0  0  0  0  0  0  0
  150.9392  138.5840  157.7888 C   0  0  0  0  0  0  0  0  0  0  0  0
  150.1770  138.0469  158.8175 N   0  0  0  0  0  0  0  0  0  0  0  0
  149.5009  137.0911  158.2406 C   0  0  0  0  0  0  0  0  0  0  0  0
  149.7323  136.9359  156.8915 N   0  0  0  0  0  0  0  0  0  0  0  0
  149.1179  135.9537  156.0108 C   0  0  0  0  0  0  0  0  0  0  0  0
  150.1372  135.0249  155.3074 C   0  0  2  0  0  0  0  0  0  0  0  0
  150.9414  135.8015  154.4376 O   0  0  0  0  0  0  0  0  0  0  0  0
  149.4570  133.9179  154.4988 C   0  0  0  0  0  0  0  0  0  0  0  0
  149.7486  132.6557  155.3013 C   0  0  0  0  0  0  0  0  0  0  0  0
  151.0418  132.9098  155.8195 O   0  0  0  0  0  0  0  0  0  0  0  0
  151.0475  134.2523  156.2830 C   0  0  0  0  0  0  0  0  0  0  0  0
  154.7565  138.8564  160.5261 H   0  0  0  0  0  0  0  0  0  0  0  0
  153.5366  138.0555  159.5428 H   0  0  0  0  0  0  0  0  0  0  0  0
  153.0580  138.9385  160.9909 H   0  0  0  0  0  0  0  0  0  0  0  0
  154.2719  140.1662  158.4672 H   0  0  0  0  0  0  0  0  0  0  0  0
  154.1412  141.3426  161.1345 H   0  0  0  0  0  0  0  0  0  0  0  0
  154.7477  142.0307  159.6293 H   0  0  0  0  0  0  0  0  0  0  0  0
  151.9616  142.0873  160.7712 H   0  0  0  0  0  0  0  0  0  0  0  0
  153.1625  144.2710  160.7998 H   0  0  0  0  0  0  0  0  0  0  0  0
  153.4006  144.1748  159.0666 H   0  0  0  0  0  0  0  0  0  0  0  0
  150.7181  144.3089  160.5361 H   0  0  0  0  0  0  0  0  0  0  0  0
  151.3986  145.5573  159.5251 H   0  0  0  0  0  0  0  0  0  0  0  0
  149.5931  144.2357  158.3559 H   0  0  0  0  0  0  0  0  0  0  0  0
  151.1197  144.1802  157.5134 H   0  0  0  0  0  0  0  0  0  0  0  0
  149.9627  141.9668  159.2846 H   0  0  0  0  0  0  0  0  0  0  0  0
  150.1650  141.9178  157.5452 H   0  0  0  0  0  0  0  0  0  0  0  0
  152.6384  142.1456  157.8097 H   0  0  0  0  0  0  0  0  0  0  0  0
  152.6055  139.4371  154.5148 H   0  0  0  0  0  0  0  0  0  0  0  0
  148.8053  136.4703  158.7865 H   0  0  0  0  0  0  0  0  0  0  0  0
  148.4152  135.3601  156.5971 H   0  0  0  0  0  0  0  0  0  0  0  0
  148.5201  136.4884  155.2712 H   0  0  0  0  0  0  0  0  0  0  0  0
  150.3988  136.1137  153.7294 H   0  0  0  0  0  0  0  0  0  0  0  0
  148.3879  134.0786  154.3545 H   0  0  0  0  0  0  0  0  0  0  0  0
  149.9081  133.8205  153.5096 H   0  0  0  0  0  0  0  0  0  0  0  0
  149.0379  132.5383  156.1212 H   0  0  0  0  0  0  0  0  0  0  0  0
  149.7273  131.7529  154.6907 H   0  0  0  0  0  0  0  0  0  0  0  0
  152.0613  134.6499  156.3448 H   0  0  0  0  0  0  0  0  0  0  0  0
  150.6335  134.2505  157.2912 H   0  0  0  0  0  0  0  0  0  0  0  0
  1  2  1  0  0  0  0
  1 27  1  0  0  0  0
  1 28  1  0  0  0  0
  1 29  1  0  0  0  0
  2 10  1  0  0  0  0
  2  3  1  0  0  0  0
  2 30  1  0  0  0  0
  3  4  1  0  0  0  0
  3 31  1  0  0  0  0
  3 32  1  0  0  0  0
  4  9  1  0  0  0  0
  4  5  1  0  0  0  0
  4 33  1  0  0  0  0
  5  6  1  0  0  0  0
  5 34  1  0  0  0  0
  5 35  1  0  0  0  0
  6  7  1  0  0  0  0
  6 36  1  0  0  0  0
  6 37  1  0  0  0  0
  7  8  1  0  0  0  0
  7 38  1  0  0  0  0
  7 39  1  0  0  0  0
  8  9  1  0  0  0  0
  8 40  1  0  0  0  0
  8 41  1  0  0  0  0
  9 10  1  0  0  0  0
  9 42  1  0  0  0  0
 10 11  1  0  0  0  0
 11 16  1  0  0  0  0
 11 12  2  0  0  0  0
 12 13  1  0  0  0  0
 13 14  2  0  0  0  0
 13 43  1  0  0  0  0
 14 15  1  0  0  0  0
 15 19  1  0  0  0  0
 15 16  2  0  0  0  0
 16 17  1  0  0  0  0
 17 18  2  0  0  0  0
 18 19  1  0  0  0  0
 18 44  1  0  0  0  0
 19 20  1  0  0  0  0
 20 21  1  0  0  0  0
 20 45  1  0  0  0  0
 20 46  1  0  0  0  0
 21 26  1  0  0  0  0
 21 22  1  0  0  0  0
 21 23  1  0  0  0  0
 22 47  1  0  0  0  0
 23 24  1  0  0  0  0
 23 48  1  0  0  0  0
 23 49  1  0  0  0  0
 24 25  1  0  0  0  0
 24 50  1  0  0  0  0
 24 51  1  0  0  0  0
 25 26  1  0  0  0  0
 26 52  1  0  0  0  0
 26 53  1  0  0  0  0
M  END
> <s_m_source_file>
AV-unprocessed.smi

> <i_m_source_file_index>
189

> <i_lp_mmshare_version>
43012

> <i_f3d_flags>
0

> <s_epik_input>
W0NIMl0xW0NIMl1bQ0gyXVtDSDJdW0NASF0oW0NASF0xMilOKFtDQEhdKFtDSDNdKVtDSDJdMiljKG5bY0hdbjMpYyhjMzQpbltjSF1uNFtDSDJdW0NAQF01KFtPSF0pW0NIMl1bQ0gyXU9bQ0gyXTU=

> <s_epik_cmdline>
J2VwaWtfcHl0aG9uJywgJy1waCcsICc3LjAnLCAnLXRuJywgJzgnLCAnLW1hJywgJzIwMCcsICctbWV0YWxfYmluZGluZycsICctaW1hZScsICc8aW5maWxlLm1hZT4nLCAnLW9tYWUnLCAnPG91dGZpbGUubWFlPic=

> <r_lp_tautomer_probability>
1

> <r_epik_Ionization_Penalty>
0.00594261

> <r_epik_Ionization_Penalty_Charging>
0

> <r_epik_Ionization_Penalty_Neutral>
0.00594261

> <r_epik_State_Penalty>
0.00429776

> <r_epik_Charging_Adjusted_Penalty>
0.00429776

> <i_epik_Tot_Q>
0

> <i_epik_Tot_abs_Q>
0

> <r_epik_Metal_State_Penalty>
-0

> <b_epik_Metal_Only>
0

> <s_lp_Force_Field>
OPLS_2005

> <r_lp_Energy>
58.4812

> <b_lp_Chiralities_Consistent>
1

> <s_lp_Variant>
AV-unprocessed.smi:189-13

> <Gold.Version>
5.8.1

> <Gold.Id.Protein>
6NUR|6NUR_protein|mol2

> <Gold.PLP.Fitness>
50.2476

> <Gold.PLP.PLP>
-44.0120

> <Gold.PLP.part.hbond>
-3.5158

> <Gold.PLP.part.metal>
0.0000

> <Gold.PLP.part.buried>
-6.6314

> <Gold.PLP.part.nonpolar>
-34.1730

> <Gold.PLP.part.repulsive>
0.0505

> <Gold.PLP.ligand.clash>
0.0000

> <Gold.PLP.ligand.torsion>
0.0990

> <Gold.PLP.Chemscore.Hbond>
2.1365

> <Gold.PLP.Chemscore.CHOScore>
0.0000

> <Gold.PLP.Chemscore.Metal>
0.0000

> <Gold.Chemscore.Hbonds>
donor molecule, donor type, donor heavy atom, donor atom, acceptor molecule, acceptor atom, score
      L1  H    22    47       P1  7948  0.10
      P1  H  7997  8008       L1    12  1.00
      P1  H 10752 10763       L1    22  1.00

> <Gold.PLP.Chemscore.Internal.Correction>
0.0239

> <Gold.Rescore>
     Score         DG    S(hbond)    S(metal)    S(lipo)     H(rot)  DE(clash)    DE(int)     intcor
     19.10     -19.80       1.79        0.00     115.84       2.03       0.48       0.23       ----

> <Gold.Chemscore.Fitness>
19.1000

> <Gold.Chemscore.DG>
-19.8044

> <Gold.Chemscore.ZeroCoef>
-5.4800

> <Gold.Chemscore.Hbond>
1.7867

> <Gold.Chemscore.Metal>
0.0000

> <Gold.Chemscore.Lipo>
115.8373

> <Gold.Chemscore.Internal_Hbond>
0.0000

> <Gold.Chemscore.DEClash>
0.4771

> <Gold.Chemscore.DEInternal>
0.2273

> <Gold.Chemscore.Rot>
2.0297

> <Gold.Chemscore.Internal.Correction>
   9.000000E+99

> <Gold.Chemscore.Hbonds>
donor molecule, donor type, donor heavy atom, donor atom, acceptor molecule, acceptor atom, score
      P1  H  7997  8008       L1    12  0.44
      P1  H 10752 10763       L1    22  0.93

> <Gold.Chemscore.Hbond.Weighted>
-5.9674

> <Gold.Chemscore.Metal.Weighted>
-0.0000

> <Gold.Chemscore.Lipo.Weighted>
-13.5530

> <Gold.Chemscore.Internal_Hbond.Weighted>
0.0000

> <Gold.Chemscore.DEClash.Weighted>
0.4771

> <Gold.Chemscore.DEInternal.Weighted>
0.2273

> <Gold.Chemscore.Rot.Weighted>
5.1960

> <Gold.Chemscore.Internal.Correction.Weighted>
   9.000000E+99

> <Gold.Protein.RotatedTorsions>
[ 6907 6896 6895 6894 ] final -122.44 input  -60.11 | X-H torsion
[ 7974 7965 7964 7962 ] final  -78.04 input  175.53 | X-H torsion
[ 8008 7997 7996 7995 ] final  -42.41 input   59.86 | X-H torsion
[ 10167 10162 10161 10158 ] final   70.90 input  -65.29 | X-H torsion
[ 10718 10713 10712 10709 ] final   85.07 input   66.30 | X-H torsion
[ 10763 10752 10751 10750 ] final   39.07 input  -60.55 | X-H torsion
[ 11005 11000 10999 10996 ] final  -67.06 input  -57.11 | X-H torsion

> <Gold.Protein.ActiveResidues>
 VAL166  LYS551  ARG553  GLY616  TRP617  ASP618  TYR619  PRO620  LYS621  CYS622 
 ASP623  PHE694  ASN695  SER759  ASP760  ASP761  ALA762  ILE779  LEU786  VAL792 
 PHE793  MET794  SER795  GLU796  ALA797  LYS798  CYS799  TRP800  GLU811  SER814 

> <Gold.Protein.RotatedAtoms>
  150.8576  133.7691  159.3003 H   0  0  0  0  0  0  0  0  0  0  0  0  # atno 6907 bound_to 6896
  151.5344  135.1067  159.9920 H   0  0  0  0  0  0  0  0  0  0  0  0  # atno 6908 bound_to 6896
  152.4602  133.7762  159.6882 H   0  0  0  0  0  0  0  0  0  0  0  0  # atno 6909 bound_to 6896
  145.5918  140.9428  143.1288 H   0  0  0  0  0  0  0  0  0  0  0  0  # atno 7974 bound_to 7965
  154.3999  140.1474  156.3350 H   0  0  0  0  0  0  0  0  0  0  0  0  # atno 8008 bound_to 7997
  155.8408  140.3462  155.5609 H   0  0  0  0  0  0  0  0  0  0  0  0  # atno 8009 bound_to 7997
  155.8089  140.0881  157.1906 H   0  0  0  0  0  0  0  0  0  0  0  0  # atno 8010 bound_to 7997
  140.0520  144.5304  150.7356 H   0  0  0  0  0  0  0  0  0  0  0  0  # atno 10167 bound_to 10162
  157.6909  131.0160  150.2768 H   0  0  0  0  0  0  0  0  0  0  0  0  # atno 10718 bound_to 10713
  152.9979  135.6231  154.2406 H   0  0  0  0  0  0  0  0  0  0  0  0  # atno 10763 bound_to 10752
  154.2146  135.2798  155.2948 H   0  0  0  0  0  0  0  0  0  0  0  0  # atno 10764 bound_to 10752
  154.5578  135.5714  153.7038 H   0  0  0  0  0  0  0  0  0  0  0  0  # atno 10765 bound_to 10752
  141.1498  133.6711  156.6234 H   0  0  0  0  0  0  0  0  0  0  0  0  # atno 11005 bound_to 11000
  144.7348  139.7618  143.7333 LP  0  0  0  0  0  0  0  0  0  0  0  0  # atno 17320 bound_to 7965
  146.1641  139.4766  142.9969 LP  0  0  0  0  0  0  0  0  0  0  0  0  # atno 17321 bound_to 7965
  140.7212  143.2591  151.4271 LP  0  0  0  0  0  0  0  0  0  0  0  0  # atno 17342 bound_to 10162
  139.5947  144.1423  152.2130 LP  0  0  0  0  0  0  0  0  0  0  0  0  # atno 17343 bound_to 10162
  156.3321  130.3802  149.7482 LP  0  0  0  0  0  0  0  0  0  0  0  0  # atno 17370 bound_to 10713
  156.5018  130.8132  151.3135 LP  0  0  0  0  0  0  0  0  0  0  0  0  # atno 17371 bound_to 10713
  140.3522  134.7758  157.4475 LP  0  0  0  0  0  0  0  0  0  0  0  0  # atno 17394 bound_to 11000
  140.0851  134.5677  155.8500 LP  0  0  0  0  0  0  0  0  0  0  0  0  # atno 17395 bound_to 11000

$$$$
