AV-unprocessed.smi:39|AV-procd|sdf|353|dock5
  -GOLD-   2262016193D 1   1.00000     0.00000
 Structure written by MMmdl.
 32 33  0  0  0  0  0  0  0  0  3 V2000
  147.1556  140.8427  152.9600 C   0  0  0  0  0  0  0  0  0  0  0  0
  147.8133  141.1306  154.2995 C   0  0  0  0  0  0  0  0  0  0  0  0
  149.0505  140.6698  154.6176 C   0  0  0  0  0  0  0  0  0  0  0  0
  149.6752  140.9159  155.8326 N   0  0  0  0  0  0  0  0  0  0  0  0
  151.0489  140.3709  156.1459 C   0  0  1  0  0  0  0  0  0  0  0  0
  150.9837  139.3572  157.2846 C   0  0  0  0  0  0  0  0  0  0  0  0
  152.1469  138.4554  156.9234 C   0  0  1  0  0  0  0  0  0  0  0  0
  152.0854  137.1393  157.5664 N   0  0  0  0  0  0  0  0  0  0  0  0
  151.1763  136.9661  158.3887 N   0  3  0  0  0  0  0  0  0  0  0  0
  150.2610  136.8052  159.0456 N   0  5  0  0  0  0  0  0  0  0  0  0
  152.0620  138.4190  155.3857 C   0  0  1  0  0  0  0  0  0  0  0  0
  151.1248  137.3540  154.7761 C   0  0  0  0  0  0  0  0  0  0  0  0
  151.7249  136.7303  153.6597 O   0  0  0  0  0  0  0  0  0  0  0  0
  151.5593  139.7083  155.0250 O   0  0  0  0  0  0  0  0  0  0  0  0
  148.9959  141.6576  156.8207 C   0  0  0  0  0  0  0  0  0  0  0  0
  149.4724  141.8842  157.9323 O   0  0  0  0  0  0  0  0  0  0  0  0
  147.7281  142.1355  156.4935 N   0  0  0  0  0  0  0  0  0  0  0  0
  147.0708  141.9303  155.2780 C   0  0  0  0  0  0  0  0  0  0  0  0
  145.9509  142.4085  155.1047 O   0  0  0  0  0  0  0  0  0  0  0  0
  151.7009  141.2211  156.3556 H   0  0  0  0  0  0  0  0  0  0  0  0
  153.0746  138.9660  157.1921 H   0  0  0  0  0  0  0  0  0  0  0  0
  153.0574  138.3129  154.9523 H   0  0  0  0  0  0  0  0  0  0  0  0
  147.2405  142.6720  157.1963 H   0  0  0  0  0  0  0  0  0  0  0  0
  147.7997  140.2476  152.3120 H   0  0  0  0  0  0  0  0  0  0  0  0
  146.9262  141.7731  152.4393 H   0  0  0  0  0  0  0  0  0  0  0  0
  146.2252  140.2921  153.1032 H   0  0  0  0  0  0  0  0  0  0  0  0
  149.5675  140.0757  153.8806 H   0  0  0  0  0  0  0  0  0  0  0  0
  151.0831  139.8455  158.2545 H   0  0  0  0  0  0  0  0  0  0  0  0
  150.0368  138.8157  157.2483 H   0  0  0  0  0  0  0  0  0  0  0  0
  150.8316  136.6053  155.5121 H   0  0  0  0  0  0  0  0  0  0  0  0
  150.2093  137.8279  154.4212 H   0  0  0  0  0  0  0  0  0  0  0  0
  151.0486  136.5151  153.0359 H   0  0  0  0  0  0  0  0  0  0  0  0
  1  2  1  0  0  0  0
  1 24  1  0  0  0  0
  1 25  1  0  0  0  0
  1 26  1  0  0  0  0
  2 18  1  0  0  0  0
  2  3  2  0  0  0  0
  3  4  1  0  0  0  0
  3 27  1  0  0  0  0
  4  5  1  0  0  0  0
  4 15  1  0  0  0  0
  5 20  1  0  0  0  0
  5 14  1  0  0  0  0
  5  6  1  0  0  0  0
  6  7  1  0  0  0  0
  6 28  1  0  0  0  0
  6 29  1  0  0  0  0
  7 21  1  0  0  0  0
  7  8  1  0  0  0  0
  7 11  1  0  0  0  0
  8  9  2  0  0  0  0
  9 10  2  0  0  0  0
 11 22  1  0  0  0  0
 11 12  1  0  0  0  0
 11 14  1  0  0  0  0
 12 13  1  0  0  0  0
 12 30  1  0  0  0  0
 12 31  1  0  0  0  0
 13 32  1  0  0  0  0
 15 16  2  0  0  0  0
 15 17  1  0  0  0  0
 17 23  1  0  0  0  0
 17 18  1  0  0  0  0
 18 19  2  0  0  0  0
M  CHG  1   9   1
M  CHG  1  10  -1
M  END
> <s_m_source_file>
AV-unprocessed.smi

> <i_m_source_file_index>
39

> <i_lp_mmshare_version>
43012

> <i_f3d_flags>
0

> <s_epik_input>
Tz1jMVtuSF1jKD1PKW4oW2NIXWMxW0NIM10pW0NASF0yW0NIMl1bQ0BIXShOPVtOK109W04tXSlbQ0BIXShPMilbQ0gyXVtPSF0=

> <s_epik_cmdline>
J2VwaWtfcHl0aG9uJywgJy1waCcsICc3LjAnLCAnLXRuJywgJzgnLCAnLW1hJywgJzIwMCcsICctbWV0YWxfYmluZGluZycsICctaW1hZScsICc8aW5maWxlLm1hZT4nLCAnLW9tYWUnLCAnPG91dGZpbGUubWFlPic=

> <r_lp_tautomer_probability>
0.999537

> <r_epik_Ionization_Penalty>
0.00127512

> <r_epik_Ionization_Penalty_Charging>
0.00127507

> <r_epik_Ionization_Penalty_Neutral>
5.43433e-08

> <r_epik_State_Penalty>
0.000844892

> <r_epik_Charging_Adjusted_Penalty>
0.00211996

> <i_epik_Tot_Q>
0

> <i_epik_Tot_abs_Q>
2

> <r_epik_Metal_State_Penalty>
0.680636

> <b_epik_Metal_Only>
0

> <s_epik_Chemistry_Notes>
This compound contains an acetal/aminal-like group ( X-CH(R)-Y where X, Y are N, S, or O) that may be acid/base labile, releasing an aldehyde.

> <s_lp_Force_Field>
OPLS_2005

> <r_lp_Energy>
27.4259

> <b_lp_Chiralities_Consistent>
1

> <s_lp_Variant>
AV-unprocessed.smi:39-3

> <Gold.Version>
5.8.1

> <Gold.Id.Protein>
6NUR|6NUR_protein|mol2

> <Gold.PLP.Fitness>
41.6842

> <Gold.PLP.PLP>
-28.3569

> <Gold.PLP.part.hbond>
-4.3467

> <Gold.PLP.part.metal>
0.0000

> <Gold.PLP.part.buried>
-3.8267

> <Gold.PLP.part.nonpolar>
-21.9738

> <Gold.PLP.part.repulsive>
0.3107

> <Gold.PLP.ligand.clash>
0.0000

> <Gold.PLP.ligand.torsion>
0.6742

> <Gold.PLP.Chemscore.Hbond>
3.9588

> <Gold.PLP.Chemscore.CHOScore>
0.9278

> <Gold.PLP.Chemscore.Metal>
0.0000

> <Gold.Chemscore.Hbonds>
donor molecule, donor type, donor heavy atom, donor atom, acceptor molecule, acceptor atom, score
      L1  H    13    32       P1  7949  0.61
      P1  H  6896  6909       L1    10  0.48
      P1  H  7989  7998       L1    14  1.00
      P1  H 10752 10763       L1    13  0.96
      L1  C     3    27       P1  7957  0.53

> <Gold.PLP.Chemscore.Internal.Correction>
0.0161

> <Gold.Rescore>
     Score         DG    S(hbond)    S(metal)    S(lipo)     H(rot)  DE(clash)    DE(int)     intcor
     15.11     -16.08       3.66        0.00      46.34       2.75       0.01       0.95       ----

> <Gold.Chemscore.Fitness>
15.1149

> <Gold.Chemscore.DG>
-16.0769

> <Gold.Chemscore.ZeroCoef>
-5.4800

> <Gold.Chemscore.Hbond>
3.6590

> <Gold.Chemscore.Metal>
0.0000

> <Gold.Chemscore.Lipo>
46.3426

> <Gold.Chemscore.Internal_Hbond>
0.0000

> <Gold.Chemscore.DEClash>
0.0121

> <Gold.Chemscore.DEInternal>
0.9499

> <Gold.Chemscore.Rot>
2.7524

> <Gold.Chemscore.Internal.Correction>
   9.000000E+99

> <Gold.Chemscore.Hbonds>
donor molecule, donor type, donor heavy atom, donor atom, acceptor molecule, acceptor atom, score
      L1  H    13    32       P1  7949  0.18
      P1  H  6896  6909       L1    10  0.03
      P1  H  7989  7998       L1    14  0.81
      P1  H 10752 10763       L1    13  0.90

> <Gold.Chemscore.Hbond.Weighted>
-12.2210

> <Gold.Chemscore.Metal.Weighted>
-0.0000

> <Gold.Chemscore.Lipo.Weighted>
-5.4221

> <Gold.Chemscore.Internal_Hbond.Weighted>
0.0000

> <Gold.Chemscore.DEClash.Weighted>
0.0121

> <Gold.Chemscore.DEInternal.Weighted>
0.9499

> <Gold.Chemscore.Rot.Weighted>
7.0461

> <Gold.Chemscore.Internal.Correction.Weighted>
   9.000000E+99

> <Gold.Protein.RotatedTorsions>
[ 6907 6896 6895 6894 ] final   90.24 input  -60.11 | X-H torsion
[ 7974 7965 7964 7962 ] final   77.45 input  175.53 | X-H torsion
[ 8008 7997 7996 7995 ] final    2.70 input   59.86 | X-H torsion
[ 10167 10162 10161 10158 ] final -167.69 input  -65.29 | X-H torsion
[ 10718 10713 10712 10709 ] final -160.36 input   66.30 | X-H torsion
[ 10763 10752 10751 10750 ] final    6.16 input  -60.55 | X-H torsion
[ 11005 11000 10999 10996 ] final    9.60 input  -57.11 | X-H torsion

> <Gold.Protein.ActiveResidues>
 VAL166  LYS551  ARG553  GLY616  TRP617  ASP618  TYR619  PRO620  LYS621  CYS622 
 ASP623  PHE694  ASN695  SER759  ASP760  ASP761  ALA762  ILE779  LEU786  VAL792 
 PHE793  MET794  SER795  GLU796  ALA797  LYS798  CYS799  TRP800  GLU811  SER814 

> <Gold.Protein.RotatedAtoms>
  152.5443  134.1842  159.8647 H   0  0  0  0  0  0  0  0  0  0  0  0  # atno 6907 bound_to 6896
  151.1843  133.4699  159.2602 H   0  0  0  0  0  0  0  0  0  0  0  0  # atno 6908 bound_to 6896
  151.1147  135.0058  159.8566 H   0  0  0  0  0  0  0  0  0  0  0  0  # atno 6909 bound_to 6896
  145.6899  139.2549  143.1766 H   0  0  0  0  0  0  0  0  0  0  0  0  # atno 7974 bound_to 7965
  154.6948  140.2661  155.6777 H   0  0  0  0  0  0  0  0  0  0  0  0  # atno 8008 bound_to 7997
  156.2745  140.2784  156.1462 H   0  0  0  0  0  0  0  0  0  0  0  0  # atno 8009 bound_to 7997
  155.0846  140.0373  157.2640 H   0  0  0  0  0  0  0  0  0  0  0  0  # atno 8010 bound_to 7997
  139.6033  144.0965  152.1766 H   0  0  0  0  0  0  0  0  0  0  0  0  # atno 10167 bound_to 10162
  156.5810  130.8729  151.2864 H   0  0  0  0  0  0  0  0  0  0  0  0  # atno 10718 bound_to 10713
  153.2509  135.6913  153.7680 H   0  0  0  0  0  0  0  0  0  0  0  0  # atno 10763 bound_to 10752
  153.6775  135.3334  155.3170 H   0  0  0  0  0  0  0  0  0  0  0  0  # atno 10764 bound_to 10752
  154.8394  135.4514  154.1466 H   0  0  0  0  0  0  0  0  0  0  0  0  # atno 10765 bound_to 10752
  140.5239  134.0532  155.7853 H   0  0  0  0  0  0  0  0  0  0  0  0  # atno 11005 bound_to 11000
  146.0891  140.7676  142.9604 LP  0  0  0  0  0  0  0  0  0  0  0  0  # atno 17320 bound_to 7965
  144.7000  140.3609  143.7164 LP  0  0  0  0  0  0  0  0  0  0  0  0  # atno 17321 bound_to 7965
  140.0567  144.5889  150.7294 LP  0  0  0  0  0  0  0  0  0  0  0  0  # atno 17342 bound_to 10162
  140.7266  143.2643  151.4099 LP  0  0  0  0  0  0  0  0  0  0  0  0  # atno 17343 bound_to 10162
  157.7326  130.9718  150.1938 LP  0  0  0  0  0  0  0  0  0  0  0  0  # atno 17370 bound_to 10713
  156.2631  130.3713  149.8109 LP  0  0  0  0  0  0  0  0  0  0  0  0  # atno 17371 bound_to 10713
  141.1319  133.9287  157.2517 LP  0  0  0  0  0  0  0  0  0  0  0  0  # atno 17394 bound_to 11000
  139.9591  135.0158  156.9210 LP  0  0  0  0  0  0  0  0  0  0  0  0  # atno 17395 bound_to 11000

$$$$
