#       Name:                AV-unprocessed.smi:384
#       Creating user name   scv26
#       Creation time:       Thu Mar 26 22:41:02 2020


#       File generated by GOLD software.
#

@<TRIPOS>MOLECULE
AV-unprocessed.smi:384
    40    41     1
SMALL
NO_CHARGES


@<TRIPOS>ATOM
      1 ****        -2.9857  -1.8206  -0.1483 C.3            1 S1                 0.0000
      2 ****        -2.4023  -0.9430   0.9732 C.3            1 S1                 0.0000
      3 ****        -0.8613  -0.9454   1.0204 C.3            1 S1                 0.0000
      4 ****        -0.3104  -0.1438  -0.0642 N.3            1 S1                 0.0000
      5 ****         1.0874  -0.1992  -0.1288 C.ar           1 S1                 0.0000
      6 ****         1.9360   0.3565   0.8559 C.ar           1 S1                 0.0000
      7 ****         3.3337   0.2525   0.7022 C.ar           1 S1                 0.0000
      8 ****         3.8667  -0.4047  -0.4313 C.ar           1 S1                 0.0000
      9 ****         5.3511  -0.5291  -0.6251 C.2            1 S1                 0.0000
     10 ****         5.7762  -1.1158  -1.6448 O.co2          1 S1                 0.0000
     11 ****         6.1132  -0.0418   0.2389 O.co2          1 S1                -1.0000
     12 ****         2.9664  -0.9421  -1.3794 C.ar           1 S1                 0.0000
     13 ****         1.6331  -0.8218  -1.1958 N.pl3          1 S1                 1.0000
     14 ****        -0.8350   1.2143  -0.0735 C.3            1 S1                 0.0000
     15 ****        -2.3706   1.1825  -0.1628 C.3            1 S1                 0.0000
     16 ****        -2.9797   2.5852  -0.0687 C.3            1 S1                 0.0000
     17 ****        -2.8892   0.4006   0.9139 O.3            1 S1                 0.0000
     18 ****        -2.7005  -2.8639  -0.0105 H              1 S1                 0.0000
     19 ****        -2.6380  -1.5186  -1.1357 H              1 S1                 0.0000
     20 ****        -4.0750  -1.7753  -0.1488 H              1 S1                 0.0000
     21 ****        -2.7633  -1.3561   1.9155 H              1 S1                 0.0000
     22 ****        -0.5279  -0.5342   1.9744 H              1 S1                 0.0000
     23 ****        -0.4810  -1.9663   0.9645 H              1 S1                 0.0000
     24 ****         1.5278   0.8576   1.7214 H              1 S1                 0.0000
     25 ****         3.9835   0.6776   1.4533 H              1 S1                 0.0000
     26 ****         3.2684  -1.4620  -2.2774 H              1 S1                 0.0000
     27 ****        -0.5257   1.7360   0.8332 H              1 S1                 0.0000
     28 ****        -0.4207   1.7637  -0.9201 H              1 S1                 0.0000
     29 ****        -2.6736   0.7458  -1.1148 H              1 S1                 0.0000
     30 ****        -2.6197   3.2246  -0.8752 H              1 S1                 0.0000
     31 ****        -2.7265   3.0643   0.8775 H              1 S1                 0.0000
     32 ****        -4.0668   2.5426  -0.1395 H              1 S1                 0.0000
     33 ****         1.0102  -1.2190  -1.8993 H              1 S1                 0.0000
     34 ****        -0.6291  -0.5648  -0.9134 LP             1 S1                 0.0000
     35 ****         6.7606  -1.2096  -1.7938 LP             1 S1                 0.0000
     36 ****         5.1316  -1.4911  -2.3110 LP             1 S1                 0.0000
     37 ****         7.1045  -0.1135   0.1288 LP             1 S1                 0.0000
     38 ****         5.7311   0.4194   1.0397 LP             1 S1                 0.0000
     39 ****        -2.6496   0.8557   1.7715 LP             1 S1                 0.0000
     40 ****        -3.8843   0.3663   0.8214 LP             1 S1                 0.0000
@<TRIPOS>BOND
    1    1    2 1     
    2    1   18 1     
    3    1   19 1     
    4    1   20 1     
    5    2   17 1     
    6    2    3 1     
    7    2   21 1     
    8    3    4 1     
    9    3   22 1     
   10    3   23 1     
   11    4    5 1     
   12    4   14 1     
   13    5   13 ar    
   14    5    6 ar    
   15    6    7 ar    
   16    6   24 1     
   17    7    8 ar    
   18    7   25 1     
   19    8    9 1     
   20    8   12 ar    
   21    9   10 ar    
   22    9   11 ar    
   23   12   13 ar    
   24   12   26 1     
   25   13   33 1     
   26   14   15 1     
   27   14   27 1     
   28   14   28 1     
   29   15   16 1     
   30   15   17 1     
   31   15   29 1     
   32   16   30 1     
   33   16   31 1     
   34   16   32 1     
   35    4   34 1     
   36   10   35 1     
   37   10   36 1     
   38   11   37 1     
   39   11   38 1     
   40   17   39 1     
   41   17   40 1     
@<TRIPOS>SUBSTRUCTURE
      1 S1             1
@<TRIPOS>SET
LONE_PAIRS      STATIC     ATOMS    <user>   **** ""
7 34 35 36 37 38 39 40
DONOR_HYDROGENS      STATIC     ATOMS    <user>   **** ""
1 33
ATOM$BLUE        STATIC     ATOMS    COLORGROUP SYSTEM
7 34 35 36 37 38 39 40
ATOM$RED        STATIC     ATOMS    COLORGROUP SYSTEM
1 33
