AV-unprocessed.smi:1701|AV-procd|sdf|6823|dock6
  -GOLD-   22720 8 03D 1   1.00000     0.00000
 Structure written by MMmdl.
 55 57  0  0  0  0  0  0  0  0  3 V2000
  152.1411  144.7108  158.4864 C   0  0  0  0  0  0  0  0  0  0  0  0
  151.6569  143.7210  157.4154 C   0  0  0  0  0  0  0  0  0  0  0  0
  151.4072  142.3823  157.9492 N   0  0  0  0  0  0  0  0  0  0  0  0
  152.4246  141.8225  158.8420 C   0  0  0  0  0  0  0  0  0  0  0  0
  152.2782  142.2992  160.2961 C   0  0  0  0  0  0  0  0  0  0  0  0
  150.7181  141.5116  157.0748 C   0  0  0  0  0  0  0  0  0  0  0  0
  150.9377  140.1142  157.0761 C   0  0  0  0  0  0  0  0  0  0  0  0
  150.2085  139.2885  156.1968 C   0  0  0  0  0  0  0  0  0  0  0  0
  149.2582  139.8565  155.3226 C   0  0  0  0  0  0  0  0  0  0  0  0
  148.5551  138.9730  154.4576 N   0  0  0  0  0  0  0  0  0  0  0  0
  147.3361  139.1131  153.8984 C   0  0  0  0  0  0  0  0  0  0  0  0
  146.6006  140.0851  154.0483 O   0  0  0  0  0  0  0  0  0  0  0  0
  146.9583  138.0721  153.1351 N   0  0  0  0  0  0  0  0  0  0  0  0
  145.7090  137.9029  152.3919 C   0  0  2  0  0  0  0  0  0  0  0  0
  144.4631  138.4411  153.1236 C   0  0  0  0  0  0  0  0  0  0  0  0
  143.3438  137.4211  152.8329 C   0  0  0  0  0  0  0  0  0  0  0  0
  143.9353  136.4520  151.8911 N   0  3  2  0  0  0  0  0  0  0  0  0
  143.3323  135.1022  151.8427 C   0  0  0  0  0  0  0  0  0  0  0  0
  144.0364  134.2703  150.7515 C   0  0  0  0  0  0  0  0  0  0  0  0
  145.5672  134.2546  150.9414 C   0  0  0  0  0  0  0  0  0  0  0  0
  146.1258  135.6842  151.0785 C   0  0  0  0  0  0  0  0  0  0  0  0
  145.3737  136.4243  152.1966 C   0  0  1  0  0  0  0  0  0  0  0  0
  149.0800  141.2610  155.3537 C   0  0  0  0  0  0  0  0  0  0  0  0
  149.8013  142.0140  156.2117 N   0  3  0  0  0  0  0  0  0  0  0  0
  152.2942  145.6997  158.0539 H   0  0  0  0  0  0  0  0  0  0  0  0
  153.0880  144.3935  158.9244 H   0  0  0  0  0  0  0  0  0  0  0  0
  151.4153  144.8127  159.2938 H   0  0  0  0  0  0  0  0  0  0  0  0
  150.7316  144.0943  156.9754 H   0  0  0  0  0  0  0  0  0  0  0  0
  152.3722  143.6846  156.5948 H   0  0  0  0  0  0  0  0  0  0  0  0
  152.3981  140.7330  158.7976 H   0  0  0  0  0  0  0  0  0  0  0  0
  153.4116  142.1125  158.4800 H   0  0  0  0  0  0  0  0  0  0  0  0
  153.0741  141.8861  160.9161 H   0  0  0  0  0  0  0  0  0  0  0  0
  151.3301  141.9954  160.7390 H   0  0  0  0  0  0  0  0  0  0  0  0
  152.3429  143.3859  160.3587 H   0  0  0  0  0  0  0  0  0  0  0  0
  151.6668  139.6658  157.7348 H   0  0  0  0  0  0  0  0  0  0  0  0
  150.3813  138.2220  156.1989 H   0  0  0  0  0  0  0  0  0  0  0  0
  149.0265  138.1027  154.2603 H   0  0  0  0  0  0  0  0  0  0  0  0
  147.6221  137.3148  153.0557 H   0  0  0  0  0  0  0  0  0  0  0  0
  145.7859  138.3750  151.4102 H   0  0  0  0  0  0  0  0  0  0  0  0
  144.6302  138.5078  154.1997 H   0  0  0  0  0  0  0  0  0  0  0  0
  144.2023  139.4394  152.7706 H   0  0  0  0  0  0  0  0  0  0  0  0
  143.0508  136.9163  153.7548 H   0  0  0  0  0  0  0  0  0  0  0  0
  142.4557  137.8864  152.4044 H   0  0  0  0  0  0  0  0  0  0  0  0
  143.4276  134.6163  152.8149 H   0  0  0  0  0  0  0  0  0  0  0  0
  142.2669  135.1841  151.6251 H   0  0  0  0  0  0  0  0  0  0  0  0
  143.6488  133.2512  150.7502 H   0  0  0  0  0  0  0  0  0  0  0  0
  143.8014  134.6890  149.7721 H   0  0  0  0  0  0  0  0  0  0  0  0
  145.8147  133.6814  151.8357 H   0  0  0  0  0  0  0  0  0  0  0  0
  146.0442  133.7428  150.1050 H   0  0  0  0  0  0  0  0  0  0  0  0
  147.1934  135.6501  151.2980 H   0  0  0  0  0  0  0  0  0  0  0  0
  146.0157  136.2170  150.1329 H   0  0  0  0  0  0  0  0  0  0  0  0
  145.5166  135.8953  153.1421 H   0  0  0  0  0  0  0  0  0  0  0  0
  148.3995  141.8227  154.7327 H   0  0  0  0  0  0  0  0  0  0  0  0
  143.8459  136.8543  150.9689 H   0  0  0  0  0  0  0  0  0  0  0  0
  149.6441  143.0221  156.2108 H   0  0  0  0  0  0  0  0  0  0  0  0
  1  2  1  0  0  0  0
  1 25  1  0  0  0  0
  1 26  1  0  0  0  0
  1 27  1  0  0  0  0
  2  3  1  0  0  0  0
  2 28  1  0  0  0  0
  2 29  1  0  0  0  0
  3  4  1  0  0  0  0
  3  6  1  0  0  0  0
  4  5  1  0  0  0  0
  4 30  1  0  0  0  0
  4 31  1  0  0  0  0
  5 32  1  0  0  0  0
  5 33  1  0  0  0  0
  5 34  1  0  0  0  0
  6 24  1  0  0  0  0
  6  7  2  0  0  0  0
  7  8  1  0  0  0  0
  7 35  1  0  0  0  0
  8  9  2  0  0  0  0
  8 36  1  0  0  0  0
  9 10  1  0  0  0  0
  9 23  1  0  0  0  0
 10 11  1  0  0  0  0
 10 37  1  0  0  0  0
 11 12  2  0  0  0  0
 11 13  1  0  0  0  0
 13 14  1  0  0  0  0
 13 38  1  0  0  0  0
 14 22  1  0  0  0  0
 14 15  1  0  0  0  0
 14 39  1  0  0  0  0
 15 16  1  0  0  0  0
 15 40  1  0  0  0  0
 15 41  1  0  0  0  0
 16 17  1  0  0  0  0
 16 42  1  0  0  0  0
 16 43  1  0  0  0  0
 17 22  1  0  0  0  0
 17 18  1  0  0  0  0
 17 54  1  0  0  0  0
 18 19  1  0  0  0  0
 18 44  1  0  0  0  0
 18 45  1  0  0  0  0
 19 20  1  0  0  0  0
 19 46  1  0  0  0  0
 19 47  1  0  0  0  0
 20 21  1  0  0  0  0
 20 48  1  0  0  0  0
 20 49  1  0  0  0  0
 21 22  1  0  0  0  0
 21 50  1  0  0  0  0
 21 51  1  0  0  0  0
 22 52  1  0  0  0  0
 23 24  2  0  0  0  0
 23 53  1  0  0  0  0
 24 55  1  0  0  0  0
M  CHG  1  17   1
M  CHG  1  24   1
M  END
> <s_m_source_file>
AV-unprocessed.smi

> <i_m_source_file_index>
1701

> <i_lp_mmshare_version>
43012

> <i_f3d_flags>
0

> <s_epik_input>
W0NIM11bQ0gyXU4oW0NIMl1bQ0gzXSljMVtjSF1bY0hdYyhbY0hdbjEpW05IXUMoPU8pW05IXVtDQEhdKFtDSDJdW0NIMl0yKVtDQEBIXShOMjMpW0NIMl1bQ0gyXVtDSDJdW0NIMl0z

> <s_epik_cmdline>
J2VwaWtfcHl0aG9uJywgJy1waCcsICc3LjAnLCAnLXRuJywgJzgnLCAnLW1hJywgJzIwMCcsICctbWV0YWxfYmluZGluZycsICctaW1hZScsICc8aW5maWxlLm1hZT4nLCAnLW9tYWUnLCAnPG91dGZpbGUubWFlPic=

> <r_lp_tautomer_probability>
0.999994

> <r_epik_Ionization_Penalty>
0.302862

> <r_epik_Ionization_Penalty_Charging>
0.302842

> <r_epik_Ionization_Penalty_Neutral>
1.95166e-05

> <r_epik_State_Penalty>
0.019791

> <r_epik_Charging_Adjusted_Penalty>
0.322633

> <i_epik_Tot_Q>
2

> <i_epik_Tot_abs_Q>
2

> <r_epik_Metal_State_Penalty>
0.0536763

> <b_epik_Metal_Only>
0

> <s_lp_Force_Field>
OPLS_2005

> <r_lp_Energy>
62.5639

> <b_lp_Chiralities_Consistent>
1

> <s_lp_Variant>
AV-unprocessed.smi:1701-3

> <Gold.Version>
5.8.1

> <Gold.Id.Protein>
6NUR|6NUR_protein|mol2

> <Gold.PLP.Fitness>
45.9789

> <Gold.PLP.PLP>
-35.8376

> <Gold.PLP.part.hbond>
-2.9736

> <Gold.PLP.part.metal>
0.0000

> <Gold.PLP.part.buried>
2.5262

> <Gold.PLP.part.nonpolar>
-36.0648

> <Gold.PLP.part.repulsive>
0.2978

> <Gold.PLP.ligand.clash>
0.0000

> <Gold.PLP.ligand.torsion>
1.0767

> <Gold.PLP.Chemscore.Hbond>
3.7963

> <Gold.PLP.Chemscore.CHOScore>
0.0000

> <Gold.PLP.Chemscore.Metal>
0.0000

> <Gold.Chemscore.Hbonds>
donor molecule, donor type, donor heavy atom, donor atom, acceptor molecule, acceptor atom, score
      L1  H    13    38       P1  7948  0.83
      L1  H    17    54       P1 10171  0.84
      L1  H    24    55       P1  8028  2.00

> <Gold.PLP.Chemscore.Internal.Correction>
0.9060

> <Gold.Rescore>
     Score         DG    S(hbond)    S(metal)    S(lipo)     H(rot)  DE(clash)    DE(int)     intcor
     18.99     -24.51       2.84        0.00     110.00       1.30       2.49       3.03       ----

> <Gold.Chemscore.Fitness>
18.9947

> <Gold.Chemscore.DG>
-24.5149

> <Gold.Chemscore.ZeroCoef>
-5.4800

> <Gold.Chemscore.Hbond>
2.8437

> <Gold.Chemscore.Metal>
0.0000

> <Gold.Chemscore.Lipo>
109.9991

> <Gold.Chemscore.Internal_Hbond>
0.0000

> <Gold.Chemscore.DEClash>
2.4857

> <Gold.Chemscore.DEInternal>
3.0345

> <Gold.Chemscore.Rot>
1.3020

> <Gold.Chemscore.Internal.Correction>
   9.000000E+99

> <Gold.Chemscore.Hbonds>
donor molecule, donor type, donor heavy atom, donor atom, acceptor molecule, acceptor atom, score
      L1  H    13    38       P1  7948  0.77
      L1  H    17    54       P1 10171  0.80
      L1  H    24    55       P1  8028  0.98

> <Gold.Chemscore.Hbond.Weighted>
-9.4980

> <Gold.Chemscore.Metal.Weighted>
-0.0000

> <Gold.Chemscore.Lipo.Weighted>
-12.8699

> <Gold.Chemscore.Internal_Hbond.Weighted>
0.0000

> <Gold.Chemscore.DEClash.Weighted>
2.4857

> <Gold.Chemscore.DEInternal.Weighted>
3.0345

> <Gold.Chemscore.Rot.Weighted>
3.3330

> <Gold.Chemscore.Internal.Correction.Weighted>
   9.000000E+99

> <Gold.Protein.RotatedTorsions>
[ 6907 6896 6895 6894 ] final -133.24 input  -60.11 | X-H torsion
[ 7974 7965 7964 7962 ] final   67.86 input  175.53 | X-H torsion
[ 8008 7997 7996 7995 ] final  -33.64 input   59.86 | X-H torsion
[ 10167 10162 10161 10158 ] final   60.51 input  -65.29 | X-H torsion
[ 10718 10713 10712 10709 ] final -119.09 input   66.30 | X-H torsion
[ 10763 10752 10751 10750 ] final   13.70 input  -60.55 | X-H torsion
[ 11005 11000 10999 10996 ] final  -55.91 input  -57.11 | X-H torsion

> <Gold.Protein.ActiveResidues>
 VAL166  LYS551  ARG553  GLY616  TRP617  ASP618  TYR619  PRO620  LYS621  CYS622 
 ASP623  PHE694  ASN695  SER759  ASP760  ASP761  ALA762  ILE779  LEU786  VAL792 
 PHE793  MET794  SER795  GLU796  ALA797  LYS798  CYS799  TRP800  GLU811  SER814 

> <Gold.Protein.RotatedAtoms>
  150.9717  133.6337  159.2736 H   0  0  0  0  0  0  0  0  0  0  0  0  # atno 6907 bound_to 6896
  151.3623  135.0905  159.9448 H   0  0  0  0  0  0  0  0  0  0  0  0  # atno 6908 bound_to 6896
  152.5185  133.9289  159.7625 H   0  0  0  0  0  0  0  0  0  0  0  0  # atno 6909 bound_to 6896
  145.8096  139.3025  143.1107 H   0  0  0  0  0  0  0  0  0  0  0  0  # atno 7974 bound_to 7965
  154.4143  140.1705  156.1920 H   0  0  0  0  0  0  0  0  0  0  0  0  # atno 8008 bound_to 7997
  155.9595  140.3394  155.6454 H   0  0  0  0  0  0  0  0  0  0  0  0  # atno 8009 bound_to 7997
  155.6767  140.0718  157.2491 H   0  0  0  0  0  0  0  0  0  0  0  0  # atno 8010 bound_to 7997
  140.1648  144.4335  150.6691 H   0  0  0  0  0  0  0  0  0  0  0  0  # atno 10167 bound_to 10162
  156.1154  130.6282  150.9372 H   0  0  0  0  0  0  0  0  0  0  0  0  # atno 10718 bound_to 10713
  153.1695  135.6810  153.8628 H   0  0  0  0  0  0  0  0  0  0  0  0  # atno 10763 bound_to 10752
  153.7997  135.3157  155.3390 H   0  0  0  0  0  0  0  0  0  0  0  0  # atno 10764 bound_to 10752
  154.7988  135.4790  154.0317 H   0  0  0  0  0  0  0  0  0  0  0  0  # atno 10765 bound_to 10752
  141.1096  133.6611  156.4539 H   0  0  0  0  0  0  0  0  0  0  0  0  # atno 11005 bound_to 11000
  145.9792  140.8697  143.0123 LP  0  0  0  0  0  0  0  0  0  0  0  0  # atno 17320 bound_to 7965
  144.6759  140.2055  143.7382 LP  0  0  0  0  0  0  0  0  0  0  0  0  # atno 17321 bound_to 7965
  140.6620  143.2255  151.5833 LP  0  0  0  0  0  0  0  0  0  0  0  0  # atno 17342 bound_to 10162
  139.5364  144.2768  152.1261 LP  0  0  0  0  0  0  0  0  0  0  0  0  # atno 17343 bound_to 10162
  157.6337  131.0918  150.8390 LP  0  0  0  0  0  0  0  0  0  0  0  0  # atno 17370 bound_to 10713
  156.8494  130.5075  149.5313 LP  0  0  0  0  0  0  0  0  0  0  0  0  # atno 17371 bound_to 10713
  140.4812  134.6663  157.5171 LP  0  0  0  0  0  0  0  0  0  0  0  0  # atno 17394 bound_to 11000
  139.9982  134.6877  155.9574 LP  0  0  0  0  0  0  0  0  0  0  0  0  # atno 17395 bound_to 11000

$$$$
