AV-unprocessed.smi:2843|AV-procd|sdf|10938|dock4
  -GOLD-   2272015383D 1   1.00000     0.00000
 Structure written by MMmdl.
 28 28  0  0  0  0  0  0  0  0  2 V2000
  153.2940  142.7982  161.5188 C   0  0  0  0  0  0  0  0  0  0  0  0
  152.7435  142.7733  160.1341 C   0  0  0  0  0  0  0  0  0  0  0  0
  152.1190  141.8060  159.4001 C   0  0  0  0  0  0  0  0  0  0  0  0
  151.8412  142.4486  158.1617 C   0  0  0  0  0  0  0  0  0  0  0  0
  151.1592  141.8834  156.9458 C   0  0  0  0  0  0  0  0  0  0  0  0
  150.6889  140.1179  157.2212 S   0  0  0  0  0  0  0  0  0  0  0  0
  151.9276  139.4326  157.6246 O   0  0  0  0  0  0  0  0  0  0  0  0
  149.5809  140.1251  158.1911 O   0  0  0  0  0  0  0  0  0  0  0  0
  150.2149  139.6940  155.7301 N   0  5  0  0  0  0  0  0  0  0  0  0
  149.2991  140.5525  154.9993 C   0  0  0  0  0  0  0  0  0  0  0  0
  148.0308  139.7661  154.6092 C   0  0  0  0  0  0  0  0  0  0  0  0
  147.1816  140.4136  153.4942 C   0  0  0  0  0  0  0  0  0  0  0  0
  146.4799  139.4110  152.7886 O   0  0  0  0  0  0  0  0  0  0  0  0
  152.2824  143.6968  158.1496 N   0  0  0  0  0  0  0  0  0  0  0  0
  152.8544  143.9151  159.4077 O   0  0  0  0  0  0  0  0  0  0  0  0
  153.7277  141.8329  161.7802 H   0  0  0  0  0  0  0  0  0  0  0  0
  152.5087  143.0230  162.2404 H   0  0  0  0  0  0  0  0  0  0  0  0
  154.0721  143.5555  161.6178 H   0  0  0  0  0  0  0  0  0  0  0  0
  151.8847  140.7966  159.7041 H   0  0  0  0  0  0  0  0  0  0  0  0
  150.2649  142.4458  156.6765 H   0  0  0  0  0  0  0  0  0  0  0  0
  151.8334  141.9137  156.0907 H   0  0  0  0  0  0  0  0  0  0  0  0
  149.0061  141.4153  155.5982 H   0  0  0  0  0  0  0  0  0  0  0  0
  149.7518  140.9602  154.0948 H   0  0  0  0  0  0  0  0  0  0  0  0
  148.3056  138.7504  154.3200 H   0  0  0  0  0  0  0  0  0  0  0  0
  147.4099  139.6631  155.4999 H   0  0  0  0  0  0  0  0  0  0  0  0
  146.4536  141.1185  153.9001 H   0  0  0  0  0  0  0  0  0  0  0  0
  147.8021  140.9594  152.7808 H   0  0  0  0  0  0  0  0  0  0  0  0
  145.5748  139.6732  152.7192 H   0  0  0  0  0  0  0  0  0  0  0  0
  1  2  1  0  0  0  0
  1 16  1  0  0  0  0
  1 17  1  0  0  0  0
  1 18  1  0  0  0  0
  2 15  1  0  0  0  0
  2  3  2  0  0  0  0
  3  4  1  0  0  0  0
  3 19  1  0  0  0  0
  4  5  1  0  0  0  0
  4 14  2  0  0  0  0
  5  6  1  0  0  0  0
  5 20  1  0  0  0  0
  5 21  1  0  0  0  0
  6  7  2  0  0  0  0
  6  8  2  0  0  0  0
  6  9  1  0  0  0  0
  9 10  1  0  0  0  0
 10 11  1  0  0  0  0
 10 22  1  0  0  0  0
 10 23  1  0  0  0  0
 11 12  1  0  0  0  0
 11 24  1  0  0  0  0
 11 25  1  0  0  0  0
 12 13  1  0  0  0  0
 12 26  1  0  0  0  0
 12 27  1  0  0  0  0
 13 28  1  0  0  0  0
 14 15  1  0  0  0  0
M  CHG  1   9  -1
M  END
> <s_m_source_file>
AV-unprocessed.smi

> <i_m_source_file_index>
2843

> <i_lp_mmshare_version>
43012

> <i_f3d_flags>
0

> <s_epik_input>
W0NIM11jMVtjSF1jKG5vMSlbQ0gyXVMoPU8pKD1PKVtOSF1bQ0gyXVtDSDJdW0NIMl1bT0hd

> <s_epik_cmdline>
J2VwaWtfcHl0aG9uJywgJy1waCcsICc3LjAnLCAnLXRuJywgJzgnLCAnLW1hJywgJzIwMCcsICctbWV0YWxfYmluZGluZycsICctaW1hZScsICc8aW5maWxlLm1hZT4nLCAnLW9tYWUnLCAnPG91dGZpbGUubWFlPic=

> <r_lp_tautomer_probability>
1

> <r_epik_Ionization_Penalty>
4.89444

> <r_epik_Ionization_Penalty_Charging>
4.89444

> <r_epik_Ionization_Penalty_Neutral>
8.7324e-07

> <r_epik_State_Penalty>
4.89429

> <r_epik_Charging_Adjusted_Penalty>
9.78873

> <i_epik_Tot_Q>
-1

> <i_epik_Tot_abs_Q>
1

> <r_epik_Metal_State_Penalty>
1.04833

> <b_epik_Metal_Only>
1

> <s_lp_Force_Field>
OPLS_2005

> <r_lp_Energy>
1.63452

> <b_lp_Chiralities_Consistent>
1

> <s_lp_Variant>
AV-unprocessed.smi:2843-2

> <Gold.Version>
5.8.1

> <Gold.Id.Protein>
6NUR|6NUR_protein|mol2

> <Gold.PLP.Fitness>
39.2114

> <Gold.PLP.PLP>
-31.0543

> <Gold.PLP.part.hbond>
-3.6080

> <Gold.PLP.part.metal>
0.0000

> <Gold.PLP.part.buried>
-4.6407

> <Gold.PLP.part.nonpolar>
-22.5107

> <Gold.PLP.part.repulsive>
0.1443

> <Gold.PLP.ligand.clash>
0.0000

> <Gold.PLP.ligand.torsion>
0.9105

> <Gold.PLP.Chemscore.Hbond>
2.9833

> <Gold.PLP.Chemscore.CHOScore>
0.0000

> <Gold.PLP.Chemscore.Metal>
0.0000

> <Gold.Chemscore.Hbonds>
donor molecule, donor type, donor heavy atom, donor atom, acceptor molecule, acceptor atom, score
      L1  H    13    28       P1 10175  0.91

> <Gold.PLP.Chemscore.Internal.Correction>
1.0282

> <Gold.Rescore>
     Score         DG    S(hbond)    S(metal)    S(lipo)     H(rot)  DE(clash)    DE(int)     intcor
     14.20     -15.80       2.77        0.00      68.03       2.69       0.05       1.54       ----

> <Gold.Chemscore.Fitness>
14.2041

> <Gold.Chemscore.DG>
-15.7970

> <Gold.Chemscore.ZeroCoef>
-5.4800

> <Gold.Chemscore.Hbond>
2.7700

> <Gold.Chemscore.Metal>
0.0000

> <Gold.Chemscore.Lipo>
68.0312

> <Gold.Chemscore.Internal_Hbond>
0.0000

> <Gold.Chemscore.DEClash>
0.0545

> <Gold.Chemscore.DEInternal>
1.5385

> <Gold.Chemscore.Rot>
2.6932

> <Gold.Chemscore.Internal.Correction>
   9.000000E+99

> <Gold.Chemscore.Hbonds>
donor molecule, donor type, donor heavy atom, donor atom, acceptor molecule, acceptor atom, score
      L1  H    13    28       P1 10175  0.87

> <Gold.Chemscore.Hbond.Weighted>
-9.2518

> <Gold.Chemscore.Metal.Weighted>
-0.0000

> <Gold.Chemscore.Lipo.Weighted>
-7.9597

> <Gold.Chemscore.Internal_Hbond.Weighted>
0.0000

> <Gold.Chemscore.DEClash.Weighted>
0.0545

> <Gold.Chemscore.DEInternal.Weighted>
1.5385

> <Gold.Chemscore.Rot.Weighted>
6.8945

> <Gold.Chemscore.Internal.Correction.Weighted>
   9.000000E+99

> <Gold.Protein.RotatedTorsions>
[ 6907 6896 6895 6894 ] final -159.17 input  -60.11 | X-H torsion
[ 7974 7965 7964 7962 ] final    5.79 input  175.53 | X-H torsion
[ 8008 7997 7996 7995 ] final -172.18 input   59.86 | X-H torsion
[ 10167 10162 10161 10158 ] final   33.54 input  -65.29 | X-H torsion
[ 10718 10713 10712 10709 ] final   58.36 input   66.30 | X-H torsion
[ 10763 10752 10751 10750 ] final  -17.22 input  -60.55 | X-H torsion
[ 11005 11000 10999 10996 ] final -134.85 input  -57.11 | X-H torsion

> <Gold.Protein.ActiveResidues>
 VAL166  LYS551  ARG553  GLY616  TRP617  ASP618  TYR619  PRO620  LYS621  CYS622 
 ASP623  PHE694  ASN695  SER759  ASP760  ASP761  ALA762  ILE779  LEU786  VAL792 
 PHE793  MET794  SER795  GLU796  ALA797  LYS798  CYS799  TRP800  GLU811  SER814 

> <Gold.Protein.RotatedAtoms>
  151.3294  133.4007  159.2661 H   0  0  0  0  0  0  0  0  0  0  0  0  # atno 6907 bound_to 6896
  150.9968  134.9290  159.7941 H   0  0  0  0  0  0  0  0  0  0  0  0  # atno 6908 bound_to 6896
  152.5263  134.3259  159.9218 H   0  0  0  0  0  0  0  0  0  0  0  0  # atno 6909 bound_to 6896
  146.2438  140.0331  142.8388 H   0  0  0  0  0  0  0  0  0  0  0  0  # atno 7974 bound_to 7965
  155.9412  140.1109  157.1054 H   0  0  0  0  0  0  0  0  0  0  0  0  # atno 8008 bound_to 7997
  154.4090  140.1218  156.4996 H   0  0  0  0  0  0  0  0  0  0  0  0  # atno 8009 bound_to 7997
  155.6959  140.3472  155.4915 H   0  0  0  0  0  0  0  0  0  0  0  0  # atno 8010 bound_to 7997
  140.4398  144.1204  150.6172 H   0  0  0  0  0  0  0  0  0  0  0  0  # atno 10167 bound_to 10162
  157.5590  130.8821  149.9081 H   0  0  0  0  0  0  0  0  0  0  0  0  # atno 10718 bound_to 10713
  153.5704  135.7007  153.5507 H   0  0  0  0  0  0  0  0  0  0  0  0  # atno 10763 bound_to 10752
  153.3349  135.4037  155.1525 H   0  0  0  0  0  0  0  0  0  0  0  0  # atno 10764 bound_to 10752
  154.8634  135.3728  154.5227 H   0  0  0  0  0  0  0  0  0  0  0  0  # atno 10765 bound_to 10752
  140.8952  134.1761  157.4500 H   0  0  0  0  0  0  0  0  0  0  0  0  # atno 11005 bound_to 11000
  145.1137  140.9420  143.4641 LP  0  0  0  0  0  0  0  0  0  0  0  0  # atno 17320 bound_to 7965
  145.0551  139.3150  143.5909 LP  0  0  0  0  0  0  0  0  0  0  0  0  # atno 17321 bound_to 7965
  140.4331  143.2559  151.9570 LP  0  0  0  0  0  0  0  0  0  0  0  0  # atno 17342 bound_to 10162
  139.4789  144.5725  151.8065 LP  0  0  0  0  0  0  0  0  0  0  0  0  # atno 17343 bound_to 10162
  156.0645  130.3694  150.0909 LP  0  0  0  0  0  0  0  0  0  0  0  0  # atno 17370 bound_to 10713
  156.9075  130.9640  151.3568 LP  0  0  0  0  0  0  0  0  0  0  0  0  # atno 17371 bound_to 10713
  139.8734  134.9875  156.5372 LP  0  0  0  0  0  0  0  0  0  0  0  0  # atno 17394 bound_to 11000
  140.8298  133.8288  155.8973 LP  0  0  0  0  0  0  0  0  0  0  0  0  # atno 17395 bound_to 11000

$$$$
