#       Name:                AV-unprocessed.smi:2226
#       Creating user name   scv26
#       Creation time:       Fri Mar 27 12:21:09 2020


#       File generated by GOLD software.
#

@<TRIPOS>MOLECULE
AV-unprocessed.smi:2226
    45    47     1
SMALL
NO_CHARGES


@<TRIPOS>ATOM
      1 ****        -3.2809  -2.8485  -0.4028 C.3            1 S1                 0.0000
      2 ****        -2.6008  -1.5320  -0.3608 N.4            1 S1                 1.0000
      3 ****        -1.8071  -1.2030  -1.5689 C.3            1 S1                 0.0000
      4 ****        -0.5353  -2.0823  -1.6682 C.3            1 S1                 0.0000
      5 ****         0.3215  -2.0994  -0.3892 C.3            1 S1                 0.0000
      6 ****        -0.5278  -2.1729   0.8920 C.3            1 S1                 0.0000
      7 ****        -1.7964  -1.2849   0.8596 C.3            1 S1                 0.0000
      8 ****        -1.5377   0.2335   0.9965 C.3            1 S1                 0.0000
      9 ****        -1.0469   0.9562  -0.2895 C.3            1 S1                 0.0000
     10 ****         0.3993   1.1633  -0.3205 N.am           1 S1                 0.0000
     11 ****         1.0820   2.0400   0.4310 C.2            1 S1                 0.0000
     12 ****         0.5529   2.7792   1.2614 O.2            1 S1                 0.0000
     13 ****         2.3961   1.9979   0.1558 N.am           1 S1                 0.0000
     14 ****         3.4284   2.7572   0.7615 C.2            1 S1                 0.0000
     15 ****         3.2877   3.6462   1.7459 N.2            1 S1                 0.0000
     16 ****         4.5738   4.1077   1.9857 C.2            1 S1                 0.0000
     17 ****         5.4263   3.4650   1.1253 C.2            1 S1                 0.0000
     18 ****         4.7111   2.6011   0.3403 O.3            1 S1                 0.0000
     19 ****        -1.5589   0.3230  -1.6085 C.3            1 S1                 0.0000
     20 ****        -2.5759  -3.6785  -0.4396 H              1 S1                 0.0000
     21 ****        -3.9255  -2.9143  -1.2796 H              1 S1                 0.0000
     22 ****        -3.9104  -2.9792   0.4778 H              1 S1                 0.0000
     23 ****        -2.4204  -1.4333  -2.4413 H              1 S1                 0.0000
     24 ****        -0.8356  -3.1062  -1.8919 H              1 S1                 0.0000
     25 ****         0.0735  -1.7687  -2.5168 H              1 S1                 0.0000
     26 ****         1.0044  -2.9490  -0.4211 H              1 S1                 0.0000
     27 ****         0.9726  -1.2328  -0.3580 H              1 S1                 0.0000
     28 ****        -0.8292  -3.2094   1.0458 H              1 S1                 0.0000
     29 ****         0.0860  -1.9195   1.7570 H              1 S1                 0.0000
     30 ****        -2.4041  -1.5687   1.7202 H              1 S1                 0.0000
     31 ****        -2.4883   0.6915   1.2735 H              1 S1                 0.0000
     32 ****        -0.8782   0.4302   1.8424 H              1 S1                 0.0000
     33 ****        -1.4657   1.9644  -0.2618 H              1 S1                 0.0000
     34 ****         0.9218   0.6001  -0.9755 H              1 S1                 0.0000
     35 ****         2.6930   1.3522  -0.5608 H              1 S1                 0.0000
     36 ****         4.7802   4.8500   2.7426 H              1 S1                 0.0000
     37 ****         6.4921   3.5056   0.9566 H              1 S1                 0.0000
     38 ****        -0.9094   0.5843  -2.4453 H              1 S1                 0.0000
     39 ****        -2.5165   0.7929  -1.8385 H              1 S1                 0.0000
     40 ****        -3.3521  -0.8574  -0.3341 H              1 S1                 0.0000
     41 ****        -0.4364   2.7446   1.4032 LP             1 S1                 0.0000
     42 ****         1.1125   3.4141   1.7941 LP             1 S1                 0.0000
     43 ****         2.4438   3.9190   2.2079 LP             1 S1                 0.0000
     44 ****         4.7996   2.8429  -0.6259 LP             1 S1                 0.0000
     45 ****         5.0180   1.6593   0.4777 LP             1 S1                 0.0000
@<TRIPOS>BOND
    1    1    2 1     
    2    1   20 1     
    3    1   21 1     
    4    1   22 1     
    5    2    7 1     
    6    2    3 1     
    7    2   40 1     
    8    3   19 1     
    9    3    4 1     
   10    3   23 1     
   11    4    5 1     
   12    4   24 1     
   13    4   25 1     
   14    5    6 1     
   15    5   26 1     
   16    5   27 1     
   17    6    7 1     
   18    6   28 1     
   19    6   29 1     
   20    7    8 1     
   21    7   30 1     
   22    8    9 1     
   23    8   31 1     
   24    8   32 1     
   25    9   10 1     
   26    9   19 1     
   27    9   33 1     
   28   10   11 am    
   29   10   34 1     
   30   11   12 2     
   31   11   13 am    
   32   13   14 1     
   33   13   35 1     
   34   14   18 1     
   35   14   15 2     
   36   15   16 1     
   37   16   17 2     
   38   16   36 1     
   39   17   18 1     
   40   17   37 1     
   41   19   38 1     
   42   19   39 1     
   43   12   41 1     
   44   12   42 1     
   45   15   43 1     
   46   18   44 1     
   47   18   45 1     
@<TRIPOS>SUBSTRUCTURE
      1 S1             1
@<TRIPOS>SET
LONE_PAIRS      STATIC     ATOMS    <user>   **** ""
5 41 42 43 44 45
DONOR_HYDROGENS      STATIC     ATOMS    <user>   **** ""
3 40 34 35
ATOM$BLUE        STATIC     ATOMS    COLORGROUP SYSTEM
5 41 42 43 44 45
ATOM$RED        STATIC     ATOMS    COLORGROUP SYSTEM
3 40 34 35
