AV-unprocessed.smi:1616|AV-procd|sdf|6482|dock6
  -GOLD-   22720 7143D 1   1.00000     0.00000
 Structure written by MMmdl.
 38 39  0  0  0  0  0  0  0  0  1 V2000
  150.3627  144.2520  159.0677 C   0  0  0  0  0  0  0  0  0  0  0  0
  151.3154  143.0875  159.0985 C   0  0  0  0  0  0  0  0  0  0  0  0
  151.2809  142.2827  158.0879 N   0  0  0  0  0  0  0  0  0  0  0  0
  152.1084  141.1786  158.0186 N   0  0  0  0  0  0  0  0  0  0  0  0
  151.9169  140.3633  156.8099 C   0  0  0  0  0  0  0  0  0  0  0  0
  150.4644  140.3345  156.3105 C   0  0  0  0  0  0  0  0  0  0  0  0
  149.8507  139.2714  156.2028 O   0  0  0  0  0  0  0  0  0  0  0  0
  149.9242  141.5281  156.0202 N   0  0  0  0  0  0  0  0  0  0  0  0
  148.5628  141.7517  155.5437 C   0  0  2  0  0  0  0  0  0  0  0  0
  147.5617  141.1002  156.5107 C   0  0  0  0  0  0  0  0  0  0  0  0
  148.3547  141.2473  154.1282 C   0  0  0  0  0  0  0  0  0  0  0  0
  146.9708  141.1402  153.5340 C   0  0  0  0  0  0  0  0  0  0  0  0
  147.7514  139.8881  153.8663 C   0  0  0  0  0  0  0  0  0  0  0  0
  153.0230  140.8325  158.9701 C   0  0  0  0  0  0  0  0  0  0  0  0
  153.7409  139.8366  158.8673 O   0  0  0  0  0  0  0  0  0  0  0  0
  153.0594  141.7511  160.1104 C   0  0  0  0  0  0  0  0  0  0  0  0
  154.0022  141.4255  161.1314 C   0  0  0  0  0  0  0  0  0  0  0  0
  154.7635  141.1809  161.9687 N   0  0  0  0  0  0  0  0  0  0  0  0
  152.2497  142.8368  160.1911 C   0  0  0  0  0  0  0  0  0  0  0  0
  152.2456  143.8195  161.3543 C   0  0  0  0  0  0  0  0  0  0  0  0
  150.9066  145.1969  159.0712 H   0  0  0  0  0  0  0  0  0  0  0  0
  149.7045  144.2362  159.9367 H   0  0  0  0  0  0  0  0  0  0  0  0
  149.7316  144.2383  158.1775 H   0  0  0  0  0  0  0  0  0  0  0  0
  152.5445  140.7411  156.0006 H   0  0  0  0  0  0  0  0  0  0  0  0
  152.2565  139.3411  156.9880 H   0  0  0  0  0  0  0  0  0  0  0  0
  150.5008  142.3482  156.1409 H   0  0  0  0  0  0  0  0  0  0  0  0
  148.3681  142.8259  155.5337 H   0  0  0  0  0  0  0  0  0  0  0  0
  146.5346  141.2825  156.1926 H   0  0  0  0  0  0  0  0  0  0  0  0
  147.6664  141.5003  157.5197 H   0  0  0  0  0  0  0  0  0  0  0  0
  147.7064  140.0206  156.5640 H   0  0  0  0  0  0  0  0  0  0  0  0
  149.1424  141.5489  153.4398 H   0  0  0  0  0  0  0  0  0  0  0  0
  146.1243  141.3881  154.1713 H   0  0  0  0  0  0  0  0  0  0  0  0
  146.8542  141.3967  152.4831 H   0  0  0  0  0  0  0  0  0  0  0  0
  148.1546  139.3113  153.0366 H   0  0  0  0  0  0  0  0  0  0  0  0
  147.4216  139.3049  154.7237 H   0  0  0  0  0  0  0  0  0  0  0  0
  153.0012  143.5783  162.1012 H   0  0  0  0  0  0  0  0  0  0  0  0
  151.2767  143.8148  161.8542 H   0  0  0  0  0  0  0  0  0  0  0  0
  152.4470  144.8321  161.0030 H   0  0  0  0  0  0  0  0  0  0  0  0
  1  2  1  0  0  0  0
  1 21  1  0  0  0  0
  1 22  1  0  0  0  0
  1 23  1  0  0  0  0
  2 19  1  0  0  0  0
  2  3  2  0  0  0  0
  3  4  1  0  0  0  0
  4  5  1  0  0  0  0
  4 14  1  0  0  0  0
  5  6  1  0  0  0  0
  5 24  1  0  0  0  0
  5 25  1  0  0  0  0
  6  7  2  0  0  0  0
  6  8  1  0  0  0  0
  8  9  1  0  0  0  0
  8 26  1  0  0  0  0
  9 10  1  0  0  0  0
  9 11  1  0  0  0  0
  9 27  1  0  0  0  0
 10 28  1  0  0  0  0
 10 29  1  0  0  0  0
 10 30  1  0  0  0  0
 11 13  1  0  0  0  0
 11 12  1  0  0  0  0
 11 31  1  0  0  0  0
 12 13  1  0  0  0  0
 12 32  1  0  0  0  0
 12 33  1  0  0  0  0
 13 34  1  0  0  0  0
 13 35  1  0  0  0  0
 14 15  2  0  0  0  0
 14 16  1  0  0  0  0
 16 17  1  0  0  0  0
 16 19  2  0  0  0  0
 17 18  3  0  0  0  0
 19 20  1  0  0  0  0
 20 36  1  0  0  0  0
 20 37  1  0  0  0  0
 20 38  1  0  0  0  0
M  END
> <s_m_source_file>
AV-unprocessed.smi

> <i_m_source_file_index>
1616

> <i_lp_mmshare_version>
43012

> <i_f3d_flags>
0

> <s_epik_input>
TiNDYyhjMVtDSDNdKWMoPU8pbihuYzFbQ0gzXSlbQ0gyXUMoPU8pW05IXVtDQEhdKFtDSDNdKVtDSF0yW0NIMl1bQ0gyXTI=

> <s_epik_cmdline>
J2VwaWtfcHl0aG9uJywgJy1waCcsICc3LjAnLCAnLXRuJywgJzgnLCAnLW1hJywgJzIwMCcsICctbWV0YWxfYmluZGluZycsICctaW1hZScsICc8aW5maWxlLm1hZT4nLCAnLW9tYWUnLCAnPG91dGZpbGUubWFlPic=

> <r_lp_tautomer_probability>
1

> <r_epik_Ionization_Penalty>
1.93246e-08

> <r_epik_Ionization_Penalty_Charging>
2.27031e-11

> <r_epik_Ionization_Penalty_Neutral>
1.93019e-08

> <r_epik_State_Penalty>
-0

> <r_epik_Charging_Adjusted_Penalty>
2.27031e-11

> <i_epik_Tot_Q>
0

> <i_epik_Tot_abs_Q>
0

> <r_epik_Metal_State_Penalty>
-0

> <b_epik_Metal_Only>
0

> <s_lp_Force_Field>
OPLS_2005

> <r_lp_Energy>
28.018

> <b_lp_Chiralities_Consistent>
1

> <s_lp_Variant>
AV-unprocessed.smi:1616-1

> <Gold.Version>
5.8.1

> <Gold.Id.Protein>
6NUR|6NUR_protein|mol2

> <Gold.PLP.Fitness>
39.9817

> <Gold.PLP.PLP>
-37.8922

> <Gold.PLP.part.hbond>
-2.1773

> <Gold.PLP.part.metal>
0.0000

> <Gold.PLP.part.buried>
-3.2117

> <Gold.PLP.part.nonpolar>
-32.3168

> <Gold.PLP.part.repulsive>
0.1437

> <Gold.PLP.ligand.clash>
0.0000

> <Gold.PLP.ligand.torsion>
0.9870

> <Gold.PLP.Chemscore.Hbond>
1.0000

> <Gold.PLP.Chemscore.CHOScore>
0.0000

> <Gold.PLP.Chemscore.Metal>
0.0000

> <Gold.Chemscore.Hbonds>
donor molecule, donor type, donor heavy atom, donor atom, acceptor molecule, acceptor atom, score
      P1  H  7997  8010       L1    15  1.00

> <Gold.PLP.Chemscore.Internal.Correction>
1.0635

> <Gold.Rescore>
     Score         DG    S(hbond)    S(metal)    S(lipo)     H(rot)  DE(clash)    DE(int)     intcor
     10.45     -14.07       0.82        0.00      86.71       1.68       1.42       2.21       ----

> <Gold.Chemscore.Fitness>
10.4470

> <Gold.Chemscore.DG>
-14.0718

> <Gold.Chemscore.ZeroCoef>
-5.4800

> <Gold.Chemscore.Hbond>
0.8234

> <Gold.Chemscore.Metal>
0.0000

> <Gold.Chemscore.Lipo>
86.7069

> <Gold.Chemscore.Internal_Hbond>
0.0000

> <Gold.Chemscore.DEClash>
1.4162

> <Gold.Chemscore.DEInternal>
2.2085

> <Gold.Chemscore.Rot>
1.6809

> <Gold.Chemscore.Internal.Correction>
   9.000000E+99

> <Gold.Chemscore.Hbonds>
donor molecule, donor type, donor heavy atom, donor atom, acceptor molecule, acceptor atom, score
      P1  H  7997  8010       L1    15  0.68

> <Gold.Chemscore.Hbond.Weighted>
-2.7501

> <Gold.Chemscore.Metal.Weighted>
-0.0000

> <Gold.Chemscore.Lipo.Weighted>
-10.1447

> <Gold.Chemscore.Internal_Hbond.Weighted>
0.0000

> <Gold.Chemscore.DEClash.Weighted>
1.4162

> <Gold.Chemscore.DEInternal.Weighted>
2.2085

> <Gold.Chemscore.Rot.Weighted>
4.3030

> <Gold.Chemscore.Internal.Correction.Weighted>
   9.000000E+99

> <Gold.Protein.RotatedTorsions>
[ 6907 6896 6895 6894 ] final  -81.83 input  -60.11 | X-H torsion
[ 7974 7965 7964 7962 ] final  -97.75 input  175.53 | X-H torsion
[ 8008 7997 7996 7995 ] final    6.68 input   59.86 | X-H torsion
[ 10167 10162 10161 10158 ] final   60.97 input  -65.29 | X-H torsion
[ 10718 10713 10712 10709 ] final  -71.12 input   66.30 | X-H torsion
[ 10763 10752 10751 10750 ] final   92.82 input  -60.55 | X-H torsion
[ 11005 11000 10999 10996 ] final -130.63 input  -57.11 | X-H torsion

> <Gold.Protein.ActiveResidues>
 VAL166  LYS551  ARG553  GLY616  TRP617  ASP618  TYR619  PRO620  LYS621  CYS622 
 ASP623  PHE694  ASN695  SER759  ASP760  ASP761  ALA762  ILE779  LEU786  VAL792 
 PHE793  MET794  SER795  GLU796  ALA797  LYS798  CYS799  TRP800  GLU811  SER814 

> <Gold.Protein.RotatedAtoms>
  150.6906  134.3757  159.5011 H   0  0  0  0  0  0  0  0  0  0  0  0  # atno 6907 bound_to 6896
  152.1567  134.8942  160.0553 H   0  0  0  0  0  0  0  0  0  0  0  0  # atno 6908 bound_to 6896
  152.0020  133.3794  159.4222 H   0  0  0  0  0  0  0  0  0  0  0  0  # atno 6909 bound_to 6896
  145.3296  140.9439  143.2669 H   0  0  0  0  0  0  0  0  0  0  0  0  # atno 7974 bound_to 7965
  154.7441  140.2754  155.6348 H   0  0  0  0  0  0  0  0  0  0  0  0  # atno 8008 bound_to 7997
  156.2880  140.2691  156.2102 H   0  0  0  0  0  0  0  0  0  0  0  0  # atno 8009 bound_to 7997
  155.0221  140.0371  157.2431 H   0  0  0  0  0  0  0  0  0  0  0  0  # atno 8010 bound_to 7997
  140.1598  144.4381  150.6715 H   0  0  0  0  0  0  0  0  0  0  0  0  # atno 10167 bound_to 10162
  156.0377  130.4345  150.2397 H   0  0  0  0  0  0  0  0  0  0  0  0  # atno 10718 bound_to 10713
  153.2234  135.4348  155.0514 H   0  0  0  0  0  0  0  0  0  0  0  0  # atno 10763 bound_to 10752
  154.8261  135.3362  154.6894 H   0  0  0  0  0  0  0  0  0  0  0  0  # atno 10764 bound_to 10752
  153.7325  135.7010  153.5042 H   0  0  0  0  0  0  0  0  0  0  0  0  # atno 10765 bound_to 10752
  140.9329  134.1296  157.4219 H   0  0  0  0  0  0  0  0  0  0  0  0  # atno 11005 bound_to 11000
  144.8875  139.4820  143.6694 LP  0  0  0  0  0  0  0  0  0  0  0  0  # atno 17320 bound_to 7965
  146.3051  139.7552  142.9062 LP  0  0  0  0  0  0  0  0  0  0  0  0  # atno 17321 bound_to 7965
  140.6650  143.2265  151.5765 LP  0  0  0  0  0  0  0  0  0  0  0  0  # atno 17342 bound_to 10162
  139.5386  144.2710  152.1304 LP  0  0  0  0  0  0  0  0  0  0  0  0  # atno 17343 bound_to 10162
  157.0495  131.0058  151.3258 LP  0  0  0  0  0  0  0  0  0  0  0  0  # atno 17370 bound_to 10713
  157.5151  130.7963  149.7747 LP  0  0  0  0  0  0  0  0  0  0  0  0  # atno 17371 bound_to 10713
  139.8800  135.0011  156.6048 LP  0  0  0  0  0  0  0  0  0  0  0  0  # atno 17394 bound_to 11000
  140.7838  133.8638  155.8590 LP  0  0  0  0  0  0  0  0  0  0  0  0  # atno 17395 bound_to 11000

$$$$
