#       Name:                AV-unprocessed.smi:2061
#       Creating user name   scv26
#       Creation time:       Fri Mar 27 11:03:25 2020


#       File generated by GOLD software.
#

@<TRIPOS>MOLECULE
AV-unprocessed.smi:2061
    53    54     1
SMALL
NO_CHARGES


@<TRIPOS>ATOM
      1 ****        -4.1411   7.0599   2.5910 C.3            1 S1                 0.0000
      2 ****        -3.6388   5.6869   2.3023 C.2            1 S1                 0.0000
      3 ****        -3.0634   5.1205   1.1996 C.2            1 S1                 0.0000
      4 ****        -2.8275   3.7827   1.6136 C.2            1 S1                 0.0000
      5 ****        -2.2217   2.8457   0.7380 N.am           1 S1                 0.0000
      6 ****        -1.9180   1.5621   0.9955 C.2            1 S1                 0.0000
      7 ****        -2.1507   0.9784   2.0543 O.2            1 S1                 0.0000
      8 ****        -1.3151   0.9862  -0.0552 N.am           1 S1                 0.0000
      9 ****        -0.8409  -0.3950  -0.1119 C.3            1 S1                 0.0000
     10 ****         0.7059  -0.5023  -0.2344 C.3            1 S1                 0.0000
     11 ****         1.3633   0.2497   0.9515 C.3            1 S1                 0.0000
     12 ****         1.1857  -1.8990  -0.3613 N.3            1 S1                 0.0000
     13 ****         0.5838  -2.6077  -1.4961 C.3            1 S1                 0.0000
     14 ****         1.0974  -4.0528  -1.6439 C.3            1 S1                 0.0000
     15 ****         0.5207  -4.7490  -2.8812 C.3            1 S1                 0.0000
     16 ****         2.5138  -4.0354  -1.7643 O.3            1 S1                 0.0000
     17 ****         3.1504  -3.4307  -0.6463 C.3            1 S1                 0.0000
     18 ****         4.6657  -3.4952  -0.8640 C.3            1 S1                 0.0000
     19 ****         2.6439  -1.9835  -0.4996 C.3            1 S1                 0.0000
     20 ****        -3.2245   3.5526   2.8558 N.2            1 S1                 0.0000
     21 ****        -3.7461   4.7719   3.3036 O.3            1 S1                 0.0000
     22 ****        -4.5282   7.5300   1.6870 H              1 S1                 0.0000
     23 ****        -3.3410   7.6873   2.9839 H              1 S1                 0.0000
     24 ****        -4.9445   7.0350   3.3277 H              1 S1                 0.0000
     25 ****        -2.8455   5.5911   0.2523 H              1 S1                 0.0000
     26 ****        -1.9796   3.1946  -0.1774 H              1 S1                 0.0000
     27 ****        -1.1652   1.5472  -0.8806 H              1 S1                 0.0000
     28 ****        -1.1891  -0.9754   0.7443 H              1 S1                 0.0000
     29 ****        -1.3354  -0.8141  -0.9859 H              1 S1                 0.0000
     30 ****         0.9888   0.0320  -1.1428 H              1 S1                 0.0000
     31 ****         0.9906   1.2675   1.0559 H              1 S1                 0.0000
     32 ****         2.4395   0.3603   0.8299 H              1 S1                 0.0000
     33 ****         1.1800  -0.2650   1.8952 H              1 S1                 0.0000
     34 ****        -0.4964  -2.6694  -1.3800 H              1 S1                 0.0000
     35 ****         0.7744  -2.0556  -2.4177 H              1 S1                 0.0000
     36 ****         0.8235  -4.6302  -0.7590 H              1 S1                 0.0000
     37 ****        -0.5673  -4.8001  -2.8319 H              1 S1                 0.0000
     38 ****         0.8979  -5.7685  -2.9653 H              1 S1                 0.0000
     39 ****         0.7908  -4.2177  -3.7942 H              1 S1                 0.0000
     40 ****         2.9027  -3.9968   0.2533 H              1 S1                 0.0000
     41 ****         5.2019  -3.0545  -0.0233 H              1 S1                 0.0000
     42 ****         4.9584  -2.9589  -1.7671 H              1 S1                 0.0000
     43 ****         5.0000  -4.5277  -0.9667 H              1 S1                 0.0000
     44 ****         2.9668  -1.3941  -1.3594 H              1 S1                 0.0000
     45 ****         3.1363  -1.5634   0.3753 H              1 S1                 0.0000
     46 ****        -2.5994   1.4638   2.8047 LP             1 S1                 0.0000
     47 ****        -1.8911   0.0189   2.1638 LP             1 S1                 0.0000
     48 ****         0.9022  -2.3370   0.4918 LP             1 S1                 0.0000
     49 ****         2.7589  -3.5237  -2.5878 LP             1 S1                 0.0000
     50 ****         2.8396  -4.9771  -1.8477 LP             1 S1                 0.0000
     51 ****        -3.1647   2.6935   3.3640 LP             1 S1                 0.0000
     52 ****        -4.7080   4.6556   3.5514 LP             1 S1                 0.0000
     53 ****        -3.2317   5.0850   4.1019 LP             1 S1                 0.0000
@<TRIPOS>BOND
    1    1    2 1     
    2    1   22 1     
    3    1   23 1     
    4    1   24 1     
    5    2   21 1     
    6    2    3 2     
    7    3    4 1     
    8    3   25 1     
    9    4    5 1     
   10    4   20 2     
   11    5    6 am    
   12    5   26 1     
   13    6    7 2     
   14    6    8 am    
   15    8    9 1     
   16    8   27 1     
   17    9   10 1     
   18    9   28 1     
   19    9   29 1     
   20   10   11 1     
   21   10   12 1     
   22   10   30 1     
   23   11   31 1     
   24   11   32 1     
   25   11   33 1     
   26   12   19 1     
   27   12   13 1     
   28   13   14 1     
   29   13   34 1     
   30   13   35 1     
   31   14   15 1     
   32   14   16 1     
   33   14   36 1     
   34   15   37 1     
   35   15   38 1     
   36   15   39 1     
   37   16   17 1     
   38   17   18 1     
   39   17   19 1     
   40   17   40 1     
   41   18   41 1     
   42   18   42 1     
   43   18   43 1     
   44   19   44 1     
   45   19   45 1     
   46   20   21 1     
   47    7   46 1     
   48    7   47 1     
   49   12   48 1     
   50   16   49 1     
   51   16   50 1     
   52   20   51 1     
   53   21   52 1     
   54   21   53 1     
@<TRIPOS>SUBSTRUCTURE
      1 S1             1
@<TRIPOS>SET
LONE_PAIRS      STATIC     ATOMS    <user>   **** ""
8 46 47 48 49 50 51 52 53
DONOR_HYDROGENS      STATIC     ATOMS    <user>   **** ""
2 26 27
ATOM$BLUE        STATIC     ATOMS    COLORGROUP SYSTEM
8 46 47 48 49 50 51 52 53
ATOM$RED        STATIC     ATOMS    COLORGROUP SYSTEM
2 26 27
