AV-unprocessed.smi:2469|AV-procd|sdf|9733|dock2
  -GOLD-   2272013373D 1   1.00000     0.00000
 Structure written by MMmdl.
 32 33  0  0  0  0  0  0  0  0  1 V2000
  149.4750  135.8524  154.1787 O   0  0  0  0  0  0  0  0  0  0  0  0
  150.2271  136.5319  155.1614 C   0  0  0  0  0  0  0  0  0  0  0  0
  151.0922  137.6185  154.5113 C   0  0  0  0  0  0  0  0  0  0  0  0
  151.9048  138.2243  155.5128 O   0  0  0  0  0  0  0  0  0  0  0  0
  151.5731  139.4883  155.9556 C   0  0  0  0  0  0  0  0  0  0  0  0
  151.8996  139.8455  157.2787 C   0  0  0  0  0  0  0  0  0  0  0  0
  151.5639  141.1341  157.7353 C   0  0  0  0  0  0  0  0  0  0  0  0
  150.9142  142.0288  156.8610 C   0  0  0  0  0  0  0  0  0  0  0  0
  150.5847  143.3106  157.3269 N   0  0  0  0  0  0  0  0  0  0  0  0
  150.9236  143.7419  158.6772 C   0  0  2  0  0  0  0  0  0  0  0  0
  149.7563  144.3434  159.4364 C   0  0  0  0  0  0  0  0  0  0  0  0
  150.4757  145.1359  160.5230 C   0  0  0  0  0  0  0  0  0  0  0  0
  151.7053  145.5636  159.9422 O   0  0  0  0  0  0  0  0  0  0  0  0
  151.9103  144.9078  158.6939 C   0  0  0  0  0  0  0  0  0  0  0  0
  150.6264  141.5720  155.5524 C   0  0  0  0  0  0  0  0  0  0  0  0
  150.9450  140.3384  155.1066 N   0  0  0  0  0  0  0  0  0  0  0  0
  149.5336  136.3351  153.3685 H   0  0  0  0  0  0  0  0  0  0  0  0
  149.5220  136.9892  155.8561 H   0  0  0  0  0  0  0  0  0  0  0  0
  150.8338  135.8290  155.7329 H   0  0  0  0  0  0  0  0  0  0  0  0
  151.6910  137.2037  153.6982 H   0  0  0  0  0  0  0  0  0  0  0  0
  150.4365  138.3796  154.0848 H   0  0  0  0  0  0  0  0  0  0  0  0
  152.3990  139.1443  157.9310 H   0  0  0  0  0  0  0  0  0  0  0  0
  151.8059  141.4290  158.7462 H   0  0  0  0  0  0  0  0  0  0  0  0
  149.9228  143.8657  156.8037 H   0  0  0  0  0  0  0  0  0  0  0  0
  151.3535  142.9152  159.2443 H   0  0  0  0  0  0  0  0  0  0  0  0
  149.1900  145.0214  158.7957 H   0  0  0  0  0  0  0  0  0  0  0  0
  149.0681  143.6009  159.8405 H   0  0  0  0  0  0  0  0  0  0  0  0
  149.8873  145.9809  160.8809 H   0  0  0  0  0  0  0  0  0  0  0  0
  150.7010  144.4940  161.3755 H   0  0  0  0  0  0  0  0  0  0  0  0
  152.9446  144.5833  158.5765 H   0  0  0  0  0  0  0  0  0  0  0  0
  151.6870  145.6195  157.8975 H   0  0  0  0  0  0  0  0  0  0  0  0
  150.1262  142.1997  154.8306 H   0  0  0  0  0  0  0  0  0  0  0  0
  1  2  1  0  0  0  0
  1 17  1  0  0  0  0
  2  3  1  0  0  0  0
  2 18  1  0  0  0  0
  2 19  1  0  0  0  0
  3  4  1  0  0  0  0
  3 20  1  0  0  0  0
  3 21  1  0  0  0  0
  4  5  1  0  0  0  0
  5 16  1  0  0  0  0
  5  6  2  0  0  0  0
  6  7  1  0  0  0  0
  6 22  1  0  0  0  0
  7  8  2  0  0  0  0
  7 23  1  0  0  0  0
  8  9  1  0  0  0  0
  8 15  1  0  0  0  0
  9 10  1  0  0  0  0
  9 24  1  0  0  0  0
 10 14  1  0  0  0  0
 10 11  1  0  0  0  0
 10 25  1  0  0  0  0
 11 12  1  0  0  0  0
 11 26  1  0  0  0  0
 11 27  1  0  0  0  0
 12 13  1  0  0  0  0
 12 28  1  0  0  0  0
 12 29  1  0  0  0  0
 13 14  1  0  0  0  0
 14 30  1  0  0  0  0
 14 31  1  0  0  0  0
 15 16  2  0  0  0  0
 15 32  1  0  0  0  0
M  END
> <s_m_source_file>
AV-unprocessed.smi

> <i_m_source_file_index>
2469

> <i_lp_mmshare_version>
43012

> <i_f3d_flags>
0

> <s_epik_input>
W09IXVtDSDJdW0NIMl1PYzFbY0hdW2NIXWMoW2NIXW4xKVtOSF1bQ0BASF0yW0NIMl1bQ0gyXU9bQ0gyXTI=

> <s_epik_cmdline>
J2VwaWtfcHl0aG9uJywgJy1waCcsICc3LjAnLCAnLXRuJywgJzgnLCAnLW1hJywgJzIwMCcsICctbWV0YWxfYmluZGluZycsICctaW1hZScsICc8aW5maWxlLm1hZT4nLCAnLW9tYWUnLCAnPG91dGZpbGUubWFlPic=

> <r_lp_tautomer_probability>
1

> <r_epik_Ionization_Penalty>
0.000432265

> <r_epik_Ionization_Penalty_Charging>
0

> <r_epik_Ionization_Penalty_Neutral>
0.000432265

> <r_epik_State_Penalty>
-0

> <r_epik_Charging_Adjusted_Penalty>
0

> <i_epik_Tot_Q>
0

> <i_epik_Tot_abs_Q>
0

> <r_epik_Metal_State_Penalty>
-0

> <b_epik_Metal_Only>
0

> <s_lp_Force_Field>
OPLS_2005

> <r_lp_Energy>
22.9309

> <b_lp_Chiralities_Consistent>
1

> <s_lp_Variant>
AV-unprocessed.smi:2469-1

> <Gold.Version>
5.8.1

> <Gold.Id.Protein>
6NUR|6NUR_protein|mol2

> <Gold.PLP.Fitness>
40.7095

> <Gold.PLP.PLP>
-31.8020

> <Gold.PLP.part.hbond>
-3.6010

> <Gold.PLP.part.metal>
0.0000

> <Gold.PLP.part.buried>
-4.0771

> <Gold.PLP.part.nonpolar>
-23.3363

> <Gold.PLP.part.repulsive>
0.2270

> <Gold.PLP.ligand.clash>
0.0000

> <Gold.PLP.ligand.torsion>
0.7541

> <Gold.PLP.Chemscore.Hbond>
2.9440

> <Gold.PLP.Chemscore.CHOScore>
0.4846

> <Gold.PLP.Chemscore.Metal>
0.0000

> <Gold.Chemscore.Hbonds>
donor molecule, donor type, donor heavy atom, donor atom, acceptor molecule, acceptor atom, score
      L1  H     1    17       P1  7948  0.77
      L1  H     9    24       P1  8028  1.00
      P1  H  7989  7998       L1    16  0.80
      L1  C    15    32       P1  8028  0.02

> <Gold.PLP.Chemscore.Internal.Correction>
0.1298

> <Gold.Rescore>
     Score         DG    S(hbond)    S(metal)    S(lipo)     H(rot)  DE(clash)    DE(int)     intcor
     15.26     -16.02       2.00        0.00      83.67       2.32       0.07       0.69       ----

> <Gold.Chemscore.Fitness>
15.2570

> <Gold.Chemscore.DG>
-16.0175

> <Gold.Chemscore.ZeroCoef>
-5.4800

> <Gold.Chemscore.Hbond>
2.0043

> <Gold.Chemscore.Metal>
0.0000

> <Gold.Chemscore.Lipo>
83.6659

> <Gold.Chemscore.Internal_Hbond>
0.0000

> <Gold.Chemscore.DEClash>
0.0725

> <Gold.Chemscore.DEInternal>
0.6880

> <Gold.Chemscore.Rot>
2.3225

> <Gold.Chemscore.Internal.Correction>
   9.000000E+99

> <Gold.Chemscore.Hbonds>
donor molecule, donor type, donor heavy atom, donor atom, acceptor molecule, acceptor atom, score
      L1  H     1    17       P1  7948  0.38
      L1  H     9    24       P1  8028  0.99
      P1  H  7989  7998       L1    16  0.12

> <Gold.Chemscore.Hbond.Weighted>
-6.6943

> <Gold.Chemscore.Metal.Weighted>
-0.0000

> <Gold.Chemscore.Lipo.Weighted>
-9.7889

> <Gold.Chemscore.Internal_Hbond.Weighted>
0.0000

> <Gold.Chemscore.DEClash.Weighted>
0.0725

> <Gold.Chemscore.DEInternal.Weighted>
0.6880

> <Gold.Chemscore.Rot.Weighted>
5.9456

> <Gold.Chemscore.Internal.Correction.Weighted>
   9.000000E+99

> <Gold.Protein.RotatedTorsions>
[ 6907 6896 6895 6894 ] final -143.42 input  -60.11 | X-H torsion
[ 7974 7965 7964 7962 ] final  -49.84 input  175.53 | X-H torsion
[ 8008 7997 7996 7995 ] final  122.75 input   59.86 | X-H torsion
[ 10167 10162 10161 10158 ] final   98.17 input  -65.29 | X-H torsion
[ 10718 10713 10712 10709 ] final  100.82 input   66.30 | X-H torsion
[ 10763 10752 10751 10750 ] final   -2.25 input  -60.55 | X-H torsion
[ 11005 11000 10999 10996 ] final -122.43 input  -57.11 | X-H torsion

> <Gold.Protein.ActiveResidues>
 VAL166  LYS551  ARG553  GLY616  TRP617  ASP618  TYR619  PRO620  LYS621  CYS622 
 ASP623  PHE694  ASN695  SER759  ASP760  ASP761  ALA762  ILE779  LEU786  VAL792 
 PHE793  MET794  SER795  GLU796  ALA797  LYS798  CYS799  TRP800  GLU811  SER814 

> <Gold.Protein.RotatedAtoms>
  151.1002  133.5249  159.2610 H   0  0  0  0  0  0  0  0  0  0  0  0  # atno 6907 bound_to 6896
  151.2083  135.0470  159.8910 H   0  0  0  0  0  0  0  0  0  0  0  0  # atno 6908 bound_to 6896
  152.5442  134.0821  159.8293 H   0  0  0  0  0  0  0  0  0  0  0  0  # atno 6909 bound_to 6896
  145.9362  140.7704  142.9575 H   0  0  0  0  0  0  0  0  0  0  0  0  # atno 7974 bound_to 7965
  156.2740  140.2778  156.1517 H   0  0  0  0  0  0  0  0  0  0  0  0  # atno 8008 bound_to 7997
  155.0846  140.0388  157.2667 H   0  0  0  0  0  0  0  0  0  0  0  0  # atno 8009 bound_to 7997
  154.6937  140.2634  155.6793 H   0  0  0  0  0  0  0  0  0  0  0  0  # atno 8010 bound_to 7997
  139.7733  144.6914  151.0124 H   0  0  0  0  0  0  0  0  0  0  0  0  # atno 10167 bound_to 10162
  157.6845  131.0709  150.5158 H   0  0  0  0  0  0  0  0  0  0  0  0  # atno 10718 bound_to 10713
  153.3555  135.6988  153.6754 H   0  0  0  0  0  0  0  0  0  0  0  0  # atno 10763 bound_to 10752
  153.5464  135.3562  155.2741 H   0  0  0  0  0  0  0  0  0  0  0  0  # atno 10764 bound_to 10752
  154.8660  135.4216  154.2800 H   0  0  0  0  0  0  0  0  0  0  0  0  # atno 10765 bound_to 10752
  140.9996  134.0422  157.3554 H   0  0  0  0  0  0  0  0  0  0  0  0  # atno 11005 bound_to 11000
  144.6772  140.2207  143.7367 LP  0  0  0  0  0  0  0  0  0  0  0  0  # atno 17320 bound_to 7965
  145.8360  139.2108  143.1855 LP  0  0  0  0  0  0  0  0  0  0  0  0  # atno 17321 bound_to 7965
  140.7815  143.4564  151.0340 LP  0  0  0  0  0  0  0  0  0  0  0  0  # atno 17342 bound_to 10162
  139.8247  143.7773  152.3178 LP  0  0  0  0  0  0  0  0  0  0  0  0  # atno 17343 bound_to 10162
  156.5474  130.4223  149.6124 LP  0  0  0  0  0  0  0  0  0  0  0  0  # atno 17370 bound_to 10713
  156.2932  130.7136  151.1990 LP  0  0  0  0  0  0  0  0  0  0  0  0  # atno 17371 bound_to 10713
  139.9032  135.0171  156.7365 LP  0  0  0  0  0  0  0  0  0  0  0  0  # atno 17394 bound_to 11000
  140.6911  133.9389  155.7967 LP  0  0  0  0  0  0  0  0  0  0  0  0  # atno 17395 bound_to 11000

$$$$
