AV-unprocessed.smi:89|AV-procd|sdf|827|dock2
  -GOLD-   2262017243D 1   1.00000     0.00000
 Structure written by MMmdl.
 54 56  0  0  0  0  0  0  0  0  1 V2000
  145.3310  131.4113  157.0717 C   0  0  0  0  0  0  0  0  0  0  0  0
  146.7375  131.9985  157.2746 C   0  0  0  0  0  0  0  0  0  0  0  0
  146.8817  133.3621  156.7606 N   0  0  0  0  0  0  0  0  0  0  0  0
  147.0397  133.4640  155.4176 C   0  0  0  0  0  0  0  0  0  0  0  0
  148.2389  133.0905  154.9050 N   0  0  0  0  0  0  0  0  0  0  0  0
  148.4642  133.1763  153.5915 C   0  0  0  0  0  0  0  0  0  0  0  0
  147.6450  133.6092  152.6313 N   0  0  0  0  0  0  0  0  0  0  0  0
  146.4433  134.0012  153.1436 C   0  0  0  0  0  0  0  0  0  0  0  0
  146.0575  133.9606  154.5134 C   0  0  0  0  0  0  0  0  0  0  0  0
  144.7574  134.4319  154.6509 N   0  0  0  0  0  0  0  0  0  0  0  0
  144.3961  134.7333  153.4342 C   0  0  0  0  0  0  0  0  0  0  0  0
  145.3538  134.5229  152.4677 N   0  0  0  0  0  0  0  0  0  0  0  0
  145.2245  134.7858  151.0424 C   0  0  0  0  0  0  0  0  0  0  0  0
  144.7019  133.5867  150.2067 C   0  0  1  0  0  0  0  0  0  0  0  0
  144.1604  134.1086  149.0088 O   0  0  0  0  0  0  0  0  0  0  0  0
  145.7615  132.5383  149.8736 C   0  0  0  0  0  0  0  0  0  0  0  0
  145.5806  131.4491  150.9377 C   0  0  0  0  0  0  0  0  0  0  0  0
  144.4115  131.7940  151.6719 O   0  0  0  0  0  0  0  0  0  0  0  0
  143.6530  132.7291  150.9205 C   0  0  0  0  0  0  0  0  0  0  0  0
  147.6382  134.3120  157.5928 C   0  0  1  0  0  0  0  0  0  0  0  0
  147.5604  135.7570  157.0644 C   0  0  0  0  0  0  0  0  0  0  0  0
  147.2784  134.2636  159.0975 C   0  0  0  0  0  0  0  0  0  0  0  0
  147.7366  135.8079  160.0160 S   0  0  0  0  0  0  0  0  0  0  0  0
  149.1702  136.0563  159.8017 O   0  0  0  0  0  0  0  0  0  0  0  0
  146.7561  136.8637  159.7190 O   0  0  0  0  0  0  0  0  0  0  0  0
  147.5171  135.2994  161.7783 C   0  0  0  0  0  0  0  0  0  0  0  0
  147.7042  136.4699  162.7504 C   0  0  0  0  0  0  0  0  0  0  0  0
  145.2527  130.4326  157.5448 H   0  0  0  0  0  0  0  0  0  0  0  0
  145.0911  131.2819  156.0160 H   0  0  0  0  0  0  0  0  0  0  0  0
  144.5704  132.0552  157.5144 H   0  0  0  0  0  0  0  0  0  0  0  0
  146.9575  132.0096  158.3424 H   0  0  0  0  0  0  0  0  0  0  0  0
  147.4802  131.3437  156.8199 H   0  0  0  0  0  0  0  0  0  0  0  0
  149.4416  132.8537  153.2640 H   0  0  0  0  0  0  0  0  0  0  0  0
  143.4172  135.1304  153.2086 H   0  0  0  0  0  0  0  0  0  0  0  0
  144.5666  135.6467  150.9148 H   0  0  0  0  0  0  0  0  0  0  0  0
  146.2023  135.0965  150.6714 H   0  0  0  0  0  0  0  0  0  0  0  0
  144.8179  134.6438  148.5912 H   0  0  0  0  0  0  0  0  0  0  0  0
  145.5714  132.0985  148.8929 H   0  0  0  0  0  0  0  0  0  0  0  0
  146.7727  132.9444  149.8488 H   0  0  0  0  0  0  0  0  0  0  0  0
  145.4563  130.4691  150.4760 H   0  0  0  0  0  0  0  0  0  0  0  0
  146.4337  131.3972  151.6145 H   0  0  0  0  0  0  0  0  0  0  0  0
  142.9728  133.3070  151.5460 H   0  0  0  0  0  0  0  0  0  0  0  0
  143.0498  132.1726  150.2006 H   0  0  0  0  0  0  0  0  0  0  0  0
  148.6825  134.0122  157.5086 H   0  0  0  0  0  0  0  0  0  0  0  0
  148.2263  136.4116  157.6271 H   0  0  0  0  0  0  0  0  0  0  0  0
  146.5533  136.1639  157.1550 H   0  0  0  0  0  0  0  0  0  0  0  0
  147.8571  135.8214  156.0176 H   0  0  0  0  0  0  0  0  0  0  0  0
  146.2061  134.1216  159.2277 H   0  0  0  0  0  0  0  0  0  0  0  0
  147.7489  133.4158  159.5946 H   0  0  0  0  0  0  0  0  0  0  0  0
  146.5281  134.8551  161.8891 H   0  0  0  0  0  0  0  0  0  0  0  0
  148.2489  134.5192  161.9880 H   0  0  0  0  0  0  0  0  0  0  0  0
  147.6392  136.1257  163.7826 H   0  0  0  0  0  0  0  0  0  0  0  0
  146.9363  137.2301  162.6119 H   0  0  0  0  0  0  0  0  0  0  0  0
  148.6781  136.9419  162.6192 H   0  0  0  0  0  0  0  0  0  0  0  0
  1  2  1  0  0  0  0
  1 28  1  0  0  0  0
  1 29  1  0  0  0  0
  1 30  1  0  0  0  0
  2  3  1  0  0  0  0
  2 31  1  0  0  0  0
  2 32  1  0  0  0  0
  3  4  1  0  0  0  0
  3 20  1  0  0  0  0
  4  9  1  0  0  0  0
  4  5  2  0  0  0  0
  5  6  1  0  0  0  0
  6  7  2  0  0  0  0
  6 33  1  0  0  0  0
  7  8  1  0  0  0  0
  8 12  1  0  0  0  0
  8  9  2  0  0  0  0
  9 10  1  0  0  0  0
 10 11  2  0  0  0  0
 11 12  1  0  0  0  0
 11 34  1  0  0  0  0
 12 13  1  0  0  0  0
 13 14  1  0  0  0  0
 13 35  1  0  0  0  0
 13 36  1  0  0  0  0
 14 19  1  0  0  0  0
 14 15  1  0  0  0  0
 14 16  1  0  0  0  0
 15 37  1  0  0  0  0
 16 17  1  0  0  0  0
 16 38  1  0  0  0  0
 16 39  1  0  0  0  0
 17 18  1  0  0  0  0
 17 40  1  0  0  0  0
 17 41  1  0  0  0  0
 18 19  1  0  0  0  0
 19 42  1  0  0  0  0
 19 43  1  0  0  0  0
 20 21  1  0  0  0  0
 20 22  1  0  0  0  0
 20 44  1  0  0  0  0
 21 45  1  0  0  0  0
 21 46  1  0  0  0  0
 21 47  1  0  0  0  0
 22 23  1  0  0  0  0
 22 48  1  0  0  0  0
 22 49  1  0  0  0  0
 23 24  2  0  0  0  0
 23 25  2  0  0  0  0
 23 26  1  0  0  0  0
 26 27  1  0  0  0  0
 26 50  1  0  0  0  0
 26 51  1  0  0  0  0
 27 52  1  0  0  0  0
 27 53  1  0  0  0  0
 27 54  1  0  0  0  0
M  END
> <s_m_source_file>
AV-unprocessed.smi

> <i_m_source_file_index>
89

> <i_lp_mmshare_version>
43012

> <i_f3d_flags>
0

> <s_epik_input>
W0NIM11bQ0gyXVMoPU8pKD1PKVtDSDJdW0NAQEhdKFtDSDNdKU4oW0NIMl1bQ0gzXSljKG5bY0hdbjEpYyhjMTIpbltjSF1uMltDSDJdW0NAQF0zKFtPSF0pW0NIMl1bQ0gyXU9bQ0gyXTM=

> <s_epik_cmdline>
J2VwaWtfcHl0aG9uJywgJy1waCcsICc3LjAnLCAnLXRuJywgJzgnLCAnLW1hJywgJzIwMCcsICctbWV0YWxfYmluZGluZycsICctaW1hZScsICc8aW5maWxlLm1hZT4nLCAnLW9tYWUnLCAnPG91dGZpbGUubWFlPic=

> <r_lp_tautomer_probability>
1

> <r_epik_Ionization_Penalty>
0.00103773

> <r_epik_Ionization_Penalty_Charging>
0

> <r_epik_Ionization_Penalty_Neutral>
0.00103773

> <r_epik_State_Penalty>
0.000558914

> <r_epik_Charging_Adjusted_Penalty>
0.000558914

> <i_epik_Tot_Q>
0

> <i_epik_Tot_abs_Q>
0

> <r_epik_Metal_State_Penalty>
-0

> <b_epik_Metal_Only>
0

> <s_lp_Force_Field>
OPLS_2005

> <r_lp_Energy>
30.4714

> <b_lp_Chiralities_Consistent>
1

> <s_lp_Variant>
AV-unprocessed.smi:89-3

> <Gold.Version>
5.8.1

> <Gold.Id.Protein>
6NUR|6NUR_protein|mol2

> <Gold.PLP.Fitness>
38.5868

> <Gold.PLP.PLP>
-35.0117

> <Gold.PLP.part.hbond>
-2.3566

> <Gold.PLP.part.metal>
0.0000

> <Gold.PLP.part.buried>
-6.3709

> <Gold.PLP.part.nonpolar>
-26.4635

> <Gold.PLP.part.repulsive>
1.3960

> <Gold.PLP.ligand.clash>
0.0000

> <Gold.PLP.ligand.torsion>
2.0159

> <Gold.PLP.Chemscore.Hbond>
2.0000

> <Gold.PLP.Chemscore.CHOScore>
0.0000

> <Gold.PLP.Chemscore.Metal>
0.0000

> <Gold.Chemscore.Hbonds>
donor molecule, donor type, donor heavy atom, donor atom, acceptor molecule, acceptor atom, score
      L1  H    15    37       P1  7921  1.00
      P1  H  6896  6907       L1    24  0.93

> <Gold.PLP.Chemscore.Internal.Correction>
1.6069

> <Gold.Rescore>
     Score         DG    S(hbond)    S(metal)    S(lipo)     H(rot)  DE(clash)    DE(int)     intcor
     10.54     -13.86       2.79        0.00      67.66       3.45       0.20       3.13       ----

> <Gold.Chemscore.Fitness>
10.5368

> <Gold.Chemscore.DG>
-13.8623

> <Gold.Chemscore.ZeroCoef>
-5.4800

> <Gold.Chemscore.Hbond>
2.7859

> <Gold.Chemscore.Metal>
0.0000

> <Gold.Chemscore.Lipo>
67.6550

> <Gold.Chemscore.Internal_Hbond>
0.0000

> <Gold.Chemscore.DEClash>
0.1996

> <Gold.Chemscore.DEInternal>
3.1259

> <Gold.Chemscore.Rot>
3.4524

> <Gold.Chemscore.Internal.Correction>
   9.000000E+99

> <Gold.Chemscore.Hbonds>
donor molecule, donor type, donor heavy atom, donor atom, acceptor molecule, acceptor atom, score
      L1  H    15    37       P1  7921  0.95
      P1  H  6896  6907       L1    24  0.87
      P1  H  6934  6947       L1    25  0.01

> <Gold.Chemscore.Hbond.Weighted>
-9.3049

> <Gold.Chemscore.Metal.Weighted>
-0.0000

> <Gold.Chemscore.Lipo.Weighted>
-7.9156

> <Gold.Chemscore.Internal_Hbond.Weighted>
0.0000

> <Gold.Chemscore.DEClash.Weighted>
0.1996

> <Gold.Chemscore.DEInternal.Weighted>
3.1259

> <Gold.Chemscore.Rot.Weighted>
8.8382

> <Gold.Chemscore.Internal.Correction.Weighted>
   9.000000E+99

> <Gold.Protein.RotatedTorsions>
[ 6907 6896 6895 6894 ] final  -62.29 input  -60.11 | X-H torsion
[ 7974 7965 7964 7962 ] final -159.70 input  175.53 | X-H torsion
[ 8008 7997 7996 7995 ] final  146.03 input   59.86 | X-H torsion
[ 10167 10162 10161 10158 ] final  -60.34 input  -65.29 | X-H torsion
[ 10718 10713 10712 10709 ] final    3.36 input   66.30 | X-H torsion
[ 10763 10752 10751 10750 ] final  126.55 input  -60.55 | X-H torsion
[ 11005 11000 10999 10996 ] final -129.00 input  -57.11 | X-H torsion

> <Gold.Protein.ActiveResidues>
 VAL166  LYS551  ARG553  GLY616  TRP617  ASP618  TYR619  PRO620  LYS621  CYS622 
 ASP623  PHE694  ASN695  SER759  ASP760  ASP761  ALA762  ILE779  LEU786  VAL792 
 PHE793  MET794  SER795  GLU796  ALA797  LYS798  CYS799  TRP800  GLU811  SER814 

> <Gold.Protein.RotatedAtoms>
  150.7726  134.6590  159.6329 H   0  0  0  0  0  0  0  0  0  0  0  0  # atno 6907 bound_to 6896
  152.3784  134.6625  160.0161 H   0  0  0  0  0  0  0  0  0  0  0  0  # atno 6908 bound_to 6896
  151.6963  133.3274  159.3291 H   0  0  0  0  0  0  0  0  0  0  0  0  # atno 6909 bound_to 6896
  144.7455  140.3648  143.6088 H   0  0  0  0  0  0  0  0  0  0  0  0  # atno 7974 bound_to 7965
  156.2867  140.2193  156.5310 H   0  0  0  0  0  0  0  0  0  0  0  0  # atno 8008 bound_to 7997
  154.7449  140.0485  157.0865 H   0  0  0  0  0  0  0  0  0  0  0  0  # atno 8009 bound_to 7997
  155.0184  140.3121  155.4806 H   0  0  0  0  0  0  0  0  0  0  0  0  # atno 8010 bound_to 7997
  140.6078  143.2378  151.5781 H   0  0  0  0  0  0  0  0  0  0  0  0  # atno 10167 bound_to 10162
  156.8767  130.5639  149.5655 H   0  0  0  0  0  0  0  0  0  0  0  0  # atno 10718 bound_to 10713
  153.6952  135.3292  155.3211 H   0  0  0  0  0  0  0  0  0  0  0  0  # atno 10763 bound_to 10752
  154.8429  135.4441  154.1468 H   0  0  0  0  0  0  0  0  0  0  0  0  # atno 10764 bound_to 10752
  153.2520  135.6982  153.7747 H   0  0  0  0  0  0  0  0  0  0  0  0  # atno 10765 bound_to 10752
  140.9469  134.1118  157.4099 H   0  0  0  0  0  0  0  0  0  0  0  0  # atno 11005 bound_to 11000
  145.7140  139.1692  143.2522 LP  0  0  0  0  0  0  0  0  0  0  0  0  # atno 17320 bound_to 7965
  146.1326  140.7165  142.9405 LP  0  0  0  0  0  0  0  0  0  0  0  0  # atno 17321 bound_to 7965
  139.5338  144.2840  152.1206 LP  0  0  0  0  0  0  0  0  0  0  0  0  # atno 17342 bound_to 10162
  140.2033  144.4636  150.6421 LP  0  0  0  0  0  0  0  0  0  0  0  0  # atno 17343 bound_to 10162
  156.0698  130.5733  150.9361 LP  0  0  0  0  0  0  0  0  0  0  0  0  # atno 17370 bound_to 10713
  157.6164  131.0933  150.8702 LP  0  0  0  0  0  0  0  0  0  0  0  0  # atno 17371 bound_to 10713
  139.8836  135.0054  156.6310 LP  0  0  0  0  0  0  0  0  0  0  0  0  # atno 17394 bound_to 11000
  140.7657  133.8780  155.8452 LP  0  0  0  0  0  0  0  0  0  0  0  0  # atno 17395 bound_to 11000

$$$$
