#       Name:                AV-unprocessed.smi:2304
#       Creating user name   scv26
#       Creation time:       Fri Mar 27 12:46:16 2020


#       File generated by GOLD software.
#

@<TRIPOS>MOLECULE
AV-unprocessed.smi:2304
    42    43     1
SMALL
NO_CHARGES


@<TRIPOS>ATOM
      1 ****        -4.6468   3.0018   1.3700 C.3            1 S1                 0.0000
      2 ****        -3.2470   2.9061   1.1753 O.3            1 S1                 0.0000
      3 ****        -2.8203   1.5770   0.9228 C.3            1 S1                 0.0000
      4 ****        -1.2960   1.5298   0.7176 C.3            1 S1                 0.0000
      5 ****        -0.9012   0.1399   0.5073 N.am           1 S1                 0.0000
      6 ****         0.1268  -0.2731  -0.2482 C.2            1 S1                 0.0000
      7 ****         0.8635   0.4914  -0.8720 O.2            1 S1                 0.0000
      8 ****         0.2361  -1.6132  -0.2266 N.am           1 S1                 0.0000
      9 ****         1.1922  -2.4271  -0.8908 C.ar           1 S1                 0.0000
     10 ****         1.0510  -3.8163  -0.6734 C.ar           1 S1                 0.0000
     11 ****         1.9500  -4.7087  -1.2888 C.ar           1 S1                 0.0000
     12 ****         2.9686  -4.1894  -2.1076 C.ar           1 S1                 0.0000
     13 ****         3.0401  -2.7923  -2.2724 C.ar           1 S1                 0.0000
     14 ****         4.1117  -2.1635  -3.1380 C.3            1 S1                 0.0000
     15 ****         2.1787  -1.9363  -1.6819 N.ar           1 S1                 0.0000
     16 ****        -0.5484   2.2007   1.8608 C.3            1 S1                 0.0000
     17 ****        -0.3834   3.7015   1.9256 C.3            1 S1                 0.0000
     18 ****         0.8135   2.8209   1.6519 C.3            1 S1                 0.0000
     19 ****        -4.9186   4.0401   1.5601 H              1 S1                 0.0000
     20 ****        -4.9679   2.4074   2.2265 H              1 S1                 0.0000
     21 ****        -5.1919   2.6672   0.4864 H              1 S1                 0.0000
     22 ****        -3.1009   0.9422   1.7652 H              1 S1                 0.0000
     23 ****        -3.3274   1.1868   0.0386 H              1 S1                 0.0000
     24 ****        -1.0809   2.0942  -0.1922 H              1 S1                 0.0000
     25 ****        -1.4516  -0.5609   0.9814 H              1 S1                 0.0000
     26 ****        -0.4426  -2.1093   0.3316 H              1 S1                 0.0000
     27 ****         0.2625  -4.1992  -0.0416 H              1 S1                 0.0000
     28 ****         1.8587  -5.7737  -1.1345 H              1 S1                 0.0000
     29 ****         3.6739  -4.8473  -2.5938 H              1 S1                 0.0000
     30 ****         4.6885  -2.9223  -3.6678 H              1 S1                 0.0000
     31 ****         4.7983  -1.5793  -2.5247 H              1 S1                 0.0000
     32 ****         3.6627  -1.5008  -3.8784 H              1 S1                 0.0000
     33 ****        -0.6975   1.7070   2.8193 H              1 S1                 0.0000
     34 ****        -0.7698   4.2921   1.0972 H              1 S1                 0.0000
     35 ****        -0.4506   4.1713   2.9047 H              1 S1                 0.0000
     36 ****         1.5455   2.7021   2.4481 H              1 S1                 0.0000
     37 ****         1.2203   2.8336   0.6427 H              1 S1                 0.0000
     38 ****        -2.7858   3.2396   1.9975 LP             1 S1                 0.0000
     39 ****        -2.9924   3.4777   0.3953 LP             1 S1                 0.0000
     40 ****         0.7096   1.4786  -0.8308 LP             1 S1                 0.0000
     41 ****         1.6156   0.1250  -1.4198 LP             1 S1                 0.0000
     42 ****         2.2672  -0.9508  -1.8263 LP             1 S1                 0.0000
@<TRIPOS>BOND
    1    1    2 1     
    2    1   19 1     
    3    1   20 1     
    4    1   21 1     
    5    2    3 1     
    6    3    4 1     
    7    3   22 1     
    8    3   23 1     
    9    4    5 1     
   10    4   16 1     
   11    4   24 1     
   12    5    6 am    
   13    5   25 1     
   14    6    7 2     
   15    6    8 am    
   16    8    9 1     
   17    8   26 1     
   18    9   15 ar    
   19    9   10 ar    
   20   10   11 ar    
   21   10   27 1     
   22   11   12 ar    
   23   11   28 1     
   24   12   13 ar    
   25   12   29 1     
   26   13   14 1     
   27   13   15 ar    
   28   14   30 1     
   29   14   31 1     
   30   14   32 1     
   31   16   18 1     
   32   16   17 1     
   33   16   33 1     
   34   17   18 1     
   35   17   34 1     
   36   17   35 1     
   37   18   36 1     
   38   18   37 1     
   39    2   38 1     
   40    2   39 1     
   41    7   40 1     
   42    7   41 1     
   43   15   42 1     
@<TRIPOS>SUBSTRUCTURE
      1 S1             1
@<TRIPOS>SET
LONE_PAIRS      STATIC     ATOMS    <user>   **** ""
5 38 39 40 41 42
DONOR_HYDROGENS      STATIC     ATOMS    <user>   **** ""
2 25 26
ATOM$BLUE        STATIC     ATOMS    COLORGROUP SYSTEM
5 38 39 40 41 42
ATOM$RED        STATIC     ATOMS    COLORGROUP SYSTEM
2 25 26
