AV-unprocessed.smi:1205|AV-procd|sdf|5045|dock8
  -GOLD-   22720 4 73D 1   1.00000     0.00000
 Structure written by MMmdl.
 49 50  0  0  0  0  0  0  0  0  2 V2000
  153.3987  141.6171  160.7017 C   0  0  0  0  0  0  0  0  0  0  0  0
  152.6911  142.2360  159.5324 C   0  0  0  0  0  0  0  0  0  0  0  0
  151.7183  141.6393  158.6786 C   0  0  0  0  0  0  0  0  0  0  0  0
  151.4245  142.6501  157.8046 C   0  0  0  0  0  0  0  0  0  0  0  0
  150.5469  142.6540  156.7661 N   0  0  0  0  0  0  0  0  0  0  0  0
  150.1246  141.6188  156.0195 C   0  0  0  0  0  0  0  0  0  0  0  0
  150.4758  140.4465  156.1554 O   0  0  0  0  0  0  0  0  0  0  0  0
  149.2595  142.0212  155.0777 N   0  0  0  0  0  0  0  0  0  0  0  0
  148.6234  141.1435  154.1003 C   0  0  0  0  0  0  0  0  0  0  0  0
  147.0876  141.3455  154.0317 C   0  0  2  0  0  0  0  0  0  0  0  0
  146.5316  142.0877  155.2621 C   0  0  0  0  0  0  0  0  0  0  0  0
  146.3377  140.0764  153.7986 N   0  3  2  0  0  0  0  0  0  0  0  0
  146.0736  139.2586  155.0138 C   0  0  0  0  0  0  0  0  0  0  0  0
  145.0966  138.1158  154.6965 C   0  0  0  0  0  0  0  0  0  0  0  0
  145.6311  137.2412  153.5546 C   0  0  0  0  0  0  0  0  0  0  0  0
  145.9370  138.1034  152.3175 C   0  0  2  0  0  0  0  0  0  0  0  0
  146.4976  137.2553  151.1675 C   0  0  0  0  0  0  0  0  0  0  0  0
  146.8942  139.2536  152.6911 C   0  0  0  0  0  0  0  0  0  0  0  0
  152.1762  143.7562  158.1340 N   0  0  0  0  0  0  0  0  0  0  0  0
  152.2125  145.0656  157.5123 C   0  0  0  0  0  0  0  0  0  0  0  0
  152.9585  143.4950  159.2034 N   0  0  0  0  0  0  0  0  0  0  0  0
  153.0935  140.5801  160.8432 H   0  0  0  0  0  0  0  0  0  0  0  0
  153.1788  142.1561  161.6234 H   0  0  0  0  0  0  0  0  0  0  0  0
  154.4792  141.6276  160.5577 H   0  0  0  0  0  0  0  0  0  0  0  0
  151.3163  140.6384  158.7211 H   0  0  0  0  0  0  0  0  0  0  0  0
  150.1770  143.5606  156.5212 H   0  0  0  0  0  0  0  0  0  0  0  0
  149.0222  143.0018  155.0352 H   0  0  0  0  0  0  0  0  0  0  0  0
  149.0847  141.3021  153.1246 H   0  0  0  0  0  0  0  0  0  0  0  0
  148.8615  140.1208  154.3916 H   0  0  0  0  0  0  0  0  0  0  0  0
  146.8712  141.9912  153.1794 H   0  0  0  0  0  0  0  0  0  0  0  0
  146.9452  143.0936  155.3374 H   0  0  0  0  0  0  0  0  0  0  0  0
  146.7668  141.5710  156.1924 H   0  0  0  0  0  0  0  0  0  0  0  0
  145.4478  142.1909  155.2011 H   0  0  0  0  0  0  0  0  0  0  0  0
  147.0064  138.8420  155.3961 H   0  0  0  0  0  0  0  0  0  0  0  0
  145.6516  139.8760  155.8060 H   0  0  0  0  0  0  0  0  0  0  0  0
  144.9337  137.5071  155.5862 H   0  0  0  0  0  0  0  0  0  0  0  0
  144.1252  138.5282  154.4206 H   0  0  0  0  0  0  0  0  0  0  0  0
  146.5350  136.7252  153.8816 H   0  0  0  0  0  0  0  0  0  0  0  0
  144.9028  136.4678  153.3076 H   0  0  0  0  0  0  0  0  0  0  0  0
  145.0000  138.5437  151.9729 H   0  0  0  0  0  0  0  0  0  0  0  0
  147.4371  136.7777  151.4476 H   0  0  0  0  0  0  0  0  0  0  0  0
  146.6850  137.8658  150.2837 H   0  0  0  0  0  0  0  0  0  0  0  0
  145.7971  136.4699  150.8819 H   0  0  0  0  0  0  0  0  0  0  0  0
  147.0580  139.8809  151.8138 H   0  0  0  0  0  0  0  0  0  0  0  0
  147.8669  138.8530  152.9795 H   0  0  0  0  0  0  0  0  0  0  0  0
  152.2861  144.9585  156.4298 H   0  0  0  0  0  0  0  0  0  0  0  0
  153.0729  145.6344  157.8676 H   0  0  0  0  0  0  0  0  0  0  0  0
  151.3009  145.6113  157.7568 H   0  0  0  0  0  0  0  0  0  0  0  0
  145.4304  140.3725  153.4679 H   0  0  0  0  0  0  0  0  0  0  0  0
  1  2  1  0  0  0  0
  1 22  1  0  0  0  0
  1 23  1  0  0  0  0
  1 24  1  0  0  0  0
  2 21  2  0  0  0  0
  2  3  1  0  0  0  0
  3  4  2  0  0  0  0
  3 25  1  0  0  0  0
  4  5  1  0  0  0  0
  4 19  1  0  0  0  0
  5  6  1  0  0  0  0
  5 26  1  0  0  0  0
  6  7  2  0  0  0  0
  6  8  1  0  0  0  0
  8  9  1  0  0  0  0
  8 27  1  0  0  0  0
  9 10  1  0  0  0  0
  9 28  1  0  0  0  0
  9 29  1  0  0  0  0
 10 11  1  0  0  0  0
 10 12  1  0  0  0  0
 10 30  1  0  0  0  0
 11 31  1  0  0  0  0
 11 32  1  0  0  0  0
 11 33  1  0  0  0  0
 12 18  1  0  0  0  0
 12 13  1  0  0  0  0
 12 49  1  0  0  0  0
 13 14  1  0  0  0  0
 13 34  1  0  0  0  0
 13 35  1  0  0  0  0
 14 15  1  0  0  0  0
 14 36  1  0  0  0  0
 14 37  1  0  0  0  0
 15 16  1  0  0  0  0
 15 38  1  0  0  0  0
 15 39  1  0  0  0  0
 16 17  1  0  0  0  0
 16 18  1  0  0  0  0
 16 40  1  0  0  0  0
 17 41  1  0  0  0  0
 17 42  1  0  0  0  0
 17 43  1  0  0  0  0
 18 44  1  0  0  0  0
 18 45  1  0  0  0  0
 19 20  1  0  0  0  0
 19 21  1  0  0  0  0
 20 46  1  0  0  0  0
 20 47  1  0  0  0  0
 20 48  1  0  0  0  0
M  CHG  1  12   1
M  END
> <s_m_source_file>
AV-unprocessed.smi

> <i_m_source_file_index>
1205

> <i_lp_mmshare_version>
43012

> <i_f3d_flags>
0

> <s_epik_input>
W0NIM11jMVtjSF1jKG4objEpW0NIM10pW05IXUMoPU8pW05IXVtDSDJdW0NASF0oW0NIM10pTjJbQ0gyXVtDSDJdW0NIMl1bQ0BASF0oW0NIM10pW0NIMl0y

> <s_epik_cmdline>
J2VwaWtfcHl0aG9uJywgJy1waCcsICc3LjAnLCAnLXRuJywgJzgnLCAnLW1hJywgJzIwMCcsICctbWV0YWxfYmluZGluZycsICctaW1hZScsICc8aW5maWxlLm1hZT4nLCAnLW9tYWUnLCAnPG91dGZpbGUubWFlPic=

> <r_lp_tautomer_probability>
1

> <r_epik_Ionization_Penalty>
0.0020309

> <r_epik_Ionization_Penalty_Charging>
0.00195276

> <r_epik_Ionization_Penalty_Neutral>
7.81448e-05

> <r_epik_State_Penalty>
0.00133177

> <r_epik_Charging_Adjusted_Penalty>
0.00328452

> <i_epik_Tot_Q>
1

> <i_epik_Tot_abs_Q>
1

> <r_epik_Metal_State_Penalty>
-0

> <b_epik_Metal_Only>
0

> <s_lp_Force_Field>
OPLS_2005

> <r_lp_Energy>
21.6269

> <b_lp_Chiralities_Consistent>
1

> <s_lp_Variant>
AV-unprocessed.smi:1205-7

> <Gold.Version>
5.8.1

> <Gold.Id.Protein>
6NUR|6NUR_protein|mol2

> <Gold.PLP.Fitness>
48.7794

> <Gold.PLP.PLP>
-39.1410

> <Gold.PLP.part.hbond>
-3.0000

> <Gold.PLP.part.metal>
0.0000

> <Gold.PLP.part.buried>
-1.6898

> <Gold.PLP.part.nonpolar>
-35.3962

> <Gold.PLP.part.repulsive>
0.2702

> <Gold.PLP.ligand.clash>
0.5465

> <Gold.PLP.ligand.torsion>
0.9769

> <Gold.PLP.Chemscore.Hbond>
4.0000

> <Gold.PLP.Chemscore.CHOScore>
0.0000

> <Gold.PLP.Chemscore.Metal>
0.0000

> <Gold.Chemscore.Hbonds>
donor molecule, donor type, donor heavy atom, donor atom, acceptor molecule, acceptor atom, score
      L1  H     5    26       P1  8028  1.00
      L1  H     8    27       P1  8028  1.00
      L1  H    12    49       P1 10175  2.00

> <Gold.PLP.Chemscore.Internal.Correction>
0.1387

> <Gold.Rescore>
     Score         DG    S(hbond)    S(metal)    S(lipo)     H(rot)  DE(clash)    DE(int)     intcor
     18.78     -22.45       2.94        0.00      93.18       1.47       2.57       1.09       ----

> <Gold.Chemscore.Fitness>
18.7848

> <Gold.Chemscore.DG>
-22.4479

> <Gold.Chemscore.ZeroCoef>
-5.4800

> <Gold.Chemscore.Hbond>
2.9397

> <Gold.Chemscore.Metal>
0.0000

> <Gold.Chemscore.Lipo>
93.1780

> <Gold.Chemscore.Internal_Hbond>
0.0000

> <Gold.Chemscore.DEClash>
2.5704

> <Gold.Chemscore.DEInternal>
1.0927

> <Gold.Chemscore.Rot>
1.4658

> <Gold.Chemscore.Internal.Correction>
   9.000000E+99

> <Gold.Chemscore.Hbonds>
donor molecule, donor type, donor heavy atom, donor atom, acceptor molecule, acceptor atom, score
      L1  H     5    26       P1  8028  0.97
      L1  H     8    27       P1  8028  0.99
      L1  H    12    49       P1 10175  0.95

> <Gold.Chemscore.Hbond.Weighted>
-9.8186

> <Gold.Chemscore.Metal.Weighted>
-0.0000

> <Gold.Chemscore.Lipo.Weighted>
-10.9018

> <Gold.Chemscore.Internal_Hbond.Weighted>
0.0000

> <Gold.Chemscore.DEClash.Weighted>
2.5704

> <Gold.Chemscore.DEInternal.Weighted>
1.0927

> <Gold.Chemscore.Rot.Weighted>
3.7526

> <Gold.Chemscore.Internal.Correction.Weighted>
   9.000000E+99

> <Gold.Protein.RotatedTorsions>
[ 6907 6896 6895 6894 ] final   56.26 input  -60.11 | X-H torsion
[ 7974 7965 7964 7962 ] final  179.97 input  175.53 | X-H torsion
[ 8008 7997 7996 7995 ] final   76.71 input   59.86 | X-H torsion
[ 10167 10162 10161 10158 ] final  -93.73 input  -65.29 | X-H torsion
[ 10718 10713 10712 10709 ] final  166.04 input   66.30 | X-H torsion
[ 10763 10752 10751 10750 ] final  -23.75 input  -60.55 | X-H torsion
[ 11005 11000 10999 10996 ] final -131.10 input  -57.11 | X-H torsion

> <Gold.Protein.ActiveResidues>
 VAL166  LYS551  ARG553  GLY616  TRP617  ASP618  TYR619  PRO620  LYS621  CYS622 
 ASP623  PHE694  ASN695  SER759  ASP760  ASP761  ALA762  ILE779  LEU786  VAL792 
 PHE793  MET794  SER795  GLU796  ALA797  LYS798  CYS799  TRP800  GLU811  SER814 

> <Gold.Protein.RotatedAtoms>
  152.3618  134.6860  160.0204 H   0  0  0  0  0  0  0  0  0  0  0  0  # atno 6907 bound_to 6896
  151.7181  133.3308  159.3316 H   0  0  0  0  0  0  0  0  0  0  0  0  # atno 6908 bound_to 6896
  150.7610  134.6407  159.6280 H   0  0  0  0  0  0  0  0  0  0  0  0  # atno 6909 bound_to 6896
  144.7141  140.0628  143.6432 H   0  0  0  0  0  0  0  0  0  0  0  0  # atno 7974 bound_to 7965
  155.8313  140.3466  155.5574 H   0  0  0  0  0  0  0  0  0  0  0  0  # atno 8008 bound_to 7997
  155.8239  140.0917  157.1852 H   0  0  0  0  0  0  0  0  0  0  0  0  # atno 8009 bound_to 7997
  154.4004  140.1425  156.3520 H   0  0  0  0  0  0  0  0  0  0  0  0  # atno 8010 bound_to 7997
  140.3216  143.3046  152.0040 H   0  0  0  0  0  0  0  0  0  0  0  0  # atno 10167 bound_to 10162
  157.0716  131.0368  151.2609 H   0  0  0  0  0  0  0  0  0  0  0  0  # atno 10718 bound_to 10713
  153.6728  135.6971  153.5141 H   0  0  0  0  0  0  0  0  0  0  0  0  # atno 10763 bound_to 10752
  153.2544  135.4264  155.0830 H   0  0  0  0  0  0  0  0  0  0  0  0  # atno 10764 bound_to 10752
  154.8422  135.3539  154.6272 H   0  0  0  0  0  0  0  0  0  0  0  0  # atno 10765 bound_to 10752
  140.9288  134.1347  157.4252 H   0  0  0  0  0  0  0  0  0  0  0  0  # atno 11005 bound_to 11000
  145.9849  139.2970  143.1019 LP  0  0  0  0  0  0  0  0  0  0  0  0  # atno 17320 bound_to 7965
  145.8968  140.9268  143.0523 LP  0  0  0  0  0  0  0  0  0  0  0  0  # atno 17321 bound_to 7965
  139.4873  144.6306  151.7077 LP  0  0  0  0  0  0  0  0  0  0  0  0  # atno 17342 bound_to 10162
  140.5478  144.0475  150.6114 LP  0  0  0  0  0  0  0  0  0  0  0  0  # atno 17343 bound_to 10162
  157.4873  130.7801  149.7473 LP  0  0  0  0  0  0  0  0  0  0  0  0  # atno 17370 bound_to 10713
  155.9949  130.3915  150.2841 LP  0  0  0  0  0  0  0  0  0  0  0  0  # atno 17371 bound_to 10713
  139.8791  134.9998  156.5972 LP  0  0  0  0  0  0  0  0  0  0  0  0  # atno 17394 bound_to 11000
  140.7890  133.8597  155.8630 LP  0  0  0  0  0  0  0  0  0  0  0  0  # atno 17395 bound_to 11000

$$$$
