#       Name:                AV-unprocessed.smi:2993
#       Creating user name   scv26
#       Creation time:       Fri Mar 27 16:32:43 2020


#       File generated by GOLD software.
#

@<TRIPOS>MOLECULE
AV-unprocessed.smi:2993
    39    40     1
SMALL
NO_CHARGES


@<TRIPOS>ATOM
      1 ****        -2.4775   0.0219  -1.8925 C.3            1 S1                 0.0000
      2 ****        -2.3381   1.1342  -0.8930 C.2            1 S1                 0.0000
      3 ****        -2.4967   2.3840  -1.2945 N.2            1 S1                 0.0000
      4 ****        -2.2977   3.1795  -0.1622 O.3            1 S1                 0.0000
      5 ****        -2.0208   2.3672   0.8892 C.2            1 S1                 0.0000
      6 ****        -1.7662   3.0295   2.2007 C.3            1 S1                 0.0000
      7 ****        -2.0334   1.0569   0.4975 C.2            1 S1                 0.0000
      8 ****        -1.7767  -0.1702   1.3343 C.3            1 S1                 0.0000
      9 ****        -0.2948  -0.5359   1.2613 C.2            1 S1                 0.0000
     10 ****         0.4754  -0.1593   2.1442 O.2            1 S1                 0.0000
     11 ****         0.0885  -1.2587   0.1974 N.am           1 S1                 0.0000
     12 ****         1.4562  -1.6667  -0.1023 C.3            1 S1                 0.0000
     13 ****         1.4116  -2.9447  -0.9509 C.3            1 S1                 0.0000
     14 ****         2.2656  -0.5847  -0.7972 C.3            1 S1                 0.0000
     15 ****         3.7751  -0.6292  -0.8076 C.3            1 S1                 0.0000
     16 ****         3.0554   0.4360  -0.0124 C.3            1 S1                 0.0000
     17 ****        -1.6162  -0.0111  -2.5600 H              1 S1                 0.0000
     18 ****        -3.3704   0.1505  -2.5047 H              1 S1                 0.0000
     19 ****        -2.5529  -0.9486  -1.4032 H              1 S1                 0.0000
     20 ****        -0.9089   2.5779   2.7004 H              1 S1                 0.0000
     21 ****        -2.6312   2.9299   2.8564 H              1 S1                 0.0000
     22 ****        -1.5587   4.0919   2.0709 H              1 S1                 0.0000
     23 ****        -2.0482  -0.0022   2.3773 H              1 S1                 0.0000
     24 ****        -2.3771  -1.0177   1.0025 H              1 S1                 0.0000
     25 ****        -0.6197  -1.5224  -0.4719 H              1 S1                 0.0000
     26 ****         1.9580  -1.9166   0.8346 H              1 S1                 0.0000
     27 ****         2.4164  -3.3169  -1.1528 H              1 S1                 0.0000
     28 ****         0.9250  -2.7671  -1.9105 H              1 S1                 0.0000
     29 ****         0.8648  -3.7384  -0.4403 H              1 S1                 0.0000
     30 ****         1.8039  -0.2209  -1.7137 H              1 S1                 0.0000
     31 ****         4.2634  -1.4264  -0.2504 H              1 S1                 0.0000
     32 ****         4.2797  -0.3217  -1.7213 H              1 S1                 0.0000
     33 ****         3.0773   1.4540  -0.3962 H              1 S1                 0.0000
     34 ****         3.0703   0.3462   1.0719 H              1 S1                 0.0000
     35 ****        -2.7145   2.6964  -2.2192 LP             1 S1                 0.0000
     36 ****        -3.1247   3.7085   0.0284 LP             1 S1                 0.0000
     37 ****        -1.5317   3.8031  -0.3181 LP             1 S1                 0.0000
     38 ****         0.1313   0.3857   2.9088 LP             1 S1                 0.0000
     39 ****         1.4452  -0.3983   2.0970 LP             1 S1                 0.0000
@<TRIPOS>BOND
    1    1    2 1     
    2    1   17 1     
    3    1   18 1     
    4    1   19 1     
    5    2    7 1     
    6    2    3 2     
    7    3    4 1     
    8    4    5 1     
    9    5    6 1     
   10    5    7 2     
   11    6   20 1     
   12    6   21 1     
   13    6   22 1     
   14    7    8 1     
   15    8    9 1     
   16    8   23 1     
   17    8   24 1     
   18    9   10 2     
   19    9   11 am    
   20   11   12 1     
   21   11   25 1     
   22   12   13 1     
   23   12   14 1     
   24   12   26 1     
   25   13   27 1     
   26   13   28 1     
   27   13   29 1     
   28   14   16 1     
   29   14   15 1     
   30   14   30 1     
   31   15   16 1     
   32   15   31 1     
   33   15   32 1     
   34   16   33 1     
   35   16   34 1     
   36    3   35 1     
   37    4   36 1     
   38    4   37 1     
   39   10   38 1     
   40   10   39 1     
@<TRIPOS>SUBSTRUCTURE
      1 S1             1
@<TRIPOS>SET
LONE_PAIRS      STATIC     ATOMS    <user>   **** ""
5 35 36 37 38 39
DONOR_HYDROGENS      STATIC     ATOMS    <user>   **** ""
1 25
ATOM$BLUE        STATIC     ATOMS    COLORGROUP SYSTEM
5 35 36 37 38 39
ATOM$RED        STATIC     ATOMS    COLORGROUP SYSTEM
1 25
