AV-unprocessed.smi:243|AV-procd|sdf|1851|dock2
  -GOLD-   2262020473D 1   1.00000     0.00000
 Structure written by MMmdl.
 58 61  0  0  0  0  0  0  0  0  2 V2000
  145.3242  134.9564  151.2435 C   0  0  0  0  0  0  0  0  0  0  0  0
  145.1422  136.4553  151.5236 C   0  0  0  0  0  0  0  0  0  0  0  0
  146.2345  137.0167  152.3582 N   0  3  1  0  0  0  0  0  0  0  0  0
  146.2946  138.4955  152.2820 C   0  0  0  0  0  0  0  0  0  0  0  0
  147.5471  139.0094  152.9976 C   0  0  0  0  0  0  0  0  0  0  0  0
  147.5662  138.5858  154.4830 C   0  0  2  0  0  0  0  0  0  0  0  0
  148.7184  139.1387  155.2172 N   0  0  0  0  0  0  0  0  0  0  0  0
  150.0444  139.0796  154.6119 C   0  0  0  0  0  0  0  0  0  0  0  0
  148.5361  140.1120  156.1466 C   0  0  0  0  0  0  0  0  0  0  0  0
  147.2854  140.2952  156.6408 N   0  0  0  0  0  0  0  0  0  0  0  0
  147.0516  141.2291  157.5664 C   0  0  0  0  0  0  0  0  0  0  0  0
  147.9131  142.0751  158.1321 N   0  0  0  0  0  0  0  0  0  0  0  0
  149.1763  141.8872  157.6545 C   0  0  0  0  0  0  0  0  0  0  0  0
  149.5763  140.9289  156.6793 C   0  0  0  0  0  0  0  0  0  0  0  0
  150.9463  141.0260  156.4652 N   0  0  0  0  0  0  0  0  0  0  0  0
  151.3310  141.9871  157.2586 C   0  0  0  0  0  0  0  0  0  0  0  0
  150.3289  142.5716  157.9982 N   0  0  0  0  0  0  0  0  0  0  0  0
  150.4718  143.6619  158.9499 C   0  0  0  0  0  0  0  0  0  0  0  0
  151.9427  144.0707  159.2198 C   0  0  1  0  0  0  0  0  0  0  0  0
  152.4900  144.6887  158.0703 O   0  0  0  0  0  0  0  0  0  0  0  0
  152.0660  145.0102  160.4080 C   0  0  0  0  0  0  0  0  0  0  0  0
  152.1298  144.0528  161.5970 C   0  0  0  0  0  0  0  0  0  0  0  0
  152.6515  142.8267  161.0915 O   0  0  0  0  0  0  0  0  0  0  0  0
  152.8426  142.9191  159.6839 C   0  0  0  0  0  0  0  0  0  0  0  0
  147.4124  137.0409  154.5880 C   0  0  1  0  0  0  0  0  0  0  0  0
  147.2532  136.5325  156.0317 C   0  0  0  0  0  0  0  0  0  0  0  0
  146.1907  136.5592  153.7707 C   0  0  0  0  0  0  0  0  0  0  0  0
  144.5670  134.6040  150.5428 H   0  0  0  0  0  0  0  0  0  0  0  0
  145.2296  134.3544  152.1467 H   0  0  0  0  0  0  0  0  0  0  0  0
  146.3005  134.7532  150.8024 H   0  0  0  0  0  0  0  0  0  0  0  0
  145.1254  136.9704  150.5622 H   0  0  0  0  0  0  0  0  0  0  0  0
  144.1757  136.6458  151.9926 H   0  0  0  0  0  0  0  0  0  0  0  0
  146.3270  138.8129  151.2388 H   0  0  0  0  0  0  0  0  0  0  0  0
  145.3948  138.9303  152.7206 H   0  0  0  0  0  0  0  0  0  0  0  0
  148.4113  138.6119  152.4667 H   0  0  0  0  0  0  0  0  0  0  0  0
  147.5981  140.0959  152.9179 H   0  0  0  0  0  0  0  0  0  0  0  0
  146.6797  139.0267  154.9412 H   0  0  0  0  0  0  0  0  0  0  0  0
  150.8170  139.3037  155.3489 H   0  0  0  0  0  0  0  0  0  0  0  0
  150.1509  139.7809  153.7864 H   0  0  0  0  0  0  0  0  0  0  0  0
  150.2385  138.0775  154.2288 H   0  0  0  0  0  0  0  0  0  0  0  0
  146.0283  141.3101  157.9024 H   0  0  0  0  0  0  0  0  0  0  0  0
  152.3621  142.3038  157.3209 H   0  0  0  0  0  0  0  0  0  0  0  0
  149.9084  144.5167  158.5736 H   0  0  0  0  0  0  0  0  0  0  0  0
  149.9834  143.3631  159.8781 H   0  0  0  0  0  0  0  0  0  0  0  0
  152.5730  145.6150  158.2379 H   0  0  0  0  0  0  0  0  0  0  0  0
  153.0007  145.5713  160.3547 H   0  0  0  0  0  0  0  0  0  0  0  0
  151.2513  145.7315  160.4819 H   0  0  0  0  0  0  0  0  0  0  0  0
  152.7501  144.4427  162.4042 H   0  0  0  0  0  0  0  0  0  0  0  0
  151.1326  143.8678  161.9978 H   0  0  0  0  0  0  0  0  0  0  0  0
  152.6504  141.9706  159.1846 H   0  0  0  0  0  0  0  0  0  0  0  0
  153.8923  143.1655  159.5147 H   0  0  0  0  0  0  0  0  0  0  0  0
  148.3026  136.5742  154.1631 H   0  0  0  0  0  0  0  0  0  0  0  0
  146.4362  137.0414  156.5442 H   0  0  0  0  0  0  0  0  0  0  0  0
  148.1570  136.6745  156.6168 H   0  0  0  0  0  0  0  0  0  0  0  0
  147.0397  135.4634  156.0500 H   0  0  0  0  0  0  0  0  0  0  0  0
  145.2673  136.9137  154.2320 H   0  0  0  0  0  0  0  0  0  0  0  0
  146.1555  135.4708  153.8023 H   0  0  0  0  0  0  0  0  0  0  0  0
  147.0999  136.6780  151.9625 H   0  0  0  0  0  0  0  0  0  0  0  0
  1  2  1  0  0  0  0
  1 28  1  0  0  0  0
  1 29  1  0  0  0  0
  1 30  1  0  0  0  0
  2  3  1  0  0  0  0
  2 31  1  0  0  0  0
  2 32  1  0  0  0  0
  3 27  1  0  0  0  0
  3  4  1  0  0  0  0
  3 58  1  0  0  0  0
  4  5  1  0  0  0  0
  4 33  1  0  0  0  0
  4 34  1  0  0  0  0
  5  6  1  0  0  0  0
  5 35  1  0  0  0  0
  5 36  1  0  0  0  0
  6  7  1  0  0  0  0
  6 25  1  0  0  0  0
  6 37  1  0  0  0  0
  7  8  1  0  0  0  0
  7  9  1  0  0  0  0
  8 38  1  0  0  0  0
  8 39  1  0  0  0  0
  8 40  1  0  0  0  0
  9 14  1  0  0  0  0
  9 10  2  0  0  0  0
 10 11  1  0  0  0  0
 11 12  2  0  0  0  0
 11 41  1  0  0  0  0
 12 13  1  0  0  0  0
 13 17  1  0  0  0  0
 13 14  2  0  0  0  0
 14 15  1  0  0  0  0
 15 16  2  0  0  0  0
 16 17  1  0  0  0  0
 16 42  1  0  0  0  0
 17 18  1  0  0  0  0
 18 19  1  0  0  0  0
 18 43  1  0  0  0  0
 18 44  1  0  0  0  0
 19 24  1  0  0  0  0
 19 20  1  0  0  0  0
 19 21  1  0  0  0  0
 20 45  1  0  0  0  0
 21 22  1  0  0  0  0
 21 46  1  0  0  0  0
 21 47  1  0  0  0  0
 22 23  1  0  0  0  0
 22 48  1  0  0  0  0
 22 49  1  0  0  0  0
 23 24  1  0  0  0  0
 24 50  1  0  0  0  0
 24 51  1  0  0  0  0
 25 26  1  0  0  0  0
 25 27  1  0  0  0  0
 25 52  1  0  0  0  0
 26 53  1  0  0  0  0
 26 54  1  0  0  0  0
 26 55  1  0  0  0  0
 27 56  1  0  0  0  0
 27 57  1  0  0  0  0
M  CHG  1   3   1
M  END
> <s_m_source_file>
AV-unprocessed.smi

> <i_m_source_file_index>
243

> <i_lp_mmshare_version>
43012

> <i_f3d_flags>
0

> <s_epik_input>
W0NIM11bQ0gyXU4xW0NIMl1bQ0gyXVtDQEhdKFtDQEBIXShbQ0gzXSlbQ0gyXTEpTihbQ0gzXSljKG5bY0hdbjIpYyhjMjMpbltjSF1uM1tDSDJdW0NAQF00KFtPSF0pW0NIMl1bQ0gyXU9bQ0gyXTQ=

> <s_epik_cmdline>
J2VwaWtfcHl0aG9uJywgJy1waCcsICc3LjAnLCAnLXRuJywgJzgnLCAnLW1hJywgJzIwMCcsICctbWV0YWxfYmluZGluZycsICctaW1hZScsICc8aW5maWxlLm1hZT4nLCAnLW9tYWUnLCAnPG91dGZpbGUubWFlPic=

> <r_lp_tautomer_probability>
1

> <r_epik_Ionization_Penalty>
0.00253099

> <r_epik_Ionization_Penalty_Charging>
0.00137877

> <r_epik_Ionization_Penalty_Neutral>
0.00115221

> <r_epik_State_Penalty>
-0

> <r_epik_Charging_Adjusted_Penalty>
0.00137877

> <i_epik_Tot_Q>
1

> <i_epik_Tot_abs_Q>
1

> <r_epik_Metal_State_Penalty>
-0

> <b_epik_Metal_Only>
0

> <s_lp_Force_Field>
OPLS_2005

> <r_lp_Energy>
48.9209

> <b_lp_Chiralities_Consistent>
1

> <s_lp_Variant>
AV-unprocessed.smi:243-4

> <Gold.Version>
5.8.1

> <Gold.Id.Protein>
6NUR|6NUR_protein|mol2

> <Gold.PLP.Fitness>
47.3745

> <Gold.PLP.PLP>
-41.7374

> <Gold.PLP.part.hbond>
-1.0000

> <Gold.PLP.part.metal>
0.0000

> <Gold.PLP.part.buried>
-6.5772

> <Gold.PLP.part.nonpolar>
-33.7874

> <Gold.PLP.part.repulsive>
0.2132

> <Gold.PLP.ligand.clash>
0.0000

> <Gold.PLP.ligand.torsion>
0.5839

> <Gold.PLP.Chemscore.Hbond>
2.0000

> <Gold.PLP.Chemscore.CHOScore>
0.0000

> <Gold.PLP.Chemscore.Metal>
0.0000

> <Gold.Chemscore.Hbonds>
donor molecule, donor type, donor heavy atom, donor atom, acceptor molecule, acceptor atom, score
      L1  H     3    58       P1  7948  2.00

> <Gold.PLP.Chemscore.Internal.Correction>
0.8048

> <Gold.Rescore>
     Score         DG    S(hbond)    S(metal)    S(lipo)     H(rot)  DE(clash)    DE(int)     intcor
     11.40     -14.80       0.98        0.00     100.56       2.24       0.30       3.11       ----

> <Gold.Chemscore.Fitness>
11.3956

> <Gold.Chemscore.DG>
-14.8038

> <Gold.Chemscore.ZeroCoef>
-5.4800

> <Gold.Chemscore.Hbond>
0.9843

> <Gold.Chemscore.Metal>
0.0000

> <Gold.Chemscore.Lipo>
100.5584

> <Gold.Chemscore.Internal_Hbond>
0.0000

> <Gold.Chemscore.DEClash>
0.2991

> <Gold.Chemscore.DEInternal>
3.1090

> <Gold.Chemscore.Rot>
2.2379

> <Gold.Chemscore.Internal.Correction>
   9.000000E+99

> <Gold.Chemscore.Hbonds>
donor molecule, donor type, donor heavy atom, donor atom, acceptor molecule, acceptor atom, score
      L1  H     3    58       P1  7948  0.99

> <Gold.Chemscore.Hbond.Weighted>
-3.2875

> <Gold.Chemscore.Metal.Weighted>
-0.0000

> <Gold.Chemscore.Lipo.Weighted>
-11.7653

> <Gold.Chemscore.Internal_Hbond.Weighted>
0.0000

> <Gold.Chemscore.DEClash.Weighted>
0.2991

> <Gold.Chemscore.DEInternal.Weighted>
3.1090

> <Gold.Chemscore.Rot.Weighted>
5.7291

> <Gold.Chemscore.Internal.Correction.Weighted>
   9.000000E+99

> <Gold.Protein.RotatedTorsions>
[ 6907 6896 6895 6894 ] final   97.85 input  -60.11 | X-H torsion
[ 7974 7965 7964 7962 ] final  140.05 input  175.53 | X-H torsion
[ 8008 7997 7996 7995 ] final -101.09 input   59.86 | X-H torsion
[ 10167 10162 10161 10158 ] final   53.32 input  -65.29 | X-H torsion
[ 10718 10713 10712 10709 ] final  140.32 input   66.30 | X-H torsion
[ 10763 10752 10751 10750 ] final -143.86 input  -60.55 | X-H torsion
[ 11005 11000 10999 10996 ] final -129.76 input  -57.11 | X-H torsion

> <Gold.Protein.ActiveResidues>
 VAL166  LYS551  ARG553  GLY616  TRP617  ASP618  TYR619  PRO620  LYS621  CYS622 
 ASP623  PHE694  ASN695  SER759  ASP760  ASP761  ALA762  ILE779  LEU786  VAL792 
 PHE793  MET794  SER795  GLU796  ALA797  LYS798  CYS799  TRP800  GLU811  SER814 

> <Gold.Protein.RotatedAtoms>
  152.5418  134.0671  159.8177 H   0  0  0  0  0  0  0  0  0  0  0  0  # atno 6907 bound_to 6896
  151.0791  133.5397  159.2629 H   0  0  0  0  0  0  0  0  0  0  0  0  # atno 6908 bound_to 6896
  151.2231  135.0534  159.9012 H   0  0  0  0  0  0  0  0  0  0  0  0  # atno 6909 bound_to 6896
  144.9222  139.5153  143.5658 H   0  0  0  0  0  0  0  0  0  0  0  0  # atno 7974 bound_to 7965
  154.8377  140.0436  157.1520 H   0  0  0  0  0  0  0  0  0  0  0  0  # atno 8008 bound_to 7997
  154.9081  140.3010  155.5260 H   0  0  0  0  0  0  0  0  0  0  0  0  # atno 8009 bound_to 7997
  156.2990  140.2363  156.4117 H   0  0  0  0  0  0  0  0  0  0  0  0  # atno 8010 bound_to 7997
  140.2420  144.3573  150.6377 H   0  0  0  0  0  0  0  0  0  0  0  0  # atno 10167 bound_to 10162
  157.4045  131.1021  151.0517 H   0  0  0  0  0  0  0  0  0  0  0  0  # atno 10718 bound_to 10713
  154.8452  135.3456  154.6255 H   0  0  0  0  0  0  0  0  0  0  0  0  # atno 10763 bound_to 10752
  153.6864  135.6977  153.5107 H   0  0  0  0  0  0  0  0  0  0  0  0  # atno 10764 bound_to 10752
  153.2629  135.4317  155.0867 H   0  0  0  0  0  0  0  0  0  0  0  0  # atno 10765 bound_to 10752
  140.9404  134.1201  157.4156 H   0  0  0  0  0  0  0  0  0  0  0  0  # atno 11005 bound_to 11000
  146.3210  139.8110  142.8946 LP  0  0  0  0  0  0  0  0  0  0  0  0  # atno 17320 bound_to 7965
  145.3277  141.0259  143.3464 LP  0  0  0  0  0  0  0  0  0  0  0  0  # atno 17321 bound_to 7965
  140.6106  143.2169  151.6893 LP  0  0  0  0  0  0  0  0  0  0  0  0  # atno 17342 bound_to 10162
  139.5074  144.3647  152.0528 LP  0  0  0  0  0  0  0  0  0  0  0  0  # atno 17343 bound_to 10162
  157.1504  130.6181  149.5580 LP  0  0  0  0  0  0  0  0  0  0  0  0  # atno 17370 bound_to 10713
  155.9833  130.4851  150.6924 LP  0  0  0  0  0  0  0  0  0  0  0  0  # atno 17371 bound_to 10713
  139.8819  135.0035  156.6189 LP  0  0  0  0  0  0  0  0  0  0  0  0  # atno 17394 bound_to 11000
  140.7742  133.8713  155.8515 LP  0  0  0  0  0  0  0  0  0  0  0  0  # atno 17395 bound_to 11000

$$$$
