AV-unprocessed.smi:1265|AV-procd|sdf|5317|dock10
  -GOLD-   22720 4443D 1   1.00000     0.00000
 Structure written by MMmdl.
 45 47  0  0  0  0  0  0  0  0  2 V2000
  145.1083  138.1371  152.5035 O   0  0  0  0  0  0  0  0  0  0  0  0
  146.2418  137.7146  152.2793 C   0  0  0  0  0  0  0  0  0  0  0  0
  146.4894  136.5438  151.6753 N   0  0  0  0  0  0  0  0  0  0  0  0
  145.4842  135.5897  151.2081 C   0  0  0  0  0  0  0  0  0  0  0  0
  145.5643  134.2186  151.9577 C   0  0  1  0  0  0  0  0  0  0  0  0
  145.9568  134.4283  153.3860 N   0  0  0  0  0  0  0  0  0  0  0  0
  145.1040  135.3395  154.1638 C   0  0  0  0  0  0  0  0  0  0  0  0
  145.6264  135.5559  155.5946 C   0  0  0  0  0  0  0  0  0  0  0  0
  145.7513  134.3050  156.2572 O   0  0  0  0  0  0  0  0  0  0  0  0
  146.6343  133.4248  155.5760 C   0  0  0  0  0  0  0  0  0  0  0  0
  146.1211  133.1818  154.1469 C   0  0  0  0  0  0  0  0  0  0  0  0
  144.1917  133.5033  151.7929 C   0  0  0  0  0  0  0  0  0  0  0  0
  144.0311  133.0465  150.3388 C   0  0  0  0  0  0  0  0  0  0  0  0
  145.6787  132.6321  149.7196 S   0  0  0  0  0  0  0  0  0  0  0  0
  146.5345  133.2964  151.1754 C   0  0  0  0  0  0  0  0  0  0  0  0
  147.3873  138.3455  152.5919 N   0  0  0  0  0  0  0  0  0  0  0  0
  147.5820  139.6106  153.2135 C   0  0  0  0  0  0  0  0  0  0  0  0
  148.6639  139.7248  154.1153 C   0  0  0  0  0  0  0  0  0  0  0  0
  148.9030  140.9513  154.7677 C   0  0  0  0  0  0  0  0  0  0  0  0
  148.0950  142.0065  154.5318 N   0  3  0  0  0  0  0  0  0  0  0  0
  147.0437  141.9451  153.6871 C   0  0  0  0  0  0  0  0  0  0  0  0
  146.7542  140.7447  153.0066 C   0  0  0  0  0  0  0  0  0  0  0  0
  147.4530  136.2744  151.5407 H   0  0  0  0  0  0  0  0  0  0  0  0
  144.4882  136.0269  151.2723 H   0  0  0  0  0  0  0  0  0  0  0  0
  145.6289  135.4587  150.1367 H   0  0  0  0  0  0  0  0  0  0  0  0
  145.0567  136.3228  153.7020 H   0  0  0  0  0  0  0  0  0  0  0  0
  144.0846  134.9597  154.2193 H   0  0  0  0  0  0  0  0  0  0  0  0
  146.5904  136.0672  155.5809 H   0  0  0  0  0  0  0  0  0  0  0  0
  144.9380  136.1874  156.1564 H   0  0  0  0  0  0  0  0  0  0  0  0
  147.6411  133.8452  155.5594 H   0  0  0  0  0  0  0  0  0  0  0  0
  146.6898  132.4835  156.1229 H   0  0  0  0  0  0  0  0  0  0  0  0
  145.1716  132.6477  154.1973 H   0  0  0  0  0  0  0  0  0  0  0  0
  146.8306  132.5158  153.6612 H   0  0  0  0  0  0  0  0  0  0  0  0
  144.1496  132.5901  152.3820 H   0  0  0  0  0  0  0  0  0  0  0  0
  143.3510  134.1155  152.1186 H   0  0  0  0  0  0  0  0  0  0  0  0
  143.3618  132.1899  150.2552 H   0  0  0  0  0  0  0  0  0  0  0  0
  143.6133  133.8443  149.7249 H   0  0  0  0  0  0  0  0  0  0  0  0
  147.4489  133.8082  150.8741 H   0  0  0  0  0  0  0  0  0  0  0  0
  146.8356  132.4358  151.7701 H   0  0  0  0  0  0  0  0  0  0  0  0
  148.2335  137.8759  152.3047 H   0  0  0  0  0  0  0  0  0  0  0  0
  149.3115  138.8810  154.3062 H   0  0  0  0  0  0  0  0  0  0  0  0
  149.7094  141.1176  155.4670 H   0  0  0  0  0  0  0  0  0  0  0  0
  146.4651  142.8516  153.5845 H   0  0  0  0  0  0  0  0  0  0  0  0
  145.8990  140.7240  152.3500 H   0  0  0  0  0  0  0  0  0  0  0  0
  148.2844  142.8856  155.0143 H   0  0  0  0  0  0  0  0  0  0  0  0
  1  2  2  0  0  0  0
  2  3  1  0  0  0  0
  2 16  1  0  0  0  0
  3  4  1  0  0  0  0
  3 23  1  0  0  0  0
  4  5  1  0  0  0  0
  4 24  1  0  0  0  0
  4 25  1  0  0  0  0
  5 15  1  0  0  0  0
  5  6  1  0  0  0  0
  5 12  1  0  0  0  0
  6 11  1  0  0  0  0
  6  7  1  0  0  0  0
  7  8  1  0  0  0  0
  7 26  1  0  0  0  0
  7 27  1  0  0  0  0
  8  9  1  0  0  0  0
  8 28  1  0  0  0  0
  8 29  1  0  0  0  0
  9 10  1  0  0  0  0
 10 11  1  0  0  0  0
 10 30  1  0  0  0  0
 10 31  1  0  0  0  0
 11 32  1  0  0  0  0
 11 33  1  0  0  0  0
 12 13  1  0  0  0  0
 12 34  1  0  0  0  0
 12 35  1  0  0  0  0
 13 14  1  0  0  0  0
 13 36  1  0  0  0  0
 13 37  1  0  0  0  0
 14 15  1  0  0  0  0
 15 38  1  0  0  0  0
 15 39  1  0  0  0  0
 16 17  1  0  0  0  0
 16 40  1  0  0  0  0
 17 22  1  0  0  0  0
 17 18  2  0  0  0  0
 18 19  1  0  0  0  0
 18 41  1  0  0  0  0
 19 20  2  0  0  0  0
 19 42  1  0  0  0  0
 20 21  1  0  0  0  0
 20 45  1  0  0  0  0
 21 22  2  0  0  0  0
 21 43  1  0  0  0  0
 22 44  1  0  0  0  0
M  CHG  1  20   1
M  END
> <s_m_source_file>
AV-unprocessed.smi

> <i_m_source_file_index>
1265

> <i_lp_mmshare_version>
43012

> <i_f3d_flags>
0

> <s_epik_input>
W2NIXTFbY0hdbltjSF1bY0hdYzFbTkhdQyg9TylbTkhdW0NIMl1bQ0BdMihbQ0gyXVtDSDJdU1tDSDJdMilOM1tDSDJdW0NIMl1PW0NIMl1bQ0gyXTM=

> <s_epik_cmdline>
J2VwaWtfcHl0aG9uJywgJy1waCcsICc3LjAnLCAnLXRuJywgJzgnLCAnLW1hJywgJzIwMCcsICctbWV0YWxfYmluZGluZycsICctaW1hZScsICc8aW5maWxlLm1hZT4nLCAnLW9tYWUnLCAnPG91dGZpbGUubWFlPic=

> <r_epik_Ionization_Penalty>
1.06168

> <r_epik_Ionization_Penalty_Charging>
1.04215

> <r_epik_Ionization_Penalty_Neutral>
0.019527

> <r_epik_State_Penalty>
1.12733

> <r_epik_Charging_Adjusted_Penalty>
2.16948

> <i_epik_Tot_Q>
1

> <i_epik_Tot_abs_Q>
1

> <r_epik_Metal_State_Penalty>
1.22116

> <b_epik_Metal_Only>
0

> <s_lp_Force_Field>
OPLS_2005

> <r_lp_Energy>
64.97

> <b_lp_Chiralities_Consistent>
1

> <s_lp_Variant>
AV-unprocessed.smi:1265-3

> <Gold.Version>
5.8.1

> <Gold.Id.Protein>
6NUR|6NUR_protein|mol2

> <Gold.PLP.Fitness>
39.8816

> <Gold.PLP.PLP>
-29.6276

> <Gold.PLP.part.hbond>
-3.4956

> <Gold.PLP.part.metal>
0.0000

> <Gold.PLP.part.buried>
-0.4785

> <Gold.PLP.part.nonpolar>
-27.8915

> <Gold.PLP.part.repulsive>
2.5687

> <Gold.PLP.ligand.clash>
0.0000

> <Gold.PLP.ligand.torsion>
0.7170

> <Gold.PLP.Chemscore.Hbond>
3.8713

> <Gold.PLP.Chemscore.CHOScore>
0.0000

> <Gold.PLP.Chemscore.Metal>
0.0000

> <Gold.Chemscore.Hbonds>
donor molecule, donor type, donor heavy atom, donor atom, acceptor molecule, acceptor atom, score
      L1  H     3    23       P1  7948  0.93
      L1  H    16    40       P1  7948  0.90
      L1  H    20    45       P1  8028  2.00

> <Gold.PLP.Chemscore.Internal.Correction>
0.0743

> <Gold.Rescore>
     Score         DG    S(hbond)    S(metal)    S(lipo)     H(rot)  DE(clash)    DE(int)     intcor
     17.94     -20.68       2.84        0.00      81.03       1.47       1.95       0.78       ----

> <Gold.Chemscore.Fitness>
17.9430

> <Gold.Chemscore.DG>
-20.6767

> <Gold.Chemscore.ZeroCoef>
-5.4800

> <Gold.Chemscore.Hbond>
2.8416

> <Gold.Chemscore.Metal>
0.0000

> <Gold.Chemscore.Lipo>
81.0268

> <Gold.Chemscore.Internal_Hbond>
0.0000

> <Gold.Chemscore.DEClash>
1.9520

> <Gold.Chemscore.DEInternal>
0.7817

> <Gold.Chemscore.Rot>
1.4743

> <Gold.Chemscore.Internal.Correction>
   9.000000E+99

> <Gold.Chemscore.Hbonds>
donor molecule, donor type, donor heavy atom, donor atom, acceptor molecule, acceptor atom, score
      L1  H     3    23       P1  7948  0.88
      L1  H    16    40       P1  7948  0.88
      L1  H    20    45       P1  8028  0.95

> <Gold.Chemscore.Hbond.Weighted>
-9.4908

> <Gold.Chemscore.Metal.Weighted>
-0.0000

> <Gold.Chemscore.Lipo.Weighted>
-9.4801

> <Gold.Chemscore.Internal_Hbond.Weighted>
0.0000

> <Gold.Chemscore.DEClash.Weighted>
1.9520

> <Gold.Chemscore.DEInternal.Weighted>
0.7817

> <Gold.Chemscore.Rot.Weighted>
3.7742

> <Gold.Chemscore.Internal.Correction.Weighted>
   9.000000E+99

> <Gold.Protein.RotatedTorsions>
[ 6907 6896 6895 6894 ] final  -51.48 input  -60.11 | X-H torsion
[ 7974 7965 7964 7962 ] final -106.83 input  175.53 | X-H torsion
[ 8008 7997 7996 7995 ] final   82.49 input   59.86 | X-H torsion
[ 10167 10162 10161 10158 ] final -103.94 input  -65.29 | X-H torsion
[ 10718 10713 10712 10709 ] final  -90.09 input   66.30 | X-H torsion
[ 10763 10752 10751 10750 ] final -146.09 input  -60.55 | X-H torsion
[ 11005 11000 10999 10996 ] final  131.80 input  -57.11 | X-H torsion

> <Gold.Protein.ActiveResidues>
 VAL166  LYS551  ARG553  GLY616  TRP617  ASP618  TYR619  PRO620  LYS621  CYS622 
 ASP623  PHE694  ASN695  SER759  ASP760  ASP761  ALA762  ILE779  LEU786  VAL792 
 PHE793  MET794  SER795  GLU796  ALA797  LYS798  CYS799  TRP800  GLU811  SER814 

> <Gold.Protein.RotatedAtoms>
  150.8607  134.7958  159.7080 H   0  0  0  0  0  0  0  0  0  0  0  0  # atno 6907 bound_to 6896
  152.4645  134.5104  159.9762 H   0  0  0  0  0  0  0  0  0  0  0  0  # atno 6908 bound_to 6896
  151.5209  133.3428  159.2937 H   0  0  0  0  0  0  0  0  0  0  0  0  # atno 6909 bound_to 6896
  145.2130  140.9104  143.3303 H   0  0  0  0  0  0  0  0  0  0  0  0  # atno 7974 bound_to 7965
  155.9113  140.3427  155.6101 H   0  0  0  0  0  0  0  0  0  0  0  0  # atno 8008 bound_to 7997
  155.7384  140.0804  157.2276 H   0  0  0  0  0  0  0  0  0  0  0  0  # atno 8009 bound_to 7997
  154.4056  140.1575  156.2575 H   0  0  0  0  0  0  0  0  0  0  0  0  # atno 8010 bound_to 7997
  140.2147  143.3720  152.1021 H   0  0  0  0  0  0  0  0  0  0  0  0  # atno 10167 bound_to 10162
  155.9986  130.4897  150.5271 H   0  0  0  0  0  0  0  0  0  0  0  0  # atno 10718 bound_to 10713
  154.8353  135.3396  154.6607 H   0  0  0  0  0  0  0  0  0  0  0  0  # atno 10763 bound_to 10752
  153.7222  135.6957  153.5014 H   0  0  0  0  0  0  0  0  0  0  0  0  # atno 10764 bound_to 10752
  153.2373  135.4396  155.0613 H   0  0  0  0  0  0  0  0  0  0  0  0  # atno 10765 bound_to 10752
  139.9752  134.9565  156.9491 H   0  0  0  0  0  0  0  0  0  0  0  0  # atno 11005 bound_to 11000
  144.9838  139.3757  143.6249 LP  0  0  0  0  0  0  0  0  0  0  0  0  # atno 17320 bound_to 7965
  146.3393  139.8990  142.8797 LP  0  0  0  0  0  0  0  0  0  0  0  0  # atno 17321 bound_to 7965
  139.5167  144.6981  151.5573 LP  0  0  0  0  0  0  0  0  0  0  0  0  # atno 17342 bound_to 10162
  140.6299  143.9097  150.6596 LP  0  0  0  0  0  0  0  0  0  0  0  0  # atno 17343 bound_to 10162
  157.3225  131.0684  151.1921 LP  0  0  0  0  0  0  0  0  0  0  0  0  # atno 17370 bound_to 10713
  157.2830  130.6759  149.6075 LP  0  0  0  0  0  0  0  0  0  0  0  0  # atno 17371 bound_to 10713
  140.5210  134.0907  155.7292 LP  0  0  0  0  0  0  0  0  0  0  0  0  # atno 17394 bound_to 11000
  141.1429  133.9106  157.2283 LP  0  0  0  0  0  0  0  0  0  0  0  0  # atno 17395 bound_to 11000

$$$$
