#       Name:                AV-unprocessed.smi:2253
#       Creating user name   scv26
#       Creation time:       Fri Mar 27 12:32:37 2020


#       File generated by GOLD software.
#

@<TRIPOS>MOLECULE
AV-unprocessed.smi:2253
    55    57     1
SMALL
NO_CHARGES


@<TRIPOS>ATOM
      1 ****        -4.6668  -4.4832  -0.0238 C.3            1 S1                 0.0000
      2 ****        -3.2327  -4.2308  -0.0405 N.3            1 S1                 0.0000
      3 ****        -2.8657  -3.4534   1.1394 C.3            1 S1                 0.0000
      4 ****        -1.3430  -3.2412   1.1792 C.3            1 S1                 0.0000
      5 ****        -0.8198  -2.5117  -0.0820 C.3            1 S1                 0.0000
      6 ****         0.6784  -2.4108  -0.1187 N.4            1 S1                 1.0000
      7 ****         1.3320  -1.9631   1.1447 C.3            1 S1                 0.0000
      8 ****         1.0893  -0.4661   1.4124 C.3            1 S1                 0.0000
      9 ****         1.6100   0.3869   0.2429 C.3            1 S1                 0.0000
     10 ****         1.2905   1.7934   0.4712 N.am           1 S1                 0.0000
     11 ****         1.9440   2.8293  -0.0756 C.2            1 S1                 0.0000
     12 ****         2.8768   2.6931  -0.8659 O.2            1 S1                 0.0000
     13 ****         1.4416   3.9999   0.3549 N.am           1 S1                 0.0000
     14 ****         1.8505   5.3318   0.0609 C.ar           1 S1                 0.0000
     15 ****         2.9336   5.6810  -0.7835 C.ar           1 S1                 0.0000
     16 ****         3.2255   7.0461  -0.9789 C.ar           1 S1                 0.0000
     17 ****         2.5274   8.0474  -0.4034 N.ar           1 S1                 0.0000
     18 ****         1.4969   7.7124   0.4006 C.ar           1 S1                 0.0000
     19 ****         1.1214   6.3797   0.6630 C.ar           1 S1                 0.0000
     20 ****         0.0757   6.1147   1.4833 F              1 S1                 0.0000
     21 ****         1.0110  -0.1109  -1.0877 C.3            1 S1                 0.0000
     22 ****         1.2263  -1.6276  -1.2640 C.3            1 S1                 0.0000
     23 ****        -1.3677  -3.2654  -1.3174 C.3            1 S1                 0.0000
     24 ****        -2.8892  -3.4782  -1.2434 C.3            1 S1                 0.0000
     25 ****        -4.9457  -5.0487   0.8659 H              1 S1                 0.0000
     26 ****        -4.9620  -5.0702  -0.8941 H              1 S1                 0.0000
     27 ****        -5.2363  -3.5526  -0.0299 H              1 S1                 0.0000
     28 ****        -3.3845  -2.4931   1.1383 H              1 S1                 0.0000
     29 ****        -3.1803  -3.9859   2.0380 H              1 S1                 0.0000
     30 ****        -1.1240  -2.6661   2.0783 H              1 S1                 0.0000
     31 ****        -0.8439  -4.2052   1.2892 H              1 S1                 0.0000
     32 ****        -1.2430  -1.5071  -0.0775 H              1 S1                 0.0000
     33 ****         1.0382  -2.5699   1.9990 H              1 S1                 0.0000
     34 ****         2.4055  -2.1333   1.0473 H              1 S1                 0.0000
     35 ****         0.0259  -0.2829   1.5720 H              1 S1                 0.0000
     36 ****         1.5914  -0.1733   2.3354 H              1 S1                 0.0000
     37 ****         2.6954   0.2733   0.2030 H              1 S1                 0.0000
     38 ****         0.5321   1.9923   1.1073 H              1 S1                 0.0000
     39 ****         0.6638   3.9325   0.9952 H              1 S1                 0.0000
     40 ****         3.5468   4.9485  -1.2829 H              1 S1                 0.0000
     41 ****         4.0454   7.3419  -1.6166 H              1 S1                 0.0000
     42 ****         0.9557   8.5318   0.8500 H              1 S1                 0.0000
     43 ****        -0.0526   0.1246  -1.1334 H              1 S1                 0.0000
     44 ****         1.4713   0.4176  -1.9235 H              1 S1                 0.0000
     45 ****         2.2974  -1.8253  -1.3246 H              1 S1                 0.0000
     46 ****         0.8276  -1.9622  -2.2190 H              1 S1                 0.0000
     47 ****        -1.1642  -2.7175  -2.2356 H              1 S1                 0.0000
     48 ****        -0.8702  -4.2318  -1.4142 H              1 S1                 0.0000
     49 ****        -3.2202  -4.0304  -2.1240 H              1 S1                 0.0000
     50 ****        -3.4092  -2.5186  -1.2532 H              1 S1                 0.0000
     51 ****         0.9939  -3.3603  -0.2587 H              1 S1                 0.0000
     52 ****        -2.7379  -5.0998  -0.0363 LP             1 S1                 0.0000
     53 ****         3.1802   1.7770  -1.1282 LP             1 S1                 0.0000
     54 ****         3.3317   3.4984  -1.2460 LP             1 S1                 0.0000
     55 ****         2.7656   9.0047  -0.5672 LP             1 S1                 0.0000
@<TRIPOS>BOND
    1    1    2 1     
    2    1   25 1     
    3    1   26 1     
    4    1   27 1     
    5    2   24 1     
    6    2    3 1     
    7    3    4 1     
    8    3   28 1     
    9    3   29 1     
   10    4    5 1     
   11    4   30 1     
   12    4   31 1     
   13    5    6 1     
   14    5   23 1     
   15    5   32 1     
   16    6   22 1     
   17    6    7 1     
   18    6   51 1     
   19    7    8 1     
   20    7   33 1     
   21    7   34 1     
   22    8    9 1     
   23    8   35 1     
   24    8   36 1     
   25    9   10 1     
   26    9   21 1     
   27    9   37 1     
   28   10   11 am    
   29   10   38 1     
   30   11   12 2     
   31   11   13 am    
   32   13   14 1     
   33   13   39 1     
   34   14   19 ar    
   35   14   15 ar    
   36   15   16 ar    
   37   15   40 1     
   38   16   17 ar    
   39   16   41 1     
   40   17   18 ar    
   41   18   19 ar    
   42   18   42 1     
   43   19   20 1     
   44   21   22 1     
   45   21   43 1     
   46   21   44 1     
   47   22   45 1     
   48   22   46 1     
   49   23   24 1     
   50   23   47 1     
   51   23   48 1     
   52   24   49 1     
   53   24   50 1     
   54    2   52 1     
   55   12   53 1     
   56   12   54 1     
   57   17   55 1     
@<TRIPOS>SUBSTRUCTURE
      1 S1             1
@<TRIPOS>SET
LONE_PAIRS      STATIC     ATOMS    <user>   **** ""
4 52 53 54 55
DONOR_HYDROGENS      STATIC     ATOMS    <user>   **** ""
3 51 38 39
ATOM$BLUE        STATIC     ATOMS    COLORGROUP SYSTEM
4 52 53 54 55
ATOM$RED        STATIC     ATOMS    COLORGROUP SYSTEM
3 51 38 39
