AV-unprocessed.smi:3232|AV-procd|sdf|12346|dock10
  -GOLD-   2272018213D 1   1.00000     0.00000
 Structure written by MMmdl.
 40 41  0  0  0  0  0  0  0  0  2 V2000
  152.8182  142.7595  162.3704 C   0  0  0  0  0  0  0  0  0  0  0  0
  152.0126  143.9703  161.8807 C   0  0  0  0  0  0  0  0  0  0  0  0
  151.7135  143.8940  160.4306 N   0  3  1  0  0  0  0  0  0  0  0  0
  150.8790  144.9987  159.9113 C   0  0  0  0  0  0  0  0  0  0  0  0
  151.1885  145.0613  158.4214 C   0  0  0  0  0  0  0  0  0  0  0  0
  152.6767  144.7379  158.3736 C   0  0  0  0  0  0  0  0  0  0  0  0
  152.9137  143.7850  159.5623 C   0  0  2  0  0  0  0  0  0  0  0  0
  153.1345  142.3161  159.1443 C   0  0  0  0  0  0  0  0  0  0  0  0
  152.1295  141.8464  158.1970 N   0  0  0  0  0  0  0  0  0  0  0  0
  152.1589  140.6648  157.5617 C   0  0  0  0  0  0  0  0  0  0  0  0
  153.0592  139.8394  157.7206 O   0  0  0  0  0  0  0  0  0  0  0  0
  150.9905  140.3796  156.6067 C   0  0  1  0  0  0  0  0  0  0  0  0
  150.5148  141.6382  155.8581 C   0  0  0  0  0  0  0  0  0  0  0  0
  151.3502  139.3181  155.6776 N   0  0  0  0  0  0  0  0  0  0  0  0
  151.6689  138.0380  155.8897 C   0  0  0  0  0  0  0  0  0  0  0  0
  151.9261  137.3581  154.7814 N   0  0  0  0  0  0  0  0  0  0  0  0
  151.7328  138.3459  153.8579 C   0  0  0  0  0  0  0  0  0  0  0  0
  151.3826  139.5378  154.3414 N   0  0  0  0  0  0  0  0  0  0  0  0
  153.0663  142.8640  163.4268 H   0  0  0  0  0  0  0  0  0  0  0  0
  153.7536  142.6592  161.8194 H   0  0  0  0  0  0  0  0  0  0  0  0
  152.2593  141.8306  162.2572 H   0  0  0  0  0  0  0  0  0  0  0  0
  151.0867  144.0673  162.4493 H   0  0  0  0  0  0  0  0  0  0  0  0
  152.5928  144.8741  162.0714 H   0  0  0  0  0  0  0  0  0  0  0  0
  149.8193  144.8333  160.1081 H   0  0  0  0  0  0  0  0  0  0  0  0
  151.1693  145.9385  160.3841 H   0  0  0  0  0  0  0  0  0  0  0  0
  150.6237  144.2936  157.8904 H   0  0  0  0  0  0  0  0  0  0  0  0
  150.9483  146.0276  157.9768 H   0  0  0  0  0  0  0  0  0  0  0  0
  152.9772  144.3259  157.4099 H   0  0  0  0  0  0  0  0  0  0  0  0
  153.2492  145.6542  158.5251 H   0  0  0  0  0  0  0  0  0  0  0  0
  153.7900  144.1387  160.1091 H   0  0  0  0  0  0  0  0  0  0  0  0
  154.1278  142.1892  158.7102 H   0  0  0  0  0  0  0  0  0  0  0  0
  153.0982  141.6690  160.0215 H   0  0  0  0  0  0  0  0  0  0  0  0
  151.3489  142.4612  158.0150 H   0  0  0  0  0  0  0  0  0  0  0  0
  150.1525  140.0280  157.2121 H   0  0  0  0  0  0  0  0  0  0  0  0
  150.2475  142.4343  156.5540 H   0  0  0  0  0  0  0  0  0  0  0  0
  149.6311  141.4199  155.2578 H   0  0  0  0  0  0  0  0  0  0  0  0
  151.2812  142.0264  155.1860 H   0  0  0  0  0  0  0  0  0  0  0  0
  151.7106  137.5944  156.8739 H   0  0  0  0  0  0  0  0  0  0  0  0
  151.8509  138.1809  152.7972 H   0  0  0  0  0  0  0  0  0  0  0  0
  151.1877  143.0455  160.2763 H   0  0  0  0  0  0  0  0  0  0  0  0
  1  2  1  0  0  0  0
  1 19  1  0  0  0  0
  1 20  1  0  0  0  0
  1 21  1  0  0  0  0
  2  3  1  0  0  0  0
  2 22  1  0  0  0  0
  2 23  1  0  0  0  0
  3  7  1  0  0  0  0
  3  4  1  0  0  0  0
  3 40  1  0  0  0  0
  4  5  1  0  0  0  0
  4 24  1  0  0  0  0
  4 25  1  0  0  0  0
  5  6  1  0  0  0  0
  5 26  1  0  0  0  0
  5 27  1  0  0  0  0
  6  7  1  0  0  0  0
  6 28  1  0  0  0  0
  6 29  1  0  0  0  0
  7  8  1  0  0  0  0
  7 30  1  0  0  0  0
  8  9  1  0  0  0  0
  8 31  1  0  0  0  0
  8 32  1  0  0  0  0
  9 10  1  0  0  0  0
  9 33  1  0  0  0  0
 10 11  2  0  0  0  0
 10 12  1  0  0  0  0
 12 13  1  0  0  0  0
 12 14  1  0  0  0  0
 12 34  1  0  0  0  0
 13 35  1  0  0  0  0
 13 36  1  0  0  0  0
 13 37  1  0  0  0  0
 14 18  1  0  0  0  0
 14 15  1  0  0  0  0
 15 16  2  0  0  0  0
 15 38  1  0  0  0  0
 16 17  1  0  0  0  0
 17 18  2  0  0  0  0
 17 39  1  0  0  0  0
M  CHG  1   3   1
M  END
> <s_m_source_file>
AV-unprocessed.smi

> <i_m_source_file_index>
3232

> <i_lp_mmshare_version>
43012

> <i_f3d_flags>
0

> <s_epik_input>
W0NIM11bQ0gyXU4xW0NIMl1bQ0gyXVtDSDJdW0NASF0xW0NIMl1bTkhdQyg9TylbQ0BIXShbQ0gzXSluMltjSF1uW2NIXW4y

> <s_epik_cmdline>
J2VwaWtfcHl0aG9uJywgJy1waCcsICc3LjAnLCAnLXRuJywgJzgnLCAnLW1hJywgJzIwMCcsICctbWV0YWxfYmluZGluZycsICctaW1hZScsICc8aW5maWxlLm1hZT4nLCAnLW9tYWUnLCAnPG91dGZpbGUubWFlPic=

> <r_lp_tautomer_probability>
1

> <r_epik_Ionization_Penalty>
0.00177695

> <r_epik_Ionization_Penalty_Charging>
0.00176881

> <r_epik_Ionization_Penalty_Neutral>
8.13528e-06

> <r_epik_State_Penalty>
0.00119827

> <r_epik_Charging_Adjusted_Penalty>
0.00296709

> <i_epik_Tot_Q>
1

> <i_epik_Tot_abs_Q>
1

> <r_epik_Metal_State_Penalty>
-0

> <b_epik_Metal_Only>
0

> <s_lp_Force_Field>
OPLS_2005

> <r_lp_Energy>
32.5075

> <b_lp_Chiralities_Consistent>
1

> <s_lp_Variant>
AV-unprocessed.smi:3232-8

> <Gold.Version>
5.8.1

> <Gold.Id.Protein>
6NUR|6NUR_protein|mol2

> <Gold.PLP.Fitness>
53.6978

> <Gold.PLP.PLP>
-43.1152

> <Gold.PLP.part.hbond>
-3.0000

> <Gold.PLP.part.metal>
0.0000

> <Gold.PLP.part.buried>
-6.5953

> <Gold.PLP.part.nonpolar>
-32.3042

> <Gold.PLP.part.repulsive>
0.3464

> <Gold.PLP.ligand.clash>
0.0000

> <Gold.PLP.ligand.torsion>
0.7474

> <Gold.PLP.Chemscore.Hbond>
3.0000

> <Gold.PLP.Chemscore.CHOScore>
1.0000

> <Gold.PLP.Chemscore.Metal>
0.0000

> <Gold.Chemscore.Hbonds>
donor molecule, donor type, donor heavy atom, donor atom, acceptor molecule, acceptor atom, score
      P1  H  7989  7998       L1    18  1.00
      P1  H  7997  8010       L1    11  1.00
      P1  H 10752 10764       L1    16  0.91
      L1  C    17    39       P1  7949  0.70

> <Gold.PLP.Chemscore.Internal.Correction>
0.0775

> <Gold.Rescore>
     Score         DG    S(hbond)    S(metal)    S(lipo)     H(rot)  DE(clash)    DE(int)     intcor
     16.97     -19.03       2.56        0.00      97.18       2.49       0.07       1.98       ----

> <Gold.Chemscore.Fitness>
16.9721

> <Gold.Chemscore.DG>
-19.0298

> <Gold.Chemscore.ZeroCoef>
-5.4800

> <Gold.Chemscore.Hbond>
2.5599

> <Gold.Chemscore.Metal>
0.0000

> <Gold.Chemscore.Lipo>
97.1751

> <Gold.Chemscore.Internal_Hbond>
0.0000

> <Gold.Chemscore.DEClash>
0.0742

> <Gold.Chemscore.DEInternal>
1.9835

> <Gold.Chemscore.Rot>
2.4882

> <Gold.Chemscore.Internal.Correction>
   9.000000E+99

> <Gold.Chemscore.Hbonds>
donor molecule, donor type, donor heavy atom, donor atom, acceptor molecule, acceptor atom, score
      P1  H  7989  7998       L1    18  0.95
      P1  H  7997  8010       L1    11  0.97
      P1  H 10752 10764       L1    16  0.84

> <Gold.Chemscore.Hbond.Weighted>
-8.5501

> <Gold.Chemscore.Metal.Weighted>
-0.0000

> <Gold.Chemscore.Lipo.Weighted>
-11.3695

> <Gold.Chemscore.Internal_Hbond.Weighted>
0.0000

> <Gold.Chemscore.DEClash.Weighted>
0.0742

> <Gold.Chemscore.DEInternal.Weighted>
1.9835

> <Gold.Chemscore.Rot.Weighted>
6.3697

> <Gold.Chemscore.Internal.Correction.Weighted>
   9.000000E+99

> <Gold.Protein.RotatedTorsions>
[ 6907 6896 6895 6894 ] final    1.13 input  -60.11 | X-H torsion
[ 7974 7965 7964 7962 ] final  -71.54 input  175.53 | X-H torsion
[ 8008 7997 7996 7995 ] final   35.39 input   59.86 | X-H torsion
[ 10167 10162 10161 10158 ] final   28.25 input  -65.29 | X-H torsion
[ 10718 10713 10712 10709 ] final   89.38 input   66.30 | X-H torsion
[ 10763 10752 10751 10750 ] final  -69.09 input  -60.55 | X-H torsion
[ 11005 11000 10999 10996 ] final  128.79 input  -57.11 | X-H torsion

> <Gold.Protein.ActiveResidues>
 VAL166  LYS551  ARG553  GLY616  TRP617  ASP618  TYR619  PRO620  LYS621  CYS622 
 ASP623  PHE694  ASN695  SER759  ASP760  ASP761  ALA762  ILE779  LEU786  VAL792 
 PHE793  MET794  SER795  GLU796  ALA797  LYS798  CYS799  TRP800  GLU811  SER814 

> <Gold.Protein.RotatedAtoms>
  151.5877  135.1055  160.0031 H   0  0  0  0  0  0  0  0  0  0  0  0  # atno 6907 bound_to 6896
  152.4322  133.7294  159.6589 H   0  0  0  0  0  0  0  0  0  0  0  0  # atno 6908 bound_to 6896
  150.8216  133.8173  159.3159 H   0  0  0  0  0  0  0  0  0  0  0  0  # atno 6909 bound_to 6896
  145.6767  140.9202  143.0854 H   0  0  0  0  0  0  0  0  0  0  0  0  # atno 7974 bound_to 7965
  155.1703  140.3291  155.4394 H   0  0  0  0  0  0  0  0  0  0  0  0  # atno 8008 bound_to 7997
  156.2512  140.1944  156.6757 H   0  0  0  0  0  0  0  0  0  0  0  0  # atno 8009 bound_to 7997
  154.6342  140.0578  156.9755 H   0  0  0  0  0  0  0  0  0  0  0  0  # atno 8010 bound_to 7997
  140.4868  144.0529  150.6283 H   0  0  0  0  0  0  0  0  0  0  0  0  # atno 10167 bound_to 10162
  157.6955  131.0331  150.3417 H   0  0  0  0  0  0  0  0  0  0  0  0  # atno 10718 bound_to 10713
  154.3984  135.6036  153.5883 H   0  0  0  0  0  0  0  0  0  0  0  0  # atno 10763 bound_to 10752
  152.9788  135.5900  154.4214 H   0  0  0  0  0  0  0  0  0  0  0  0  # atno 10764 bound_to 10752
  154.4008  135.2843  155.2075 H   0  0  0  0  0  0  0  0  0  0  0  0  # atno 10765 bound_to 10752
  139.9580  134.9609  156.9054 H   0  0  0  0  0  0  0  0  0  0  0  0  # atno 11005 bound_to 11000
  144.7039  139.8643  143.7436 LP  0  0  0  0  0  0  0  0  0  0  0  0  # atno 17320 bound_to 7965
  146.0999  139.3994  143.0353 LP  0  0  0  0  0  0  0  0  0  0  0  0  # atno 17321 bound_to 7965
  140.3787  143.2814  152.0195 LP  0  0  0  0  0  0  0  0  0  0  0  0  # atno 17342 bound_to 10162
  139.4843  144.6172  151.7324 LP  0  0  0  0  0  0  0  0  0  0  0  0  # atno 17343 bound_to 10162
  156.3877  130.3892  149.7053 LP  0  0  0  0  0  0  0  0  0  0  0  0  # atno 17370 bound_to 10713
  156.4414  130.7863  151.2884 LP  0  0  0  0  0  0  0  0  0  0  0  0  # atno 17371 bound_to 10713
  140.5565  134.0576  155.7385 LP  0  0  0  0  0  0  0  0  0  0  0  0  # atno 17394 bound_to 11000
  141.1254  133.9392  157.2646 LP  0  0  0  0  0  0  0  0  0  0  0  0  # atno 17395 bound_to 11000

$$$$
