AV-unprocessed.smi:1867|AV-procd|sdf|7574|dock1
  -GOLD-   22720 9283D 1   1.00000     0.00000
 Structure written by MMmdl.
 53 56  0  0  0  0  0  0  0  0  3 V2000
  148.7210  137.4505  156.6813 O   0  0  0  0  0  0  0  0  0  0  0  0
  148.4924  137.8730  155.5505 C   0  0  0  0  0  0  0  0  0  0  0  0
  148.8236  139.1033  155.1120 N   0  0  0  0  0  0  0  0  0  0  0  0
  149.5094  140.1338  155.8084 C   0  0  0  0  0  0  0  0  0  0  0  0
  150.3074  139.9171  156.9597 C   0  0  0  0  0  0  0  0  0  0  0  0
  150.9604  141.0093  157.5670 C   0  0  0  0  0  0  0  0  0  0  0  0
  150.8140  142.3032  157.0152 C   0  0  0  0  0  0  0  0  0  0  0  0
  151.4265  143.4509  157.5382 N   0  0  0  0  0  0  0  0  0  0  0  0
  150.5304  144.5259  157.9362 C   0  0  0  0  0  0  0  0  0  0  0  0
  151.3393  145.4181  158.8847 C   0  0  0  0  0  0  0  0  0  0  0  0
  152.5449  144.5682  159.3023 C   0  0  0  0  0  0  0  0  0  0  0  0
  152.2856  143.1957  158.6806 C   0  0  0  0  0  0  0  0  0  0  0  0
  150.0606  142.4615  155.9052 N   0  3  0  0  0  0  0  0  0  0  0  0
  149.4189  141.4435  155.2926 C   0  0  0  0  0  0  0  0  0  0  0  0
  147.8621  137.1085  154.6397 N   0  0  0  0  0  0  0  0  0  0  0  0
  147.3658  135.7353  154.7761 C   0  0  2  0  0  0  0  0  0  0  0  0
  148.5021  134.6939  154.7645 C   0  0  0  0  0  0  0  0  0  0  0  0
  147.9701  133.5423  153.9057 C   0  0  0  0  0  0  0  0  0  0  0  0
  147.1275  134.2301  152.9210 N   0  3  1  0  0  0  0  0  0  0  0  0
  146.2416  133.4185  152.0616 C   0  0  0  0  0  0  0  0  0  0  0  0
  145.6079  134.3444  151.0015 C   0  0  0  0  0  0  0  0  0  0  0  0
  144.9271  135.5786  151.6352 C   0  0  0  0  0  0  0  0  0  0  0  0
  145.8657  136.3094  152.6195 C   0  0  0  0  0  0  0  0  0  0  0  0
  146.4075  135.2941  153.6423 C   0  0  2  0  0  0  0  0  0  0  0  0
  148.4924  139.3490  154.1907 H   0  0  0  0  0  0  0  0  0  0  0  0
  150.4454  138.9335  157.3815 H   0  0  0  0  0  0  0  0  0  0  0  0
  151.5732  140.8445  158.4412 H   0  0  0  0  0  0  0  0  0  0  0  0
  150.1854  145.0831  157.0648 H   0  0  0  0  0  0  0  0  0  0  0  0
  149.6516  144.1371  158.4509 H   0  0  0  0  0  0  0  0  0  0  0  0
  151.6746  146.3225  158.3755 H   0  0  0  0  0  0  0  0  0  0  0  0
  150.7392  145.7238  159.7422 H   0  0  0  0  0  0  0  0  0  0  0  0
  153.4586  144.9982  158.8899 H   0  0  0  0  0  0  0  0  0  0  0  0
  152.6640  144.5105  160.3848 H   0  0  0  0  0  0  0  0  0  0  0  0
  151.7805  142.5454  159.3963 H   0  0  0  0  0  0  0  0  0  0  0  0
  153.2137  142.7099  158.3772 H   0  0  0  0  0  0  0  0  0  0  0  0
  148.8490  141.7107  154.4143 H   0  0  0  0  0  0  0  0  0  0  0  0
  147.7193  137.5329  153.7343 H   0  0  0  0  0  0  0  0  0  0  0  0
  146.8441  135.6305  155.7291 H   0  0  0  0  0  0  0  0  0  0  0  0
  149.3938  135.1099  154.2920 H   0  0  0  0  0  0  0  0  0  0  0  0
  148.7849  134.3689  155.7662 H   0  0  0  0  0  0  0  0  0  0  0  0
  148.7660  132.9666  153.4319 H   0  0  0  0  0  0  0  0  0  0  0  0
  147.3603  132.8643  154.5051 H   0  0  0  0  0  0  0  0  0  0  0  0
  146.8189  132.6310  151.5762 H   0  0  0  0  0  0  0  0  0  0  0  0
  145.4734  132.9326  152.6651 H   0  0  0  0  0  0  0  0  0  0  0  0
  146.3838  134.6828  150.3132 H   0  0  0  0  0  0  0  0  0  0  0  0
  144.8883  133.7876  150.4005 H   0  0  0  0  0  0  0  0  0  0  0  0
  144.5943  136.2649  150.8559 H   0  0  0  0  0  0  0  0  0  0  0  0
  144.0291  135.2585  152.1654 H   0  0  0  0  0  0  0  0  0  0  0  0
  146.6870  136.7779  152.0750 H   0  0  0  0  0  0  0  0  0  0  0  0
  145.3185  137.1078  153.1211 H   0  0  0  0  0  0  0  0  0  0  0  0
  145.5497  134.8304  154.1342 H   0  0  0  0  0  0  0  0  0  0  0  0
  147.7715  134.7013  152.3016 H   0  0  0  0  0  0  0  0  0  0  0  0
  149.9708  143.3983  155.5109 H   0  0  0  0  0  0  0  0  0  0  0  0
  1  2  2  0  0  0  0
  2  3  1  0  0  0  0
  2 15  1  0  0  0  0
  3  4  1  0  0  0  0
  3 25  1  0  0  0  0
  4 14  1  0  0  0  0
  4  5  2  0  0  0  0
  5  6  1  0  0  0  0
  5 26  1  0  0  0  0
  6  7  2  0  0  0  0
  6 27  1  0  0  0  0
  7  8  1  0  0  0  0
  7 13  1  0  0  0  0
  8 12  1  0  0  0  0
  8  9  1  0  0  0  0
  9 10  1  0  0  0  0
  9 28  1  0  0  0  0
  9 29  1  0  0  0  0
 10 11  1  0  0  0  0
 10 30  1  0  0  0  0
 10 31  1  0  0  0  0
 11 12  1  0  0  0  0
 11 32  1  0  0  0  0
 11 33  1  0  0  0  0
 12 34  1  0  0  0  0
 12 35  1  0  0  0  0
 13 14  2  0  0  0  0
 13 53  1  0  0  0  0
 14 36  1  0  0  0  0
 15 16  1  0  0  0  0
 15 37  1  0  0  0  0
 16 24  1  0  0  0  0
 16 17  1  0  0  0  0
 16 38  1  0  0  0  0
 17 18  1  0  0  0  0
 17 39  1  0  0  0  0
 17 40  1  0  0  0  0
 18 19  1  0  0  0  0
 18 41  1  0  0  0  0
 18 42  1  0  0  0  0
 19 24  1  0  0  0  0
 19 20  1  0  0  0  0
 19 52  1  0  0  0  0
 20 21  1  0  0  0  0
 20 43  1  0  0  0  0
 20 44  1  0  0  0  0
 21 22  1  0  0  0  0
 21 45  1  0  0  0  0
 21 46  1  0  0  0  0
 22 23  1  0  0  0  0
 22 47  1  0  0  0  0
 22 48  1  0  0  0  0
 23 24  1  0  0  0  0
 23 49  1  0  0  0  0
 23 50  1  0  0  0  0
 24 51  1  0  0  0  0
M  CHG  1  13   1
M  CHG  1  19   1
M  END
> <s_m_source_file>
AV-unprocessed.smi

> <i_m_source_file_index>
1867

> <i_lp_mmshare_version>
43012

> <i_f3d_flags>
0

> <s_epik_input>
W0NIMl0xW0NIMl1bQ0gyXVtDSDJdW0NASF0oTjEyKVtDQEBIXShbQ0gyXVtDSDJdMilbTkhdQyg9TylbTkhdYzNbY0hdW2NIXWMobltjSF0zKU40W0NIMl1bQ0gyXVtDSDJdW0NIMl00

> <s_epik_cmdline>
J2VwaWtfcHl0aG9uJywgJy1waCcsICc3LjAnLCAnLXRuJywgJzgnLCAnLW1hJywgJzIwMCcsICctbWV0YWxfYmluZGluZycsICctaW1hZScsICc8aW5maWxlLm1hZT4nLCAnLW9tYWUnLCAnPG91dGZpbGUubWFlPic=

> <r_lp_tautomer_probability>
0.999994

> <r_epik_Ionization_Penalty>
1.27347

> <r_epik_Ionization_Penalty_Charging>
1.27345

> <r_epik_Ionization_Penalty_Neutral>
1.96458e-05

> <r_epik_State_Penalty>
1.34393

> <r_epik_Charging_Adjusted_Penalty>
2.61738

> <i_epik_Tot_Q>
2

> <i_epik_Tot_abs_Q>
2

> <r_epik_Metal_State_Penalty>
1.41094

> <b_epik_Metal_Only>
0

> <s_lp_Force_Field>
OPLS_2005

> <r_lp_Energy>
89.6482

> <b_lp_Chiralities_Consistent>
1

> <s_lp_Variant>
AV-unprocessed.smi:1867-15

> <Gold.Version>
5.8.1

> <Gold.Id.Protein>
6NUR|6NUR_protein|mol2

> <Gold.PLP.Fitness>
48.1150

> <Gold.PLP.PLP>
-36.6387

> <Gold.PLP.part.hbond>
-3.0000

> <Gold.PLP.part.metal>
0.0000

> <Gold.PLP.part.buried>
-2.0540

> <Gold.PLP.part.nonpolar>
-31.3664

> <Gold.PLP.part.repulsive>
0.1984

> <Gold.PLP.ligand.clash>
0.0000

> <Gold.PLP.ligand.torsion>
0.2493

> <Gold.PLP.Chemscore.Hbond>
3.9840

> <Gold.PLP.Chemscore.CHOScore>
0.0000

> <Gold.PLP.Chemscore.Metal>
0.0000

> <Gold.Chemscore.Hbonds>
donor molecule, donor type, donor heavy atom, donor atom, acceptor molecule, acceptor atom, score
      L1  H    13    53       P1  8028  1.50
      L1  H    19    52       P1  7948  2.00

> <Gold.PLP.Chemscore.Internal.Correction>
0.0229

> <Gold.Rescore>
     Score         DG    S(hbond)    S(metal)    S(lipo)     H(rot)  DE(clash)    DE(int)     intcor
     18.65     -20.02       1.84        0.00      97.85       1.20       0.02       1.36       ----

> <Gold.Chemscore.Fitness>
18.6498

> <Gold.Chemscore.DG>
-20.0235

> <Gold.Chemscore.ZeroCoef>
-5.4800

> <Gold.Chemscore.Hbond>
1.8425

> <Gold.Chemscore.Metal>
0.0000

> <Gold.Chemscore.Lipo>
97.8516

> <Gold.Chemscore.Internal_Hbond>
0.0000

> <Gold.Chemscore.DEClash>
0.0178

> <Gold.Chemscore.DEInternal>
1.3560

> <Gold.Chemscore.Rot>
1.1950

> <Gold.Chemscore.Internal.Correction>
   9.000000E+99

> <Gold.Chemscore.Hbonds>
donor molecule, donor type, donor heavy atom, donor atom, acceptor molecule, acceptor atom, score
      L1  H    13    53       P1  8028  0.76
      L1  H    19    52       P1  7948  0.67

> <Gold.Chemscore.Hbond.Weighted>
-6.1541

> <Gold.Chemscore.Metal.Weighted>
-0.0000

> <Gold.Chemscore.Lipo.Weighted>
-11.4486

> <Gold.Chemscore.Internal_Hbond.Weighted>
0.0000

> <Gold.Chemscore.DEClash.Weighted>
0.0178

> <Gold.Chemscore.DEInternal.Weighted>
1.3560

> <Gold.Chemscore.Rot.Weighted>
3.0593

> <Gold.Chemscore.Internal.Correction.Weighted>
   9.000000E+99

> <Gold.Protein.RotatedTorsions>
[ 6907 6896 6895 6894 ] final   77.22 input  -60.11 | X-H torsion
[ 7974 7965 7964 7962 ] final  157.21 input  175.53 | X-H torsion
[ 8008 7997 7996 7995 ] final   -1.08 input   59.86 | X-H torsion
[ 10167 10162 10161 10158 ] final   34.46 input  -65.29 | X-H torsion
[ 10718 10713 10712 10709 ] final   33.01 input   66.30 | X-H torsion
[ 10763 10752 10751 10750 ] final  -69.48 input  -60.55 | X-H torsion
[ 11005 11000 10999 10996 ] final  -59.56 input  -57.11 | X-H torsion

> <Gold.Protein.ActiveResidues>
 VAL166  LYS551  ARG553  GLY616  TRP617  ASP618  TYR619  PRO620  LYS621  CYS622 
 ASP623  PHE694  ASN695  SER759  ASP760  ASP761  ALA762  ILE779  LEU786  VAL792 
 PHE793  MET794  SER795  GLU796  ALA797  LYS798  CYS799  TRP800  GLU811  SER814 

> <Gold.Protein.RotatedAtoms>
  152.5108  134.3850  159.9364 H   0  0  0  0  0  0  0  0  0  0  0  0  # atno 6907 bound_to 6896
  151.3808  133.3815  159.2717 H   0  0  0  0  0  0  0  0  0  0  0  0  # atno 6908 bound_to 6896
  150.9506  134.8926  159.7728 H   0  0  0  0  0  0  0  0  0  0  0  0  # atno 6909 bound_to 6896
  144.7917  139.7309  143.6219 H   0  0  0  0  0  0  0  0  0  0  0  0  # atno 7974 bound_to 7965
  154.6508  140.2568  155.7216 H   0  0  0  0  0  0  0  0  0  0  0  0  # atno 8008 bound_to 7997
  156.2574  140.2868  156.0862 H   0  0  0  0  0  0  0  0  0  0  0  0  # atno 8009 bound_to 7997
  155.1454  140.0381  157.2799 H   0  0  0  0  0  0  0  0  0  0  0  0  # atno 8010 bound_to 7997
  140.4313  144.1321  150.6160 H   0  0  0  0  0  0  0  0  0  0  0  0  # atno 10167 bound_to 10162
  157.2925  130.7310  149.6619 H   0  0  0  0  0  0  0  0  0  0  0  0  # atno 10718 bound_to 10713
  154.4040  135.6024  153.5913 H   0  0  0  0  0  0  0  0  0  0  0  0  # atno 10763 bound_to 10752
  152.9788  135.5913  154.4150 H   0  0  0  0  0  0  0  0  0  0  0  0  # atno 10764 bound_to 10752
  154.3953  135.2842  155.2108 H   0  0  0  0  0  0  0  0  0  0  0  0  # atno 10765 bound_to 10752
  141.1253  133.6617  156.5089 H   0  0  0  0  0  0  0  0  0  0  0  0  # atno 11005 bound_to 11000
  146.2171  139.5568  142.9643 LP  0  0  0  0  0  0  0  0  0  0  0  0  # atno 17320 bound_to 7965
  145.5778  141.0386  143.2138 LP  0  0  0  0  0  0  0  0  0  0  0  0  # atno 17321 bound_to 7965
  140.4424  143.2521  151.9455 LP  0  0  0  0  0  0  0  0  0  0  0  0  # atno 17342 bound_to 10162
  139.4785  144.5641  151.8192 LP  0  0  0  0  0  0  0  0  0  0  0  0  # atno 17343 bound_to 10162
  155.9667  130.4304  150.4877 LP  0  0  0  0  0  0  0  0  0  0  0  0  # atno 17370 bound_to 10713
  157.2842  131.0613  151.2177 LP  0  0  0  0  0  0  0  0  0  0  0  0  # atno 17371 bound_to 10713
  140.4385  134.7037  157.4979 LP  0  0  0  0  0  0  0  0  0  0  0  0  # atno 17394 bound_to 11000
  140.0245  134.6497  155.9192 LP  0  0  0  0  0  0  0  0  0  0  0  0  # atno 17395 bound_to 11000

$$$$
