AV-unprocessed.smi:167|AV-procd|sdf|1394|dock3
  -GOLD-   2262019133D 1   1.00000     0.00000
 Structure written by MMmdl.
 51 55  0  0  0  0  0  0  0  0  1 V2000
  151.1609  139.3444  154.3661 O   0  0  0  0  0  0  0  0  0  0  0  0
  150.2099  139.8573  155.2745 C   0  0  0  0  0  0  0  0  0  0  0  0
  148.7870  139.4756  154.8264 C   0  0  2  0  0  0  0  0  0  0  0  0
  148.4567  139.8174  153.3617 C   0  0  0  0  0  0  0  0  0  0  0  0
  147.1069  140.5524  153.5147 C   0  0  2  0  0  0  0  0  0  0  0  0
  147.3762  141.9746  154.0321 C   0  0  0  0  0  0  0  0  0  0  0  0
  147.7090  141.6959  155.5049 C   0  0  0  0  0  0  0  0  0  0  0  0
  147.6034  140.1591  155.5584 C   0  0  1  0  0  0  0  0  0  0  0  0
  146.4790  139.9159  154.6661 N   0  0  0  0  0  0  0  0  0  0  0  0
  145.9293  138.6742  154.5548 C   0  0  0  0  0  0  0  0  0  0  0  0
  145.4910  138.0515  155.6815 N   0  0  0  0  0  0  0  0  0  0  0  0
  144.9419  136.8359  155.6175 C   0  0  0  0  0  0  0  0  0  0  0  0
  144.7446  136.0659  154.5471 N   0  0  0  0  0  0  0  0  0  0  0  0
  145.1999  136.6716  153.4138 C   0  0  0  0  0  0  0  0  0  0  0  0
  145.7991  137.9616  153.3260 C   0  0  0  0  0  0  0  0  0  0  0  0
  146.1298  138.2290  152.0023 N   0  0  0  0  0  0  0  0  0  0  0  0
  145.7332  137.1729  151.3472 C   0  0  0  0  0  0  0  0  0  0  0  0
  145.1857  136.1764  152.1220 N   0  0  0  0  0  0  0  0  0  0  0  0
  144.6418  134.9283  151.6726 C   0  0  0  0  0  0  0  0  0  0  0  0
  145.3667  133.6104  151.9601 C   0  0  0  0  0  0  0  0  0  0  0  0
  144.8286  133.0383  150.6275 C   0  0  0  0  0  0  0  0  0  0  0  0
  145.7879  132.1673  149.7921 C   0  0  0  0  0  0  0  0  0  0  0  0
  147.1089  132.6700  149.7805 O   0  0  0  0  0  0  0  0  0  0  0  0
  143.4933  132.2760  150.7258 C   0  0  0  0  0  0  0  0  0  0  0  0
  142.8987  132.1048  149.4553 O   0  0  0  0  0  0  0  0  0  0  0  0
  144.6822  134.5163  150.1967 C   0  0  0  0  0  0  0  0  0  0  0  0
  151.9221  139.0667  154.8526 H   0  0  0  0  0  0  0  0  0  0  0  0
  150.4330  139.5033  156.2801 H   0  0  0  0  0  0  0  0  0  0  0  0
  150.3105  140.9427  155.2992 H   0  0  0  0  0  0  0  0  0  0  0  0
  148.6839  138.3963  154.9532 H   0  0  0  0  0  0  0  0  0  0  0  0
  149.2138  140.4380  152.8808 H   0  0  0  0  0  0  0  0  0  0  0  0
  148.3484  138.9067  152.7714 H   0  0  0  0  0  0  0  0  0  0  0  0
  146.5080  140.5520  152.6031 H   0  0  0  0  0  0  0  0  0  0  0  0
  148.1868  142.4725  153.4990 H   0  0  0  0  0  0  0  0  0  0  0  0
  146.4834  142.5962  153.9520 H   0  0  0  0  0  0  0  0  0  0  0  0
  148.6772  142.0875  155.8128 H   0  0  0  0  0  0  0  0  0  0  0  0
  146.9556  142.1490  156.1507 H   0  0  0  0  0  0  0  0  0  0  0  0
  147.4736  139.8057  156.5794 H   0  0  0  0  0  0  0  0  0  0  0  0
  144.6157  136.4197  156.5594 H   0  0  0  0  0  0  0  0  0  0  0  0
  145.8385  137.0926  150.2750 H   0  0  0  0  0  0  0  0  0  0  0  0
  143.6200  134.8941  152.0540 H   0  0  0  0  0  0  0  0  0  0  0  0
  146.4509  133.7333  151.9780 H   0  0  0  0  0  0  0  0  0  0  0  0
  145.0229  133.0976  152.8588 H   0  0  0  0  0  0  0  0  0  0  0  0
  145.8298  131.1485  150.1779 H   0  0  0  0  0  0  0  0  0  0  0  0
  145.4482  132.0979  148.7582 H   0  0  0  0  0  0  0  0  0  0  0  0
  147.7047  131.9455  149.6654 H   0  0  0  0  0  0  0  0  0  0  0  0
  143.6304  131.2876  151.1649 H   0  0  0  0  0  0  0  0  0  0  0  0
  142.7895  132.8008  151.3726 H   0  0  0  0  0  0  0  0  0  0  0  0
  142.2414  132.7741  149.3394 H   0  0  0  0  0  0  0  0  0  0  0  0
  143.7710  134.7441  149.6428 H   0  0  0  0  0  0  0  0  0  0  0  0
  145.5576  134.9109  149.6787 H   0  0  0  0  0  0  0  0  0  0  0  0
  1  2  1  0  0  0  0
  1 27  1  0  0  0  0
  2  3  1  0  0  0  0
  2 28  1  0  0  0  0
  2 29  1  0  0  0  0
  3  8  1  0  0  0  0
  3  4  1  0  0  0  0
  3 30  1  0  0  0  0
  4  5  1  0  0  0  0
  4 31  1  0  0  0  0
  4 32  1  0  0  0  0
  5  9  1  0  0  0  0
  5  6  1  0  0  0  0
  5 33  1  0  0  0  0
  6  7  1  0  0  0  0
  6 34  1  0  0  0  0
  6 35  1  0  0  0  0
  7  8  1  0  0  0  0
  7 36  1  0  0  0  0
  7 37  1  0  0  0  0
  8  9  1  0  0  0  0
  8 38  1  0  0  0  0
  9 10  1  0  0  0  0
 10 15  1  0  0  0  0
 10 11  2  0  0  0  0
 11 12  1  0  0  0  0
 12 13  2  0  0  0  0
 12 39  1  0  0  0  0
 13 14  1  0  0  0  0
 14 18  1  0  0  0  0
 14 15  2  0  0  0  0
 15 16  1  0  0  0  0
 16 17  2  0  0  0  0
 17 18  1  0  0  0  0
 17 40  1  0  0  0  0
 18 19  1  0  0  0  0
 19 26  1  0  0  0  0
 19 20  1  0  0  0  0
 19 41  1  0  0  0  0
 20 21  1  0  0  0  0
 20 42  1  0  0  0  0
 20 43  1  0  0  0  0
 21 22  1  0  0  0  0
 21 24  1  0  0  0  0
 21 26  1  0  0  0  0
 22 23  1  0  0  0  0
 22 44  1  0  0  0  0
 22 45  1  0  0  0  0
 23 46  1  0  0  0  0
 24 25  1  0  0  0  0
 24 47  1  0  0  0  0
 24 48  1  0  0  0  0
 25 49  1  0  0  0  0
 26 50  1  0  0  0  0
 26 51  1  0  0  0  0
M  END
> <s_m_source_file>
AV-unprocessed.smi

> <i_m_source_file_index>
167

> <i_lp_mmshare_version>
43012

> <i_f3d_flags>
0

> <s_epik_input>
W09IXVtDSDJdW0NASF0oW0NIMl1bQ0BASF0xMilbQ0BIXShbQ0gyXVtDSDJdMSlOMmMobltjSF1uMyljKGMzNCluW2NIXW40W0NIXShbQ0gyXTUpW0NIMl1DNShbQ0gyXVtPSF0pW0NIMl1bT0hd

> <s_epik_cmdline>
J2VwaWtfcHl0aG9uJywgJy1waCcsICc3LjAnLCAnLXRuJywgJzgnLCAnLW1hJywgJzIwMCcsICctbWV0YWxfYmluZGluZycsICctaW1hZScsICc8aW5maWxlLm1hZT4nLCAnLW9tYWUnLCAnPG91dGZpbGUubWFlPic=

> <r_lp_tautomer_probability>
1

> <r_epik_Ionization_Penalty>
0.0047903

> <r_epik_Ionization_Penalty_Charging>
0

> <r_epik_Ionization_Penalty_Neutral>
0.0047903

> <r_epik_State_Penalty>
0.00341021

> <r_epik_Charging_Adjusted_Penalty>
0.00341021

> <i_epik_Tot_Q>
0

> <i_epik_Tot_abs_Q>
0

> <r_epik_Metal_State_Penalty>
-0

> <b_epik_Metal_Only>
0

> <s_lp_Force_Field>
OPLS_2005

> <r_lp_Energy>
89.3367

> <b_lp_Chiralities_Consistent>
1

> <s_lp_Variant>
AV-unprocessed.smi:167-3

> <Gold.Version>
5.8.1

> <Gold.Id.Protein>
6NUR|6NUR_protein|mol2

> <Gold.PLP.Fitness>
47.6366

> <Gold.PLP.PLP>
-35.8992

> <Gold.PLP.part.hbond>
-6.3090

> <Gold.PLP.part.metal>
0.0000

> <Gold.PLP.part.buried>
2.8964

> <Gold.PLP.part.nonpolar>
-33.1548

> <Gold.PLP.part.repulsive>
0.4486

> <Gold.PLP.ligand.clash>
0.0000

> <Gold.PLP.ligand.torsion>
0.4416

> <Gold.PLP.Chemscore.Hbond>
3.7550

> <Gold.PLP.Chemscore.CHOScore>
0.2802

> <Gold.PLP.Chemscore.Metal>
0.0000

> <Gold.Chemscore.Hbonds>
donor molecule, donor type, donor heavy atom, donor atom, acceptor molecule, acceptor atom, score
      L1  H    23    46       P1 10747  1.00
      L1  H    25    49       P1 10186  0.93
      P1  H  7989  7998       L1     1  1.00
      P1  H 10785 10796       L1    25  0.80
      L1  C    17    40       P1 10171  0.29

> <Gold.PLP.Chemscore.Internal.Correction>
0.5151

> <Gold.Rescore>
     Score         DG    S(hbond)    S(metal)    S(lipo)     H(rot)  DE(clash)    DE(int)     intcor
     10.40     -14.38       3.00        0.00      82.51       4.20       2.28       1.70       ----

> <Gold.Chemscore.Fitness>
10.4008

> <Gold.Chemscore.DG>
-14.3841

> <Gold.Chemscore.ZeroCoef>
-5.4800

> <Gold.Chemscore.Hbond>
2.9977

> <Gold.Chemscore.Metal>
0.0000

> <Gold.Chemscore.Lipo>
82.5094

> <Gold.Chemscore.Internal_Hbond>
0.0000

> <Gold.Chemscore.DEClash>
2.2797

> <Gold.Chemscore.DEInternal>
1.7036

> <Gold.Chemscore.Rot>
4.2038

> <Gold.Chemscore.Internal.Correction>
   9.000000E+99

> <Gold.Chemscore.Hbonds>
donor molecule, donor type, donor heavy atom, donor atom, acceptor molecule, acceptor atom, score
      L1  H    23    46       P1 10747  0.97
      L1  H    25    49       P1 10186  0.89
      P1  H  7989  7998       L1     1  0.17
      P1  H 10785 10796       L1    25  0.62

> <Gold.Chemscore.Hbond.Weighted>
-10.0122

> <Gold.Chemscore.Metal.Weighted>
-0.0000

> <Gold.Chemscore.Lipo.Weighted>
-9.6536

> <Gold.Chemscore.Internal_Hbond.Weighted>
0.0000

> <Gold.Chemscore.DEClash.Weighted>
2.2797

> <Gold.Chemscore.DEInternal.Weighted>
1.7036

> <Gold.Chemscore.Rot.Weighted>
10.7617

> <Gold.Chemscore.Internal.Correction.Weighted>
   9.000000E+99

> <Gold.Protein.RotatedTorsions>
[ 6907 6896 6895 6894 ] final    6.16 input  -60.11 | X-H torsion
[ 7974 7965 7964 7962 ] final -178.11 input  175.53 | X-H torsion
[ 8008 7997 7996 7995 ] final   55.60 input   59.86 | X-H torsion
[ 10167 10162 10161 10158 ] final   86.04 input  -65.29 | X-H torsion
[ 10718 10713 10712 10709 ] final  -23.62 input   66.30 | X-H torsion
[ 10763 10752 10751 10750 ] final -133.09 input  -60.55 | X-H torsion
[ 11005 11000 10999 10996 ] final -175.16 input  -57.11 | X-H torsion

> <Gold.Protein.ActiveResidues>
 VAL166  LYS551  ARG553  GLY616  TRP617  ASP618  TYR619  PRO620  LYS621  CYS622 
 ASP623  PHE694  ASN695  SER759  ASP760  ASP761  ALA762  ILE779  LEU786  VAL792 
 PHE793  MET794  SER795  GLU796  ALA797  LYS798  CYS799  TRP800  GLU811  SER814 

> <Gold.Protein.RotatedAtoms>
  151.6692  135.0978  160.0194 H   0  0  0  0  0  0  0  0  0  0  0  0  # atno 6907 bound_to 6896
  152.3901  133.6663  159.6239 H   0  0  0  0  0  0  0  0  0  0  0  0  # atno 6908 bound_to 6896
  150.7819  133.8885  159.3347 H   0  0  0  0  0  0  0  0  0  0  0  0  # atno 6909 bound_to 6896
  144.7130  140.0918  143.6421 H   0  0  0  0  0  0  0  0  0  0  0  0  # atno 7974 bound_to 7965
  155.5037  140.3475  155.4376 H   0  0  0  0  0  0  0  0  0  0  0  0  # atno 8008 bound_to 7997
  156.0896  140.1407  156.9636 H   0  0  0  0  0  0  0  0  0  0  0  0  # atno 8009 bound_to 7997
  154.4627  140.0929  156.6914 H   0  0  0  0  0  0  0  0  0  0  0  0  # atno 8010 bound_to 7997
  139.8915  144.6382  150.8733 H   0  0  0  0  0  0  0  0  0  0  0  0  # atno 10167 bound_to 10162
  156.4886  130.4561  149.6768 H   0  0  0  0  0  0  0  0  0  0  0  0  # atno 10718 bound_to 10713
  154.8736  135.3777  154.4517 H   0  0  0  0  0  0  0  0  0  0  0  0  # atno 10763 bound_to 10752
  153.5192  135.7029  153.5745 H   0  0  0  0  0  0  0  0  0  0  0  0  # atno 10764 bound_to 10752
  153.4000  135.3951  155.1946 H   0  0  0  0  0  0  0  0  0  0  0  0  # atno 10765 bound_to 10752
  140.4665  134.6206  157.4864 H   0  0  0  0  0  0  0  0  0  0  0  0  # atno 11005 bound_to 11000
  145.9613  139.2803  143.1153 LP  0  0  0  0  0  0  0  0  0  0  0  0  # atno 17320 bound_to 7965
  145.9217  140.9111  143.0402 LP  0  0  0  0  0  0  0  0  0  0  0  0  # atno 17321 bound_to 7965
  140.7725  143.3506  151.2022 LP  0  0  0  0  0  0  0  0  0  0  0  0  # atno 17342 bound_to 10162
  139.7105  143.9384  152.2945 LP  0  0  0  0  0  0  0  0  0  0  0  0  # atno 17343 bound_to 10162
  156.3449  130.7401  151.2352 LP  0  0  0  0  0  0  0  0  0  0  0  0  # atno 17370 bound_to 10713
  157.7476  131.0393  150.4545 LP  0  0  0  0  0  0  0  0  0  0  0  0  # atno 17371 bound_to 10713
  139.9912  134.6982  155.9686 LP  0  0  0  0  0  0  0  0  0  0  0  0  # atno 17394 bound_to 11000
  141.1597  133.6540  156.4278 LP  0  0  0  0  0  0  0  0  0  0  0  0  # atno 17395 bound_to 11000

$$$$
