AV-unprocessed.smi:224|AV-procd|sdf|1715|dock9
  -GOLD-   2262020183D 1   1.00000     0.00000
 Structure written by MMmdl.
 56 59  0  0  0  0  0  0  0  0  2 V2000
  142.0593  136.1391  153.9008 C   0  0  0  0  0  0  0  0  0  0  0  0
  142.8596  137.4466  153.8417 C   0  0  2  0  0  0  0  0  0  0  0  0
  142.2190  138.3048  152.9189 O   0  0  0  0  0  0  0  0  0  0  0  0
  144.3165  137.2011  153.3963 C   0  0  0  0  0  0  0  0  0  0  0  0
  145.1602  138.4280  153.3697 N   0  3  2  0  0  0  0  0  0  0  0  0
  146.2995  138.2966  152.4234 C   0  0  0  0  0  0  0  0  0  0  0  0
  147.0733  139.6200  152.2891 C   0  0  0  0  0  0  0  0  0  0  0  0
  147.4767  140.1309  153.5969 N   0  0  0  0  0  0  0  0  0  0  0  0
  148.6844  139.7728  154.1118 C   0  0  0  0  0  0  0  0  0  0  0  0
  149.3368  138.6918  153.6062 N   0  0  0  0  0  0  0  0  0  0  0  0
  150.5089  138.3052  154.1167 C   0  0  0  0  0  0  0  0  0  0  0  0
  151.2017  138.8502  155.1170 N   0  0  0  0  0  0  0  0  0  0  0  0
  150.5677  139.9488  155.6167 C   0  0  0  0  0  0  0  0  0  0  0  0
  149.3189  140.4746  155.1777 C   0  0  0  0  0  0  0  0  0  0  0  0
  149.0004  141.6066  155.9198 N   0  0  0  0  0  0  0  0  0  0  0  0
  149.9935  141.7331  156.7564 C   0  0  0  0  0  0  0  0  0  0  0  0
  150.9823  140.7829  156.6402 N   0  0  0  0  0  0  0  0  0  0  0  0
  152.1952  140.6862  157.4375 C   0  0  0  0  0  0  0  0  0  0  0  0
  152.1022  141.4245  158.7931 C   0  0  1  0  0  0  0  0  0  0  0  0
  150.9621  140.9602  159.4947 O   0  0  0  0  0  0  0  0  0  0  0  0
  153.3257  141.2457  159.6875 C   0  0  0  0  0  0  0  0  0  0  0  0
  153.3908  142.5662  160.4418 C   0  0  0  0  0  0  0  0  0  0  0  0
  153.0405  143.5081  159.4427 O   0  0  0  0  0  0  0  0  0  0  0  0
  151.9964  142.9558  158.6471 C   0  0  0  0  0  0  0  0  0  0  0  0
  146.3698  140.2849  154.5385 C   0  0  0  0  0  0  0  0  0  0  0  0
  145.5624  138.9769  154.7037 C   0  0  2  0  0  0  0  0  0  0  0  0
  146.2915  137.9525  155.5994 C   0  0  0  0  0  0  0  0  0  0  0  0
  142.5004  135.4422  154.6145 H   0  0  0  0  0  0  0  0  0  0  0  0
  142.0290  135.6444  152.9291 H   0  0  0  0  0  0  0  0  0  0  0  0
  141.0305  136.3216  154.2135 H   0  0  0  0  0  0  0  0  0  0  0  0
  142.8233  137.9034  154.8299 H   0  0  0  0  0  0  0  0  0  0  0  0
  142.5682  139.1773  153.0155 H   0  0  0  0  0  0  0  0  0  0  0  0
  144.7842  136.4478  154.0309 H   0  0  0  0  0  0  0  0  0  0  0  0
  144.2991  136.7693  152.3942 H   0  0  0  0  0  0  0  0  0  0  0  0
  146.9621  137.4975  152.7565 H   0  0  0  0  0  0  0  0  0  0  0  0
  145.9295  138.0021  151.4409 H   0  0  0  0  0  0  0  0  0  0  0  0
  147.9324  139.5021  151.6276 H   0  0  0  0  0  0  0  0  0  0  0  0
  146.4352  140.3687  151.8183 H   0  0  0  0  0  0  0  0  0  0  0  0
  150.9541  137.4333  153.6603 H   0  0  0  0  0  0  0  0  0  0  0  0
  150.0340  142.5315  157.4832 H   0  0  0  0  0  0  0  0  0  0  0  0
  152.4051  139.6286  157.6023 H   0  0  0  0  0  0  0  0  0  0  0  0
  153.0283  141.0747  156.8502 H   0  0  0  0  0  0  0  0  0  0  0  0
  150.6063  140.2174  159.0316 H   0  0  0  0  0  0  0  0  0  0  0  0
  153.2708  140.3756  160.3434 H   0  0  0  0  0  0  0  0  0  0  0  0
  154.2261  141.1473  159.0797 H   0  0  0  0  0  0  0  0  0  0  0  0
  152.6592  142.5949  161.2509 H   0  0  0  0  0  0  0  0  0  0  0  0
  154.3780  142.7676  160.8578 H   0  0  0  0  0  0  0  0  0  0  0  0
  152.1255  143.2843  157.6152 H   0  0  0  0  0  0  0  0  0  0  0  0
  151.0333  143.3366  158.9914 H   0  0  0  0  0  0  0  0  0  0  0  0
  146.6982  140.6391  155.5141 H   0  0  0  0  0  0  0  0  0  0  0  0
  145.7154  141.0644  154.1468 H   0  0  0  0  0  0  0  0  0  0  0  0
  144.6543  139.2644  155.2317 H   0  0  0  0  0  0  0  0  0  0  0  0
  146.6184  138.4173  156.5298 H   0  0  0  0  0  0  0  0  0  0  0  0
  147.1748  137.5360  155.1170 H   0  0  0  0  0  0  0  0  0  0  0  0
  145.6420  137.1222  155.8754 H   0  0  0  0  0  0  0  0  0  0  0  0
  144.5730  139.1405  152.9608 H   0  0  0  0  0  0  0  0  0  0  0  0
  1  2  1  0  0  0  0
  1 28  1  0  0  0  0
  1 29  1  0  0  0  0
  1 30  1  0  0  0  0
  2  3  1  0  0  0  0
  2  4  1  0  0  0  0
  2 31  1  0  0  0  0
  3 32  1  0  0  0  0
  4  5  1  0  0  0  0
  4 33  1  0  0  0  0
  4 34  1  0  0  0  0
  5 26  1  0  0  0  0
  5  6  1  0  0  0  0
  5 56  1  0  0  0  0
  6  7  1  0  0  0  0
  6 35  1  0  0  0  0
  6 36  1  0  0  0  0
  7  8  1  0  0  0  0
  7 37  1  0  0  0  0
  7 38  1  0  0  0  0
  8  9  1  0  0  0  0
  8 25  1  0  0  0  0
  9 14  1  0  0  0  0
  9 10  2  0  0  0  0
 10 11  1  0  0  0  0
 11 12  2  0  0  0  0
 11 39  1  0  0  0  0
 12 13  1  0  0  0  0
 13 17  1  0  0  0  0
 13 14  2  0  0  0  0
 14 15  1  0  0  0  0
 15 16  2  0  0  0  0
 16 17  1  0  0  0  0
 16 40  1  0  0  0  0
 17 18  1  0  0  0  0
 18 19  1  0  0  0  0
 18 41  1  0  0  0  0
 18 42  1  0  0  0  0
 19 24  1  0  0  0  0
 19 20  1  0  0  0  0
 19 21  1  0  0  0  0
 20 43  1  0  0  0  0
 21 22  1  0  0  0  0
 21 44  1  0  0  0  0
 21 45  1  0  0  0  0
 22 23  1  0  0  0  0
 22 46  1  0  0  0  0
 22 47  1  0  0  0  0
 23 24  1  0  0  0  0
 24 48  1  0  0  0  0
 24 49  1  0  0  0  0
 25 26  1  0  0  0  0
 25 50  1  0  0  0  0
 25 51  1  0  0  0  0
 26 27  1  0  0  0  0
 26 52  1  0  0  0  0
 27 53  1  0  0  0  0
 27 54  1  0  0  0  0
 27 55  1  0  0  0  0
M  CHG  1   5   1
M  END
> <s_m_source_file>
AV-unprocessed.smi

> <i_m_source_file_index>
224

> <i_lp_mmshare_version>
43012

> <i_f3d_flags>
0

> <s_epik_input>
W0NIM11bQ0BIXShbT0hdKVtDSDJdTjFbQ0gyXVtDSDJdTihbQ0gyXVtDQEhdMVtDSDNdKWMobltjSF1uMiljKGMyMyluW2NIXW4zW0NIMl1bQ0BAXTQoW09IXSlbQ0gyXVtDSDJdT1tDSDJdNA==

> <s_epik_cmdline>
J2VwaWtfcHl0aG9uJywgJy1waCcsICc3LjAnLCAnLXRuJywgJzgnLCAnLW1hJywgJzIwMCcsICctbWV0YWxfYmluZGluZycsICctaW1hZScsICc8aW5maWxlLm1hZT4nLCAnLW9tYWUnLCAnPG91dGZpbGUubWFlPic=

> <r_lp_tautomer_probability>
1

> <r_epik_Ionization_Penalty>
0.00516958

> <r_epik_Ionization_Penalty_Charging>
0.00509693

> <r_epik_Ionization_Penalty_Neutral>
7.26542e-05

> <r_epik_State_Penalty>
-0

> <r_epik_Charging_Adjusted_Penalty>
0.00509693

> <i_epik_Tot_Q>
1

> <i_epik_Tot_abs_Q>
1

> <r_epik_Metal_State_Penalty>
-0

> <b_epik_Metal_Only>
0

> <s_lp_Force_Field>
OPLS_2005

> <r_lp_Energy>
50.3788

> <b_lp_Chiralities_Consistent>
1

> <s_lp_Variant>
AV-unprocessed.smi:224-9

> <Gold.Version>
5.8.1

> <Gold.Id.Protein>
6NUR|6NUR_protein|mol2

> <Gold.PLP.Fitness>
47.9426

> <Gold.PLP.PLP>
-38.2374

> <Gold.PLP.part.hbond>
-3.0000

> <Gold.PLP.part.metal>
0.0000

> <Gold.PLP.part.buried>
-2.4326

> <Gold.PLP.part.nonpolar>
-36.0281

> <Gold.PLP.part.repulsive>
3.5097

> <Gold.PLP.ligand.clash>
0.0000

> <Gold.PLP.ligand.torsion>
1.0564

> <Gold.PLP.Chemscore.Hbond>
3.0000

> <Gold.PLP.Chemscore.CHOScore>
0.8164

> <Gold.PLP.Chemscore.Metal>
0.0000

> <Gold.Chemscore.Hbonds>
donor molecule, donor type, donor heavy atom, donor atom, acceptor molecule, acceptor atom, score
      L1  H     3    32       P1 10175  1.00
      L1  H     5    56       P1 10175  2.00
      L1  C    11    39       P1  7948  0.02
      L1  C    11    39       P1  7949  0.79

> <Gold.PLP.Chemscore.Internal.Correction>
0.3686

> <Gold.Rescore>
     Score         DG    S(hbond)    S(metal)    S(lipo)     H(rot)  DE(clash)    DE(int)     intcor
     10.18     -13.91       1.99        0.00      81.40       3.02       1.38       2.35       ----

> <Gold.Chemscore.Fitness>
10.1839

> <Gold.Chemscore.DG>
-13.9101

> <Gold.Chemscore.ZeroCoef>
-5.4800

> <Gold.Chemscore.Hbond>
1.9897

> <Gold.Chemscore.Metal>
0.0000

> <Gold.Chemscore.Lipo>
81.3970

> <Gold.Chemscore.Internal_Hbond>
0.0000

> <Gold.Chemscore.DEClash>
1.3798

> <Gold.Chemscore.DEInternal>
2.3464

> <Gold.Chemscore.Rot>
3.0231

> <Gold.Chemscore.Internal.Correction>
   9.000000E+99

> <Gold.Chemscore.Hbonds>
donor molecule, donor type, donor heavy atom, donor atom, acceptor molecule, acceptor atom, score
      L1  H     3    32       P1 10175  0.94
      L1  H     5    56       P1 10175  1.00

> <Gold.Chemscore.Hbond.Weighted>
-6.6457

> <Gold.Chemscore.Metal.Weighted>
-0.0000

> <Gold.Chemscore.Lipo.Weighted>
-9.5234

> <Gold.Chemscore.Internal_Hbond.Weighted>
0.0000

> <Gold.Chemscore.DEClash.Weighted>
1.3798

> <Gold.Chemscore.DEInternal.Weighted>
2.3464

> <Gold.Chemscore.Rot.Weighted>
7.7391

> <Gold.Chemscore.Internal.Correction.Weighted>
   9.000000E+99

> <Gold.Protein.RotatedTorsions>
[ 6907 6896 6895 6894 ] final  103.07 input  -60.11 | X-H torsion
[ 7974 7965 7964 7962 ] final  136.98 input  175.53 | X-H torsion
[ 8008 7997 7996 7995 ] final  -32.52 input   59.86 | X-H torsion
[ 10167 10162 10161 10158 ] final   73.98 input  -65.29 | X-H torsion
[ 10718 10713 10712 10709 ] final   44.67 input   66.30 | X-H torsion
[ 10763 10752 10751 10750 ] final  135.71 input  -60.55 | X-H torsion
[ 11005 11000 10999 10996 ] final -164.34 input  -57.11 | X-H torsion

> <Gold.Protein.ActiveResidues>
 VAL166  LYS551  ARG553  GLY616  TRP617  ASP618  TYR619  PRO620  LYS621  CYS622 
 ASP623  PHE694  ASN695  SER759  ASP760  ASP761  ALA762  ILE779  LEU786  VAL792 
 PHE793  MET794  SER795  GLU796  ALA797  LYS798  CYS799  TRP800  GLU811  SER814 

> <Gold.Protein.RotatedAtoms>
  152.5306  133.9881  159.7837 H   0  0  0  0  0  0  0  0  0  0  0  0  # atno 6907 bound_to 6896
  151.0122  133.5946  159.2688 H   0  0  0  0  0  0  0  0  0  0  0  0  # atno 6908 bound_to 6896
  151.3016  135.0777  159.9294 H   0  0  0  0  0  0  0  0  0  0  0  0  # atno 6909 bound_to 6896
  144.9512  139.4817  143.5525 H   0  0  0  0  0  0  0  0  0  0  0  0  # atno 7974 bound_to 7965
  154.4177  140.1735  156.1741 H   0  0  0  0  0  0  0  0  0  0  0  0  # atno 8008 bound_to 7997
  155.9736  140.3383  155.6574 H   0  0  0  0  0  0  0  0  0  0  0  0  # atno 8009 bound_to 7997
  155.6593  140.0699  157.2550 H   0  0  0  0  0  0  0  0  0  0  0  0  # atno 8010 bound_to 7997
  140.0186  144.5558  150.7600 H   0  0  0  0  0  0  0  0  0  0  0  0  # atno 10167 bound_to 10162
  157.4293  130.8015  149.7588 H   0  0  0  0  0  0  0  0  0  0  0  0  # atno 10718 bound_to 10713
  153.8445  135.3087  155.3428 H   0  0  0  0  0  0  0  0  0  0  0  0  # atno 10763 bound_to 10752
  154.7918  135.4778  154.0073 H   0  0  0  0  0  0  0  0  0  0  0  0  # atno 10764 bound_to 10752
  153.1555  135.6851  153.8911 H   0  0  0  0  0  0  0  0  0  0  0  0  # atno 10765 bound_to 10752
  140.5879  134.5074  157.5188 H   0  0  0  0  0  0  0  0  0  0  0  0  # atno 11005 bound_to 11000
  146.3321  139.8598  142.8858 LP  0  0  0  0  0  0  0  0  0  0  0  0  # atno 17320 bound_to 7965
  145.2842  141.0148  143.3700 LP  0  0  0  0  0  0  0  0  0  0  0  0  # atno 17321 bound_to 7965
  140.7352  143.2737  151.3807 LP  0  0  0  0  0  0  0  0  0  0  0  0  # atno 17342 bound_to 10162
  139.6155  144.1012  152.2341 LP  0  0  0  0  0  0  0  0  0  0  0  0  # atno 17343 bound_to 10162
  155.9907  130.3942  150.3014 LP  0  0  0  0  0  0  0  0  0  0  0  0  # atno 17370 bound_to 10713
  157.1170  131.0236  151.3025 LP  0  0  0  0  0  0  0  0  0  0  0  0  # atno 17371 bound_to 10713
  139.9287  134.8005  156.0993 LP  0  0  0  0  0  0  0  0  0  0  0  0  # atno 17394 bound_to 11000
  141.0954  133.6698  156.2633 LP  0  0  0  0  0  0  0  0  0  0  0  0  # atno 17395 bound_to 11000

$$$$
