#       Name:                AV-unprocessed.smi:3119
#       Creating user name   scv26
#       Creation time:       Fri Mar 27 17:28:02 2020


#       File generated by GOLD software.
#

@<TRIPOS>MOLECULE
AV-unprocessed.smi:3119
    34    35     1
SMALL
NO_CHARGES


@<TRIPOS>ATOM
      1 ****        -1.3219   1.6894  -1.3670 O.2            1 S1                 0.0000
      2 ****        -1.7296   0.7723  -0.6532 C.2            1 S1                 0.0000
      3 ****        -0.9136  -0.0064   0.0711 N.am           1 S1                 0.0000
      4 ****         0.5369   0.1243   0.0929 C.3            1 S1                 0.0000
      5 ****         1.1759  -1.0231   0.8864 C.3            1 S1                 0.0000
      6 ****         2.6892  -0.9268   0.9115 C.ar           1 S1                 0.0000
      7 ****         3.5040  -1.6856   0.0434 C.ar           1 S1                 0.0000
      8 ****         4.9055  -1.5407   0.1113 C.ar           1 S1                 0.0000
      9 ****         5.4621  -0.6406   1.0435 C.ar           1 S1                 0.0000
     10 ****         4.6018   0.0932   1.8856 C.ar           1 S1                 0.0000
     11 ****         3.2640  -0.0734   1.7900 N.pl3          1 S1                 1.0000
     12 ****        -3.2292   0.4639  -0.5461 C.3            1 S1                 0.0000
     13 ****        -3.9097   0.1687  -1.8939 C.3            1 S1                 0.0000
     14 ****        -5.0778   1.0554  -1.4529 C.3            1 S1                 0.0000
     15 ****        -4.1412   1.6987  -0.4262 C.3            1 S1                 0.0000
     16 ****        -1.3241  -0.7356   0.6365 H              1 S1                 0.0000
     17 ****         0.9182   0.1237  -0.9298 H              1 S1                 0.0000
     18 ****         0.8022   1.0855   0.5362 H              1 S1                 0.0000
     19 ****         0.8037  -1.0235   1.9121 H              1 S1                 0.0000
     20 ****         0.8874  -1.9822   0.4535 H              1 S1                 0.0000
     21 ****         3.0629  -2.3684  -0.6683 H              1 S1                 0.0000
     22 ****         5.5456  -2.1124  -0.5448 H              1 S1                 0.0000
     23 ****         6.5330  -0.5145   1.1108 H              1 S1                 0.0000
     24 ****         4.9400   0.8037   2.6258 H              1 S1                 0.0000
     25 ****        -3.4664  -0.2917   0.2056 H              1 S1                 0.0000
     26 ****        -3.3798   0.5700  -2.7597 H              1 S1                 0.0000
     27 ****        -4.1787  -0.8774  -2.0428 H              1 S1                 0.0000
     28 ****        -5.4483   1.7353  -2.2205 H              1 S1                 0.0000
     29 ****        -5.8860   0.4879  -0.9891 H              1 S1                 0.0000
     30 ****        -4.5899   1.8322   0.5583 H              1 S1                 0.0000
     31 ****        -3.6978   2.6279  -0.7884 H              1 S1                 0.0000
     32 ****         2.6602   0.4697   2.4077 H              1 S1                 0.0000
     33 ****        -0.3420   1.8804  -1.4246 LP             1 S1                 0.0000
     34 ****        -1.9707   2.2431  -1.8889 LP             1 S1                 0.0000
@<TRIPOS>BOND
    1    1    2 2     
    2    2    3 am    
    3    2   12 1     
    4    3    4 1     
    5    3   16 1     
    6    4    5 1     
    7    4   17 1     
    8    4   18 1     
    9    5    6 1     
   10    5   19 1     
   11    5   20 1     
   12    6   11 ar    
   13    6    7 ar    
   14    7    8 ar    
   15    7   21 1     
   16    8    9 ar    
   17    8   22 1     
   18    9   10 ar    
   19    9   23 1     
   20   10   11 ar    
   21   10   24 1     
   22   11   32 1     
   23   12   15 1     
   24   12   13 1     
   25   12   25 1     
   26   13   14 1     
   27   13   26 1     
   28   13   27 1     
   29   14   15 1     
   30   14   28 1     
   31   14   29 1     
   32   15   30 1     
   33   15   31 1     
   34    1   33 1     
   35    1   34 1     
@<TRIPOS>SUBSTRUCTURE
      1 S1             1
@<TRIPOS>SET
LONE_PAIRS      STATIC     ATOMS    <user>   **** ""
2 33 34
DONOR_HYDROGENS      STATIC     ATOMS    <user>   **** ""
2 16 32
ATOM$BLUE        STATIC     ATOMS    COLORGROUP SYSTEM
2 33 34
ATOM$RED        STATIC     ATOMS    COLORGROUP SYSTEM
2 16 32
