AV-unprocessed.smi:1047|AV-procd|sdf|4595|dock10
  -GOLD-   22720 3 83D 1   1.00000     0.00000
 Structure written by MMmdl.
 55 57  0  0  0  0  0  0  0  0  1 V2000
  146.1493  133.7708  152.8773 C   0  0  0  0  0  0  0  0  0  0  0  0
  144.8959  134.6566  152.8331 C   0  0  0  0  0  0  0  0  0  0  0  0
  145.1078  135.9982  152.2924 N   0  0  0  0  0  0  0  0  0  0  0  0
  145.7222  135.9379  150.9708 C   0  0  0  0  0  0  0  0  0  0  0  0
  145.9623  137.3387  150.3838 C   0  0  0  0  0  0  0  0  0  0  0  0
  146.7578  138.0997  151.2862 O   0  0  0  0  0  0  0  0  0  0  0  0
  146.1592  138.2388  152.5728 C   0  0  2  0  0  0  0  0  0  0  0  0
  147.0929  139.0852  153.4493 C   0  0  0  0  0  0  0  0  0  0  0  0
  147.3706  140.3727  152.8218 N   0  0  0  0  0  0  0  0  0  0  0  0
  147.9925  141.3412  153.7192 C   0  0  0  0  0  0  0  0  0  0  0  0
  149.0206  140.6645  154.6417 C   0  0  1  0  0  0  0  0  0  0  0  0
  149.9695  139.9872  153.8400 O   0  0  0  0  0  0  0  0  0  0  0  0
  149.7567  141.6878  155.5277 C   0  0  0  0  0  0  0  0  0  0  0  0
  150.4612  141.0580  156.6302 N   0  0  0  0  0  0  0  0  0  0  0  0
  150.7467  139.7496  156.7751 C   0  0  0  0  0  0  0  0  0  0  0  0
  151.4005  139.3871  157.8751 N   0  0  0  0  0  0  0  0  0  0  0  0
  151.5574  140.6026  158.5193 C   0  0  0  0  0  0  0  0  0  0  0  0
  152.1728  140.9150  159.7513 C   0  0  0  0  0  0  0  0  0  0  0  0
  152.2191  142.2470  160.2213 C   0  0  0  0  0  0  0  0  0  0  0  0
  152.8908  142.5379  161.5518 C   0  0  0  0  0  0  0  0  0  0  0  0
  151.6441  143.2918  159.4537 C   0  0  0  0  0  0  0  0  0  0  0  0
  151.6857  144.7310  159.9359 C   0  0  0  0  0  0  0  0  0  0  0  0
  151.0234  142.9968  158.2217 C   0  0  0  0  0  0  0  0  0  0  0  0
  150.9834  141.6676  157.7653 C   0  0  0  0  0  0  0  0  0  0  0  0
  145.9353  136.8317  153.1624 C   0  0  0  0  0  0  0  0  0  0  0  0
  145.9378  132.8348  153.3946 H   0  0  0  0  0  0  0  0  0  0  0  0
  146.9623  134.2661  153.4092 H   0  0  0  0  0  0  0  0  0  0  0  0
  146.5035  133.5146  151.8790 H   0  0  0  0  0  0  0  0  0  0  0  0
  144.1104  134.1489  152.2712 H   0  0  0  0  0  0  0  0  0  0  0  0
  144.5241  134.7451  153.8548 H   0  0  0  0  0  0  0  0  0  0  0  0
  146.6728  135.4054  151.0292 H   0  0  0  0  0  0  0  0  0  0  0  0
  145.0865  135.3680  150.2922 H   0  0  0  0  0  0  0  0  0  0  0  0
  146.4789  137.2654  149.4268 H   0  0  0  0  0  0  0  0  0  0  0  0
  145.0162  137.8503  150.1998 H   0  0  0  0  0  0  0  0  0  0  0  0
  145.1948  138.7420  152.4760 H   0  0  0  0  0  0  0  0  0  0  0  0
  146.6252  139.2530  154.4203 H   0  0  0  0  0  0  0  0  0  0  0  0
  148.0191  138.5407  153.6378 H   0  0  0  0  0  0  0  0  0  0  0  0
  147.9562  140.2346  152.0041 H   0  0  0  0  0  0  0  0  0  0  0  0
  148.4550  142.1532  153.1564 H   0  0  0  0  0  0  0  0  0  0  0  0
  147.2148  141.7968  154.3337 H   0  0  0  0  0  0  0  0  0  0  0  0
  148.5212  139.9376  155.2843 H   0  0  0  0  0  0  0  0  0  0  0  0
  149.6254  139.9145  152.9632 H   0  0  0  0  0  0  0  0  0  0  0  0
  150.4708  142.2646  154.9377 H   0  0  0  0  0  0  0  0  0  0  0  0
  149.0477  142.4037  155.9455 H   0  0  0  0  0  0  0  0  0  0  0  0
  150.4540  139.0213  156.0327 H   0  0  0  0  0  0  0  0  0  0  0  0
  152.6105  140.1187  160.3351 H   0  0  0  0  0  0  0  0  0  0  0  0
  153.7416  143.2053  161.4118 H   0  0  0  0  0  0  0  0  0  0  0  0
  153.2552  141.6243  162.0225 H   0  0  0  0  0  0  0  0  0  0  0  0
  152.1891  143.0105  162.2395 H   0  0  0  0  0  0  0  0  0  0  0  0
  151.1958  145.4014  159.2294 H   0  0  0  0  0  0  0  0  0  0  0  0
  152.7172  145.0645  160.0536 H   0  0  0  0  0  0  0  0  0  0  0  0
  151.1779  144.8283  160.8957 H   0  0  0  0  0  0  0  0  0  0  0  0
  150.5793  143.7817  157.6275 H   0  0  0  0  0  0  0  0  0  0  0  0
  145.4649  136.9355  154.1397 H   0  0  0  0  0  0  0  0  0  0  0  0
  146.8997  136.3488  153.3288 H   0  0  0  0  0  0  0  0  0  0  0  0
  1  2  1  0  0  0  0
  1 26  1  0  0  0  0
  1 27  1  0  0  0  0
  1 28  1  0  0  0  0
  2  3  1  0  0  0  0
  2 29  1  0  0  0  0
  2 30  1  0  0  0  0
  3 25  1  0  0  0  0
  3  4  1  0  0  0  0
  4  5  1  0  0  0  0
  4 31  1  0  0  0  0
  4 32  1  0  0  0  0
  5  6  1  0  0  0  0
  5 33  1  0  0  0  0
  5 34  1  0  0  0  0
  6  7  1  0  0  0  0
  7  8  1  0  0  0  0
  7 25  1  0  0  0  0
  7 35  1  0  0  0  0
  8  9  1  0  0  0  0
  8 36  1  0  0  0  0
  8 37  1  0  0  0  0
  9 10  1  0  0  0  0
  9 38  1  0  0  0  0
 10 11  1  0  0  0  0
 10 39  1  0  0  0  0
 10 40  1  0  0  0  0
 11 12  1  0  0  0  0
 11 13  1  0  0  0  0
 11 41  1  0  0  0  0
 12 42  1  0  0  0  0
 13 14  1  0  0  0  0
 13 43  1  0  0  0  0
 13 44  1  0  0  0  0
 14 24  1  0  0  0  0
 14 15  1  0  0  0  0
 15 16  2  0  0  0  0
 15 45  1  0  0  0  0
 16 17  1  0  0  0  0
 17 24  2  0  0  0  0
 17 18  1  0  0  0  0
 18 19  2  0  0  0  0
 18 46  1  0  0  0  0
 19 20  1  0  0  0  0
 19 21  1  0  0  0  0
 20 47  1  0  0  0  0
 20 48  1  0  0  0  0
 20 49  1  0  0  0  0
 21 22  1  0  0  0  0
 21 23  2  0  0  0  0
 22 50  1  0  0  0  0
 22 51  1  0  0  0  0
 22 52  1  0  0  0  0
 23 24  1  0  0  0  0
 23 53  1  0  0  0  0
 25 54  1  0  0  0  0
 25 55  1  0  0  0  0
M  END
> <s_m_source_file>
AV-unprocessed.smi

> <i_m_source_file_index>
1047

> <i_lp_mmshare_version>
43012

> <i_f3d_flags>
0

> <s_epik_input>
W0NIM11bQ0gyXU4xW0NIMl1bQ0gyXU9bQ0BIXShbQ0gyXTEpW0NIMl1bTkhdW0NIMl1bQ0BIXShbT0hdKVtDSDJdbihbY0hdbjIpYyhjMjMpW2NIXWMoW0NIM10pYyhbY0hdMylbQ0gzXQ==

> <s_epik_cmdline>
J2VwaWtfcHl0aG9uJywgJy1waCcsICc3LjAnLCAnLXRuJywgJzgnLCAnLW1hJywgJzIwMCcsICctbWV0YWxfYmluZGluZycsICctaW1hZScsICc8aW5maWxlLm1hZT4nLCAnLW9tYWUnLCAnPG91dGZpbGUubWFlPic=

> <r_epik_Ionization_Penalty>
2.74124

> <r_epik_Ionization_Penalty_Charging>
0

> <r_epik_Ionization_Penalty_Neutral>
2.74124

> <r_epik_State_Penalty>
2.37482

> <r_epik_Charging_Adjusted_Penalty>
2.37482

> <i_epik_Tot_Q>
0

> <i_epik_Tot_abs_Q>
0

> <r_epik_Metal_State_Penalty>
2.25944

> <b_epik_Metal_Only>
0

> <s_lp_Force_Field>
OPLS_2005

> <r_lp_Energy>
34.1371

> <b_lp_Chiralities_Consistent>
1

> <s_lp_Variant>
AV-unprocessed.smi:1047-36

> <Gold.Version>
5.8.1

> <Gold.Id.Protein>
6NUR|6NUR_protein|mol2

> <Gold.PLP.Fitness>
57.6879

> <Gold.PLP.PLP>
-49.3102

> <Gold.PLP.part.hbond>
-4.0000

> <Gold.PLP.part.metal>
0.0000

> <Gold.PLP.part.buried>
-0.8419

> <Gold.PLP.part.nonpolar>
-46.4642

> <Gold.PLP.part.repulsive>
1.5992

> <Gold.PLP.ligand.clash>
0.0000

> <Gold.PLP.ligand.torsion>
0.4761

> <Gold.PLP.Chemscore.Hbond>
3.0680

> <Gold.PLP.Chemscore.CHOScore>
0.0000

> <Gold.PLP.Chemscore.Metal>
0.0000

> <Gold.Chemscore.Hbonds>
donor molecule, donor type, donor heavy atom, donor atom, acceptor molecule, acceptor atom, score
      L1  H     9    38       P1  7957  1.00
      L1  H    12    42       P1  7957  1.00
      P1  H  7954  7966       L1     6  0.20
      P1  H  7989  7998       L1    12  0.79

> <Gold.PLP.Chemscore.Internal.Correction>
0.1259

> <Gold.Rescore>
     Score         DG    S(hbond)    S(metal)    S(lipo)     H(rot)  DE(clash)    DE(int)     intcor
     21.49     -24.28       2.45        0.00     146.10       2.52       2.25       0.54       ----

> <Gold.Chemscore.Fitness>
21.4910

> <Gold.Chemscore.DG>
-24.2798

> <Gold.Chemscore.ZeroCoef>
-5.4800

> <Gold.Chemscore.Hbond>
2.4451

> <Gold.Chemscore.Metal>
0.0000

> <Gold.Chemscore.Lipo>
146.1006

> <Gold.Chemscore.Internal_Hbond>
0.0000

> <Gold.Chemscore.DEClash>
2.2472

> <Gold.Chemscore.DEInternal>
0.5415

> <Gold.Chemscore.Rot>
2.5237

> <Gold.Chemscore.Internal.Correction>
   9.000000E+99

> <Gold.Chemscore.Hbonds>
donor molecule, donor type, donor heavy atom, donor atom, acceptor molecule, acceptor atom, score
      L1  H     9    38       P1  7957  0.98
      L1  H    12    42       P1  7957  0.99
      P1  H  7989  7998       L1    12  0.17

> <Gold.Chemscore.Hbond.Weighted>
-8.1667

> <Gold.Chemscore.Metal.Weighted>
-0.0000

> <Gold.Chemscore.Lipo.Weighted>
-17.0938

> <Gold.Chemscore.Internal_Hbond.Weighted>
0.0000

> <Gold.Chemscore.DEClash.Weighted>
2.2472

> <Gold.Chemscore.DEInternal.Weighted>
0.5415

> <Gold.Chemscore.Rot.Weighted>
6.4607

> <Gold.Chemscore.Internal.Correction.Weighted>
   9.000000E+99

> <Gold.Protein.RotatedTorsions>
[ 6907 6896 6895 6894 ] final  -60.82 input  -60.11 | X-H torsion
[ 7974 7965 7964 7962 ] final   71.72 input  175.53 | X-H torsion
[ 8008 7997 7996 7995 ] final   50.62 input   59.86 | X-H torsion
[ 10167 10162 10161 10158 ] final -134.04 input  -65.29 | X-H torsion
[ 10718 10713 10712 10709 ] final  171.23 input   66.30 | X-H torsion
[ 10763 10752 10751 10750 ] final    3.10 input  -60.55 | X-H torsion
[ 11005 11000 10999 10996 ] final  145.14 input  -57.11 | X-H torsion

> <Gold.Protein.ActiveResidues>
 VAL166  LYS551  ARG553  GLY616  TRP617  ASP618  TYR619  PRO620  LYS621  CYS622 
 ASP623  PHE694  ASN695  SER759  ASP760  ASP761  ALA762  ILE779  LEU786  VAL792 
 PHE793  MET794  SER795  GLU796  ALA797  LYS798  CYS799  TRP800  GLU811  SER814 

> <Gold.Protein.RotatedAtoms>
  150.7828  134.6787  159.6431 H   0  0  0  0  0  0  0  0  0  0  0  0  # atno 6907 bound_to 6896
  152.3917  134.6427  160.0113 H   0  0  0  0  0  0  0  0  0  0  0  0  # atno 6908 bound_to 6896
  151.6725  133.3277  159.3236 H   0  0  0  0  0  0  0  0  0  0  0  0  # atno 6909 bound_to 6896
  145.7623  139.2806  143.1369 H   0  0  0  0  0  0  0  0  0  0  0  0  # atno 7974 bound_to 7965
  155.4217  140.3447  155.4272 H   0  0  0  0  0  0  0  0  0  0  0  0  # atno 8008 bound_to 7997
  156.1389  140.1536  156.8983 H   0  0  0  0  0  0  0  0  0  0  0  0  # atno 8009 bound_to 7997
  154.4954  140.0829  156.7666 H   0  0  0  0  0  0  0  0  0  0  0  0  # atno 8010 bound_to 7997
  139.8921  143.6710  152.2610 H   0  0  0  0  0  0  0  0  0  0  0  0  # atno 10167 bound_to 10162
  156.9966  131.0164  151.2842 H   0  0  0  0  0  0  0  0  0  0  0  0  # atno 10718 bound_to 10713
  153.2875  135.6946  153.7325 H   0  0  0  0  0  0  0  0  0  0  0  0  # atno 10763 bound_to 10752
  153.6289  135.3413  155.3036 H   0  0  0  0  0  0  0  0  0  0  0  0  # atno 10764 bound_to 10752
  154.8514  135.4404  154.1947 H   0  0  0  0  0  0  0  0  0  0  0  0  # atno 10765 bound_to 10752
  140.0688  134.9163  157.1311 H   0  0  0  0  0  0  0  0  0  0  0  0  # atno 11005 bound_to 11000
  146.0252  140.8310  142.9903 LP  0  0  0  0  0  0  0  0  0  0  0  0  # atno 17320 bound_to 7965
  144.6828  140.2687  143.7309 LP  0  0  0  0  0  0  0  0  0  0  0  0  # atno 17321 bound_to 7965
  139.7100  144.7622  151.1128 LP  0  0  0  0  0  0  0  0  0  0  0  0  # atno 17342 bound_to 10162
  140.7724  143.5343  150.9387 LP  0  0  0  0  0  0  0  0  0  0  0  0  # atno 17343 bound_to 10162
  157.5420  130.8126  149.8040 LP  0  0  0  0  0  0  0  0  0  0  0  0  # atno 17370 bound_to 10713
  156.0187  130.3804  150.2030 LP  0  0  0  0  0  0  0  0  0  0  0  0  # atno 17371 bound_to 10713
  140.3658  134.2445  155.7182 LP  0  0  0  0  0  0  0  0  0  0  0  0  # atno 17394 bound_to 11000
  141.2004  133.7989  157.0492 LP  0  0  0  0  0  0  0  0  0  0  0  0  # atno 17395 bound_to 11000

$$$$
