AV-unprocessed.smi:990|AV-procd|sdf|4327|dock9
  -GOLD-   22720 2233D 1   1.00000     0.00000
 Structure written by MMmdl.
 45 46  0  0  0  0  0  0  0  0  2 V2000
  152.5024  144.7060  158.3664 C   0  0  0  0  0  0  0  0  0  0  0  0
  151.5363  144.1549  159.1161 C   0  0  0  0  0  0  0  0  0  0  0  0
  150.7055  144.9092  160.1361 C   0  0  0  0  0  0  0  0  0  0  0  0
  149.3429  145.1258  159.6638 N   0  0  0  0  0  0  0  0  0  0  0  0
  148.2319  144.8321  160.3546 C   0  0  0  0  0  0  0  0  0  0  0  0
  148.2449  144.3285  161.4778 O   0  0  0  0  0  0  0  0  0  0  0  0
  147.1254  145.1428  159.6567 N   0  0  0  0  0  0  0  0  0  0  0  0
  145.7663  145.0010  160.0477 C   0  0  0  0  0  0  0  0  0  0  0  0
  145.3293  144.1641  161.1051 C   0  0  0  0  0  0  0  0  0  0  0  0
  143.9566  144.1034  161.4210 C   0  0  0  0  0  0  0  0  0  0  0  0
  143.0377  144.8849  160.6838 C   0  0  0  0  0  0  0  0  0  0  0  0
  141.6564  144.8821  160.9200 N   0  0  0  0  0  0  0  0  0  0  0  0
  140.9178  144.0385  159.9893 C   0  0  0  0  0  0  0  0  0  0  0  0
  139.4360  143.9450  160.3932 C   0  0  0  0  0  0  0  0  0  0  0  0
  138.8387  145.2883  160.5320 N   0  0  0  0  0  0  0  0  0  0  0  0
  137.1097  145.3941  160.6083 S   0  0  0  0  0  0  0  0  0  0  0  0
  136.8176  146.4555  162.0831 C   0  0  0  0  0  0  0  0  0  0  0  0
  136.6537  146.1387  159.4246 O   0  0  0  0  0  0  0  0  0  0  0  0
  136.5899  144.0439  160.8728 O   0  0  0  0  0  0  0  0  0  0  0  0
  139.6177  146.1785  161.4156 C   0  0  0  0  0  0  0  0  0  0  0  0
  141.0956  146.2251  160.9908 C   0  0  0  0  0  0  0  0  0  0  0  0
  143.4971  145.6821  159.6946 N   0  3  0  0  0  0  0  0  0  0  0  0
  144.8032  145.7702  159.3612 C   0  0  0  0  0  0  0  0  0  0  0  0
  152.7534  145.7530  158.4538 H   0  0  0  0  0  0  0  0  0  0  0  0
  153.0560  144.1137  157.6530 H   0  0  0  0  0  0  0  0  0  0  0  0
  151.3123  143.1047  158.9950 H   0  0  0  0  0  0  0  0  0  0  0  0
  150.6671  144.3520  161.0725 H   0  0  0  0  0  0  0  0  0  0  0  0
  151.1875  145.8630  160.3564 H   0  0  0  0  0  0  0  0  0  0  0  0
  149.2414  145.5320  158.7449 H   0  0  0  0  0  0  0  0  0  0  0  0
  147.2742  145.4706  158.7135 H   0  0  0  0  0  0  0  0  0  0  0  0
  146.0192  143.5754  161.6895 H   0  0  0  0  0  0  0  0  0  0  0  0
  143.6201  143.4628  162.2229 H   0  0  0  0  0  0  0  0  0  0  0  0
  140.9969  144.4437  158.9795 H   0  0  0  0  0  0  0  0  0  0  0  0
  141.3587  143.0410  159.9680 H   0  0  0  0  0  0  0  0  0  0  0  0
  138.8944  143.3728  159.6404 H   0  0  0  0  0  0  0  0  0  0  0  0
  139.3296  143.4101  161.3380 H   0  0  0  0  0  0  0  0  0  0  0  0
  135.7502  146.6553  162.1750 H   0  0  0  0  0  0  0  0  0  0  0  0
  137.3505  147.3987  161.9651 H   0  0  0  0  0  0  0  0  0  0  0  0
  137.1615  145.9504  162.9845 H   0  0  0  0  0  0  0  0  0  0  0  0
  139.2009  147.1843  161.3924 H   0  0  0  0  0  0  0  0  0  0  0  0
  139.5298  145.8233  162.4435 H   0  0  0  0  0  0  0  0  0  0  0  0
  141.6655  146.8240  161.7026 H   0  0  0  0  0  0  0  0  0  0  0  0
  141.1839  146.7143  160.0195 H   0  0  0  0  0  0  0  0  0  0  0  0
  145.0349  146.4467  158.5509 H   0  0  0  0  0  0  0  0  0  0  0  0
  142.8246  146.2452  159.1730 H   0  0  0  0  0  0  0  0  0  0  0  0
  1  2  2  0  0  0  0
  1 24  1  0  0  0  0
  1 25  1  0  0  0  0
  2  3  1  0  0  0  0
  2 26  1  0  0  0  0
  3  4  1  0  0  0  0
  3 27  1  0  0  0  0
  3 28  1  0  0  0  0
  4  5  1  0  0  0  0
  4 29  1  0  0  0  0
  5  6  2  0  0  0  0
  5  7  1  0  0  0  0
  7  8  1  0  0  0  0
  7 30  1  0  0  0  0
  8 23  1  0  0  0  0
  8  9  2  0  0  0  0
  9 10  1  0  0  0  0
  9 31  1  0  0  0  0
 10 11  2  0  0  0  0
 10 32  1  0  0  0  0
 11 12  1  0  0  0  0
 11 22  1  0  0  0  0
 12 21  1  0  0  0  0
 12 13  1  0  0  0  0
 13 14  1  0  0  0  0
 13 33  1  0  0  0  0
 13 34  1  0  0  0  0
 14 15  1  0  0  0  0
 14 35  1  0  0  0  0
 14 36  1  0  0  0  0
 15 16  1  0  0  0  0
 15 20  1  0  0  0  0
 16 17  1  0  0  0  0
 16 18  2  0  0  0  0
 16 19  2  0  0  0  0
 17 37  1  0  0  0  0
 17 38  1  0  0  0  0
 17 39  1  0  0  0  0
 20 21  1  0  0  0  0
 20 40  1  0  0  0  0
 20 41  1  0  0  0  0
 21 42  1  0  0  0  0
 21 43  1  0  0  0  0
 22 23  2  0  0  0  0
 22 45  1  0  0  0  0
 23 44  1  0  0  0  0
M  CHG  1  22   1
M  END
> <s_m_source_file>
AV-unprocessed.smi

> <i_m_source_file_index>
990

> <i_lp_mmshare_version>
43012

> <i_f3d_flags>
0

> <s_epik_input>
W0NIMl09W0NIXVtDSDJdW05IXUMoPU8pW05IXWMxW2NIXVtjSF1jKG5bY0hdMSlOMltDSDJdW0NIMl1OKFMoPU8pKD1PKVtDSDNdKVtDSDJdW0NIMl0y

> <s_epik_cmdline>
J2VwaWtfcHl0aG9uJywgJy1waCcsICc3LjAnLCAnLXRuJywgJzgnLCAnLW1hJywgJzIwMCcsICctbWV0YWxfYmluZGluZycsICctaW1hZScsICc8aW5maWxlLm1hZT4nLCAnLW9tYWUnLCAnPG91dGZpbGUubWFlPic=

> <r_lp_tautomer_probability>
0.999994

> <r_epik_Ionization_Penalty>
0.881759

> <r_epik_Ionization_Penalty_Charging>
0.881739

> <r_epik_Ionization_Penalty_Neutral>
2.00436e-05

> <r_epik_State_Penalty>
0.920006

> <r_epik_Charging_Adjusted_Penalty>
1.80175

> <i_epik_Tot_Q>
1

> <i_epik_Tot_abs_Q>
1

> <r_epik_Metal_State_Penalty>
1.04263

> <b_epik_Metal_Only>
0

> <s_lp_Force_Field>
OPLS_2005

> <r_lp_Energy>
28.5026

> <b_lp_Chiralities_Consistent>
1

> <s_lp_Variant>
AV-unprocessed.smi:990-2

> <Gold.Version>
5.8.1

> <Gold.Id.Protein>
6NUR|6NUR_protein|mol2

> <Gold.PLP.Fitness>
40.4485

> <Gold.PLP.PLP>
-33.1091

> <Gold.PLP.part.hbond>
-3.0000

> <Gold.PLP.part.metal>
0.0000

> <Gold.PLP.part.buried>
-6.6861

> <Gold.PLP.part.nonpolar>
-24.9290

> <Gold.PLP.part.repulsive>
0.6006

> <Gold.PLP.ligand.clash>
0.0000

> <Gold.PLP.ligand.torsion>
0.9485

> <Gold.PLP.Chemscore.Hbond>
2.8400

> <Gold.PLP.Chemscore.CHOScore>
0.0000

> <Gold.PLP.Chemscore.Metal>
0.0000

> <Gold.Chemscore.Hbonds>
donor molecule, donor type, donor heavy atom, donor atom, acceptor molecule, acceptor atom, score
      L1  H     4    29       P1  8029  0.90
      L1  H     7    30       P1  8029  1.00
      P1  H  6933  6944       L1     6  0.94

> <Gold.PLP.Chemscore.Internal.Correction>
0.7165

> <Gold.Rescore>
     Score         DG    S(hbond)    S(metal)    S(lipo)     H(rot)  DE(clash)    DE(int)     intcor
     17.95     -20.02       2.90        0.00      80.16       1.77       0.03       2.04       ----

> <Gold.Chemscore.Fitness>
17.9454

> <Gold.Chemscore.DG>
-20.0153

> <Gold.Chemscore.ZeroCoef>
-5.4800

> <Gold.Chemscore.Hbond>
2.9024

> <Gold.Chemscore.Metal>
0.0000

> <Gold.Chemscore.Lipo>
80.1575

> <Gold.Chemscore.Internal_Hbond>
0.0000

> <Gold.Chemscore.DEClash>
0.0254

> <Gold.Chemscore.DEInternal>
2.0445

> <Gold.Chemscore.Rot>
1.7723

> <Gold.Chemscore.Internal.Correction>
   9.000000E+99

> <Gold.Chemscore.Hbonds>
donor molecule, donor type, donor heavy atom, donor atom, acceptor molecule, acceptor atom, score
      L1  H     4    29       P1  8029  0.80
      L1  H     7    30       P1  8029  0.99
      P1  H  6933  6944       L1     6  0.79

> <Gold.Chemscore.Hbond.Weighted>
-9.6940

> <Gold.Chemscore.Metal.Weighted>
-0.0000

> <Gold.Chemscore.Lipo.Weighted>
-9.3784

> <Gold.Chemscore.Internal_Hbond.Weighted>
0.0000

> <Gold.Chemscore.DEClash.Weighted>
0.0254

> <Gold.Chemscore.DEInternal.Weighted>
2.0445

> <Gold.Chemscore.Rot.Weighted>
4.5371

> <Gold.Chemscore.Internal.Correction.Weighted>
   9.000000E+99

> <Gold.Protein.RotatedTorsions>
[ 6907 6896 6895 6894 ] final   32.90 input  -60.11 | X-H torsion
[ 7974 7965 7964 7962 ] final  -21.16 input  175.53 | X-H torsion
[ 8008 7997 7996 7995 ] final  158.53 input   59.86 | X-H torsion
[ 10167 10162 10161 10158 ] final -114.39 input  -65.29 | X-H torsion
[ 10718 10713 10712 10709 ] final   15.70 input   66.30 | X-H torsion
[ 10763 10752 10751 10750 ] final  -45.20 input  -60.55 | X-H torsion
[ 11005 11000 10999 10996 ] final -130.53 input  -57.11 | X-H torsion

> <Gold.Protein.ActiveResidues>
 VAL166  LYS551  ARG553  GLY616  TRP617  ASP618  TYR619  PRO620  LYS621  CYS622 
 ASP623  PHE694  ASN695  SER759  ASP760  ASP761  ALA762  ILE779  LEU786  VAL792 
 PHE793  MET794  SER795  GLU796  ALA797  LYS798  CYS799  TRP800  GLU811  SER814 

> <Gold.Protein.RotatedAtoms>
  152.0810  134.9471  160.0573 H   0  0  0  0  0  0  0  0  0  0  0  0  # atno 6907 bound_to 6896
  152.0760  133.4124  159.4488 H   0  0  0  0  0  0  0  0  0  0  0  0  # atno 6908 bound_to 6896
  150.6836  134.2957  159.4729 H   0  0  0  0  0  0  0  0  0  0  0  0  # atno 6909 bound_to 6896
  146.1748  140.4302  142.8518 H   0  0  0  0  0  0  0  0  0  0  0  0  # atno 7974 bound_to 7965
  156.2297  140.1856  156.7275 H   0  0  0  0  0  0  0  0  0  0  0  0  # atno 8008 bound_to 7997
  154.6000  140.0637  156.9384 H   0  0  0  0  0  0  0  0  0  0  0  0  # atno 8009 bound_to 7997
  155.2190  140.3306  155.4321 H   0  0  0  0  0  0  0  0  0  0  0  0  # atno 8010 bound_to 7997
  140.1015  143.4608  152.1809 H   0  0  0  0  0  0  0  0  0  0  0  0  # atno 10167 bound_to 10162
  157.0573  130.6294  149.5779 H   0  0  0  0  0  0  0  0  0  0  0  0  # atno 10718 bound_to 10713
  154.0246  135.6664  153.4775 H   0  0  0  0  0  0  0  0  0  0  0  0  # atno 10763 bound_to 10752
  153.0565  135.5053  154.7990 H   0  0  0  0  0  0  0  0  0  0  0  0  # atno 10764 bound_to 10752
  154.6916  135.3062  154.9436 H   0  0  0  0  0  0  0  0  0  0  0  0  # atno 10765 bound_to 10752
  140.9338  134.1284  157.4211 H   0  0  0  0  0  0  0  0  0  0  0  0  # atno 11005 bound_to 11000
  144.8219  140.6565  143.6347 LP  0  0  0  0  0  0  0  0  0  0  0  0  # atno 17320 bound_to 7965
  145.4241  139.1559  143.4058 LP  0  0  0  0  0  0  0  0  0  0  0  0  # atno 17321 bound_to 7965
  139.5668  144.7440  151.3999 LP  0  0  0  0  0  0  0  0  0  0  0  0  # atno 17342 bound_to 10162
  140.6975  143.7713  150.7350 LP  0  0  0  0  0  0  0  0  0  0  0  0  # atno 17343 bound_to 10162
  155.9989  130.5064  150.7588 LP  0  0  0  0  0  0  0  0  0  0  0  0  # atno 17370 bound_to 10713
  157.4982  131.0916  151.0345 LP  0  0  0  0  0  0  0  0  0  0  0  0  # atno 17371 bound_to 10713
  139.8803  135.0014  156.6065 LP  0  0  0  0  0  0  0  0  0  0  0  0  # atno 17394 bound_to 11000
  140.7827  133.8647  155.8581 LP  0  0  0  0  0  0  0  0  0  0  0  0  # atno 17395 bound_to 11000

$$$$
