#       Name:                AV-unprocessed.smi:2100
#       Creating user name   scv26
#       Creation time:       Fri Mar 27 11:30:29 2020


#       File generated by GOLD software.
#

@<TRIPOS>MOLECULE
AV-unprocessed.smi:2100
    46    47     1
SMALL
NO_CHARGES


@<TRIPOS>ATOM
      1 ****        -4.5090   1.5446  -0.1590 C.3            1 S1                 0.0000
      2 ****        -3.0553   1.0638  -0.0940 C.3            1 S1                 0.0000
      3 ****        -2.8861  -0.3389  -0.7026 C.3            1 S1                 0.0000
      4 ****        -1.4684  -0.7224  -0.7505 N.3            1 S1                 0.0000
      5 ****        -1.1163  -2.3890  -1.0647 S.o2           1 S1                 0.0000
      6 ****        -1.9988  -3.2234  -0.2345 O.2            1 S1                 0.0000
      7 ****        -1.0373  -2.5741  -2.5215 O.2            1 S1                 0.0000
      8 ****         0.4776  -2.4761  -0.4125 N.3            1 S1                 0.0000
      9 ****         0.6838  -2.3151   1.0279 C.3            1 S1                 0.0000
     10 ****         2.1791  -2.1901   1.3644 C.3            1 S1                 0.0000
     11 ****         2.8070  -0.8966   0.8698 C.ar           1 S1                 0.0000
     12 ****         3.0194   0.1810   1.7562 C.ar           1 S1                 0.0000
     13 ****         3.6070   1.3587   1.2546 C.ar           1 S1                 0.0000
     14 ****         3.9523   1.4164  -0.1092 C.ar           1 S1                 0.0000
     15 ****         3.6993   0.2871  -0.9127 C.ar           1 S1                 0.0000
     16 ****         3.1417  -0.8484  -0.4402 N.ar           1 S1                 0.0000
     17 ****        -0.6191   0.2895  -1.4026 C.3            1 S1                 0.0000
     18 ****        -0.8611   1.6943  -0.8186 C.3            1 S1                 0.0000
     19 ****        -0.2056   1.9008   0.5576 C.3            1 S1                 0.0000
     20 ****        -2.2529   2.0000  -0.8039 O.3            1 S1                 0.0000
     21 ****        -5.1708   0.8679   0.3821 H              1 S1                 0.0000
     22 ****        -4.8598   1.6039  -1.1897 H              1 S1                 0.0000
     23 ****        -4.6116   2.5350   0.2852 H              1 S1                 0.0000
     24 ****        -2.7574   1.0434   0.9543 H              1 S1                 0.0000
     25 ****        -3.4438  -1.0649  -0.1107 H              1 S1                 0.0000
     26 ****        -3.2928  -0.3708  -1.7144 H              1 S1                 0.0000
     27 ****         1.1675  -1.9875  -0.9837 H              1 S1                 0.0000
     28 ****         0.1443  -1.4367   1.3836 H              1 S1                 0.0000
     29 ****         0.2568  -3.1801   1.5359 H              1 S1                 0.0000
     30 ****         2.3077  -2.2480   2.4458 H              1 S1                 0.0000
     31 ****         2.7292  -3.0377   0.9527 H              1 S1                 0.0000
     32 ****         2.7390   0.1100   2.7968 H              1 S1                 0.0000
     33 ****         3.7846   2.2037   1.9032 H              1 S1                 0.0000
     34 ****         4.4010   2.3043  -0.5293 H              1 S1                 0.0000
     35 ****         3.9515   0.2957  -1.9628 H              1 S1                 0.0000
     36 ****         0.4328   0.0218  -1.3086 H              1 S1                 0.0000
     37 ****        -0.8458   0.2922  -2.4695 H              1 S1                 0.0000
     38 ****        -0.4027   2.4166  -1.4946 H              1 S1                 0.0000
     39 ****         0.8777   1.8246   0.4780 H              1 S1                 0.0000
     40 ****        -0.5281   1.1578   1.2864 H              1 S1                 0.0000
     41 ****        -0.4371   2.8884   0.9562 H              1 S1                 0.0000
     42 ****        -1.1699  -0.6993   0.2036 LP             1 S1                 0.0000
     43 ****         0.6427  -3.4599  -0.4830 LP             1 S1                 0.0000
     44 ****         2.9808  -1.6312  -1.0413 LP             1 S1                 0.0000
     45 ****        -2.3710   2.8977  -0.3795 LP             1 S1                 0.0000
     46 ****        -2.5753   2.0335  -1.7499 LP             1 S1                 0.0000
@<TRIPOS>BOND
    1    1    2 1     
    2    1   21 1     
    3    1   22 1     
    4    1   23 1     
    5    2   20 1     
    6    2    3 1     
    7    2   24 1     
    8    3    4 1     
    9    3   25 1     
   10    3   26 1     
   11    4    5 1     
   12    4   17 1     
   13    5    6 2     
   14    5    7 2     
   15    5    8 1     
   16    8    9 1     
   17    8   27 1     
   18    9   10 1     
   19    9   28 1     
   20    9   29 1     
   21   10   11 1     
   22   10   30 1     
   23   10   31 1     
   24   11   16 ar    
   25   11   12 ar    
   26   12   13 ar    
   27   12   32 1     
   28   13   14 ar    
   29   13   33 1     
   30   14   15 ar    
   31   14   34 1     
   32   15   16 ar    
   33   15   35 1     
   34   17   18 1     
   35   17   36 1     
   36   17   37 1     
   37   18   19 1     
   38   18   20 1     
   39   18   38 1     
   40   19   39 1     
   41   19   40 1     
   42   19   41 1     
   43    4   42 1     
   44    8   43 1     
   45   16   44 1     
   46   20   45 1     
   47   20   46 1     
@<TRIPOS>SUBSTRUCTURE
      1 S1             1
@<TRIPOS>SET
LONE_PAIRS      STATIC     ATOMS    <user>   **** ""
7 42 6 7 43 44 45 46
DONOR_HYDROGENS      STATIC     ATOMS    <user>   **** ""
1 27
ATOM$BLUE        STATIC     ATOMS    COLORGROUP SYSTEM
7 42 6 7 43 44 45 46
ATOM$RED        STATIC     ATOMS    COLORGROUP SYSTEM
1 27
