AV-unprocessed.smi:3283|AV-procd|sdf|12568|dock6
  -GOLD-   2272018483D 1   1.00000     0.00000
 Structure written by MMmdl.
 44 45  0  0  0  0  0  0  0  0  2 V2000
  151.2224  139.6441  154.8104 C   0  0  0  0  0  0  0  0  0  0  0  0
  149.7393  139.7994  154.5191 C   0  0  0  0  0  0  0  0  0  0  0  0
  148.9862  138.7447  154.1504 C   0  0  0  0  0  0  0  0  0  0  0  0
  147.5112  138.8170  153.8010 C   0  0  0  0  0  0  0  0  0  0  0  0
  146.8869  140.1829  154.1254 C   0  0  0  0  0  0  0  0  0  0  0  0
  147.8544  141.3358  153.8031 C   0  0  1  0  0  0  0  0  0  0  0  0
  147.1534  142.7029  153.8779 C   0  0  0  0  0  0  0  0  0  0  0  0
  149.1734  141.2184  154.6272 C   0  0  1  0  0  0  0  0  0  0  0  0
  149.0440  141.6295  156.1169 C   0  0  0  0  0  0  0  0  0  0  0  0
  150.1042  142.5697  156.5326 N   0  3  0  0  0  0  0  0  0  0  0  0
  150.5221  142.4302  157.9408 C   0  0  0  0  0  0  0  0  0  0  0  0
  151.6139  143.4513  158.2919 C   0  0  0  0  0  0  0  0  0  0  0  0
  152.0094  143.4614  159.7372 C   0  0  0  0  0  0  0  0  0  0  0  0
  151.8044  144.3874  160.7237 C   0  0  0  0  0  0  0  0  0  0  0  0
  152.4215  143.8168  161.8709 C   0  0  0  0  0  0  0  0  0  0  0  0
  152.9631  142.6379  161.6213 N   0  0  0  0  0  0  0  0  0  0  0  0
  152.7107  142.4179  160.3138 N   0  0  0  0  0  0  0  0  0  0  0  0
  153.1775  141.1901  159.6988 C   0  0  0  0  0  0  0  0  0  0  0  0
  151.8057  140.2960  154.1598 H   0  0  0  0  0  0  0  0  0  0  0  0
  151.5543  138.6196  154.6385 H   0  0  0  0  0  0  0  0  0  0  0  0
  151.4532  139.8960  155.8444 H   0  0  0  0  0  0  0  0  0  0  0  0
  149.4400  137.7682  154.0626 H   0  0  0  0  0  0  0  0  0  0  0  0
  147.4160  138.6117  152.7344 H   0  0  0  0  0  0  0  0  0  0  0  0
  146.9739  138.0253  154.3235 H   0  0  0  0  0  0  0  0  0  0  0  0
  145.9588  140.2941  153.5634 H   0  0  0  0  0  0  0  0  0  0  0  0
  146.6060  140.2166  155.1781 H   0  0  0  0  0  0  0  0  0  0  0  0
  148.1385  141.2154  152.7559 H   0  0  0  0  0  0  0  0  0  0  0  0
  146.7067  142.8761  154.8572 H   0  0  0  0  0  0  0  0  0  0  0  0
  146.3490  142.7647  153.1443 H   0  0  0  0  0  0  0  0  0  0  0  0
  147.8476  143.5166  153.6668 H   0  0  0  0  0  0  0  0  0  0  0  0
  149.9082  141.8749  154.1583 H   0  0  0  0  0  0  0  0  0  0  0  0
  148.0644  142.0664  156.3110 H   0  0  0  0  0  0  0  0  0  0  0  0
  149.1233  140.7590  156.7672 H   0  0  0  0  0  0  0  0  0  0  0  0
  150.9093  142.4293  155.9388 H   0  0  0  0  0  0  0  0  0  0  0  0
  149.6547  142.5757  158.5862 H   0  0  0  0  0  0  0  0  0  0  0  0
  150.8869  141.4158  158.1073 H   0  0  0  0  0  0  0  0  0  0  0  0
  152.4979  143.2527  157.6848 H   0  0  0  0  0  0  0  0  0  0  0  0
  151.2722  144.4489  158.0131 H   0  0  0  0  0  0  0  0  0  0  0  0
  151.2913  145.3340  160.6427 H   0  0  0  0  0  0  0  0  0  0  0  0
  152.4919  144.2213  162.8699 H   0  0  0  0  0  0  0  0  0  0  0  0
  153.9233  141.4226  158.9384 H   0  0  0  0  0  0  0  0  0  0  0  0
  152.3404  140.6706  159.2320 H   0  0  0  0  0  0  0  0  0  0  0  0
  153.6265  140.5319  160.4438 H   0  0  0  0  0  0  0  0  0  0  0  0
  149.7618  143.5100  156.3952 H   0  0  0  0  0  0  0  0  0  0  0  0
  1  2  1  0  0  0  0
  1 19  1  0  0  0  0
  1 20  1  0  0  0  0
  1 21  1  0  0  0  0
  2  8  1  0  0  0  0
  2  3  2  0  0  0  0
  3  4  1  0  0  0  0
  3 22  1  0  0  0  0
  4  5  1  0  0  0  0
  4 23  1  0  0  0  0
  4 24  1  0  0  0  0
  5  6  1  0  0  0  0
  5 25  1  0  0  0  0
  5 26  1  0  0  0  0
  6  7  1  0  0  0  0
  6  8  1  0  0  0  0
  6 27  1  0  0  0  0
  7 28  1  0  0  0  0
  7 29  1  0  0  0  0
  7 30  1  0  0  0  0
  8  9  1  0  0  0  0
  8 31  1  0  0  0  0
  9 10  1  0  0  0  0
  9 32  1  0  0  0  0
  9 33  1  0  0  0  0
 10 11  1  0  0  0  0
 10 34  1  0  0  0  0
 10 44  1  0  0  0  0
 11 12  1  0  0  0  0
 11 35  1  0  0  0  0
 11 36  1  0  0  0  0
 12 13  1  0  0  0  0
 12 37  1  0  0  0  0
 12 38  1  0  0  0  0
 13 17  1  0  0  0  0
 13 14  2  0  0  0  0
 14 15  1  0  0  0  0
 14 39  1  0  0  0  0
 15 16  2  0  0  0  0
 15 40  1  0  0  0  0
 16 17  1  0  0  0  0
 17 18  1  0  0  0  0
 18 41  1  0  0  0  0
 18 42  1  0  0  0  0
 18 43  1  0  0  0  0
M  CHG  1  10   1
M  END
> <s_m_source_file>
AV-unprocessed.smi

> <i_m_source_file_index>
3283

> <i_lp_mmshare_version>
43012

> <i_f3d_flags>
0

> <s_epik_input>
W0NIM11DMT1bQ0hdW0NIMl1bQ0gyXVtDQEBIXShbQ0gzXSlbQ0BIXTFbQ0gyXVtOSF1bQ0gyXVtDSDJdYzJbY0hdW2NIXW5uMltDSDNd

> <s_epik_cmdline>
J2VwaWtfcHl0aG9uJywgJy1waCcsICc3LjAnLCAnLXRuJywgJzgnLCAnLW1hJywgJzIwMCcsICctbWV0YWxfYmluZGluZycsICctaW1hZScsICc8aW5maWxlLm1hZT4nLCAnLW9tYWUnLCAnPG91dGZpbGUubWFlPic=

> <r_lp_tautomer_probability>
1

> <r_epik_Ionization_Penalty>
0.000866911

> <r_epik_Ionization_Penalty_Charging>
0.000836385

> <r_epik_Ionization_Penalty_Neutral>
3.05258e-05

> <r_epik_State_Penalty>
-0

> <r_epik_Charging_Adjusted_Penalty>
0.000836385

> <i_epik_Tot_Q>
1

> <i_epik_Tot_abs_Q>
1

> <r_epik_Metal_State_Penalty>
-0

> <b_epik_Metal_Only>
0

> <s_lp_Force_Field>
OPLS_2005

> <r_lp_Energy>
14.2558

> <b_lp_Chiralities_Consistent>
1

> <s_lp_Variant>
AV-unprocessed.smi:3283-1

> <Gold.Version>
5.8.1

> <Gold.Id.Protein>
6NUR|6NUR_protein|mol2

> <Gold.PLP.Fitness>
48.4136

> <Gold.PLP.PLP>
-44.2133

> <Gold.PLP.part.hbond>
-1.0000

> <Gold.PLP.part.metal>
0.0000

> <Gold.PLP.part.buried>
-1.6542

> <Gold.PLP.part.nonpolar>
-40.7969

> <Gold.PLP.part.repulsive>
0.1014

> <Gold.PLP.ligand.clash>
0.0000

> <Gold.PLP.ligand.torsion>
0.9695

> <Gold.PLP.Chemscore.Hbond>
2.0000

> <Gold.PLP.Chemscore.CHOScore>
0.0000

> <Gold.PLP.Chemscore.Metal>
0.0000

> <Gold.Chemscore.Hbonds>
donor molecule, donor type, donor heavy atom, donor atom, acceptor molecule, acceptor atom, score
      L1  H    10    44       P1  8028  2.00

> <Gold.PLP.Chemscore.Internal.Correction>
0.1393

> <Gold.Rescore>
     Score         DG    S(hbond)    S(metal)    S(lipo)     H(rot)  DE(clash)    DE(int)     intcor
     17.53     -18.61       0.99        0.00     116.60       1.48       0.10       0.98       ----

> <Gold.Chemscore.Fitness>
17.5315

> <Gold.Chemscore.DG>
-18.6149

> <Gold.Chemscore.ZeroCoef>
-5.4800

> <Gold.Chemscore.Hbond>
0.9862

> <Gold.Chemscore.Metal>
0.0000

> <Gold.Chemscore.Lipo>
116.5969

> <Gold.Chemscore.Internal_Hbond>
0.0000

> <Gold.Chemscore.DEClash>
0.0991

> <Gold.Chemscore.DEInternal>
0.9843

> <Gold.Chemscore.Rot>
1.4847

> <Gold.Chemscore.Internal.Correction>
   9.000000E+99

> <Gold.Chemscore.Hbonds>
donor molecule, donor type, donor heavy atom, donor atom, acceptor molecule, acceptor atom, score
      L1  H    10    44       P1  8028  0.99

> <Gold.Chemscore.Hbond.Weighted>
-3.2939

> <Gold.Chemscore.Metal.Weighted>
-0.0000

> <Gold.Chemscore.Lipo.Weighted>
-13.6418

> <Gold.Chemscore.Internal_Hbond.Weighted>
0.0000

> <Gold.Chemscore.DEClash.Weighted>
0.0991

> <Gold.Chemscore.DEInternal.Weighted>
0.9843

> <Gold.Chemscore.Rot.Weighted>
3.8008

> <Gold.Chemscore.Internal.Correction.Weighted>
   9.000000E+99

> <Gold.Protein.RotatedTorsions>
[ 6907 6896 6895 6894 ] final  -63.49 input  -60.11 | X-H torsion
[ 7974 7965 7964 7962 ] final    4.24 input  175.53 | X-H torsion
[ 8008 7997 7996 7995 ] final -107.83 input   59.86 | X-H torsion
[ 10167 10162 10161 10158 ] final -114.58 input  -65.29 | X-H torsion
[ 10718 10713 10712 10709 ] final  138.64 input   66.30 | X-H torsion
[ 10763 10752 10751 10750 ] final  166.95 input  -60.55 | X-H torsion
[ 11005 11000 10999 10996 ] final -129.21 input  -57.11 | X-H torsion

> <Gold.Protein.ActiveResidues>
 VAL166  LYS551  ARG553  GLY616  TRP617  ASP618  TYR619  PRO620  LYS621  CYS622 
 ASP623  PHE694  ASN695  SER759  ASP760  ASP761  ALA762  ILE779  LEU786  VAL792 
 PHE793  MET794  SER795  GLU796  ALA797  LYS798  CYS799  TRP800  GLU811  SER814 

> <Gold.Protein.RotatedAtoms>
  150.7646  134.6428  159.6245 H   0  0  0  0  0  0  0  0  0  0  0  0  # atno 6907 bound_to 6896
  152.3671  134.6786  160.0197 H   0  0  0  0  0  0  0  0  0  0  0  0  # atno 6908 bound_to 6896
  151.7157  133.3277  159.3339 H   0  0  0  0  0  0  0  0  0  0  0  0  # atno 6909 bound_to 6896
  146.2444  140.0564  142.8371 H   0  0  0  0  0  0  0  0  0  0  0  0  # atno 7974 bound_to 7965
  154.9351  140.0404  157.2068 H   0  0  0  0  0  0  0  0  0  0  0  0  # atno 8008 bound_to 7997
  154.8123  140.2870  155.5823 H   0  0  0  0  0  0  0  0  0  0  0  0  # atno 8009 bound_to 7997
  156.2972  140.2534  156.3013 H   0  0  0  0  0  0  0  0  0  0  0  0  # atno 8010 bound_to 7997
  140.0994  143.4627  152.1821 H   0  0  0  0  0  0  0  0  0  0  0  0  # atno 10167 bound_to 10162
  157.4231  131.1041  151.0331 H   0  0  0  0  0  0  0  0  0  0  0  0  # atno 10718 bound_to 10713
  154.3466  135.2753  155.2394 H   0  0  0  0  0  0  0  0  0  0  0  0  # atno 10763 bound_to 10752
  154.4642  135.5899  153.6280 H   0  0  0  0  0  0  0  0  0  0  0  0  # atno 10764 bound_to 10752
  152.9853  135.6072  154.3672 H   0  0  0  0  0  0  0  0  0  0  0  0  # atno 10765 bound_to 10752
  140.9451  134.1141  157.4115 H   0  0  0  0  0  0  0  0  0  0  0  0  # atno 11005 bound_to 11000
  145.0938  140.9302  143.4753 LP  0  0  0  0  0  0  0  0  0  0  0  0  # atno 17320 bound_to 7965
  145.0743  139.3008  143.5816 LP  0  0  0  0  0  0  0  0  0  0  0  0  # atno 17321 bound_to 7965
  139.5680  144.7446  151.3969 LP  0  0  0  0  0  0  0  0  0  0  0  0  # atno 17342 bound_to 10162
  140.6986  143.7688  150.7366 LP  0  0  0  0  0  0  0  0  0  0  0  0  # atno 17343 bound_to 10162
  157.1254  130.6080  149.5516 LP  0  0  0  0  0  0  0  0  0  0  0  0  # atno 17370 bound_to 10713
  155.9887  130.4932  150.7183 LP  0  0  0  0  0  0  0  0  0  0  0  0  # atno 17371 bound_to 10713
  139.8831  135.0049  156.6277 LP  0  0  0  0  0  0  0  0  0  0  0  0  # atno 17394 bound_to 11000
  140.7680  133.8762  155.8470 LP  0  0  0  0  0  0  0  0  0  0  0  0  # atno 17395 bound_to 11000

$$$$
