#       Name:                AV-unprocessed.smi:821
#       Creating user name   scv26
#       Creation time:       Fri Mar 27 01:28:43 2020


#       File generated by GOLD software.
#

@<TRIPOS>MOLECULE
AV-unprocessed.smi:821
    51    52     1
SMALL
NO_CHARGES


@<TRIPOS>ATOM
      1 ****        -2.9477  -2.6006  -0.8643 C.3            1 S1                 0.0000
      2 ****        -2.2013  -1.4524  -0.1716 C.3            1 S1                 0.0000
      3 ****        -2.5543  -1.3786   1.3317 C.3            1 S1                 0.0000
      4 ****        -1.8811  -0.2552   2.0317 N.4            1 S1                 1.0000
      5 ****        -2.5336   1.0577   1.8072 C.3            1 S1                 0.0000
      6 ****        -1.7303   2.1733   2.4955 C.3            1 S1                 0.0000
      7 ****        -1.6131   1.8871   3.8842 O.3            1 S1                 0.0000
      8 ****        -0.9229   0.6662   4.1219 C.3            1 S1                 0.0000
      9 ****        -1.6957  -0.4994   3.4809 C.3            1 S1                 0.0000
     10 ****        -0.7628  -1.6304  -0.3737 N.am           1 S1                 0.0000
     11 ****         0.1384  -0.6515  -0.5512 C.2            1 S1                 0.0000
     12 ****        -0.1503   0.5453  -0.5176 O.2            1 S1                 0.0000
     13 ****         1.5890  -1.1048  -0.7670 C.3            1 S1                 0.0000
     14 ****         2.4219  -0.0914  -1.4370 N.am           1 S1                 0.0000
     15 ****         3.2331   0.7111  -0.6149 C.2            1 S1                 0.0000
     16 ****         4.0274   1.6632  -1.1225 C.2            1 S1                 0.0000
     17 ****         4.0372   1.8531  -2.5526 C.2            1 S1                 0.0000
     18 ****         3.2639   1.1000  -3.3687 C.2            1 S1                 0.0000
     19 ****         3.2648   1.2854  -4.8848 C.3            1 S1                 0.0000
     20 ****         2.0474   1.6160  -5.3169 F              1 S1                 0.0000
     21 ****         4.1072   2.2470  -5.2652 F              1 S1                 0.0000
     22 ****         3.6316   0.1576  -5.4951 F              1 S1                 0.0000
     23 ****         2.3873   0.0569  -2.7979 C.2            1 S1                 0.0000
     24 ****         1.6584  -0.6485  -3.4977 O.2            1 S1                 0.0000
     25 ****        -4.0272  -2.4806  -0.7680 H              1 S1                 0.0000
     26 ****        -2.6808  -3.5667  -0.4345 H              1 S1                 0.0000
     27 ****        -2.7158  -2.6340  -1.9296 H              1 S1                 0.0000
     28 ****        -2.5202  -0.5313  -0.6614 H              1 S1                 0.0000
     29 ****        -3.6337  -1.3026   1.4731 H              1 S1                 0.0000
     30 ****        -2.2549  -2.3198   1.7954 H              1 S1                 0.0000
     31 ****        -2.6070   1.2694   0.7407 H              1 S1                 0.0000
     32 ****        -3.5517   1.0348   2.1991 H              1 S1                 0.0000
     33 ****        -0.7411   2.2753   2.0458 H              1 S1                 0.0000
     34 ****        -2.2361   3.1310   2.3734 H              1 S1                 0.0000
     35 ****         0.0921   0.7256   3.7250 H              1 S1                 0.0000
     36 ****        -0.8358   0.5129   5.1977 H              1 S1                 0.0000
     37 ****        -2.6687  -0.6161   3.9610 H              1 S1                 0.0000
     38 ****        -1.1467  -1.4291   3.6339 H              1 S1                 0.0000
     39 ****        -0.4293  -2.5832  -0.4117 H              1 S1                 0.0000
     40 ****         2.0102  -1.3654   0.2048 H              1 S1                 0.0000
     41 ****         1.5988  -2.0352  -1.3384 H              1 S1                 0.0000
     42 ****         3.1631   0.5090   0.4441 H              1 S1                 0.0000
     43 ****         4.6424   2.2743  -0.4780 H              1 S1                 0.0000
     44 ****         4.6814   2.6160  -2.9637 H              1 S1                 0.0000
     45 ****        -0.9536  -0.1920   1.6361 H              1 S1                 0.0000
     46 ****        -2.5297   1.8215   4.2785 LP             1 S1                 0.0000
     47 ****        -1.1128   2.6318   4.3259 LP             1 S1                 0.0000
     48 ****        -1.0953   0.8272  -0.3516 LP             1 S1                 0.0000
     49 ****         0.5603   1.2351  -0.6563 LP             1 S1                 0.0000
     50 ****         1.0786  -1.3439  -3.0732 LP             1 S1                 0.0000
     51 ****         1.6467  -0.5255  -4.4900 LP             1 S1                 0.0000
@<TRIPOS>BOND
    1    1    2 1     
    2    1   25 1     
    3    1   26 1     
    4    1   27 1     
    5    2    3 1     
    6    2   10 1     
    7    2   28 1     
    8    3    4 1     
    9    3   29 1     
   10    3   30 1     
   11    4    9 1     
   12    4    5 1     
   13    4   45 1     
   14    5    6 1     
   15    5   31 1     
   16    5   32 1     
   17    6    7 1     
   18    6   33 1     
   19    6   34 1     
   20    7    8 1     
   21    8    9 1     
   22    8   35 1     
   23    8   36 1     
   24    9   37 1     
   25    9   38 1     
   26   10   11 am    
   27   10   39 1     
   28   11   12 2     
   29   11   13 1     
   30   13   14 1     
   31   13   40 1     
   32   13   41 1     
   33   14   23 am    
   34   14   15 1     
   35   15   16 2     
   36   15   42 1     
   37   16   17 1     
   38   16   43 1     
   39   17   18 2     
   40   17   44 1     
   41   18   19 1     
   42   18   23 1     
   43   19   20 1     
   44   19   21 1     
   45   19   22 1     
   46   23   24 2     
   47    7   46 1     
   48    7   47 1     
   49   12   48 1     
   50   12   49 1     
   51   24   50 1     
   52   24   51 1     
@<TRIPOS>SUBSTRUCTURE
      1 S1             1
@<TRIPOS>SET
LONE_PAIRS      STATIC     ATOMS    <user>   **** ""
6 46 47 48 49 50 51
DONOR_HYDROGENS      STATIC     ATOMS    <user>   **** ""
2 45 39
ATOM$BLUE        STATIC     ATOMS    COLORGROUP SYSTEM
6 46 47 48 49 50 51
ATOM$RED        STATIC     ATOMS    COLORGROUP SYSTEM
2 45 39
