#       Name:                AV-unprocessed.smi:3232
#       Creating user name   scv26
#       Creation time:       Fri Mar 27 18:20:51 2020


#       File generated by GOLD software.
#

@<TRIPOS>MOLECULE
AV-unprocessed.smi:3232
    44    45     1
SMALL
NO_CHARGES


@<TRIPOS>ATOM
      1 ****        -3.0452   1.0295   2.8626 C.3            1 S1                 0.0000
      2 ****        -3.4028   0.2215   1.6073 C.3            1 S1                 0.0000
      3 ****        -2.7018   0.7202   0.3978 N.4            1 S1                 1.0000
      4 ****        -3.2114   0.1759  -0.8814 C.3            1 S1                 0.0000
      5 ****        -2.0375   0.2095  -1.8706 C.3            1 S1                 0.0000
      6 ****        -0.9125   0.9199  -1.1193 C.3            1 S1                 0.0000
      7 ****        -1.2197   0.6365   0.3572 C.3            1 S1                 0.0000
      8 ****        -0.6670  -0.7257   0.8546 C.3            1 S1                 0.0000
      9 ****         0.7875  -0.7909   0.7563 N.am           1 S1                 0.0000
     10 ****         1.4747  -1.5049  -0.1505 C.2            1 S1                 0.0000
     11 ****         0.9328  -2.2407  -0.9762 O.2            1 S1                 0.0000
     12 ****         3.0026  -1.3346  -0.1299 C.3            1 S1                 0.0000
     13 ****         3.7426  -2.4257  -0.9290 C.3            1 S1                 0.0000
     14 ****         3.3653   0.0038  -0.5807 N.pl3          1 S1                 0.0000
     15 ****         3.8046   1.0552   0.1143 C.2            1 S1                 0.0000
     16 ****         3.9978   2.1424  -0.6191 N.2            1 S1                 0.0000
     17 ****         3.6323   1.6601  -1.8438 C.2            1 S1                 0.0000
     18 ****         3.2370   0.3878  -1.8756 N.2            1 S1                 0.0000
     19 ****        -3.6191   0.6802   3.7212 H              1 S1                 0.0000
     20 ****        -3.2674   2.0883   2.7254 H              1 S1                 0.0000
     21 ****        -1.9894   0.9387   3.1172 H              1 S1                 0.0000
     22 ****        -3.2124  -0.8409   1.7602 H              1 S1                 0.0000
     23 ****        -4.4762   0.3123   1.4359 H              1 S1                 0.0000
     24 ****        -3.5623  -0.8496  -0.7548 H              1 S1                 0.0000
     25 ****        -4.0527   0.7764  -1.2288 H              1 S1                 0.0000
     26 ****        -1.7332  -0.8081  -2.1190 H              1 S1                 0.0000
     27 ****        -2.2908   0.7150  -2.8029 H              1 S1                 0.0000
     28 ****         0.0791   0.6103  -1.4474 H              1 S1                 0.0000
     29 ****        -0.9842   1.9933  -1.3002 H              1 S1                 0.0000
     30 ****        -0.8001   1.4296   0.9776 H              1 S1                 0.0000
     31 ****        -0.9055  -0.8710   1.9078 H              1 S1                 0.0000
     32 ****        -1.1381  -1.5531   0.3213 H              1 S1                 0.0000
     33 ****         1.3130  -0.2181   1.4008 H              1 S1                 0.0000
     34 ****         3.3200  -1.4222   0.9105 H              1 S1                 0.0000
     35 ****         3.5062  -3.4207  -0.5497 H              1 S1                 0.0000
     36 ****         4.8226  -2.2967  -0.8524 H              1 S1                 0.0000
     37 ****         3.4831  -2.4047  -1.9883 H              1 S1                 0.0000
     38 ****         3.9817   1.0266   1.1795 H              1 S1                 0.0000
     39 ****         3.6513   2.2665  -2.7372 H              1 S1                 0.0000
     40 ****        -2.9033   1.7089   0.3506 H              1 S1                 0.0000
     41 ****        -0.0634  -2.3267  -0.9916 LP             1 S1                 0.0000
     42 ****         1.4889  -2.7521  -1.6313 LP             1 S1                 0.0000
     43 ****         4.3181   3.0516  -0.3531 LP             1 S1                 0.0000
     44 ****         2.9239  -0.1498  -2.6586 LP             1 S1                 0.0000
@<TRIPOS>BOND
    1    1    2 1     
    2    1   19 1     
    3    1   20 1     
    4    1   21 1     
    5    2    3 1     
    6    2   22 1     
    7    2   23 1     
    8    3    7 1     
    9    3    4 1     
   10    3   40 1     
   11    4    5 1     
   12    4   24 1     
   13    4   25 1     
   14    5    6 1     
   15    5   26 1     
   16    5   27 1     
   17    6    7 1     
   18    6   28 1     
   19    6   29 1     
   20    7    8 1     
   21    7   30 1     
   22    8    9 1     
   23    8   31 1     
   24    8   32 1     
   25    9   10 am    
   26    9   33 1     
   27   10   11 2     
   28   10   12 1     
   29   12   13 1     
   30   12   14 1     
   31   12   34 1     
   32   13   35 1     
   33   13   36 1     
   34   13   37 1     
   35   14   18 1     
   36   14   15 1     
   37   15   16 2     
   38   15   38 1     
   39   16   17 1     
   40   17   18 2     
   41   17   39 1     
   42   11   41 1     
   43   11   42 1     
   44   16   43 1     
   45   18   44 1     
@<TRIPOS>SUBSTRUCTURE
      1 S1             1
@<TRIPOS>SET
LONE_PAIRS      STATIC     ATOMS    <user>   **** ""
4 41 42 43 44
DONOR_HYDROGENS      STATIC     ATOMS    <user>   **** ""
2 40 33
ATOM$BLUE        STATIC     ATOMS    COLORGROUP SYSTEM
4 41 42 43 44
ATOM$RED        STATIC     ATOMS    COLORGROUP SYSTEM
2 40 33
