#       Name:                AV-unprocessed.smi:249
#       Creating user name   scv26
#       Creation time:       Thu Mar 26 20:59:11 2020


#       File generated by GOLD software.
#

@<TRIPOS>MOLECULE
AV-unprocessed.smi:249
    71    74     1
SMALL
NO_CHARGES


@<TRIPOS>ATOM
      1 ****        -7.0409  -0.3951  -2.1580 C.3            1 S1                 0.0000
      2 ****        -5.9647  -0.3965  -1.0615 C.3            1 S1                 0.0000
      3 ****        -4.7836  -1.2445  -1.3992 N.4            1 S1                 1.0000
      4 ****        -4.0216  -0.7798  -2.5932 C.3            1 S1                 0.0000
      5 ****        -3.2040   0.4921  -2.2958 C.3            1 S1                 0.0000
      6 ****        -2.2610   0.2676  -1.0988 C.3            1 S1                 0.0000
      7 ****        -1.4806   1.4648  -0.7766 N.pl3          1 S1                 0.0000
      8 ****        -2.1312   2.7461  -0.5121 C.3            1 S1                 0.0000
      9 ****        -0.1264   1.4403  -0.8884 C.ar           1 S1                 0.0000
     10 ****         0.5006   2.5344  -1.3958 N.ar           1 S1                 0.0000
     11 ****         1.8287   2.5500  -1.5387 C.ar           1 S1                 0.0000
     12 ****         2.7109   1.5973  -1.2349 N.ar           1 S1                 0.0000
     13 ****         2.0942   0.5034  -0.7047 C.ar           1 S1                 0.0000
     14 ****         0.6939   0.3399  -0.4990 C.ar           1 S1                 0.0000
     15 ****         0.4481  -0.9054   0.0705 N.2            1 S1                 0.0000
     16 ****         1.6287  -1.4501   0.1789 C.2            1 S1                 0.0000
     17 ****         2.6764  -0.6657  -0.2458 N.pl3          1 S1                 0.0000
     18 ****         4.0836  -1.0267  -0.2473 C.3            1 S1                 0.0000
     19 ****         4.9943  -0.1371   0.6450 C.3            1 S1                 0.0000
     20 ****         6.4721  -0.5381   0.4166 C.3            1 S1                 0.0000
     21 ****         6.8709  -0.3004  -0.9179 O.3            1 S1                 0.0000
     22 ****         4.6152  -0.1914   2.1555 C.3            1 S1                 0.0000
     23 ****         5.5808   0.5242   3.0893 C.3            1 S1                 0.0000
     24 ****         4.7452   0.7040   4.3477 C.3            1 S1                 0.0000
     25 ****         3.4450   1.0022   3.8664 O.3            1 S1                 0.0000
     26 ****         3.2977   0.5046   2.5398 C.3            1 S1                 0.0000
     27 ****        -3.0440  -0.2620   0.1180 C.3            1 S1                 0.0000
     28 ****        -3.8528  -1.5197  -0.2614 C.3            1 S1                 0.0000
     29 ****        -4.5375  -2.1711   0.9533 C.3            1 S1                 0.0000
     30 ****        -7.9430   0.1048  -1.8042 H              1 S1                 0.0000
     31 ****        -7.3186  -1.4104  -2.4425 H              1 S1                 0.0000
     32 ****        -6.7171   0.1345  -3.0533 H              1 S1                 0.0000
     33 ****        -5.6607   0.6250  -0.8340 H              1 S1                 0.0000
     34 ****        -6.4449  -0.7767  -0.1621 H              1 S1                 0.0000
     35 ****        -3.3430  -1.5781  -2.8969 H              1 S1                 0.0000
     36 ****        -4.6772  -0.6213  -3.4478 H              1 S1                 0.0000
     37 ****        -2.6213   0.7650  -3.1764 H              1 S1                 0.0000
     38 ****        -3.8779   1.3280  -2.1086 H              1 S1                 0.0000
     39 ****        -1.5801  -0.5209  -1.4166 H              1 S1                 0.0000
     40 ****        -1.6027   3.2938   0.2691 H              1 S1                 0.0000
     41 ****        -3.1607   2.6101  -0.1825 H              1 S1                 0.0000
     42 ****        -2.1453   3.3594  -1.4137 H              1 S1                 0.0000
     43 ****         2.2437   3.4556  -1.9558 H              1 S1                 0.0000
     44 ****         1.7692  -2.4410   0.5860 H              1 S1                 0.0000
     45 ****         4.1731  -2.0698   0.0590 H              1 S1                 0.0000
     46 ****         4.4123  -0.9889  -1.2860 H              1 S1                 0.0000
     47 ****         4.8954   0.8992   0.3195 H              1 S1                 0.0000
     48 ****         7.1468   0.0419   1.0448 H              1 S1                 0.0000
     49 ****         6.6313  -1.5892   0.6592 H              1 S1                 0.0000
     50 ****         7.7794  -0.5442  -1.0093 H              1 S1                 0.0000
     51 ****         4.5607  -1.2346   2.4719 H              1 S1                 0.0000
     52 ****         6.4932  -0.0401   3.2836 H              1 S1                 0.0000
     53 ****         5.8573   1.4984   2.6827 H              1 S1                 0.0000
     54 ****         4.7081  -0.2246   4.9189 H              1 S1                 0.0000
     55 ****         5.1236   1.4925   4.9983 H              1 S1                 0.0000
     56 ****         3.0926   1.3533   1.8868 H              1 S1                 0.0000
     57 ****         2.4462  -0.1730   2.4931 H              1 S1                 0.0000
     58 ****        -2.3463  -0.5033   0.9210 H              1 S1                 0.0000
     59 ****        -3.7096   0.5044   0.5151 H              1 S1                 0.0000
     60 ****        -3.1422  -2.2618  -0.6296 H              1 S1                 0.0000
     61 ****        -3.7927  -2.5429   1.6576 H              1 S1                 0.0000
     62 ****        -5.1542  -3.0189   0.6534 H              1 S1                 0.0000
     63 ****        -5.1655  -1.4683   1.5007 H              1 S1                 0.0000
     64 ****        -5.1709  -2.1424  -1.6526 H              1 S1                 0.0000
     65 ****        -0.0365   3.3340  -1.6643 LP             1 S1                 0.0000
     66 ****         3.6976   1.6753  -1.3776 LP             1 S1                 0.0000
     67 ****        -0.4337  -1.2949   0.3365 LP             1 S1                 0.0000
     68 ****         6.7589   0.6692  -1.1353 LP             1 S1                 0.0000
     69 ****         6.3110  -0.8483  -1.5395 LP             1 S1                 0.0000
     70 ****         3.3098   1.9930   3.8666 LP             1 S1                 0.0000
     71 ****         2.7644   0.5727   4.4599 LP             1 S1                 0.0000
@<TRIPOS>BOND
    1    1    2 1     
    2    1   30 1     
    3    1   31 1     
    4    1   32 1     
    5    2    3 1     
    6    2   33 1     
    7    2   34 1     
    8    3   28 1     
    9    3    4 1     
   10    3   64 1     
   11    4    5 1     
   12    4   35 1     
   13    4   36 1     
   14    5    6 1     
   15    5   37 1     
   16    5   38 1     
   17    6    7 1     
   18    6   27 1     
   19    6   39 1     
   20    7    8 1     
   21    7    9 1     
   22    8   40 1     
   23    8   41 1     
   24    8   42 1     
   25    9   14 ar    
   26    9   10 ar    
   27   10   11 ar    
   28   11   12 ar    
   29   11   43 1     
   30   12   13 ar    
   31   13   17 1     
   32   13   14 ar    
   33   14   15 1     
   34   15   16 2     
   35   16   17 1     
   36   16   44 1     
   37   17   18 1     
   38   18   19 1     
   39   18   45 1     
   40   18   46 1     
   41   19   20 1     
   42   19   22 1     
   43   19   47 1     
   44   20   21 1     
   45   20   48 1     
   46   20   49 1     
   47   21   50 1     
   48   22   26 1     
   49   22   23 1     
   50   22   51 1     
   51   23   24 1     
   52   23   52 1     
   53   23   53 1     
   54   24   25 1     
   55   24   54 1     
   56   24   55 1     
   57   25   26 1     
   58   26   56 1     
   59   26   57 1     
   60   27   28 1     
   61   27   58 1     
   62   27   59 1     
   63   28   29 1     
   64   28   60 1     
   65   29   61 1     
   66   29   62 1     
   67   29   63 1     
   68   10   65 1     
   69   12   66 1     
   70   15   67 1     
   71   21   68 1     
   72   21   69 1     
   73   25   70 1     
   74   25   71 1     
@<TRIPOS>SUBSTRUCTURE
      1 S1             1
@<TRIPOS>SET
LONE_PAIRS      STATIC     ATOMS    <user>   **** ""
7 65 66 67 68 69 70 71
DONOR_HYDROGENS      STATIC     ATOMS    <user>   **** ""
2 64 50
ATOM$BLUE        STATIC     ATOMS    COLORGROUP SYSTEM
7 65 66 67 68 69 70 71
ATOM$RED        STATIC     ATOMS    COLORGROUP SYSTEM
2 64 50
