AV-unprocessed.smi:356|AV-procd|sdf|2415|dock3
  -GOLD-   2262022353D 1   1.00000     0.00000
 Structure written by MMmdl.
 43 45  0  0  0  0  0  0  0  0  3 V2000
  149.6966  141.0183  155.2154 C   0  0  0  0  0  0  0  0  0  0  0  0
  150.4499  141.7097  156.3016 C   0  0  0  0  0  0  0  0  0  0  0  0
  150.3858  143.0373  156.6014 N   0  3  0  0  0  0  0  0  0  0  0  0
  151.2265  143.3193  157.6788 C   0  0  0  0  0  0  0  0  0  0  0  0
  151.4944  144.5171  158.3345 C   0  0  0  0  0  0  0  0  0  0  0  0
  152.4130  144.4620  159.4030 C   0  0  0  0  0  0  0  0  0  0  0  0
  153.0243  143.2497  159.7831 C   0  0  0  0  0  0  0  0  0  0  0  0
  152.7430  142.0411  159.1124 C   0  0  0  0  0  0  0  0  0  0  0  0
  151.8343  142.1033  158.0554 C   0  0  0  0  0  0  0  0  0  0  0  0
  151.3263  141.1377  157.1762 N   0  0  0  0  0  0  0  0  0  0  0  0
  151.7636  139.7367  157.2903 C   0  0  0  0  0  0  0  0  0  0  0  0
  151.8192  139.0153  155.9285 C   0  0  1  0  0  0  0  0  0  0  0  0
  152.8172  139.6065  155.1187 O   0  0  0  0  0  0  0  0  0  0  0  0
  152.1332  137.5141  156.0858 C   0  0  0  0  0  0  0  0  0  0  0  0
  150.9850  136.7449  156.6311 N   0  3  0  0  0  0  0  0  0  0  0  0
  151.1296  135.2844  156.4245 C   0  0  0  0  0  0  0  0  0  0  0  0
  149.8872  134.5417  156.9449 C   0  0  0  0  0  0  0  0  0  0  0  0
  149.6874  134.8506  158.3186 O   0  0  0  0  0  0  0  0  0  0  0  0
  149.4619  136.2395  158.5245 C   0  0  0  0  0  0  0  0  0  0  0  0
  150.6907  137.0380  158.0559 C   0  0  0  0  0  0  0  0  0  0  0  0
  149.1035  141.7333  154.6447 H   0  0  0  0  0  0  0  0  0  0  0  0
  149.0254  140.2719  155.6404 H   0  0  0  0  0  0  0  0  0  0  0  0
  150.3868  140.5200  154.5347 H   0  0  0  0  0  0  0  0  0  0  0  0
  151.0269  145.4469  158.0448 H   0  0  0  0  0  0  0  0  0  0  0  0
  152.6538  145.3676  159.9411 H   0  0  0  0  0  0  0  0  0  0  0  0
  153.7244  143.2470  160.6062 H   0  0  0  0  0  0  0  0  0  0  0  0
  153.2205  141.1212  159.4140 H   0  0  0  0  0  0  0  0  0  0  0  0
  152.7254  139.6971  157.8020 H   0  0  0  0  0  0  0  0  0  0  0  0
  151.0531  139.2327  157.9465 H   0  0  0  0  0  0  0  0  0  0  0  0
  150.8597  139.1484  155.4302 H   0  0  0  0  0  0  0  0  0  0  0  0
  153.0734  138.9872  154.4523 H   0  0  0  0  0  0  0  0  0  0  0  0
  152.4116  137.1154  155.1089 H   0  0  0  0  0  0  0  0  0  0  0  0
  153.0015  137.3685  156.7304 H   0  0  0  0  0  0  0  0  0  0  0  0
  151.2638  135.0706  155.3635 H   0  0  0  0  0  0  0  0  0  0  0  0
  152.0230  134.9285  156.9408 H   0  0  0  0  0  0  0  0  0  0  0  0
  149.0015  134.8085  156.3658 H   0  0  0  0  0  0  0  0  0  0  0  0
  150.0227  133.4650  156.8414 H   0  0  0  0  0  0  0  0  0  0  0  0
  148.5633  136.5581  157.9937 H   0  0  0  0  0  0  0  0  0  0  0  0
  149.2832  136.4137  159.5856 H   0  0  0  0  0  0  0  0  0  0  0  0
  151.5558  136.7811  158.6694 H   0  0  0  0  0  0  0  0  0  0  0  0
  150.5031  138.1014  158.1990 H   0  0  0  0  0  0  0  0  0  0  0  0
  150.1744  137.0261  156.0971 H   0  0  0  0  0  0  0  0  0  0  0  0
  149.8080  143.7020  156.1028 H   0  0  0  0  0  0  0  0  0  0  0  0
  1  2  1  0  0  0  0
  1 21  1  0  0  0  0
  1 22  1  0  0  0  0
  1 23  1  0  0  0  0
  2 10  1  0  0  0  0
  2  3  2  0  0  0  0
  3  4  1  0  0  0  0
  3 43  1  0  0  0  0
  4  9  2  0  0  0  0
  4  5  1  0  0  0  0
  5  6  2  0  0  0  0
  5 24  1  0  0  0  0
  6  7  1  0  0  0  0
  6 25  1  0  0  0  0
  7  8  2  0  0  0  0
  7 26  1  0  0  0  0
  8  9  1  0  0  0  0
  8 27  1  0  0  0  0
  9 10  1  0  0  0  0
 10 11  1  0  0  0  0
 11 12  1  0  0  0  0
 11 28  1  0  0  0  0
 11 29  1  0  0  0  0
 12 13  1  0  0  0  0
 12 14  1  0  0  0  0
 12 30  1  0  0  0  0
 13 31  1  0  0  0  0
 14 15  1  0  0  0  0
 14 32  1  0  0  0  0
 14 33  1  0  0  0  0
 15 20  1  0  0  0  0
 15 16  1  0  0  0  0
 15 42  1  0  0  0  0
 16 17  1  0  0  0  0
 16 34  1  0  0  0  0
 16 35  1  0  0  0  0
 17 18  1  0  0  0  0
 17 36  1  0  0  0  0
 17 37  1  0  0  0  0
 18 19  1  0  0  0  0
 19 20  1  0  0  0  0
 19 38  1  0  0  0  0
 19 39  1  0  0  0  0
 20 40  1  0  0  0  0
 20 41  1  0  0  0  0
M  CHG  1   3   1
M  CHG  1  15   1
M  END
> <s_m_source_file>
AV-unprocessed.smi

> <i_m_source_file_index>
356

> <i_lp_mmshare_version>
43012

> <i_f3d_flags>
0

> <s_epik_input>
W2NIXTFbY0hdW2NIXVtjSF1jKGMxMiluKGMobjIpW0NIM10pW0NIMl1bQ0BIXShbT0hdKVtDSDJdTjNbQ0gyXVtDSDJdT1tDSDJdW0NIMl0z

> <s_epik_cmdline>
J2VwaWtfcHl0aG9uJywgJy1waCcsICc3LjAnLCAnLXRuJywgJzgnLCAnLW1hJywgJzIwMCcsICctbWV0YWxfYmluZGluZycsICctaW1hZScsICc8aW5maWxlLm1hZT4nLCAnLW9tYWUnLCAnPG91dGZpbGUubWFlPic=

> <r_epik_Ionization_Penalty>
1.81899

> <r_epik_Ionization_Penalty_Charging>
1.81898

> <r_epik_Ionization_Penalty_Neutral>
1.42224e-05

> <r_epik_State_Penalty>
1.87399

> <r_epik_Charging_Adjusted_Penalty>
3.69296

> <i_epik_Tot_Q>
2

> <i_epik_Tot_abs_Q>
2

> <r_epik_Metal_State_Penalty>
5.87601

> <b_epik_Metal_Only>
0

> <s_lp_Force_Field>
OPLS_2005

> <r_lp_Energy>
27.965

> <b_lp_Chiralities_Consistent>
1

> <s_lp_Variant>
AV-unprocessed.smi:356-8

> <Gold.Version>
5.8.1

> <Gold.Id.Protein>
6NUR|6NUR_protein|mol2

> <Gold.PLP.Fitness>
51.5343

> <Gold.PLP.PLP>
-40.6088

> <Gold.PLP.part.hbond>
-3.5366

> <Gold.PLP.part.metal>
0.0000

> <Gold.PLP.part.buried>
-5.1333

> <Gold.PLP.part.nonpolar>
-32.5513

> <Gold.PLP.part.repulsive>
0.1528

> <Gold.PLP.ligand.clash>
0.0000

> <Gold.PLP.ligand.torsion>
0.5616

> <Gold.PLP.Chemscore.Hbond>
4.0000

> <Gold.PLP.Chemscore.CHOScore>
0.0000

> <Gold.PLP.Chemscore.Metal>
0.0000

> <Gold.Chemscore.Hbonds>
donor molecule, donor type, donor heavy atom, donor atom, acceptor molecule, acceptor atom, score
      L1  H     3    43       P1  8028  1.53
      P1  H  6896  6907       L1    18  1.00
      P1  H  7989  7998       L1    13  0.06
      P1  H  7997  8010       L1    13  1.00

> <Gold.PLP.Chemscore.Internal.Correction>
0.0487

> <Gold.Rescore>
     Score         DG    S(hbond)    S(metal)    S(lipo)     H(rot)  DE(clash)    DE(int)     intcor
     19.54     -21.11       2.65        0.00     104.70       2.13       0.00       1.57       ----

> <Gold.Chemscore.Fitness>
19.5363

> <Gold.Chemscore.DG>
-21.1080

> <Gold.Chemscore.ZeroCoef>
-5.4800

> <Gold.Chemscore.Hbond>
2.6461

> <Gold.Chemscore.Metal>
0.0000

> <Gold.Chemscore.Lipo>
104.6976

> <Gold.Chemscore.Internal_Hbond>
0.0000

> <Gold.Chemscore.DEClash>
0.0000

> <Gold.Chemscore.DEInternal>
1.5717

> <Gold.Chemscore.Rot>
2.1327

> <Gold.Chemscore.Internal.Correction>
   9.000000E+99

> <Gold.Chemscore.Hbonds>
donor molecule, donor type, donor heavy atom, donor atom, acceptor molecule, acceptor atom, score
      L1  H     3    43       P1  8028  0.77
      P1  H  6896  6907       L1    18  0.76
      P1  H  7997  8010       L1    13  0.57

> <Gold.Chemscore.Hbond.Weighted>
-8.8380

> <Gold.Chemscore.Metal.Weighted>
-0.0000

> <Gold.Chemscore.Lipo.Weighted>
-12.2496

> <Gold.Chemscore.Internal_Hbond.Weighted>
0.0000

> <Gold.Chemscore.DEClash.Weighted>
0.0000

> <Gold.Chemscore.DEInternal.Weighted>
1.5717

> <Gold.Chemscore.Rot.Weighted>
5.4596

> <Gold.Chemscore.Internal.Correction.Weighted>
   9.000000E+99

> <Gold.Protein.RotatedTorsions>
[ 6907 6896 6895 6894 ] final  -91.03 input  -60.11 | X-H torsion
[ 7974 7965 7964 7962 ] final   58.06 input  175.53 | X-H torsion
[ 8008 7997 7996 7995 ] final   83.26 input   59.86 | X-H torsion
[ 10167 10162 10161 10158 ] final  -56.89 input  -65.29 | X-H torsion
[ 10718 10713 10712 10709 ] final   -4.85 input   66.30 | X-H torsion
[ 10763 10752 10751 10750 ] final   39.51 input  -60.55 | X-H torsion
[ 11005 11000 10999 10996 ] final  160.93 input  -57.11 | X-H torsion

> <Gold.Protein.ActiveResidues>
 VAL166  LYS551  ARG553  GLY616  TRP617  ASP618  TYR619  PRO620  LYS621  CYS622 
 ASP623  PHE694  ASN695  SER759  ASP760  ASP761  ALA762  ILE779  LEU786  VAL792 
 PHE793  MET794  SER795  GLU796  ALA797  LYS798  CYS799  TRP800  GLU811  SER814 

> <Gold.Protein.RotatedAtoms>
  150.6888  134.2341  159.4445 H   0  0  0  0  0  0  0  0  0  0  0  0  # atno 6907 bound_to 6896
  152.0289  134.9777  160.0581 H   0  0  0  0  0  0  0  0  0  0  0  0  # atno 6908 bound_to 6896
  152.1324  133.4380  159.4764 H   0  0  0  0  0  0  0  0  0  0  0  0  # atno 6909 bound_to 6896
  145.9223  139.3740  143.0471 H   0  0  0  0  0  0  0  0  0  0  0  0  # atno 7974 bound_to 7965
  155.9215  140.3421  155.6177 H   0  0  0  0  0  0  0  0  0  0  0  0  # atno 8008 bound_to 7997
  155.7267  140.0790  157.2325 H   0  0  0  0  0  0  0  0  0  0  0  0  # atno 8009 bound_to 7997
  154.4070  140.1595  156.2450 H   0  0  0  0  0  0  0  0  0  0  0  0  # atno 8010 bound_to 7997
  140.6290  143.2451  151.5289 H   0  0  0  0  0  0  0  0  0  0  0  0  # atno 10167 bound_to 10162
  156.7553  130.5252  149.5796 H   0  0  0  0  0  0  0  0  0  0  0  0  # atno 10718 bound_to 10713
  152.9965  135.6218  154.2477 H   0  0  0  0  0  0  0  0  0  0  0  0  # atno 10763 bound_to 10752
  154.2216  135.2795  155.2924 H   0  0  0  0  0  0  0  0  0  0  0  0  # atno 10764 bound_to 10752
  154.5524  135.5729  153.6992 H   0  0  0  0  0  0  0  0  0  0  0  0  # atno 10765 bound_to 10752
  140.2108  134.8269  157.3118 H   0  0  0  0  0  0  0  0  0  0  0  0  # atno 11005 bound_to 11000
  145.8533  140.9516  143.0738 LP  0  0  0  0  0  0  0  0  0  0  0  0  # atno 17320 bound_to 7965
  144.6754  140.0436  143.7480 LP  0  0  0  0  0  0  0  0  0  0  0  0  # atno 17321 bound_to 7965
  139.5506  144.2404  152.1524 LP  0  0  0  0  0  0  0  0  0  0  0  0  # atno 17342 bound_to 10162
  140.1643  144.4996  150.6615 LP  0  0  0  0  0  0  0  0  0  0  0  0  # atno 17343 bound_to 10162
  156.1374  130.6221  151.0420 LP  0  0  0  0  0  0  0  0  0  0  0  0  # atno 17370 bound_to 10713
  157.6759  131.0850  150.7496 LP  0  0  0  0  0  0  0  0  0  0  0  0  # atno 17371 bound_to 10713
  140.1953  134.4321  155.7692 LP  0  0  0  0  0  0  0  0  0  0  0  0  # atno 17394 bound_to 11000
  141.2226  133.7046  156.8095 LP  0  0  0  0  0  0  0  0  0  0  0  0  # atno 17395 bound_to 11000

$$$$
