AV-unprocessed.smi:3283|AV-procd|sdf|12571|dock3
  -GOLD-   2272018493D 1   1.00000     0.00000
 Structure written by MMmdl.
 44 45  0  0  0  0  0  0  0  0  2 V2000
  152.0391  140.4910  157.1912 C   0  0  0  0  0  0  0  0  0  0  0  0
  152.1908  141.6016  158.2180 C   0  0  0  0  0  0  0  0  0  0  0  0
  152.8507  141.3862  159.3734 C   0  0  0  0  0  0  0  0  0  0  0  0
  153.1113  142.4420  160.4330 C   0  0  0  0  0  0  0  0  0  0  0  0
  152.3858  143.7688  160.1552 C   0  0  0  0  0  0  0  0  0  0  0  0
  152.3567  144.0913  158.6508 C   0  0  2  0  0  0  0  0  0  0  0  0
  151.8463  145.5162  158.3751 C   0  0  0  0  0  0  0  0  0  0  0  0
  151.6159  142.9784  157.8566 C   0  0  2  0  0  0  0  0  0  0  0  0
  150.0746  143.0409  158.0258 C   0  0  0  0  0  0  0  0  0  0  0  0
  149.3443  142.4427  156.8913 N   0  3  0  0  0  0  0  0  0  0  0  0
  147.9977  141.9452  157.2323 C   0  0  0  0  0  0  0  0  0  0  0  0
  147.3584  141.2270  156.0350 C   0  0  0  0  0  0  0  0  0  0  0  0
  146.4584  142.0919  155.2050 C   0  0  0  0  0  0  0  0  0  0  0  0
  146.4657  142.3631  153.8635 C   0  0  0  0  0  0  0  0  0  0  0  0
  145.3648  143.2433  153.6781 C   0  0  0  0  0  0  0  0  0  0  0  0
  144.7266  143.4991  154.8058 N   0  0  0  0  0  0  0  0  0  0  0  0
  145.3936  142.7953  155.7442 N   0  0  0  0  0  0  0  0  0  0  0  0
  144.9303  142.8670  157.1174 C   0  0  0  0  0  0  0  0  0  0  0  0
  152.3241  140.8440  156.1998 H   0  0  0  0  0  0  0  0  0  0  0  0
  151.0167  140.1192  157.1497 H   0  0  0  0  0  0  0  0  0  0  0  0
  152.6797  139.6429  157.4355 H   0  0  0  0  0  0  0  0  0  0  0  0
  153.2653  140.4096  159.5772 H   0  0  0  0  0  0  0  0  0  0  0  0
  152.8262  142.0549  161.4116 H   0  0  0  0  0  0  0  0  0  0  0  0
  154.1879  142.6129  160.4643 H   0  0  0  0  0  0  0  0  0  0  0  0
  151.3677  143.7174  160.5416 H   0  0  0  0  0  0  0  0  0  0  0  0
  152.8762  144.5700  160.7096 H   0  0  0  0  0  0  0  0  0  0  0  0
  153.3929  144.0803  158.3077 H   0  0  0  0  0  0  0  0  0  0  0  0
  150.8642  145.6905  158.8145 H   0  0  0  0  0  0  0  0  0  0  0  0
  151.7801  145.7119  157.3046 H   0  0  0  0  0  0  0  0  0  0  0  0
  152.5234  146.2571  158.8011 H   0  0  0  0  0  0  0  0  0  0  0  0
  151.8402  143.1499  156.8027 H   0  0  0  0  0  0  0  0  0  0  0  0
  149.7728  142.5366  158.9444 H   0  0  0  0  0  0  0  0  0  0  0  0
  149.7406  144.0747  158.1055 H   0  0  0  0  0  0  0  0  0  0  0  0
  149.2562  143.1368  156.1628 H   0  0  0  0  0  0  0  0  0  0  0  0
  148.0718  141.2625  158.0800 H   0  0  0  0  0  0  0  0  0  0  0  0
  147.3766  142.7863  157.5436 H   0  0  0  0  0  0  0  0  0  0  0  0
  148.1463  140.8232  155.3977 H   0  0  0  0  0  0  0  0  0  0  0  0
  146.7900  140.3701  156.3990 H   0  0  0  0  0  0  0  0  0  0  0  0
  147.1534  141.9891  153.1193 H   0  0  0  0  0  0  0  0  0  0  0  0
  145.0128  143.6999  152.7648 H   0  0  0  0  0  0  0  0  0  0  0  0
  145.5508  142.2560  157.7722 H   0  0  0  0  0  0  0  0  0  0  0  0
  143.9017  142.5098  157.1772 H   0  0  0  0  0  0  0  0  0  0  0  0
  144.9678  143.9003  157.4639 H   0  0  0  0  0  0  0  0  0  0  0  0
  149.8903  141.6703  156.5371 H   0  0  0  0  0  0  0  0  0  0  0  0
  1  2  1  0  0  0  0
  1 19  1  0  0  0  0
  1 20  1  0  0  0  0
  1 21  1  0  0  0  0
  2  8  1  0  0  0  0
  2  3  2  0  0  0  0
  3  4  1  0  0  0  0
  3 22  1  0  0  0  0
  4  5  1  0  0  0  0
  4 23  1  0  0  0  0
  4 24  1  0  0  0  0
  5  6  1  0  0  0  0
  5 25  1  0  0  0  0
  5 26  1  0  0  0  0
  6  7  1  0  0  0  0
  6  8  1  0  0  0  0
  6 27  1  0  0  0  0
  7 28  1  0  0  0  0
  7 29  1  0  0  0  0
  7 30  1  0  0  0  0
  8  9  1  0  0  0  0
  8 31  1  0  0  0  0
  9 10  1  0  0  0  0
  9 32  1  0  0  0  0
  9 33  1  0  0  0  0
 10 11  1  0  0  0  0
 10 34  1  0  0  0  0
 10 44  1  0  0  0  0
 11 12  1  0  0  0  0
 11 35  1  0  0  0  0
 11 36  1  0  0  0  0
 12 13  1  0  0  0  0
 12 37  1  0  0  0  0
 12 38  1  0  0  0  0
 13 17  1  0  0  0  0
 13 14  2  0  0  0  0
 14 15  1  0  0  0  0
 14 39  1  0  0  0  0
 15 16  2  0  0  0  0
 15 40  1  0  0  0  0
 16 17  1  0  0  0  0
 17 18  1  0  0  0  0
 18 41  1  0  0  0  0
 18 42  1  0  0  0  0
 18 43  1  0  0  0  0
M  CHG  1  10   1
M  END
> <s_m_source_file>
AV-unprocessed.smi

> <i_m_source_file_index>
3283

> <i_lp_mmshare_version>
43012

> <i_f3d_flags>
0

> <s_epik_input>
W0NIM11DMT1bQ0hdW0NIMl1bQ0gyXVtDQEBIXShbQ0gzXSlbQ0BIXTFbQ0gyXVtOSF1bQ0gyXVtDSDJdYzJbY0hdW2NIXW5uMltDSDNd

> <s_epik_cmdline>
J2VwaWtfcHl0aG9uJywgJy1waCcsICc3LjAnLCAnLXRuJywgJzgnLCAnLW1hJywgJzIwMCcsICctbWV0YWxfYmluZGluZycsICctaW1hZScsICc8aW5maWxlLm1hZT4nLCAnLW9tYWUnLCAnPG91dGZpbGUubWFlPic=

> <r_lp_tautomer_probability>
1

> <r_epik_Ionization_Penalty>
0.000866911

> <r_epik_Ionization_Penalty_Charging>
0.000836385

> <r_epik_Ionization_Penalty_Neutral>
3.05258e-05

> <r_epik_State_Penalty>
-0

> <r_epik_Charging_Adjusted_Penalty>
0.000836385

> <i_epik_Tot_Q>
1

> <i_epik_Tot_abs_Q>
1

> <r_epik_Metal_State_Penalty>
-0

> <b_epik_Metal_Only>
0

> <s_lp_Force_Field>
OPLS_2005

> <r_lp_Energy>
12.7435

> <b_lp_Chiralities_Consistent>
1

> <s_lp_Variant>
AV-unprocessed.smi:3283-4

> <Gold.Version>
5.8.1

> <Gold.Id.Protein>
6NUR|6NUR_protein|mol2

> <Gold.PLP.Fitness>
46.6289

> <Gold.PLP.PLP>
-41.9000

> <Gold.PLP.part.hbond>
-1.0000

> <Gold.PLP.part.metal>
0.0000

> <Gold.PLP.part.buried>
-6.3348

> <Gold.PLP.part.nonpolar>
-35.1034

> <Gold.PLP.part.repulsive>
0.2024

> <Gold.PLP.ligand.clash>
0.0000

> <Gold.PLP.ligand.torsion>
0.6534

> <Gold.PLP.Chemscore.Hbond>
2.0000

> <Gold.PLP.Chemscore.CHOScore>
0.0000

> <Gold.PLP.Chemscore.Metal>
0.0000

> <Gold.Chemscore.Hbonds>
donor molecule, donor type, donor heavy atom, donor atom, acceptor molecule, acceptor atom, score
      L1  H    10    34       P1  8028  2.00
      L1  C    15    40       P1 10174  0.13

> <Gold.PLP.Chemscore.Internal.Correction>
0.0358

> <Gold.Rescore>
     Score         DG    S(hbond)    S(metal)    S(lipo)     H(rot)  DE(clash)    DE(int)     intcor
     17.81     -18.63       0.99        0.00     116.69       1.48       0.02       0.81       ----

> <Gold.Chemscore.Fitness>
17.8099

> <Gold.Chemscore.DG>
-18.6338

> <Gold.Chemscore.ZeroCoef>
-5.4800

> <Gold.Chemscore.Hbond>
0.9886

> <Gold.Chemscore.Metal>
0.0000

> <Gold.Chemscore.Lipo>
116.6908

> <Gold.Chemscore.Internal_Hbond>
0.0000

> <Gold.Chemscore.DEClash>
0.0178

> <Gold.Chemscore.DEInternal>
0.8062

> <Gold.Chemscore.Rot>
1.4847

> <Gold.Chemscore.Internal.Correction>
   9.000000E+99

> <Gold.Chemscore.Hbonds>
donor molecule, donor type, donor heavy atom, donor atom, acceptor molecule, acceptor atom, score
      L1  H    10    34       P1  8028  0.94

> <Gold.Chemscore.Hbond.Weighted>
-3.3018

> <Gold.Chemscore.Metal.Weighted>
-0.0000

> <Gold.Chemscore.Lipo.Weighted>
-13.6528

> <Gold.Chemscore.Internal_Hbond.Weighted>
0.0000

> <Gold.Chemscore.DEClash.Weighted>
0.0178

> <Gold.Chemscore.DEInternal.Weighted>
0.8062

> <Gold.Chemscore.Rot.Weighted>
3.8008

> <Gold.Chemscore.Internal.Correction.Weighted>
   9.000000E+99

> <Gold.Protein.RotatedTorsions>
[ 6907 6896 6895 6894 ] final   82.57 input  -60.11 | X-H torsion
[ 7974 7965 7964 7962 ] final  -36.94 input  175.53 | X-H torsion
[ 8008 7997 7996 7995 ] final   26.63 input   59.86 | X-H torsion
[ 10167 10162 10161 10158 ] final  -31.63 input  -65.29 | X-H torsion
[ 10718 10713 10712 10709 ] final  156.73 input   66.30 | X-H torsion
[ 10763 10752 10751 10750 ] final   89.99 input  -60.55 | X-H torsion
[ 11005 11000 10999 10996 ] final  131.71 input  -57.11 | X-H torsion

> <Gold.Protein.ActiveResidues>
 VAL166  LYS551  ARG553  GLY616  TRP617  ASP618  TYR619  PRO620  LYS621  CYS622 
 ASP623  PHE694  ASN695  SER759  ASP760  ASP761  ALA762  ILE779  LEU786  VAL792 
 PHE793  MET794  SER795  GLU796  ALA797  LYS798  CYS799  TRP800  GLU811  SER814 

> <Gold.Protein.RotatedAtoms>
  152.5303  134.3029  159.9084 H   0  0  0  0  0  0  0  0  0  0  0  0  # atno 6907 bound_to 6896
  151.2980  133.4129  159.2645 H   0  0  0  0  0  0  0  0  0  0  0  0  # atno 6908 bound_to 6896
  151.0144  134.9437  159.8082 H   0  0  0  0  0  0  0  0  0  0  0  0  # atno 6909 bound_to 6896
  146.0618  140.6338  142.8993 H   0  0  0  0  0  0  0  0  0  0  0  0  # atno 7974 bound_to 7965
  155.0303  140.3158  155.4761 H   0  0  0  0  0  0  0  0  0  0  0  0  # atno 8008 bound_to 7997
  156.2875  140.2181  156.5366 H   0  0  0  0  0  0  0  0  0  0  0  0  # atno 8009 bound_to 7997
  154.7376  140.0476  157.0770 H   0  0  0  0  0  0  0  0  0  0  0  0  # atno 8010 bound_to 7997
  140.7233  143.3756  151.1696 H   0  0  0  0  0  0  0  0  0  0  0  0  # atno 10167 bound_to 10162
  157.2011  131.0676  151.2025 H   0  0  0  0  0  0  0  0  0  0  0  0  # atno 10718 bound_to 10713
  153.1928  135.4450  155.0170 H   0  0  0  0  0  0  0  0  0  0  0  0  # atno 10763 bound_to 10752
  154.8101  135.3290  154.7331 H   0  0  0  0  0  0  0  0  0  0  0  0  # atno 10764 bound_to 10752
  153.7784  135.6979  153.4948 H   0  0  0  0  0  0  0  0  0  0  0  0  # atno 10765 bound_to 10752
  139.9746  134.9567  156.9477 H   0  0  0  0  0  0  0  0  0  0  0  0  # atno 11005 bound_to 11000
  144.7179  140.4274  143.7030 LP  0  0  0  0  0  0  0  0  0  0  0  0  # atno 17320 bound_to 7965
  145.6547  139.1571  143.2842 LP  0  0  0  0  0  0  0  0  0  0  0  0  # atno 17321 bound_to 7965
  139.7335  143.9035  152.3027 LP  0  0  0  0  0  0  0  0  0  0  0  0  # atno 17342 bound_to 10162
  139.8832  144.7006  150.8854 LP  0  0  0  0  0  0  0  0  0  0  0  0  # atno 17343 bound_to 10162
  157.3766  130.7209  149.6601 LP  0  0  0  0  0  0  0  0  0  0  0  0  # atno 17370 bound_to 10713
  155.9700  130.4184  150.4325 LP  0  0  0  0  0  0  0  0  0  0  0  0  # atno 17371 bound_to 10713
  140.5221  134.0897  155.7294 LP  0  0  0  0  0  0  0  0  0  0  0  0  # atno 17394 bound_to 11000
  141.1424  133.9115  157.2295 LP  0  0  0  0  0  0  0  0  0  0  0  0  # atno 17395 bound_to 11000

$$$$
