AV-unprocessed.smi:1814|AV-procd|sdf|7348|dock3
  -GOLD-   22720 9 13D 1   1.00000     0.00000
 Structure written by MMmdl.
 31 32  0  0  0  0  0  0  0  0  1 V2000
  151.0571  140.8397  156.3475 O   0  0  0  0  0  0  0  0  0  0  0  0
  150.3694  141.8609  156.3230 C   0  0  0  0  0  0  0  0  0  0  0  0
  150.4892  142.8991  157.1693 N   0  0  0  0  0  0  0  0  0  0  0  0
  151.3903  143.0456  158.2566 C   0  0  0  0  0  0  0  0  0  0  0  0
  152.0333  142.0308  158.8465 N   0  0  0  0  0  0  0  0  0  0  0  0
  152.8524  142.4652  159.8916 C   0  0  0  0  0  0  0  0  0  0  0  0
  152.8222  143.8240  160.0840 C   0  0  0  0  0  0  0  0  0  0  0  0
  151.7560  144.6165  158.9548 S   0  0  0  0  0  0  0  0  0  0  0  0
  149.3927  142.0739  155.4288 N   0  0  0  0  0  0  0  0  0  0  0  0
  148.9968  141.1422  154.3766 C   0  0  2  0  0  0  0  0  0  0  0  0
  147.6170  141.5238  153.8003 C   0  0  0  0  0  0  0  0  0  0  0  0
  147.1524  140.5121  152.7402 C   0  0  0  0  0  0  0  0  0  0  0  0
  147.1381  139.0817  153.3062 C   0  0  1  0  0  0  0  0  0  0  0  0
  146.7769  138.1745  152.2866 O   0  0  0  0  0  0  0  0  0  0  0  0
  148.5153  138.6967  153.8731 C   0  0  0  0  0  0  0  0  0  0  0  0
  148.9776  139.7068  154.9357 C   0  0  0  0  0  0  0  0  0  0  0  0
  149.8576  143.6725  157.0231 H   0  0  0  0  0  0  0  0  0  0  0  0
  153.4237  141.7370  160.4485 H   0  0  0  0  0  0  0  0  0  0  0  0
  153.3599  144.4040  160.8193 H   0  0  0  0  0  0  0  0  0  0  0  0
  148.8804  142.9419  155.4820 H   0  0  0  0  0  0  0  0  0  0  0  0
  149.7363  141.1806  153.5742 H   0  0  0  0  0  0  0  0  0  0  0  0
  146.8803  141.5695  154.6037 H   0  0  0  0  0  0  0  0  0  0  0  0
  147.6542  142.5205  153.3592 H   0  0  0  0  0  0  0  0  0  0  0  0
  146.1590  140.7840  152.3816 H   0  0  0  0  0  0  0  0  0  0  0  0
  147.8185  140.5642  151.8776 H   0  0  0  0  0  0  0  0  0  0  0  0
  146.3895  139.0126  154.0965 H   0  0  0  0  0  0  0  0  0  0  0  0
  147.4686  137.5374  152.1921 H   0  0  0  0  0  0  0  0  0  0  0  0
  148.4766  137.6967  154.3070 H   0  0  0  0  0  0  0  0  0  0  0  0
  149.2511  138.6575  153.0686 H   0  0  0  0  0  0  0  0  0  0  0  0
  149.9701  139.4316  155.2949 H   0  0  0  0  0  0  0  0  0  0  0  0
  148.3109  139.6532  155.7978 H   0  0  0  0  0  0  0  0  0  0  0  0
  1  2  2  0  0  0  0
  2  3  1  0  0  0  0
  2  9  1  0  0  0  0
  3  4  1  0  0  0  0
  3 17  1  0  0  0  0
  4  8  1  0  0  0  0
  4  5  2  0  0  0  0
  5  6  1  0  0  0  0
  6  7  2  0  0  0  0
  6 18  1  0  0  0  0
  7  8  1  0  0  0  0
  7 19  1  0  0  0  0
  9 10  1  0  0  0  0
  9 20  1  0  0  0  0
 10 16  1  0  0  0  0
 10 11  1  0  0  0  0
 10 21  1  0  0  0  0
 11 12  1  0  0  0  0
 11 22  1  0  0  0  0
 11 23  1  0  0  0  0
 12 13  1  0  0  0  0
 12 24  1  0  0  0  0
 12 25  1  0  0  0  0
 13 14  1  0  0  0  0
 13 15  1  0  0  0  0
 13 26  1  0  0  0  0
 14 27  1  0  0  0  0
 15 16  1  0  0  0  0
 15 28  1  0  0  0  0
 15 29  1  0  0  0  0
 16 30  1  0  0  0  0
 16 31  1  0  0  0  0
M  END
> <s_m_source_file>
AV-unprocessed.smi

> <i_m_source_file_index>
1814

> <i_lp_mmshare_version>
43012

> <i_f3d_flags>
0

> <s_epik_input>
czFbY0hdW2NIXW5jMVtOSF1DKD1PKVtOSF1bQ0BASF0yW0NIMl1bQ0gyXVtDQEBIXShbT0hdKVtDSDJdW0NIMl0y

> <s_epik_cmdline>
J2VwaWtfcHl0aG9uJywgJy1waCcsICc3LjAnLCAnLXRuJywgJzgnLCAnLW1hJywgJzIwMCcsICctbWV0YWxfYmluZGluZycsICctaW1hZScsICc8aW5maWxlLm1hZT4nLCAnLW9tYWUnLCAnPG91dGZpbGUubWFlPic=

> <r_lp_tautomer_probability>
0.999

> <r_epik_Ionization_Penalty>
0.000428518

> <r_epik_Ionization_Penalty_Charging>
0

> <r_epik_Ionization_Penalty_Neutral>
0.000428518

> <r_epik_State_Penalty>
0.000177984

> <r_epik_Charging_Adjusted_Penalty>
0.000177984

> <i_epik_Tot_Q>
0

> <i_epik_Tot_abs_Q>
0

> <r_epik_Metal_State_Penalty>
-0

> <b_epik_Metal_Only>
0

> <s_lp_Force_Field>
OPLS_2005

> <r_lp_Energy>
5.88149

> <b_lp_Chiralities_Consistent>
1

> <s_lp_Variant>
AV-unprocessed.smi:1814-1

> <Gold.Version>
5.8.1

> <Gold.Id.Protein>
6NUR|6NUR_protein|mol2

> <Gold.PLP.Fitness>
42.0193

> <Gold.PLP.PLP>
-33.8404

> <Gold.PLP.part.hbond>
-3.0000

> <Gold.PLP.part.metal>
0.0000

> <Gold.PLP.part.buried>
-3.5939

> <Gold.PLP.part.nonpolar>
-27.5686

> <Gold.PLP.part.repulsive>
0.2042

> <Gold.PLP.ligand.clash>
0.0000

> <Gold.PLP.ligand.torsion>
0.3042

> <Gold.PLP.Chemscore.Hbond>
2.9280

> <Gold.PLP.Chemscore.CHOScore>
0.0000

> <Gold.PLP.Chemscore.Metal>
0.0000

> <Gold.Chemscore.Hbonds>
donor molecule, donor type, donor heavy atom, donor atom, acceptor molecule, acceptor atom, score
      L1  H     3    17       P1  8028  0.91
      L1  H     9    20       P1  8028  1.00
      L1  H    14    27       P1  7948  1.00

> <Gold.PLP.Chemscore.Internal.Correction>
0.0033

> <Gold.Rescore>
     Score         DG    S(hbond)    S(metal)    S(lipo)     H(rot)  DE(clash)    DE(int)     intcor
     17.22     -20.27       2.90        0.00      76.57       1.50       0.02       3.03       ----

> <Gold.Chemscore.Fitness>
17.2196

> <Gold.Chemscore.DG>
-20.2717

> <Gold.Chemscore.ZeroCoef>
-5.4800

> <Gold.Chemscore.Hbond>
2.8967

> <Gold.Chemscore.Metal>
0.0000

> <Gold.Chemscore.Lipo>
76.5666

> <Gold.Chemscore.Internal_Hbond>
0.0000

> <Gold.Chemscore.DEClash>
0.0226

> <Gold.Chemscore.DEInternal>
3.0295

> <Gold.Chemscore.Rot>
1.5006

> <Gold.Chemscore.Internal.Correction>
   9.000000E+99

> <Gold.Chemscore.Hbonds>
donor molecule, donor type, donor heavy atom, donor atom, acceptor molecule, acceptor atom, score
      L1  H     3    17       P1  8028  0.84
      L1  H     9    20       P1  8028  0.94
      L1  H    14    27       P1  7948  0.97

> <Gold.Chemscore.Hbond.Weighted>
-9.6749

> <Gold.Chemscore.Metal.Weighted>
-0.0000

> <Gold.Chemscore.Lipo.Weighted>
-8.9583

> <Gold.Chemscore.Internal_Hbond.Weighted>
0.0000

> <Gold.Chemscore.DEClash.Weighted>
0.0226

> <Gold.Chemscore.DEInternal.Weighted>
3.0295

> <Gold.Chemscore.Rot.Weighted>
3.8415

> <Gold.Chemscore.Internal.Correction.Weighted>
   9.000000E+99

> <Gold.Protein.RotatedTorsions>
[ 6907 6896 6895 6894 ] final -155.97 input  -60.11 | X-H torsion
[ 7974 7965 7964 7962 ] final  151.83 input  175.53 | X-H torsion
[ 8008 7997 7996 7995 ] final  102.23 input   59.86 | X-H torsion
[ 10167 10162 10161 10158 ] final -144.99 input  -65.29 | X-H torsion
[ 10718 10713 10712 10709 ] final  137.07 input   66.30 | X-H torsion
[ 10763 10752 10751 10750 ] final  -26.71 input  -60.55 | X-H torsion
[ 11005 11000 10999 10996 ] final -136.37 input  -57.11 | X-H torsion

> <Gold.Protein.ActiveResidues>
 VAL166  LYS551  ARG553  GLY616  TRP617  ASP618  TYR619  PRO620  LYS621  CYS622 
 ASP623  PHE694  ASN695  SER759  ASP760  ASP761  ALA762  ILE779  LEU786  VAL792 
 PHE793  MET794  SER795  GLU796  ALA797  LYS798  CYS799  TRP800  GLU811  SER814 

> <Gold.Protein.RotatedAtoms>
  151.2805  133.4212  159.2626 H   0  0  0  0  0  0  0  0  0  0  0  0  # atno 6907 bound_to 6896
  151.0365  134.9577  159.8149 H   0  0  0  0  0  0  0  0  0  0  0  0  # atno 6908 bound_to 6896
  152.5356  134.2765  159.9044 H   0  0  0  0  0  0  0  0  0  0  0  0  # atno 6909 bound_to 6896
  144.8264  139.6589  143.6078 H   0  0  0  0  0  0  0  0  0  0  0  0  # atno 7974 bound_to 7965
  156.1373  140.3184  155.8441 H   0  0  0  0  0  0  0  0  0  0  0  0  # atno 8008 bound_to 7997
  155.4220  140.0513  157.3042 H   0  0  0  0  0  0  0  0  0  0  0  0  # atno 8009 bound_to 7997
  154.4947  140.2106  155.9484 H   0  0  0  0  0  0  0  0  0  0  0  0  # atno 8010 bound_to 7997
  139.7847  143.8050  152.2643 H   0  0  0  0  0  0  0  0  0  0  0  0  # atno 10167 bound_to 10162
  157.4400  131.1056  151.0154 H   0  0  0  0  0  0  0  0  0  0  0  0  # atno 10718 bound_to 10713
  153.7204  135.6945  153.5014 H   0  0  0  0  0  0  0  0  0  0  0  0  # atno 10763 bound_to 10752
  153.2208  135.4370  155.0486 H   0  0  0  0  0  0  0  0  0  0  0  0  # atno 10764 bound_to 10752
  154.8286  135.3460  154.6737 H   0  0  0  0  0  0  0  0  0  0  0  0  # atno 10765 bound_to 10752
  140.8811  134.1930  157.4590 H   0  0  0  0  0  0  0  0  0  0  0  0  # atno 11005 bound_to 11000
  146.2569  139.6323  142.9388 LP  0  0  0  0  0  0  0  0  0  0  0  0  # atno 17320 bound_to 7965
  145.4990  141.0438  143.2551 LP  0  0  0  0  0  0  0  0  0  0  0  0  # atno 17321 bound_to 7965
  139.8124  144.7330  150.9680 LP  0  0  0  0  0  0  0  0  0  0  0  0  # atno 17342 bound_to 10162
  140.7819  143.4238  151.0800 LP  0  0  0  0  0  0  0  0  0  0  0  0  # atno 17343 bound_to 10162
  157.1021  130.5986  149.5462 LP  0  0  0  0  0  0  0  0  0  0  0  0  # atno 17370 bound_to 10713
  155.9945  130.5009  150.7422 LP  0  0  0  0  0  0  0  0  0  0  0  0  # atno 17371 bound_to 10713
  139.8720  134.9818  156.5129 LP  0  0  0  0  0  0  0  0  0  0  0  0  # atno 17394 bound_to 11000
  140.8459  133.8169  155.9121 LP  0  0  0  0  0  0  0  0  0  0  0  0  # atno 17395 bound_to 11000

$$$$
