AV-unprocessed.smi:317|AV-procd|sdf|2326|dock5
  -GOLD-   2262022233D 1   1.00000     0.00000
 Structure written by MMmdl.
 39 40  0  0  0  0  0  0  0  0  1 V2000
  146.0327  133.8119  151.5753 C   0  0  0  0  0  0  0  0  0  0  0  0
  145.3948  135.1374  152.0234 C   0  0  2  0  0  0  0  0  0  0  0  0
  144.4397  135.6866  150.9483 C   0  0  0  0  0  0  0  0  0  0  0  0
  145.1733  136.1922  149.8528 O   0  0  0  0  0  0  0  0  0  0  0  0
  146.4482  136.1157  152.2810 N   0  0  0  0  0  0  0  0  0  0  0  0
  146.2627  137.3337  152.8087 C   0  0  0  0  0  0  0  0  0  0  0  0
  145.1643  137.7685  153.1556 O   0  0  0  0  0  0  0  0  0  0  0  0
  147.4269  137.9933  152.9247 N   0  0  0  0  0  0  0  0  0  0  0  0
  147.6472  139.2836  153.4820 C   0  0  0  0  0  0  0  0  0  0  0  0
  146.6965  140.3222  153.3311 C   0  0  0  0  0  0  0  0  0  0  0  0
  146.9875  141.6017  153.8340 C   0  0  0  0  0  0  0  0  0  0  0  0
  148.2299  141.8033  154.4579 C   0  0  0  0  0  0  0  0  0  0  0  0
  149.1506  140.8287  154.5986 N   0  0  0  0  0  0  0  0  0  0  0  0
  148.8787  139.5849  154.1317 C   0  0  0  0  0  0  0  0  0  0  0  0
  149.8735  138.5984  154.3241 N   0  0  0  0  0  0  0  0  0  0  0  0
  151.2297  138.9778  154.7056 C   0  0  0  0  0  0  0  0  0  0  0  0
  151.8777  137.6871  155.1982 C   0  0  0  0  0  0  0  0  0  0  0  0
  150.7119  136.9777  155.8793 C   0  0  0  0  0  0  0  0  0  0  0  0
  149.5004  137.3755  155.0296 C   0  0  0  0  0  0  0  0  0  0  0  0
  145.2714  133.0550  151.3850 H   0  0  0  0  0  0  0  0  0  0  0  0
  146.7014  133.4150  152.3400 H   0  0  0  0  0  0  0  0  0  0  0  0
  146.6117  133.9386  150.6599 H   0  0  0  0  0  0  0  0  0  0  0  0
  144.8275  134.9457  152.9366 H   0  0  0  0  0  0  0  0  0  0  0  0
  143.7298  134.9296  150.6125 H   0  0  0  0  0  0  0  0  0  0  0  0
  143.8548  136.5147  151.3500 H   0  0  0  0  0  0  0  0  0  0  0  0
  145.3985  135.4725  149.2834 H   0  0  0  0  0  0  0  0  0  0  0  0
  147.3873  135.8479  152.0256 H   0  0  0  0  0  0  0  0  0  0  0  0
  148.2605  137.4735  152.6920 H   0  0  0  0  0  0  0  0  0  0  0  0
  145.7605  140.1631  152.8174 H   0  0  0  0  0  0  0  0  0  0  0  0
  146.2806  142.4113  153.7310 H   0  0  0  0  0  0  0  0  0  0  0  0
  148.4947  142.7742  154.8498 H   0  0  0  0  0  0  0  0  0  0  0  0
  151.7730  139.4086  153.8643 H   0  0  0  0  0  0  0  0  0  0  0  0
  151.2158  139.7076  155.5163 H   0  0  0  0  0  0  0  0  0  0  0  0
  152.2290  137.0977  154.3503 H   0  0  0  0  0  0  0  0  0  0  0  0
  152.7221  137.8622  155.8655 H   0  0  0  0  0  0  0  0  0  0  0  0
  150.8479  135.8981  155.9442 H   0  0  0  0  0  0  0  0  0  0  0  0
  150.5914  137.3631  156.8924 H   0  0  0  0  0  0  0  0  0  0  0  0
  148.6093  137.5093  155.6445 H   0  0  0  0  0  0  0  0  0  0  0  0
  149.2911  136.5970  154.2959 H   0  0  0  0  0  0  0  0  0  0  0  0
  1  2  1  0  0  0  0
  1 20  1  0  0  0  0
  1 21  1  0  0  0  0
  1 22  1  0  0  0  0
  2  3  1  0  0  0  0
  2  5  1  0  0  0  0
  2 23  1  0  0  0  0
  3  4  1  0  0  0  0
  3 24  1  0  0  0  0
  3 25  1  0  0  0  0
  4 26  1  0  0  0  0
  5  6  1  0  0  0  0
  5 27  1  0  0  0  0
  6  7  2  0  0  0  0
  6  8  1  0  0  0  0
  8  9  1  0  0  0  0
  8 28  1  0  0  0  0
  9 14  1  0  0  0  0
  9 10  2  0  0  0  0
 10 11  1  0  0  0  0
 10 29  1  0  0  0  0
 11 12  2  0  0  0  0
 11 30  1  0  0  0  0
 12 13  1  0  0  0  0
 12 31  1  0  0  0  0
 13 14  2  0  0  0  0
 14 15  1  0  0  0  0
 15 19  1  0  0  0  0
 15 16  1  0  0  0  0
 16 17  1  0  0  0  0
 16 32  1  0  0  0  0
 16 33  1  0  0  0  0
 17 18  1  0  0  0  0
 17 34  1  0  0  0  0
 17 35  1  0  0  0  0
 18 19  1  0  0  0  0
 18 36  1  0  0  0  0
 18 37  1  0  0  0  0
 19 38  1  0  0  0  0
 19 39  1  0  0  0  0
M  END
> <s_m_source_file>
AV-unprocessed.smi

> <i_m_source_file_index>
317

> <i_lp_mmshare_version>
43012

> <i_f3d_flags>
0

> <s_epik_input>
W09IXVtDSDJdW0NAQEhdKFtDSDNdKVtOSF1DKD1PKVtOSF1jMVtjSF1bY0hdW2NIXW5jMU4yW0NIMl1bQ0gyXVtDSDJdW0NIMl0y

> <s_epik_cmdline>
J2VwaWtfcHl0aG9uJywgJy1waCcsICc3LjAnLCAnLXRuJywgJzgnLCAnLW1hJywgJzIwMCcsICctbWV0YWxfYmluZGluZycsICctaW1hZScsICc8aW5maWxlLm1hZT4nLCAnLW9tYWUnLCAnPG91dGZpbGUubWFlPic=

> <r_lp_tautomer_probability>
1

> <r_epik_Ionization_Penalty>
0.098371

> <r_epik_Ionization_Penalty_Charging>
0

> <r_epik_Ionization_Penalty_Neutral>
0.098371

> <r_epik_State_Penalty>
0.0879016

> <r_epik_Charging_Adjusted_Penalty>
0.0879016

> <i_epik_Tot_Q>
0

> <i_epik_Tot_abs_Q>
0

> <r_epik_Metal_State_Penalty>
0.0753294

> <b_epik_Metal_Only>
0

> <s_lp_Force_Field>
OPLS_2005

> <r_lp_Energy>
32.6275

> <b_lp_Chiralities_Consistent>
1

> <s_lp_Variant>
AV-unprocessed.smi:317-1

> <Gold.Version>
5.8.1

> <Gold.Id.Protein>
6NUR|6NUR_protein|mol2

> <Gold.PLP.Fitness>
40.4887

> <Gold.PLP.PLP>
-29.2384

> <Gold.PLP.part.hbond>
-3.9713

> <Gold.PLP.part.metal>
0.0000

> <Gold.PLP.part.buried>
-0.6679

> <Gold.PLP.part.nonpolar>
-25.0890

> <Gold.PLP.part.repulsive>
0.6221

> <Gold.PLP.ligand.clash>
0.0000

> <Gold.PLP.ligand.torsion>
0.5278

> <Gold.PLP.Chemscore.Hbond>
2.9920

> <Gold.PLP.Chemscore.CHOScore>
1.0000

> <Gold.PLP.Chemscore.Metal>
0.0000

> <Gold.Chemscore.Hbonds>
donor molecule, donor type, donor heavy atom, donor atom, acceptor molecule, acceptor atom, score
      L1  H     4    26       P1  7921  0.99
      L1  H     5    27       P1  7948  1.00
      L1  H     8    28       P1  7948  0.98
      L1  C    12    31       P1  8028  1.00

> <Gold.PLP.Chemscore.Internal.Correction>
0.3298

> <Gold.Rescore>
     Score         DG    S(hbond)    S(metal)    S(lipo)     H(rot)  DE(clash)    DE(int)     intcor
     14.97     -17.26       2.91        0.00      63.11       2.08       0.50       1.79       ----

> <Gold.Chemscore.Fitness>
14.9682

> <Gold.Chemscore.DG>
-17.2568

> <Gold.Chemscore.ZeroCoef>
-5.4800

> <Gold.Chemscore.Hbond>
2.9075

> <Gold.Chemscore.Metal>
0.0000

> <Gold.Chemscore.Lipo>
63.1090

> <Gold.Chemscore.Internal_Hbond>
0.0000

> <Gold.Chemscore.DEClash>
0.4960

> <Gold.Chemscore.DEInternal>
1.7925

> <Gold.Chemscore.Rot>
2.0773

> <Gold.Chemscore.Internal.Correction>
   9.000000E+99

> <Gold.Chemscore.Hbonds>
donor molecule, donor type, donor heavy atom, donor atom, acceptor molecule, acceptor atom, score
      L1  H     4    26       P1  7921  0.93
      L1  H     5    27       P1  7948  0.94
      L1  H     8    28       P1  7948  0.93

> <Gold.Chemscore.Hbond.Weighted>
-9.7109

> <Gold.Chemscore.Metal.Weighted>
-0.0000

> <Gold.Chemscore.Lipo.Weighted>
-7.3838

> <Gold.Chemscore.Internal_Hbond.Weighted>
0.0000

> <Gold.Chemscore.DEClash.Weighted>
0.4960

> <Gold.Chemscore.DEInternal.Weighted>
1.7925

> <Gold.Chemscore.Rot.Weighted>
5.3178

> <Gold.Chemscore.Internal.Correction.Weighted>
   9.000000E+99

> <Gold.Protein.RotatedTorsions>
[ 6907 6896 6895 6894 ] final   78.74 input  -60.11 | X-H torsion
[ 7974 7965 7964 7962 ] final  -55.79 input  175.53 | X-H torsion
[ 8008 7997 7996 7995 ] final  116.60 input   59.86 | X-H torsion
[ 10167 10162 10161 10158 ] final -108.73 input  -65.29 | X-H torsion
[ 10718 10713 10712 10709 ] final  -98.39 input   66.30 | X-H torsion
[ 10763 10752 10751 10750 ] final  113.21 input  -60.55 | X-H torsion
[ 11005 11000 10999 10996 ] final   24.24 input  -57.11 | X-H torsion

> <Gold.Protein.ActiveResidues>
 VAL166  LYS551  ARG553  GLY616  TRP617  ASP618  TYR619  PRO620  LYS621  CYS622 
 ASP623  PHE694  ASN695  SER759  ASP760  ASP761  ALA762  ILE779  LEU786  VAL792 
 PHE793  MET794  SER795  GLU796  ALA797  LYS798  CYS799  TRP800  GLU811  SER814 

> <Gold.Protein.RotatedAtoms>
  152.5171  134.3618  159.9287 H   0  0  0  0  0  0  0  0  0  0  0  0  # atno 6907 bound_to 6896
  151.3571  133.3897  159.2693 H   0  0  0  0  0  0  0  0  0  0  0  0  # atno 6908 bound_to 6896
  150.9681  134.9077  159.7829 H   0  0  0  0  0  0  0  0  0  0  0  0  # atno 6909 bound_to 6896
  145.8701  140.8222  142.9892 H   0  0  0  0  0  0  0  0  0  0  0  0  # atno 7974 bound_to 7965
  156.2448  140.2914  156.0549 H   0  0  0  0  0  0  0  0  0  0  0  0  # atno 8008 bound_to 7997
  155.1840  140.0405  157.2905 H   0  0  0  0  0  0  0  0  0  0  0  0  # atno 8009 bound_to 7997
  154.6240  140.2483  155.7521 H   0  0  0  0  0  0  0  0  0  0  0  0  # atno 8010 bound_to 7997
  140.1630  143.4105  152.1411 H   0  0  0  0  0  0  0  0  0  0  0  0  # atno 10167 bound_to 10162
  156.0106  130.5236  150.6515 H   0  0  0  0  0  0  0  0  0  0  0  0  # atno 10718 bound_to 10713
  153.4892  135.3662  155.2483 H   0  0  0  0  0  0  0  0  0  0  0  0  # atno 10763 bound_to 10752
  154.8752  135.3973  154.3609 H   0  0  0  0  0  0  0  0  0  0  0  0  # atno 10764 bound_to 10752
  153.4225  135.7080  153.6350 H   0  0  0  0  0  0  0  0  0  0  0  0  # atno 10765 bound_to 10752
  140.3609  134.2126  155.7672 H   0  0  0  0  0  0  0  0  0  0  0  0  # atno 11005 bound_to 11000
  144.6726  140.1226  143.7449 LP  0  0  0  0  0  0  0  0  0  0  0  0  # atno 17320 bound_to 7965
  145.9147  139.2508  143.1417 LP  0  0  0  0  0  0  0  0  0  0  0  0  # atno 17321 bound_to 7965
  139.5372  144.7221  151.4853 LP  0  0  0  0  0  0  0  0  0  0  0  0  # atno 17342 bound_to 10162
  140.6631  143.8456  150.6910 LP  0  0  0  0  0  0  0  0  0  0  0  0  # atno 17343 bound_to 10162
  157.4276  131.0845  151.1070 LP  0  0  0  0  0  0  0  0  0  0  0  0  # atno 17370 bound_to 10713
  157.1653  130.6243  149.5623 LP  0  0  0  0  0  0  0  0  0  0  0  0  # atno 17371 bound_to 10713
  141.1984  133.8036  157.0583 LP  0  0  0  0  0  0  0  0  0  0  0  0  # atno 17394 bound_to 11000
  140.0627  134.9746  157.1333 LP  0  0  0  0  0  0  0  0  0  0  0  0  # atno 17395 bound_to 11000

$$$$
