AV-unprocessed.smi:2478|AV-procd|sdf|9763|dock9
  -GOLD-   2272013403D 1   1.00000     0.00000
 Structure written by MMmdl.
 42 43  0  0  0  0  0  0  0  0  1 V2000
  148.7757  137.4577  155.1009 C   0  0  0  0  0  0  0  0  0  0  0  0
  148.4840  138.7935  154.3976 C   0  0  2  0  0  0  0  0  0  0  0  0
  149.4717  139.8815  154.8663 C   0  0  0  0  0  0  0  0  0  0  0  0
  149.1995  141.2312  154.1855 C   0  0  0  0  0  0  0  0  0  0  0  0
  147.7511  141.6820  154.4178 C   0  0  0  0  0  0  0  0  0  0  0  0
  146.7582  140.6115  153.9426 C   0  0  0  0  0  0  0  0  0  0  0  0
  147.0232  139.2487  154.6176 C   0  0  1  0  0  0  0  0  0  0  0  0
  146.1670  138.2664  154.0469 O   0  0  0  0  0  0  0  0  0  0  0  0
  146.3612  138.0567  152.6558 C   0  0  0  0  0  0  0  0  0  0  0  0
  145.5000  136.8746  152.2155 C   0  0  0  0  0  0  0  0  0  0  0  0
  144.2756  136.9468  152.3212 O   0  0  0  0  0  0  0  0  0  0  0  0
  146.1673  135.8124  151.7276 N   0  0  0  0  0  0  0  0  0  0  0  0
  145.6448  134.5716  151.2697 C   0  0  0  0  0  0  0  0  0  0  0  0
  144.5713  134.4801  150.4452 N   0  0  0  0  0  0  0  0  0  0  0  0
  144.1296  133.2644  150.0650 C   0  0  0  0  0  0  0  0  0  0  0  0
  144.7276  132.0651  150.4872 C   0  0  0  0  0  0  0  0  0  0  0  0
  145.8412  132.1443  151.3407 C   0  0  0  0  0  0  0  0  0  0  0  0
  146.3214  133.4162  151.7363 C   0  0  0  0  0  0  0  0  0  0  0  0
  147.3987  133.5650  152.5834 O   0  0  0  0  0  0  0  0  0  0  0  0
  148.0008  132.4571  153.0918 C   0  0  0  0  0  0  0  0  0  0  0  0
  149.1499  132.8078  153.7179 F   0  0  0  0  0  0  0  0  0  0  0  0
  147.1992  131.8612  154.0082 F   0  0  0  0  0  0  0  0  0  0  0  0
  148.6324  137.5378  156.1790 H   0  0  0  0  0  0  0  0  0  0  0  0
  149.8029  137.1380  154.9251 H   0  0  0  0  0  0  0  0  0  0  0  0
  148.1215  136.6651  154.7368 H   0  0  0  0  0  0  0  0  0  0  0  0
  148.6348  138.6445  153.3271 H   0  0  0  0  0  0  0  0  0  0  0  0
  149.4014  140.0019  155.9483 H   0  0  0  0  0  0  0  0  0  0  0  0
  150.4958  139.5699  154.6580 H   0  0  0  0  0  0  0  0  0  0  0  0
  149.8886  141.9860  154.5651 H   0  0  0  0  0  0  0  0  0  0  0  0
  149.3907  141.1476  153.1147 H   0  0  0  0  0  0  0  0  0  0  0  0
  147.5946  141.8826  155.4786 H   0  0  0  0  0  0  0  0  0  0  0  0
  147.5647  142.6199  153.8938 H   0  0  0  0  0  0  0  0  0  0  0  0
  145.7426  140.9507  154.1454 H   0  0  0  0  0  0  0  0  0  0  0  0
  146.8346  140.5025  152.8599 H   0  0  0  0  0  0  0  0  0  0  0  0
  146.8447  139.3292  155.6919 H   0  0  0  0  0  0  0  0  0  0  0  0
  146.0899  138.9562  152.0999 H   0  0  0  0  0  0  0  0  0  0  0  0
  147.4031  137.8283  152.4314 H   0  0  0  0  0  0  0  0  0  0  0  0
  147.1721  135.8996  151.6828 H   0  0  0  0  0  0  0  0  0  0  0  0
  143.2715  133.2482  149.4095 H   0  0  0  0  0  0  0  0  0  0  0  0
  144.3400  131.1091  150.1675 H   0  0  0  0  0  0  0  0  0  0  0  0
  146.3102  131.2351  151.6861 H   0  0  0  0  0  0  0  0  0  0  0  0
  148.2528  131.7399  152.3101 H   0  0  0  0  0  0  0  0  0  0  0  0
  1  2  1  0  0  0  0
  1 23  1  0  0  0  0
  1 24  1  0  0  0  0
  1 25  1  0  0  0  0
  2  7  1  0  0  0  0
  2  3  1  0  0  0  0
  2 26  1  0  0  0  0
  3  4  1  0  0  0  0
  3 27  1  0  0  0  0
  3 28  1  0  0  0  0
  4  5  1  0  0  0  0
  4 29  1  0  0  0  0
  4 30  1  0  0  0  0
  5  6  1  0  0  0  0
  5 31  1  0  0  0  0
  5 32  1  0  0  0  0
  6  7  1  0  0  0  0
  6 33  1  0  0  0  0
  6 34  1  0  0  0  0
  7  8  1  0  0  0  0
  7 35  1  0  0  0  0
  8  9  1  0  0  0  0
  9 10  1  0  0  0  0
  9 36  1  0  0  0  0
  9 37  1  0  0  0  0
 10 11  2  0  0  0  0
 10 12  1  0  0  0  0
 12 13  1  0  0  0  0
 12 38  1  0  0  0  0
 13 18  1  0  0  0  0
 13 14  2  0  0  0  0
 14 15  1  0  0  0  0
 15 16  2  0  0  0  0
 15 39  1  0  0  0  0
 16 17  1  0  0  0  0
 16 40  1  0  0  0  0
 17 18  2  0  0  0  0
 17 41  1  0  0  0  0
 18 19  1  0  0  0  0
 19 20  1  0  0  0  0
 20 21  1  0  0  0  0
 20 22  1  0  0  0  0
 20 42  1  0  0  0  0
M  END
> <s_m_source_file>
AV-unprocessed.smi

> <i_m_source_file_index>
2478

> <i_lp_mmshare_version>
43012

> <i_f3d_flags>
0

> <s_epik_input>
W0NIM11bQ0BASF0xW0NIMl1bQ0gyXVtDSDJdW0NIMl1bQ0BIXTFPW0NIMl1DKD1PKVtOSF1jMm5bY0hdW2NIXVtjSF1jMk9bQ0hdKEYpRg==

> <s_epik_cmdline>
J2VwaWtfcHl0aG9uJywgJy1waCcsICc3LjAnLCAnLXRuJywgJzgnLCAnLW1hJywgJzIwMCcsICctbWV0YWxfYmluZGluZycsICctaW1hZScsICc8aW5maWxlLm1hZT4nLCAnLW9tYWUnLCAnPG91dGZpbGUubWFlPic=

> <r_lp_tautomer_probability>
1

> <r_epik_Ionization_Penalty>
6.06012e-05

> <r_epik_Ionization_Penalty_Charging>
0

> <r_epik_Ionization_Penalty_Neutral>
6.06012e-05

> <r_epik_State_Penalty>
-0

> <r_epik_Charging_Adjusted_Penalty>
0

> <i_epik_Tot_Q>
0

> <i_epik_Tot_abs_Q>
0

> <r_epik_Metal_State_Penalty>
-0

> <b_epik_Metal_Only>
0

> <s_lp_Force_Field>
OPLS_2005

> <r_lp_Energy>
14.0723

> <b_lp_Chiralities_Consistent>
1

> <s_lp_Variant>
AV-unprocessed.smi:2478-1

> <Gold.Version>
5.8.1

> <Gold.Id.Protein>
6NUR|6NUR_protein|mol2

> <Gold.PLP.Fitness>
41.5285

> <Gold.PLP.PLP>
-36.3727

> <Gold.PLP.part.hbond>
-1.0000

> <Gold.PLP.part.metal>
0.0000

> <Gold.PLP.part.buried>
-4.4505

> <Gold.PLP.part.nonpolar>
-32.5800

> <Gold.PLP.part.repulsive>
2.0599

> <Gold.PLP.ligand.clash>
0.0000

> <Gold.PLP.ligand.torsion>
0.4626

> <Gold.PLP.Chemscore.Hbond>
1.0000

> <Gold.PLP.Chemscore.CHOScore>
1.0000

> <Gold.PLP.Chemscore.Metal>
0.0000

> <Gold.Chemscore.Hbonds>
donor molecule, donor type, donor heavy atom, donor atom, acceptor molecule, acceptor atom, score
      L1  H    12    38       P1  7948  1.00
      L1  C    15    39       P1 10186  0.95

> <Gold.PLP.Chemscore.Internal.Correction>
0.0809

> <Gold.Rescore>
     Score         DG    S(hbond)    S(metal)    S(lipo)     H(rot)  DE(clash)    DE(int)     intcor
     11.81     -13.20       1.00        0.00      77.87       1.85       0.06       1.32       ----

> <Gold.Chemscore.Fitness>
11.8144

> <Gold.Chemscore.DG>
-13.1994

> <Gold.Chemscore.ZeroCoef>
-5.4800

> <Gold.Chemscore.Hbond>
1.0000

> <Gold.Chemscore.Metal>
0.0000

> <Gold.Chemscore.Lipo>
77.8679

> <Gold.Chemscore.Internal_Hbond>
0.0000

> <Gold.Chemscore.DEClash>
0.0613

> <Gold.Chemscore.DEInternal>
1.3237

> <Gold.Chemscore.Rot>
1.8481

> <Gold.Chemscore.Internal.Correction>
   9.000000E+99

> <Gold.Chemscore.Hbonds>
donor molecule, donor type, donor heavy atom, donor atom, acceptor molecule, acceptor atom, score
      L1  H    12    38       P1  7948  1.00

> <Gold.Chemscore.Hbond.Weighted>
-3.3400

> <Gold.Chemscore.Metal.Weighted>
-0.0000

> <Gold.Chemscore.Lipo.Weighted>
-9.1105

> <Gold.Chemscore.Internal_Hbond.Weighted>
0.0000

> <Gold.Chemscore.DEClash.Weighted>
0.0613

> <Gold.Chemscore.DEInternal.Weighted>
1.3237

> <Gold.Chemscore.Rot.Weighted>
4.7311

> <Gold.Chemscore.Internal.Correction.Weighted>
   9.000000E+99

> <Gold.Protein.RotatedTorsions>
[ 6907 6896 6895 6894 ] final -129.80 input  -60.11 | X-H torsion
[ 7974 7965 7964 7962 ] final  103.78 input  175.53 | X-H torsion
[ 8008 7997 7996 7995 ] final   83.98 input   59.86 | X-H torsion
[ 10167 10162 10161 10158 ] final  -54.34 input  -65.29 | X-H torsion
[ 10718 10713 10712 10709 ] final  176.54 input   66.30 | X-H torsion
[ 10763 10752 10751 10750 ] final -163.78 input  -60.55 | X-H torsion
[ 11005 11000 10999 10996 ] final   94.58 input  -57.11 | X-H torsion

> <Gold.Protein.ActiveResidues>
 VAL166  LYS551  ARG553  GLY616  TRP617  ASP618  TYR619  PRO620  LYS621  CYS622 
 ASP623  PHE694  ASN695  SER759  ASP760  ASP761  ALA762  ILE779  LEU786  VAL792 
 PHE793  MET794  SER795  GLU796  ALA797  LYS798  CYS799  TRP800  GLU811  SER814 

> <Gold.Protein.RotatedAtoms>
  150.9327  133.6748  159.2807 H   0  0  0  0  0  0  0  0  0  0  0  0  # atno 6907 bound_to 6896
  151.4165  135.0991  159.9610 H   0  0  0  0  0  0  0  0  0  0  0  0  # atno 6908 bound_to 6896
  152.5033  133.8788  159.7391 H   0  0  0  0  0  0  0  0  0  0  0  0  # atno 6909 bound_to 6896
  145.3414  139.2461  143.3607 H   0  0  0  0  0  0  0  0  0  0  0  0  # atno 7974 bound_to 7965
  155.9311  140.3415  155.6250 H   0  0  0  0  0  0  0  0  0  0  0  0  # atno 8008 bound_to 7997
  155.7156  140.0777  157.2371 H   0  0  0  0  0  0  0  0  0  0  0  0  # atno 8009 bound_to 7997
  154.4085  140.1615  156.2332 H   0  0  0  0  0  0  0  0  0  0  0  0  # atno 8010 bound_to 7997
  140.6436  143.2522  151.4922 H   0  0  0  0  0  0  0  0  0  0  0  0  # atno 10167 bound_to 10162
  156.9186  130.9933  151.3008 H   0  0  0  0  0  0  0  0  0  0  0  0  # atno 10718 bound_to 10713
  154.7091  135.3002  154.9225 H   0  0  0  0  0  0  0  0  0  0  0  0  # atno 10763 bound_to 10752
  154.0133  135.6692  153.4771 H   0  0  0  0  0  0  0  0  0  0  0  0  # atno 10764 bound_to 10752
  153.0740  135.5045  154.8278 H   0  0  0  0  0  0  0  0  0  0  0  0  # atno 10765 bound_to 10752
  139.8797  134.8853  156.3885 H   0  0  0  0  0  0  0  0  0  0  0  0  # atno 11005 bound_to 11000
  146.3006  140.4012  142.8705 LP  0  0  0  0  0  0  0  0  0  0  0  0  # atno 17320 bound_to 7965
  144.8787  140.7371  143.6000 LP  0  0  0  0  0  0  0  0  0  0  0  0  # atno 17321 bound_to 7965
  139.5645  144.2075  152.1744 LP  0  0  0  0  0  0  0  0  0  0  0  0  # atno 17342 bound_to 10162
  140.1352  144.5252  150.6777 LP  0  0  0  0  0  0  0  0  0  0  0  0  # atno 17343 bound_to 10162
  157.5922  130.8452  149.8676 LP  0  0  0  0  0  0  0  0  0  0  0  0  # atno 17370 bound_to 10713
  156.0501  130.3719  150.1221 LP  0  0  0  0  0  0  0  0  0  0  0  0  # atno 17371 bound_to 10713
  140.9349  133.7554  156.0072 LP  0  0  0  0  0  0  0  0  0  0  0  0  # atno 17394 bound_to 11000
  140.8287  134.3204  157.5356 LP  0  0  0  0  0  0  0  0  0  0  0  0  # atno 17395 bound_to 11000

$$$$
