AV-unprocessed.smi:2083|AV-procd|sdf|8501|dock8
  -GOLD-   2272011213D 1   1.00000     0.00000
 Structure written by MMmdl.
 44 45  0  0  0  0  0  0  0  0  3 V2000
  148.7457  132.2252  155.2126 C   0  0  0  0  0  0  0  0  0  0  0  0
  149.5655  133.3172  155.8099 C   0  0  0  0  0  0  0  0  0  0  0  0
  150.6044  134.0636  155.3313 C   0  0  0  0  0  0  0  0  0  0  0  0
  150.9143  134.9242  156.4194 C   0  0  0  0  0  0  0  0  0  0  0  0
  151.8902  135.8449  156.4421 N   0  5  0  0  0  0  0  0  0  0  0  0
  151.9690  136.7301  157.4612 C   0  0  0  0  0  0  0  0  0  0  0  0
  151.4814  136.5975  158.5859 O   0  0  0  0  0  0  0  0  0  0  0  0
  152.6446  137.8458  157.1496 N   0  0  0  0  0  0  0  0  0  0  0  0
  152.8901  138.9874  158.0275 C   0  0  0  0  0  0  0  0  0  0  0  0
  151.9082  140.1601  157.7776 C   0  0  1  0  0  0  0  0  0  0  0  0
  150.4433  139.7218  158.0229 C   0  0  0  0  0  0  0  0  0  0  0  0
  152.3378  141.3456  158.5899 N   0  3  2  0  0  0  0  0  0  0  0  0
  152.8371  141.0616  159.9670 C   0  0  0  0  0  0  0  0  0  0  0  0
  153.3883  142.3293  160.6415 C   0  0  0  0  0  0  0  0  0  0  0  0
  152.3498  143.4571  160.6553 C   0  0  0  0  0  0  0  0  0  0  0  0
  151.8034  143.7200  159.2425 C   0  0  1  0  0  0  0  0  0  0  0  0
  152.8098  144.4454  158.3320 C   0  0  0  0  0  0  0  0  0  0  0  0
  151.2910  142.4081  158.6166 C   0  0  0  0  0  0  0  0  0  0  0  0
  150.1409  134.7098  157.4705 N   0  0  0  0  0  0  0  0  0  0  0  0
  149.2683  133.6849  157.0855 O   0  0  0  0  0  0  0  0  0  0  0  0
  149.3798  131.3951  154.9011 H   0  0  0  0  0  0  0  0  0  0  0  0
  148.2047  132.5848  154.3374 H   0  0  0  0  0  0  0  0  0  0  0  0
  148.0169  131.8431  155.9277 H   0  0  0  0  0  0  0  0  0  0  0  0
  151.0680  134.0048  154.3580 H   0  0  0  0  0  0  0  0  0  0  0  0
  153.0244  137.9017  156.2158 H   0  0  0  0  0  0  0  0  0  0  0  0
  152.8565  138.6900  159.0770 H   0  0  0  0  0  0  0  0  0  0  0  0
  153.9188  139.2931  157.8446 H   0  0  0  0  0  0  0  0  0  0  0  0
  151.9678  140.4407  156.7246 H   0  0  0  0  0  0  0  0  0  0  0  0
  150.1654  138.8801  157.3892 H   0  0  0  0  0  0  0  0  0  0  0  0
  149.7318  140.5117  157.7827 H   0  0  0  0  0  0  0  0  0  0  0  0
  150.2846  139.4155  159.0574 H   0  0  0  0  0  0  0  0  0  0  0  0
  152.0339  140.6314  160.5673 H   0  0  0  0  0  0  0  0  0  0  0  0
  153.6516  140.3385  159.9451 H   0  0  0  0  0  0  0  0  0  0  0  0
  153.6961  142.0999  161.6624 H   0  0  0  0  0  0  0  0  0  0  0  0
  154.2881  142.6593  160.1213 H   0  0  0  0  0  0  0  0  0  0  0  0
  151.5265  143.1748  161.3130 H   0  0  0  0  0  0  0  0  0  0  0  0
  152.7804  144.3660  161.0773 H   0  0  0  0  0  0  0  0  0  0  0  0
  150.9474  144.3881  159.3473 H   0  0  0  0  0  0  0  0  0  0  0  0
  153.6986  143.8431  158.1436 H   0  0  0  0  0  0  0  0  0  0  0  0
  153.1346  145.3858  158.7780 H   0  0  0  0  0  0  0  0  0  0  0  0
  152.3623  144.6795  157.3655 H   0  0  0  0  0  0  0  0  0  0  0  0
  150.9177  142.6173  157.6151 H   0  0  0  0  0  0  0  0  0  0  0  0
  150.4352  142.0425  159.1867 H   0  0  0  0  0  0  0  0  0  0  0  0
  153.1295  141.7331  158.0964 H   0  0  0  0  0  0  0  0  0  0  0  0
  1  2  1  0  0  0  0
  1 21  1  0  0  0  0
  1 22  1  0  0  0  0
  1 23  1  0  0  0  0
  2 20  1  0  0  0  0
  2  3  2  0  0  0  0
  3  4  1  0  0  0  0
  3 24  1  0  0  0  0
  4  5  1  0  0  0  0
  4 19  2  0  0  0  0
  5  6  1  0  0  0  0
  6  7  2  0  0  0  0
  6  8  1  0  0  0  0
  8  9  1  0  0  0  0
  8 25  1  0  0  0  0
  9 10  1  0  0  0  0
  9 26  1  0  0  0  0
  9 27  1  0  0  0  0
 10 11  1  0  0  0  0
 10 12  1  0  0  0  0
 10 28  1  0  0  0  0
 11 29  1  0  0  0  0
 11 30  1  0  0  0  0
 11 31  1  0  0  0  0
 12 18  1  0  0  0  0
 12 13  1  0  0  0  0
 12 44  1  0  0  0  0
 13 14  1  0  0  0  0
 13 32  1  0  0  0  0
 13 33  1  0  0  0  0
 14 15  1  0  0  0  0
 14 34  1  0  0  0  0
 14 35  1  0  0  0  0
 15 16  1  0  0  0  0
 15 36  1  0  0  0  0
 15 37  1  0  0  0  0
 16 17  1  0  0  0  0
 16 18  1  0  0  0  0
 16 38  1  0  0  0  0
 17 39  1  0  0  0  0
 17 40  1  0  0  0  0
 17 41  1  0  0  0  0
 18 42  1  0  0  0  0
 18 43  1  0  0  0  0
 19 20  1  0  0  0  0
M  CHG  1   5  -1
M  CHG  1  12   1
M  END
> <s_m_source_file>
AV-unprocessed.smi

> <i_m_source_file_index>
2083

> <i_lp_mmshare_version>
43012

> <i_f3d_flags>
0

> <s_epik_input>
W0NIM11jMVtjSF1jKG5vMSlbTkhdQyg9TylbTkhdW0NIMl1bQ0BIXShbQ0gzXSlOMltDSDJdW0NIMl1bQ0gyXVtDQEBIXShbQ0gzXSlbQ0gyXTI=

> <s_epik_cmdline>
J2VwaWtfcHl0aG9uJywgJy1waCcsICc3LjAnLCAnLXRuJywgJzgnLCAnLW1hJywgJzIwMCcsICctbWV0YWxfYmluZGluZycsICctaW1hZScsICc8aW5maWxlLm1hZT4nLCAnLW9tYWUnLCAnPG91dGZpbGUubWFlPic=

> <r_epik_Ionization_Penalty>
6.22434

> <r_epik_Ionization_Penalty_Charging>
6.22425

> <r_epik_Ionization_Penalty_Neutral>
9.62407e-05

> <r_epik_State_Penalty>
6.22423

> <r_epik_Charging_Adjusted_Penalty>
12.4485

> <i_epik_Tot_Q>
0

> <i_epik_Tot_abs_Q>
2

> <r_epik_Metal_State_Penalty>
2.16764

> <b_epik_Metal_Only>
1

> <s_lp_Force_Field>
OPLS_2005

> <r_lp_Energy>
14.1674

> <b_lp_Chiralities_Consistent>
1

> <s_lp_Variant>
AV-unprocessed.smi:2083-12

> <Gold.Version>
5.8.1

> <Gold.Id.Protein>
6NUR|6NUR_protein|mol2

> <Gold.PLP.Fitness>
42.9723

> <Gold.PLP.PLP>
-34.3917

> <Gold.PLP.part.hbond>
-3.0000

> <Gold.PLP.part.metal>
0.0000

> <Gold.PLP.part.buried>
-4.3519

> <Gold.PLP.part.nonpolar>
-27.1466

> <Gold.PLP.part.repulsive>
0.2192

> <Gold.PLP.ligand.clash>
0.0000

> <Gold.PLP.ligand.torsion>
0.6320

> <Gold.PLP.Chemscore.Hbond>
3.2239

> <Gold.PLP.Chemscore.CHOScore>
0.0000

> <Gold.PLP.Chemscore.Metal>
0.0000

> <Gold.Chemscore.Hbonds>
donor molecule, donor type, donor heavy atom, donor atom, acceptor molecule, acceptor atom, score
      P1  H  6896  6907       L1     7  0.50
      P1  H  6896  6909       L1    19  0.72
      P1  H 10752 10763       L1     5  2.00

> <Gold.PLP.Chemscore.Internal.Correction>
0.1729

> <Gold.Rescore>
     Score         DG    S(hbond)    S(metal)    S(lipo)     H(rot)  DE(clash)    DE(int)     intcor
     15.79     -18.12       1.67        0.00      93.66       1.52       0.04       2.29       ----

> <Gold.Chemscore.Fitness>
15.7932

> <Gold.Chemscore.DG>
-18.1240

> <Gold.Chemscore.ZeroCoef>
-5.4800

> <Gold.Chemscore.Hbond>
1.6689

> <Gold.Chemscore.Metal>
0.0000

> <Gold.Chemscore.Lipo>
93.6620

> <Gold.Chemscore.Internal_Hbond>
0.0000

> <Gold.Chemscore.DEClash>
0.0368

> <Gold.Chemscore.DEInternal>
2.2939

> <Gold.Chemscore.Rot>
1.5190

> <Gold.Chemscore.Internal.Correction>
   9.000000E+99

> <Gold.Chemscore.Hbonds>
donor molecule, donor type, donor heavy atom, donor atom, acceptor molecule, acceptor atom, score
      P1  H  6896  6907       L1     7  0.48
      P1  H  6896  6909       L1    19  0.17
      P1  H 10752 10763       L1     5  0.74

> <Gold.Chemscore.Hbond.Weighted>
-5.5742

> <Gold.Chemscore.Metal.Weighted>
-0.0000

> <Gold.Chemscore.Lipo.Weighted>
-10.9585

> <Gold.Chemscore.Internal_Hbond.Weighted>
0.0000

> <Gold.Chemscore.DEClash.Weighted>
0.0368

> <Gold.Chemscore.DEInternal.Weighted>
2.2939

> <Gold.Chemscore.Rot.Weighted>
3.8886

> <Gold.Chemscore.Internal.Correction.Weighted>
   9.000000E+99

> <Gold.Protein.RotatedTorsions>
[ 6907 6896 6895 6894 ] final   14.24 input  -60.11 | X-H torsion
[ 7974 7965 7964 7962 ] final  140.82 input  175.53 | X-H torsion
[ 8008 7997 7996 7995 ] final  -84.27 input   59.86 | X-H torsion
[ 10167 10162 10161 10158 ] final  -40.66 input  -65.29 | X-H torsion
[ 10718 10713 10712 10709 ] final   18.16 input   66.30 | X-H torsion
[ 10763 10752 10751 10750 ] final   94.33 input  -60.55 | X-H torsion
[ 11005 11000 10999 10996 ] final -123.04 input  -57.11 | X-H torsion

> <Gold.Protein.ActiveResidues>
 VAL166  LYS551  ARG553  GLY616  TRP617  ASP618  TYR619  PRO620  LYS621  CYS622 
 ASP623  PHE694  ASN695  SER759  ASP760  ASP761  ALA762  ILE779  LEU786  VAL792 
 PHE793  MET794  SER795  GLU796  ALA797  LYS798  CYS799  TRP800  GLU811  SER814 

> <Gold.Protein.RotatedAtoms>
  151.7991  135.0714  160.0397 H   0  0  0  0  0  0  0  0  0  0  0  0  # atno 6907 bound_to 6896
  152.3102  133.5740  159.5684 H   0  0  0  0  0  0  0  0  0  0  0  0  # atno 6908 bound_to 6896
  150.7316  134.0080  159.3702 H   0  0  0  0  0  0  0  0  0  0  0  0  # atno 6909 bound_to 6896
  144.9151  139.5241  143.5690 H   0  0  0  0  0  0  0  0  0  0  0  0  # atno 7974 bound_to 7965
  154.6280  140.0607  156.9697 H   0  0  0  0  0  0  0  0  0  0  0  0  # atno 8008 bound_to 7997
  155.1711  140.3291  155.4374 H   0  0  0  0  0  0  0  0  0  0  0  0  # atno 8009 bound_to 7997
  156.2468  140.1914  156.6813 H   0  0  0  0  0  0  0  0  0  0  0  0  # atno 8010 bound_to 7997
  140.7027  143.3140  151.2955 H   0  0  0  0  0  0  0  0  0  0  0  0  # atno 10167 bound_to 10162
  157.0924  130.6433  149.5852 H   0  0  0  0  0  0  0  0  0  0  0  0  # atno 10718 bound_to 10713
  153.2404  135.4293  155.0692 H   0  0  0  0  0  0  0  0  0  0  0  0  # atno 10763 bound_to 10752
  154.8338  135.3401  154.6657 H   0  0  0  0  0  0  0  0  0  0  0  0  # atno 10764 bound_to 10752
  153.7081  135.7024  153.5101 H   0  0  0  0  0  0  0  0  0  0  0  0  # atno 10765 bound_to 10752
  140.9949  134.0486  157.3609 H   0  0  0  0  0  0  0  0  0  0  0  0  # atno 11005 bound_to 11000
  146.3178  139.7988  142.8970 LP  0  0  0  0  0  0  0  0  0  0  0  0  # atno 17320 bound_to 7965
  145.3388  141.0283  143.3404 LP  0  0  0  0  0  0  0  0  0  0  0  0  # atno 17321 bound_to 7965
  139.6573  144.0253  152.2668 LP  0  0  0  0  0  0  0  0  0  0  0  0  # atno 17342 bound_to 10162
  139.9809  144.6429  150.7901 LP  0  0  0  0  0  0  0  0  0  0  0  0  # atno 17343 bound_to 10162
  155.9894  130.4942  150.7214 LP  0  0  0  0  0  0  0  0  0  0  0  0  # atno 17370 bound_to 10713
  157.4710  131.0893  151.0643 LP  0  0  0  0  0  0  0  0  0  0  0  0  # atno 17371 bound_to 10713
  139.9010  135.0164  156.7267 LP  0  0  0  0  0  0  0  0  0  0  0  0  # atno 17394 bound_to 11000
  140.6981  133.9330  155.8007 LP  0  0  0  0  0  0  0  0  0  0  0  0  # atno 17395 bound_to 11000

$$$$
