#       Name:                AV-unprocessed.smi:269
#       Creating user name   scv26
#       Creation time:       Thu Mar 26 21:26:25 2020


#       File generated by GOLD software.
#

@<TRIPOS>MOLECULE
AV-unprocessed.smi:269
    72    75     1
SMALL
NO_CHARGES


@<TRIPOS>ATOM
      1 ****        -6.5947   2.8232   1.4635 C.3            1 S1                 0.0000
      2 ****        -7.5922   1.6782   1.2426 C.3            1 S1                 0.0000
      3 ****        -6.9088   0.4004   1.0842 N.am           1 S1                 0.0000
      4 ****        -6.3435  -0.0363  -0.0520 C.2            1 S1                 0.0000
      5 ****        -6.3618   0.5981  -1.1066 O.2            1 S1                 0.0000
      6 ****        -5.6304  -1.3916   0.0129 C.3            1 S1                 0.0000
      7 ****        -4.1562  -1.3088  -0.0944 N.3            1 S1                 0.0000
      8 ****        -3.5916  -2.6633  -0.1072 C.3            1 S1                 0.0000
      9 ****        -2.0676  -2.6004  -0.3165 C.3            1 S1                 0.0000
     10 ****        -1.4498  -1.8023   0.7341 N.3            1 S1                 0.0000
     11 ****        -0.1009  -1.8282   0.7173 C.ar           1 S1                 0.0000
     12 ****         0.5153  -2.4412   1.7571 N.ar           1 S1                 0.0000
     13 ****         1.8497  -2.5023   1.7998 C.ar           1 S1                 0.0000
     14 ****         2.7363  -2.0225   0.9247 N.ar           1 S1                 0.0000
     15 ****         2.1176  -1.4031  -0.1217 C.ar           1 S1                 0.0000
     16 ****         0.7131  -1.2660  -0.3065 C.ar           1 S1                 0.0000
     17 ****         0.4552  -0.5905  -1.4928 N.2            1 S1                 0.0000
     18 ****         1.6395  -0.3412  -1.9807 C.2            1 S1                 0.0000
     19 ****         2.6967  -0.7788  -1.2136 N.pl3          1 S1                 0.0000
     20 ****         4.1140  -0.6345  -1.5159 C.3            1 S1                 0.0000
     21 ****         4.7654   0.6794  -0.9899 C.3            1 S1                 0.0000
     22 ****         4.0595   1.9278  -1.5934 C.3            1 S1                 0.0000
     23 ****         4.0894   1.9286  -3.0068 O.3            1 S1                 0.0000
     24 ****         4.6709   0.7298   0.5562 C.3            1 S1                 0.0000
     25 ****         5.5599   1.8217   1.1796 C.3            1 S1                 0.0000
     26 ****         6.9095   1.6450   0.7702 O.3            1 S1                 0.0000
     27 ****         7.0788   1.7556  -0.6369 C.3            1 S1                 0.0000
     28 ****         6.2725   0.6551  -1.3496 C.3            1 S1                 0.0000
     29 ****        -2.0203  -0.4632   0.8085 C.3            1 S1                 0.0000
     30 ****        -3.5458  -0.5419   1.0032 C.3            1 S1                 0.0000
     31 ****        -7.1168   3.7678   1.6170 H              1 S1                 0.0000
     32 ****        -5.9350   2.9465   0.6040 H              1 S1                 0.0000
     33 ****        -5.9721   2.6404   2.3400 H              1 S1                 0.0000
     34 ****        -8.2613   1.6028   2.1001 H              1 S1                 0.0000
     35 ****        -8.2211   1.8833   0.3748 H              1 S1                 0.0000
     36 ****        -6.8424  -0.1872   1.9028 H              1 S1                 0.0000
     37 ****        -5.9053  -1.9076   0.9351 H              1 S1                 0.0000
     38 ****        -6.0177  -1.9990  -0.8065 H              1 S1                 0.0000
     39 ****        -3.8236  -3.1841   0.8239 H              1 S1                 0.0000
     40 ****        -4.0378  -3.2433  -0.9162 H              1 S1                 0.0000
     41 ****        -1.6504  -3.6082  -0.3052 H              1 S1                 0.0000
     42 ****        -1.8431  -2.1713  -1.2941 H              1 S1                 0.0000
     43 ****         2.2671  -3.0068   2.6589 H              1 S1                 0.0000
     44 ****         1.7752   0.1795  -2.9175 H              1 S1                 0.0000
     45 ****         4.6317  -1.5013  -1.1028 H              1 S1                 0.0000
     46 ****         4.2356  -0.7128  -2.5970 H              1 S1                 0.0000
     47 ****         3.0196   1.9803  -1.2713 H              1 S1                 0.0000
     48 ****         4.5195   2.8550  -1.2561 H              1 S1                 0.0000
     49 ****         4.9914   1.9464  -3.2881 H              1 S1                 0.0000
     50 ****         3.6383   0.8772   0.8748 H              1 S1                 0.0000
     51 ****         4.9815  -0.2307   0.9693 H              1 S1                 0.0000
     52 ****         5.2135   2.8218   0.9175 H              1 S1                 0.0000
     53 ****         5.5166   1.7562   2.2670 H              1 S1                 0.0000
     54 ****         6.7903   2.7505  -0.9768 H              1 S1                 0.0000
     55 ****         8.1386   1.6448  -0.8670 H              1 S1                 0.0000
     56 ****         6.6963  -0.3083  -1.0621 H              1 S1                 0.0000
     57 ****         6.4154   0.7298  -2.4278 H              1 S1                 0.0000
     58 ****        -1.5687   0.0816   1.6386 H              1 S1                 0.0000
     59 ****        -1.7935   0.0939  -0.1013 H              1 S1                 0.0000
     60 ****        -3.9354   0.4756   1.0331 H              1 S1                 0.0000
     61 ****        -3.7832  -1.0016   1.9643 H              1 S1                 0.0000
     62 ****        -6.8150   1.4886  -1.1466 LP             1 S1                 0.0000
     63 ****        -5.9235   0.2230  -1.9234 LP             1 S1                 0.0000
     64 ****        -3.9498  -0.8272  -0.9462 LP             1 S1                 0.0000
     65 ****        -1.6832  -2.2477   1.5985 LP             1 S1                 0.0000
     66 ****        -0.0281  -2.8474   2.4918 LP             1 S1                 0.0000
     67 ****         3.7278  -2.1064   1.0236 LP             1 S1                 0.0000
     68 ****        -0.4337  -0.3505  -1.8831 LP             1 S1                 0.0000
     69 ****         3.6120   2.7359  -3.3537 LP             1 S1                 0.0000
     70 ****         3.6441   1.1033  -3.3540 LP             1 S1                 0.0000
     71 ****         7.2141   0.7371   1.0580 LP             1 S1                 0.0000
     72 ****         7.4719   2.3419   1.2152 LP             1 S1                 0.0000
@<TRIPOS>BOND
    1    1    2 1     
    2    1   31 1     
    3    1   32 1     
    4    1   33 1     
    5    2    3 1     
    6    2   34 1     
    7    2   35 1     
    8    3    4 am    
    9    3   36 1     
   10    4    5 2     
   11    4    6 1     
   12    6    7 1     
   13    6   37 1     
   14    6   38 1     
   15    7   30 1     
   16    7    8 1     
   17    8    9 1     
   18    8   39 1     
   19    8   40 1     
   20    9   10 1     
   21    9   41 1     
   22    9   42 1     
   23   10   11 1     
   24   10   29 1     
   25   11   16 ar    
   26   11   12 ar    
   27   12   13 ar    
   28   13   14 ar    
   29   13   43 1     
   30   14   15 ar    
   31   15   19 1     
   32   15   16 ar    
   33   16   17 1     
   34   17   18 2     
   35   18   19 1     
   36   18   44 1     
   37   19   20 1     
   38   20   21 1     
   39   20   45 1     
   40   20   46 1     
   41   21   28 1     
   42   21   22 1     
   43   21   24 1     
   44   22   23 1     
   45   22   47 1     
   46   22   48 1     
   47   23   49 1     
   48   24   25 1     
   49   24   50 1     
   50   24   51 1     
   51   25   26 1     
   52   25   52 1     
   53   25   53 1     
   54   26   27 1     
   55   27   28 1     
   56   27   54 1     
   57   27   55 1     
   58   28   56 1     
   59   28   57 1     
   60   29   30 1     
   61   29   58 1     
   62   29   59 1     
   63   30   60 1     
   64   30   61 1     
   65    5   62 1     
   66    5   63 1     
   67    7   64 1     
   68   10   65 1     
   69   12   66 1     
   70   14   67 1     
   71   17   68 1     
   72   23   69 1     
   73   23   70 1     
   74   26   71 1     
   75   26   72 1     
@<TRIPOS>SUBSTRUCTURE
      1 S1             1
@<TRIPOS>SET
LONE_PAIRS      STATIC     ATOMS    <user>   **** ""
11 62 63 64 65 66 67 68 69 70 71 72
DONOR_HYDROGENS      STATIC     ATOMS    <user>   **** ""
2 36 49
ATOM$BLUE        STATIC     ATOMS    COLORGROUP SYSTEM
11 62 63 64 65 66 67 68 69 70 71 72
ATOM$RED        STATIC     ATOMS    COLORGROUP SYSTEM
2 36 49
