AV-unprocessed.smi:21|AV-procd|sdf|141|dock5
  -GOLD-   2262015343D 1   1.00000     0.00000
 Structure written by MMmdl.
 62 65  0  0  0  0  0  0  0  0  2 V2000
  144.1267  132.7783  148.9109 C   0  0  0  0  0  0  0  0  0  0  0  0
  143.7416  131.7378  149.7949 O   0  0  0  0  0  0  0  0  0  0  0  0
  144.0027  132.0272  151.1601 C   0  0  1  0  0  0  0  0  0  0  0  0
  145.3937  132.6059  151.3985 C   0  0  0  0  0  0  0  0  0  0  0  0
  145.2472  133.3590  152.7281 C   0  0  1  0  0  0  0  0  0  0  0  0
  146.2918  134.4849  152.9284 C   0  0  0  0  0  0  0  0  0  0  0  0
  146.0219  135.2929  154.1219 N   0  0  0  0  0  0  0  0  0  0  0  0
  145.5067  134.6079  155.3015 C   0  0  0  0  0  0  0  0  0  0  0  0
  146.4440  136.5895  154.2096 C   0  0  0  0  0  0  0  0  0  0  0  0
  146.1007  137.4485  153.2124 N   0  0  0  0  0  0  0  0  0  0  0  0
  146.4816  138.7273  153.2413 C   0  0  0  0  0  0  0  0  0  0  0  0
  147.2021  139.3586  154.1664 N   0  0  0  0  0  0  0  0  0  0  0  0
  147.5541  138.5167  155.1782 C   0  0  0  0  0  0  0  0  0  0  0  0
  147.2273  137.1313  155.2779 C   0  0  0  0  0  0  0  0  0  0  0  0
  147.7853  136.6153  156.4431 N   0  0  0  0  0  0  0  0  0  0  0  0
  148.3930  137.6274  156.9961 C   0  0  0  0  0  0  0  0  0  0  0  0
  148.2905  138.8164  156.3127 N   0  0  0  0  0  0  0  0  0  0  0  0
  148.8646  140.0991  156.6979 C   0  0  0  0  0  0  0  0  0  0  0  0
  150.3745  140.0454  157.0613 C   0  0  1  0  0  0  0  0  0  0  0  0
  151.2747  140.0065  155.8040 C   0  0  0  0  0  0  0  0  0  0  0  0
  152.4757  139.3118  156.0677 O   0  0  0  0  0  0  0  0  0  0  0  0
  150.7934  141.1883  158.0240 C   0  0  2  0  0  0  0  0  0  0  0  0
  150.9758  142.5486  157.3708 C   0  0  0  0  0  0  0  0  0  0  0  0
  151.8216  143.2999  158.3948 C   0  0  0  0  0  0  0  0  0  0  0  0
  152.5849  142.3092  159.0746 O   0  0  0  0  0  0  0  0  0  0  0  0
  152.1812  141.0127  158.6502 C   0  0  0  0  0  0  0  0  0  0  0  0
  143.8150  133.7761  152.7976 N   0  3  1  0  0  0  0  0  0  0  0  0
  143.5225  135.2204  152.9565 C   0  0  0  0  0  0  0  0  0  0  0  0
  143.1067  133.1621  151.6510 C   0  0  0  0  0  0  0  0  0  0  0  0
  143.8445  131.1459  151.7849 H   0  0  0  0  0  0  0  0  0  0  0  0
  145.3674  132.6337  153.5342 H   0  0  0  0  0  0  0  0  0  0  0  0
  143.9330  132.4727  147.8828 H   0  0  0  0  0  0  0  0  0  0  0  0
  145.1914  132.9982  148.9996 H   0  0  0  0  0  0  0  0  0  0  0  0
  143.5631  133.6929  149.0973 H   0  0  0  0  0  0  0  0  0  0  0  0
  146.1734  131.8443  151.4309 H   0  0  0  0  0  0  0  0  0  0  0  0
  145.6378  133.3035  150.5961 H   0  0  0  0  0  0  0  0  0  0  0  0
  147.3025  134.0781  152.9311 H   0  0  0  0  0  0  0  0  0  0  0  0
  146.2603  135.1655  152.0773 H   0  0  0  0  0  0  0  0  0  0  0  0
  146.2968  134.4638  156.0388 H   0  0  0  0  0  0  0  0  0  0  0  0
  145.1119  133.6254  155.0425 H   0  0  0  0  0  0  0  0  0  0  0  0
  144.6950  135.1763  155.7563 H   0  0  0  0  0  0  0  0  0  0  0  0
  146.1617  139.3313  152.4050 H   0  0  0  0  0  0  0  0  0  0  0  0
  148.9321  137.5290  157.9262 H   0  0  0  0  0  0  0  0  0  0  0  0
  148.6938  140.8051  155.8849 H   0  0  0  0  0  0  0  0  0  0  0  0
  148.2917  140.4884  157.5402 H   0  0  0  0  0  0  0  0  0  0  0  0
  150.5358  139.1077  157.5955 H   0  0  0  0  0  0  0  0  0  0  0  0
  150.7615  139.5468  154.9593 H   0  0  0  0  0  0  0  0  0  0  0  0
  151.5559  141.0112  155.4910 H   0  0  0  0  0  0  0  0  0  0  0  0
  152.3215  138.3872  155.9473 H   0  0  0  0  0  0  0  0  0  0  0  0
  150.0546  141.2948  158.8193 H   0  0  0  0  0  0  0  0  0  0  0  0
  151.5258  142.4502  156.4335 H   0  0  0  0  0  0  0  0  0  0  0  0
  150.0351  143.0589  157.1624 H   0  0  0  0  0  0  0  0  0  0  0  0
  152.4642  144.0486  157.9311 H   0  0  0  0  0  0  0  0  0  0  0  0
  151.1840  143.8040  159.1218 H   0  0  0  0  0  0  0  0  0  0  0  0
  152.1903  140.3120  159.4839 H   0  0  0  0  0  0  0  0  0  0  0  0
  152.8969  140.6571  157.9074 H   0  0  0  0  0  0  0  0  0  0  0  0
  143.9130  135.8023  152.1207 H   0  0  0  0  0  0  0  0  0  0  0  0
  143.9429  135.6087  153.8842 H   0  0  0  0  0  0  0  0  0  0  0  0
  142.4446  135.3799  152.9999 H   0  0  0  0  0  0  0  0  0  0  0  0
  142.9937  133.9010  150.8553 H   0  0  0  0  0  0  0  0  0  0  0  0
  142.1099  132.8189  151.9296 H   0  0  0  0  0  0  0  0  0  0  0  0
  143.4489  133.3264  153.6248 H   0  0  0  0  0  0  0  0  0  0  0  0
  1  2  1  0  0  0  0
  1 32  1  0  0  0  0
  1 33  1  0  0  0  0
  1 34  1  0  0  0  0
  2  3  1  0  0  0  0
  3 30  1  0  0  0  0
  3 29  1  0  0  0  0
  3  4  1  0  0  0  0
  4  5  1  0  0  0  0
  4 35  1  0  0  0  0
  4 36  1  0  0  0  0
  5 31  1  0  0  0  0
  5  6  1  0  0  0  0
  5 27  1  0  0  0  0
  6  7  1  0  0  0  0
  6 37  1  0  0  0  0
  6 38  1  0  0  0  0
  7  8  1  0  0  0  0
  7  9  1  0  0  0  0
  8 39  1  0  0  0  0
  8 40  1  0  0  0  0
  8 41  1  0  0  0  0
  9 14  1  0  0  0  0
  9 10  2  0  0  0  0
 10 11  1  0  0  0  0
 11 12  2  0  0  0  0
 11 42  1  0  0  0  0
 12 13  1  0  0  0  0
 13 17  1  0  0  0  0
 13 14  2  0  0  0  0
 14 15  1  0  0  0  0
 15 16  2  0  0  0  0
 16 17  1  0  0  0  0
 16 43  1  0  0  0  0
 17 18  1  0  0  0  0
 18 19  1  0  0  0  0
 18 44  1  0  0  0  0
 18 45  1  0  0  0  0
 19 20  1  0  0  0  0
 19 22  1  0  0  0  0
 19 46  1  0  0  0  0
 20 21  1  0  0  0  0
 20 47  1  0  0  0  0
 20 48  1  0  0  0  0
 21 49  1  0  0  0  0
 22 26  1  0  0  0  0
 22 23  1  0  0  0  0
 22 50  1  0  0  0  0
 23 24  1  0  0  0  0
 23 51  1  0  0  0  0
 23 52  1  0  0  0  0
 24 25  1  0  0  0  0
 24 53  1  0  0  0  0
 24 54  1  0  0  0  0
 25 26  1  0  0  0  0
 26 55  1  0  0  0  0
 26 56  1  0  0  0  0
 27 28  1  0  0  0  0
 27 29  1  0  0  0  0
 27 62  1  0  0  0  0
 28 57  1  0  0  0  0
 28 58  1  0  0  0  0
 28 59  1  0  0  0  0
 29 60  1  0  0  0  0
 29 61  1  0  0  0  0
M  CHG  1  27   1
M  END
> <s_m_source_file>
AV-unprocessed.smi

> <i_m_source_file_index>
21

> <i_lp_mmshare_version>
43012

> <i_f3d_flags>
0

> <s_epik_input>
W0NIM11PW0NASF0xW0NIMl1bQ0BIXShOKFtDSDNdKVtDSDJdMSlbQ0gyXU4oW0NIM10pYyhuW2NIXW4yKWMoYzIzKW5bY0hdbjNbQ0gyXVtDQEhdKFtDSDJdW09IXSlbQ0BASF00W0NIMl1bQ0gyXU9bQ0gyXTQ=

> <s_epik_cmdline>
J2VwaWtfcHl0aG9uJywgJy1waCcsICc3LjAnLCAnLXRuJywgJzgnLCAnLW1hJywgJzIwMCcsICctbWV0YWxfYmluZGluZycsICctaW1hZScsICc8aW5maWxlLm1hZT4nLCAnLW9tYWUnLCAnPG91dGZpbGUubWFlPic=

> <r_lp_tautomer_probability>
1

> <r_epik_Ionization_Penalty>
0.0157465

> <r_epik_Ionization_Penalty_Charging>
0.015354

> <r_epik_Ionization_Penalty_Neutral>
0.000392529

> <r_epik_State_Penalty>
0.0120612

> <r_epik_Charging_Adjusted_Penalty>
0.0274152

> <i_epik_Tot_Q>
1

> <i_epik_Tot_abs_Q>
1

> <r_epik_Metal_State_Penalty>
0.0121253

> <b_epik_Metal_Only>
0

> <s_lp_Force_Field>
OPLS_2005

> <r_lp_Energy>
60.5885

> <b_lp_Chiralities_Consistent>
1

> <s_lp_Variant>
AV-unprocessed.smi:21-21

> <Gold.Version>
5.8.1

> <Gold.Id.Protein>
6NUR|6NUR_protein|mol2

> <Gold.PLP.Fitness>
45.8206

> <Gold.PLP.PLP>
-35.8575

> <Gold.PLP.part.hbond>
-3.0000

> <Gold.PLP.part.metal>
0.0000

> <Gold.PLP.part.buried>
-6.4694

> <Gold.PLP.part.nonpolar>
-28.5462

> <Gold.PLP.part.repulsive>
0.5323

> <Gold.PLP.ligand.clash>
0.0000

> <Gold.PLP.ligand.torsion>
2.0290

> <Gold.PLP.Chemscore.Hbond>
3.7485

> <Gold.PLP.Chemscore.CHOScore>
0.7860

> <Gold.PLP.Chemscore.Metal>
0.0000

> <Gold.Chemscore.Hbonds>
donor molecule, donor type, donor heavy atom, donor atom, acceptor molecule, acceptor atom, score
      L1  H    27    62       P1 10957  1.69
      P1  H  7997  8008       L1    21  0.93
      P1  H 10785 10796       L1     2  0.88
      L1  C    11    42       P1 10175  0.41

> <Gold.PLP.Chemscore.Internal.Correction>
0.4176

> <Gold.Rescore>
     Score         DG    S(hbond)    S(metal)    S(lipo)     H(rot)  DE(clash)    DE(int)     intcor
     13.24     -16.83       2.44        0.00      94.67       3.08       0.22       3.36       ----

> <Gold.Chemscore.Fitness>
13.2444

> <Gold.Chemscore.DG>
-16.8288

> <Gold.Chemscore.ZeroCoef>
-5.4800

> <Gold.Chemscore.Hbond>
2.4392

> <Gold.Chemscore.Metal>
0.0000

> <Gold.Chemscore.Lipo>
94.6674

> <Gold.Chemscore.Internal_Hbond>
0.0000

> <Gold.Chemscore.DEClash>
0.2196

> <Gold.Chemscore.DEInternal>
3.3648

> <Gold.Chemscore.Rot>
3.0758

> <Gold.Chemscore.Internal.Correction>
   9.000000E+99

> <Gold.Chemscore.Hbonds>
donor molecule, donor type, donor heavy atom, donor atom, acceptor molecule, acceptor atom, score
      L1  H    27    62       P1 10957  0.80
      P1  H  7997  8008       L1    21  0.88
      P1  H 10785 10796       L1     2  0.63

> <Gold.Chemscore.Hbond.Weighted>
-8.1469

> <Gold.Chemscore.Metal.Weighted>
-0.0000

> <Gold.Chemscore.Lipo.Weighted>
-11.0761

> <Gold.Chemscore.Internal_Hbond.Weighted>
0.0000

> <Gold.Chemscore.DEClash.Weighted>
0.2196

> <Gold.Chemscore.DEInternal.Weighted>
3.3648

> <Gold.Chemscore.Rot.Weighted>
7.8741

> <Gold.Chemscore.Internal.Correction.Weighted>
   9.000000E+99

> <Gold.Protein.RotatedTorsions>
[ 6907 6896 6895 6894 ] final  159.35 input  -60.11 | X-H torsion
[ 7974 7965 7964 7962 ] final  -13.99 input  175.53 | X-H torsion
[ 8008 7997 7996 7995 ] final  -49.59 input   59.86 | X-H torsion
[ 10167 10162 10161 10158 ] final  -57.33 input  -65.29 | X-H torsion
[ 10718 10713 10712 10709 ] final  125.53 input   66.30 | X-H torsion
[ 10763 10752 10751 10750 ] final    0.29 input  -60.55 | X-H torsion
[ 11005 11000 10999 10996 ] final   34.69 input  -57.11 | X-H torsion

> <Gold.Protein.ActiveResidues>
 VAL166  LYS551  ARG553  GLY616  TRP617  ASP618  TYR619  PRO620  LYS621  CYS622 
 ASP623  PHE694  ASN695  SER759  ASP760  ASP761  ALA762  ILE779  LEU786  VAL792 
 PHE793  MET794  SER795  GLU796  ALA797  LYS798  CYS799  TRP800  GLU811  SER814 

> <Gold.Protein.RotatedAtoms>
  151.9868  133.3777  159.4128 H   0  0  0  0  0  0  0  0  0  0  0  0  # atno 6907 bound_to 6896
  150.6927  134.3979  159.5115 H   0  0  0  0  0  0  0  0  0  0  0  0  # atno 6908 bound_to 6896
  152.1707  134.8836  160.0585 H   0  0  0  0  0  0  0  0  0  0  0  0  # atno 6909 bound_to 6896
  146.2092  140.3283  142.8396 H   0  0  0  0  0  0  0  0  0  0  0  0  # atno 7974 bound_to 7965
  154.4047  140.1293  156.4528 H   0  0  0  0  0  0  0  0  0  0  0  0  # atno 8008 bound_to 7997
  155.7349  140.3491  155.5057 H   0  0  0  0  0  0  0  0  0  0  0  0  # atno 8009 bound_to 7997
  155.9093  140.1033  157.1282 H   0  0  0  0  0  0  0  0  0  0  0  0  # atno 8010 bound_to 7997
  140.6264  143.2440  151.5351 H   0  0  0  0  0  0  0  0  0  0  0  0  # atno 10167 bound_to 10162
  157.5495  131.1094  150.8725 H   0  0  0  0  0  0  0  0  0  0  0  0  # atno 10718 bound_to 10713
  153.3226  135.6970  153.7017 H   0  0  0  0  0  0  0  0  0  0  0  0  # atno 10763 bound_to 10752
  153.5851  135.3490  155.2890 H   0  0  0  0  0  0  0  0  0  0  0  0  # atno 10764 bound_to 10752
  154.8601  135.4304  154.2394 H   0  0  0  0  0  0  0  0  0  0  0  0  # atno 10765 bound_to 10752
  140.2502  134.3312  155.7893 H   0  0  0  0  0  0  0  0  0  0  0  0  # atno 11005 bound_to 11000
  144.8870  140.7475  143.5950 LP  0  0  0  0  0  0  0  0  0  0  0  0  # atno 17320 bound_to 7965
  145.3204  139.1790  143.4590 LP  0  0  0  0  0  0  0  0  0  0  0  0  # atno 17321 bound_to 7965
  139.5484  144.2459  152.1486 LP  0  0  0  0  0  0  0  0  0  0  0  0  # atno 17342 bound_to 10162
  140.1692  144.4952  150.6589 LP  0  0  0  0  0  0  0  0  0  0  0  0  # atno 17343 bound_to 10162
  156.9254  130.5330  149.5279 LP  0  0  0  0  0  0  0  0  0  0  0  0  # atno 17370 bound_to 10713
  156.0564  130.5625  150.9101 LP  0  0  0  0  0  0  0  0  0  0  0  0  # atno 17371 bound_to 10713
  141.2202  133.7349  156.9025 LP  0  0  0  0  0  0  0  0  0  0  0  0  # atno 17394 bound_to 11000
  140.1565  134.9194  157.2660 LP  0  0  0  0  0  0  0  0  0  0  0  0  # atno 17395 bound_to 11000

$$$$
