AV-unprocessed.smi:3176|AV-procd|sdf|12124|dock10
  -GOLD-   2272017563D 1   1.00000     0.00000
 Structure written by MMmdl.
 32 33  0  0  0  0  0  0  0  0  1 V2000
  153.9396  137.9519  160.1449 O   0  0  0  0  0  0  0  0  0  0  0  0
  154.4920  138.3656  161.1650 C   0  0  0  0  0  0  0  0  0  0  0  0
  154.6194  139.6695  161.4555 N   0  0  0  0  0  0  0  0  0  0  0  0
  154.1462  140.7638  160.6153 C   0  0  0  0  0  0  0  0  0  0  0  0
  153.1845  141.6897  161.3793 C   0  0  0  0  0  0  0  0  0  0  0  0
  152.7260  142.8642  160.5363 C   0  0  0  0  0  0  0  0  0  0  0  0
  153.1733  143.0123  159.2060 C   0  0  0  0  0  0  0  0  0  0  0  0
  152.7136  144.1163  158.4623 C   0  0  0  0  0  0  0  0  0  0  0  0
  151.8279  145.0242  159.0740 C   0  0  0  0  0  0  0  0  0  0  0  0
  151.4392  144.7865  160.4076 C   0  0  0  0  0  0  0  0  0  0  0  0
  151.8736  143.7307  161.1294 N   0  0  0  0  0  0  0  0  0  0  0  0
  155.0709  137.3793  162.1853 C   0  0  2  0  0  0  0  0  0  0  0  0
  154.0820  136.2785  162.6120 C   0  0  0  0  0  0  0  0  0  0  0  0
  153.7431  136.6347  164.0461 C   0  0  0  0  0  0  0  0  0  0  0  0
  155.0191  137.3258  164.5040 C   0  0  0  0  0  0  0  0  0  0  0  0
  155.3857  138.1022  163.3743 O   0  0  0  0  0  0  0  0  0  0  0  0
  155.0787  139.9210  162.3188 H   0  0  0  0  0  0  0  0  0  0  0  0
  154.9951  141.3303  160.2286 H   0  0  0  0  0  0  0  0  0  0  0  0
  153.6410  140.3324  159.7506 H   0  0  0  0  0  0  0  0  0  0  0  0
  152.3098  141.1281  161.7109 H   0  0  0  0  0  0  0  0  0  0  0  0
  153.6630  142.0696  162.2831 H   0  0  0  0  0  0  0  0  0  0  0  0
  153.8510  142.2966  158.7638 H   0  0  0  0  0  0  0  0  0  0  0  0
  153.0341  144.2630  157.4415 H   0  0  0  0  0  0  0  0  0  0  0  0
  151.4549  145.8819  158.5340 H   0  0  0  0  0  0  0  0  0  0  0  0
  150.7610  145.4621  160.9077 H   0  0  0  0  0  0  0  0  0  0  0  0
  155.9821  136.9229  161.7948 H   0  0  0  0  0  0  0  0  0  0  0  0
  153.1909  136.2118  161.9859 H   0  0  0  0  0  0  0  0  0  0  0  0
  154.5769  135.3073  162.5762 H   0  0  0  0  0  0  0  0  0  0  0  0
  152.9084  137.3367  164.0713 H   0  0  0  0  0  0  0  0  0  0  0  0
  153.4831  135.7676  164.6538 H   0  0  0  0  0  0  0  0  0  0  0  0
  154.8705  137.9458  165.3883 H   0  0  0  0  0  0  0  0  0  0  0  0
  155.8027  136.5971  164.7182 H   0  0  0  0  0  0  0  0  0  0  0  0
  1  2  2  0  0  0  0
  2  3  1  0  0  0  0
  2 12  1  0  0  0  0
  3  4  1  0  0  0  0
  3 17  1  0  0  0  0
  4  5  1  0  0  0  0
  4 18  1  0  0  0  0
  4 19  1  0  0  0  0
  5  6  1  0  0  0  0
  5 20  1  0  0  0  0
  5 21  1  0  0  0  0
  6 11  1  0  0  0  0
  6  7  2  0  0  0  0
  7  8  1  0  0  0  0
  7 22  1  0  0  0  0
  8  9  2  0  0  0  0
  8 23  1  0  0  0  0
  9 10  1  0  0  0  0
  9 24  1  0  0  0  0
 10 11  2  0  0  0  0
 10 25  1  0  0  0  0
 12 16  1  0  0  0  0
 12 13  1  0  0  0  0
 12 26  1  0  0  0  0
 13 14  1  0  0  0  0
 13 27  1  0  0  0  0
 13 28  1  0  0  0  0
 14 15  1  0  0  0  0
 14 29  1  0  0  0  0
 14 30  1  0  0  0  0
 15 16  1  0  0  0  0
 15 31  1  0  0  0  0
 15 32  1  0  0  0  0
M  END
> <s_m_source_file>
AV-unprocessed.smi

> <i_m_source_file_index>
3176

> <i_lp_mmshare_version>
43012

> <i_f3d_flags>
0

> <s_epik_input>
TzFbQ0gyXVtDSDJdW0NIMl1bQ0BIXTFDKD1PKVtOSF1bQ0gyXVtDSDJdYzJbY0hdW2NIXVtjSF1bY0hdbjI=

> <s_epik_cmdline>
J2VwaWtfcHl0aG9uJywgJy1waCcsICc3LjAnLCAnLXRuJywgJzgnLCAnLW1hJywgJzIwMCcsICctbWV0YWxfYmluZGluZycsICctaW1hZScsICc8aW5maWxlLm1hZT4nLCAnLW9tYWUnLCAnPG91dGZpbGUubWFlPic=

> <r_epik_Ionization_Penalty>
0.0282744

> <r_epik_Ionization_Penalty_Charging>
0

> <r_epik_Ionization_Penalty_Neutral>
0.0282744

> <r_epik_State_Penalty>
0.0231919

> <r_epik_Charging_Adjusted_Penalty>
0.0231919

> <i_epik_Tot_Q>
0

> <i_epik_Tot_abs_Q>
0

> <r_epik_Metal_State_Penalty>
0.02213

> <b_epik_Metal_Only>
0

> <s_lp_Force_Field>
OPLS_2005

> <r_lp_Energy>
16.3652

> <b_lp_Chiralities_Consistent>
1

> <s_lp_Variant>
AV-unprocessed.smi:3176-1

> <Gold.Version>
5.8.1

> <Gold.Id.Protein>
6NUR|6NUR_protein|mol2

> <Gold.PLP.Fitness>
41.9024

> <Gold.PLP.PLP>
-42.3147

> <Gold.PLP.part.hbond>
0.0000

> <Gold.PLP.part.metal>
0.0000

> <Gold.PLP.part.buried>
-5.5372

> <Gold.PLP.part.nonpolar>
-37.5190

> <Gold.PLP.part.repulsive>
0.1306

> <Gold.PLP.ligand.clash>
0.0000

> <Gold.PLP.ligand.torsion>
0.2140

> <Gold.PLP.Chemscore.Hbond>
0.0000

> <Gold.PLP.Chemscore.CHOScore>
0.0000

> <Gold.PLP.Chemscore.Metal>
0.0000

> <Gold.PLP.Chemscore.Internal.Correction>
0.0156

> <Gold.Rescore>
     Score         DG    S(hbond)    S(metal)    S(lipo)     H(rot)  DE(clash)    DE(int)     intcor
     15.26     -15.30       0.00        0.00     117.12       1.52       0.03       0.01       ----

> <Gold.Chemscore.Fitness>
15.2574

> <Gold.Chemscore.DG>
-15.3028

> <Gold.Chemscore.ZeroCoef>
-5.4800

> <Gold.Chemscore.Hbond>
0.0000

> <Gold.Chemscore.Metal>
0.0000

> <Gold.Chemscore.Lipo>
117.1234

> <Gold.Chemscore.Internal_Hbond>
0.0000

> <Gold.Chemscore.DEClash>
0.0320

> <Gold.Chemscore.DEInternal>
0.0134

> <Gold.Chemscore.Rot>
1.5159

> <Gold.Chemscore.Internal.Correction>
   9.000000E+99

> <Gold.Chemscore.Hbond.Weighted>
-0.0000

> <Gold.Chemscore.Metal.Weighted>
-0.0000

> <Gold.Chemscore.Lipo.Weighted>
-13.7034

> <Gold.Chemscore.Internal_Hbond.Weighted>
0.0000

> <Gold.Chemscore.DEClash.Weighted>
0.0320

> <Gold.Chemscore.DEInternal.Weighted>
0.0134

> <Gold.Chemscore.Rot.Weighted>
3.8807

> <Gold.Chemscore.Internal.Correction.Weighted>
   9.000000E+99

> <Gold.Protein.RotatedTorsions>
[ 6907 6896 6895 6894 ] final  -84.70 input  -60.11 | X-H torsion
[ 7974 7965 7964 7962 ] final  -73.99 input  175.53 | X-H torsion
[ 8008 7997 7996 7995 ] final   -6.70 input   59.86 | X-H torsion
[ 10167 10162 10161 10158 ] final   50.45 input  -65.29 | X-H torsion
[ 10718 10713 10712 10709 ] final   21.04 input   66.30 | X-H torsion
[ 10763 10752 10751 10750 ] final   89.24 input  -60.55 | X-H torsion
[ 11005 11000 10999 10996 ] final  151.89 input  -57.11 | X-H torsion

> <Gold.Protein.ActiveResidues>
 VAL166  LYS551  ARG553  GLY616  TRP617  ASP618  TYR619  PRO620  LYS621  CYS622 
 ASP623  PHE694  ASN695  SER759  ASP760  ASP761  ALA762  ILE779  LEU786  VAL792 
 PHE793  MET794  SER795  GLU796  ALA797  LYS798  CYS799  TRP800  GLU811  SER814 

> <Gold.Protein.RotatedAtoms>
  150.6874  134.3318  159.4829 H   0  0  0  0  0  0  0  0  0  0  0  0  # atno 6907 bound_to 6896
  152.1181  134.9223  160.0573 H   0  0  0  0  0  0  0  0  0  0  0  0  # atno 6908 bound_to 6896
  152.0439  133.3955  159.4385 H   0  0  0  0  0  0  0  0  0  0  0  0  # atno 6909 bound_to 6896
  145.6450  140.9300  143.1015 H   0  0  0  0  0  0  0  0  0  0  0  0  # atno 7974 bound_to 7965
  154.5911  140.2426  155.7919 H   0  0  0  0  0  0  0  0  0  0  0  0  # atno 8008 bound_to 7997
  156.2248  140.2986  155.9993 H   0  0  0  0  0  0  0  0  0  0  0  0  # atno 8009 bound_to 7997
  155.2372  140.0406  157.2960 H   0  0  0  0  0  0  0  0  0  0  0  0  # atno 8010 bound_to 7997
  140.2722  144.3252  150.6287 H   0  0  0  0  0  0  0  0  0  0  0  0  # atno 10167 bound_to 10162
  157.1328  130.6598  149.5957 H   0  0  0  0  0  0  0  0  0  0  0  0  # atno 10718 bound_to 10713
  153.1850  135.4477  155.0077 H   0  0  0  0  0  0  0  0  0  0  0  0  # atno 10763 bound_to 10752
  154.8055  135.3272  154.7445 H   0  0  0  0  0  0  0  0  0  0  0  0  # atno 10764 bound_to 10752
  153.7905  135.6970  153.4927 H   0  0  0  0  0  0  0  0  0  0  0  0  # atno 10765 bound_to 10752
  140.1258  134.8834  157.2136 H   0  0  0  0  0  0  0  0  0  0  0  0  # atno 11005 bound_to 11000
  144.7143  139.8253  143.7404 LP  0  0  0  0  0  0  0  0  0  0  0  0  # atno 17320 bound_to 7965
  146.1250  139.4274  143.0204 LP  0  0  0  0  0  0  0  0  0  0  0  0  # atno 17321 bound_to 7965
  140.5880  143.2169  151.7306 LP  0  0  0  0  0  0  0  0  0  0  0  0  # atno 17342 bound_to 10162
  139.4985  144.3982  152.0209 LP  0  0  0  0  0  0  0  0  0  0  0  0  # atno 17343 bound_to 10162
  155.9804  130.4805  150.6772 LP  0  0  0  0  0  0  0  0  0  0  0  0  # atno 17370 bound_to 10713
  157.4377  131.0857  151.0975 LP  0  0  0  0  0  0  0  0  0  0  0  0  # atno 17371 bound_to 10713
  140.2905  134.3246  155.7316 LP  0  0  0  0  0  0  0  0  0  0  0  0  # atno 17394 bound_to 11000
  141.2161  133.7532  156.9496 LP  0  0  0  0  0  0  0  0  0  0  0  0  # atno 17395 bound_to 11000

$$$$
