#       Name:                AV-unprocessed.smi:2573
#       Creating user name   scv26
#       Creation time:       Fri Mar 27 14:13:21 2020


#       File generated by GOLD software.
#

@<TRIPOS>MOLECULE
AV-unprocessed.smi:2573
    42    43     1
SMALL
NO_CHARGES


@<TRIPOS>ATOM
      1 ****        -4.3742   2.6489   1.3498 C.3            1 S1                 0.0000
      2 ****        -3.0731   1.8533   1.4965 C.3            1 S1                 0.0000
      3 ****        -2.4518   1.4882   0.1394 C.3            1 S1                 0.0000
      4 ****        -1.2314   0.7037   0.3098 N.am           1 S1                 0.0000
      5 ****         0.0316   1.1828   0.3978 C.2            1 S1                 0.0000
      6 ****         0.3612   2.3673   0.3412 O.2            1 S1                 0.0000
      7 ****         0.8699   0.1323   0.5641 N.am           1 S1                 0.0000
      8 ****         2.3238   0.1989   0.7134 C.3            1 S1                 0.0000
      9 ****         3.0450   0.4317  -0.6303 C.3            1 S1                 0.0000
     10 ****         4.4132   0.6340  -0.3407 O.3            1 S1                 0.0000
     11 ****         2.8903  -0.7437  -1.6210 C.3            1 S1                 0.0000
     12 ****         3.4291  -0.4667  -3.0360 C.3            1 S1                 0.0000
     13 ****         3.1947  -1.5297  -3.8046 F              1 S1                 0.0000
     14 ****         2.8103   0.5867  -3.5689 F              1 S1                 0.0000
     15 ****         4.7427  -0.2415  -3.0179 F              1 S1                 0.0000
     16 ****         0.1191  -1.0530   0.5949 C.ar           1 S1                 0.0000
     17 ****         0.5101  -2.3956   0.7431 C.ar           1 S1                 0.0000
     18 ****        -0.5124  -3.3729   0.7297 C.ar           1 S1                 0.0000
     19 ****        -1.8726  -3.0001   0.5737 C.ar           1 S1                 0.0000
     20 ****        -2.2388  -1.6422   0.4238 C.ar           1 S1                 0.0000
     21 ****        -1.2027  -0.6921   0.4367 C.ar           1 S1                 0.0000
     22 ****        -4.7929   2.8927   2.3264 H              1 S1                 0.0000
     23 ****        -5.1234   2.0790   0.7998 H              1 S1                 0.0000
     24 ****        -4.2056   3.5847   0.8166 H              1 S1                 0.0000
     25 ****        -2.3606   2.4353   2.0825 H              1 S1                 0.0000
     26 ****        -3.2720   0.9448   2.0664 H              1 S1                 0.0000
     27 ****        -3.1643   0.9231  -0.4622 H              1 S1                 0.0000
     28 ****        -2.2321   2.3945  -0.4273 H              1 S1                 0.0000
     29 ****         2.5577   1.0128   1.4020 H              1 S1                 0.0000
     30 ****         2.6971  -0.7067   1.1919 H              1 S1                 0.0000
     31 ****         2.6655   1.3465  -1.0865 H              1 S1                 0.0000
     32 ****         4.8652   0.8355  -1.1462 H              1 S1                 0.0000
     33 ****         3.3678  -1.6351  -1.2116 H              1 S1                 0.0000
     34 ****         1.8332  -0.9910  -1.7192 H              1 S1                 0.0000
     35 ****         1.5460  -2.6771   0.8596 H              1 S1                 0.0000
     36 ****        -0.2545  -4.4158   0.8402 H              1 S1                 0.0000
     37 ****        -2.6378  -3.7623   0.5680 H              1 S1                 0.0000
     38 ****        -3.2723  -1.3527   0.3046 H              1 S1                 0.0000
     39 ****        -0.3350   3.0748   0.2197 LP             1 S1                 0.0000
     40 ****         1.3252   2.6222   0.4167 LP             1 S1                 0.0000
     41 ****         4.7983  -0.1957   0.0633 LP             1 S1                 0.0000
     42 ****         4.5129   1.3945   0.3010 LP             1 S1                 0.0000
@<TRIPOS>BOND
    1    1    2 1     
    2    1   22 1     
    3    1   23 1     
    4    1   24 1     
    5    2    3 1     
    6    2   25 1     
    7    2   26 1     
    8    3    4 1     
    9    3   27 1     
   10    3   28 1     
   11    4   21 1     
   12    4    5 am    
   13    5    6 2     
   14    5    7 am    
   15    7    8 1     
   16    7   16 1     
   17    8    9 1     
   18    8   29 1     
   19    8   30 1     
   20    9   10 1     
   21    9   11 1     
   22    9   31 1     
   23   10   32 1     
   24   11   12 1     
   25   11   33 1     
   26   11   34 1     
   27   12   13 1     
   28   12   14 1     
   29   12   15 1     
   30   16   21 ar    
   31   16   17 ar    
   32   17   18 ar    
   33   17   35 1     
   34   18   19 ar    
   35   18   36 1     
   36   19   20 ar    
   37   19   37 1     
   38   20   21 ar    
   39   20   38 1     
   40    6   39 1     
   41    6   40 1     
   42   10   41 1     
   43   10   42 1     
@<TRIPOS>SUBSTRUCTURE
      1 S1             1
@<TRIPOS>SET
LONE_PAIRS      STATIC     ATOMS    <user>   **** ""
4 39 40 41 42
DONOR_HYDROGENS      STATIC     ATOMS    <user>   **** ""
1 32
ATOM$BLUE        STATIC     ATOMS    COLORGROUP SYSTEM
4 39 40 41 42
ATOM$RED        STATIC     ATOMS    COLORGROUP SYSTEM
1 32
