AV-unprocessed.smi:113|AV-procd|sdf|1105|dock1
  -GOLD-   2262018213D 1   1.00000     0.00000
 Structure written by MMmdl.
 53 56  0  0  0  0  0  0  0  0  2 V2000
  149.0763  141.6561  153.9725 C   0  0  0  0  0  0  0  0  0  0  0  0
  149.8718  141.4268  155.2401 C   0  0  0  0  0  0  0  0  0  0  0  0
  150.2304  140.1380  155.6803 C   0  0  0  0  0  0  0  0  0  0  0  0
  150.9792  139.9808  156.8731 C   0  0  0  0  0  0  0  0  0  0  0  0
  151.3838  138.5911  157.3769 C   0  0  0  0  0  0  0  0  0  0  0  0
  150.3310  137.5886  157.4618 N   0  0  0  0  0  0  0  0  0  0  0  0
  149.8873  136.9925  156.2564 C   0  0  0  0  0  0  0  0  0  0  0  0
  150.3716  137.3058  155.1668 O   0  0  0  0  0  0  0  0  0  0  0  0
  148.8449  135.9752  156.4122 C   0  0  0  0  0  0  0  0  0  0  0  0
  148.3212  135.2881  155.1608 C   0  0  0  0  0  0  0  0  0  0  0  0
  148.3819  135.6705  157.6486 C   0  0  0  0  0  0  0  0  0  0  0  0
  148.8293  136.2730  158.8111 N   0  0  0  0  0  0  0  0  0  0  0  0
  148.2848  135.8171  160.1469 C   0  0  2  0  0  0  0  0  0  0  0  0
  147.3854  134.5717  160.0551 C   0  0  0  0  0  0  0  0  0  0  0  0
  146.1532  134.9666  160.8629 C   0  0  2  0  0  0  0  0  0  0  0  0
  145.0353  135.1334  160.0119 O   0  0  0  0  0  0  0  0  0  0  0  0
  146.5686  136.2728  161.5647 C   0  0  2  0  0  0  0  0  0  0  0  0
  145.4518  137.2799  161.8924 C   0  0  0  0  0  0  0  0  0  0  0  0
  144.9619  137.8737  160.7089 O   0  0  0  0  0  0  0  0  0  0  0  0
  147.5243  136.8489  160.6884 O   0  0  0  0  0  0  0  0  0  0  0  0
  149.8557  137.2406  158.7458 C   0  0  0  0  0  0  0  0  0  0  0  0
  150.3288  137.7418  159.7677 O   0  0  0  0  0  0  0  0  0  0  0  0
  151.3500  141.1487  157.5950 C   0  0  0  0  0  0  0  0  0  0  0  0
  152.1003  141.0880  158.7940 C   0  0  0  0  0  0  0  0  0  0  0  0
  152.4472  142.2679  159.4813 C   0  0  0  0  0  0  0  0  0  0  0  0
  152.0509  143.5229  158.9829 C   0  0  0  0  0  0  0  0  0  0  0  0
  151.3055  143.6017  157.7918 C   0  0  0  0  0  0  0  0  0  0  0  0
  150.9582  142.4228  157.1022 C   0  0  0  0  0  0  0  0  0  0  0  0
  150.2451  142.5048  155.9590 N   0  3  0  0  0  0  0  0  0  0  0  0
  148.6778  140.7185  153.5839 H   0  0  0  0  0  0  0  0  0  0  0  0
  149.7094  142.1021  153.2051 H   0  0  0  0  0  0  0  0  0  0  0  0
  148.2385  142.3278  154.1619 H   0  0  0  0  0  0  0  0  0  0  0  0
  149.9266  139.2836  155.0942 H   0  0  0  0  0  0  0  0  0  0  0  0
  152.1751  138.1793  156.7481 H   0  0  0  0  0  0  0  0  0  0  0  0
  151.8390  138.6665  158.3656 H   0  0  0  0  0  0  0  0  0  0  0  0
  147.5480  134.5550  155.3930 H   0  0  0  0  0  0  0  0  0  0  0  0
  149.1288  134.7681  154.6443 H   0  0  0  0  0  0  0  0  0  0  0  0
  147.8908  136.0197  154.4757 H   0  0  0  0  0  0  0  0  0  0  0  0
  147.6162  134.9119  157.7276 H   0  0  0  0  0  0  0  0  0  0  0  0
  149.1481  135.6432  160.7906 H   0  0  0  0  0  0  0  0  0  0  0  0
  147.1533  134.3028  159.0239 H   0  0  0  0  0  0  0  0  0  0  0  0
  147.9093  133.7305  160.5099 H   0  0  0  0  0  0  0  0  0  0  0  0
  145.8983  134.2001  161.5953 H   0  0  0  0  0  0  0  0  0  0  0  0
  145.0242  136.0269  159.7034 H   0  0  0  0  0  0  0  0  0  0  0  0
  147.1007  136.0195  162.4839 H   0  0  0  0  0  0  0  0  0  0  0  0
  144.6248  136.7693  162.3862 H   0  0  0  0  0  0  0  0  0  0  0  0
  145.7982  138.0532  162.5783 H   0  0  0  0  0  0  0  0  0  0  0  0
  144.0444  137.6640  160.6239 H   0  0  0  0  0  0  0  0  0  0  0  0
  152.4225  140.1442  159.2067 H   0  0  0  0  0  0  0  0  0  0  0  0
  153.0204  142.2087  160.3950 H   0  0  0  0  0  0  0  0  0  0  0  0
  152.3195  144.4246  159.5139 H   0  0  0  0  0  0  0  0  0  0  0  0
  151.0047  144.5680  157.4134 H   0  0  0  0  0  0  0  0  0  0  0  0
  149.9755  143.4286  155.6215 H   0  0  0  0  0  0  0  0  0  0  0  0
  1  2  1  0  0  0  0
  1 30  1  0  0  0  0
  1 31  1  0  0  0  0
  1 32  1  0  0  0  0
  2 29  1  0  0  0  0
  2  3  2  0  0  0  0
  3  4  1  0  0  0  0
  3 33  1  0  0  0  0
  4  5  1  0  0  0  0
  4 23  2  0  0  0  0
  5  6  1  0  0  0  0
  5 34  1  0  0  0  0
  5 35  1  0  0  0  0
  6 21  1  0  0  0  0
  6  7  1  0  0  0  0
  7  8  2  0  0  0  0
  7  9  1  0  0  0  0
  9 10  1  0  0  0  0
  9 11  2  0  0  0  0
 10 36  1  0  0  0  0
 10 37  1  0  0  0  0
 10 38  1  0  0  0  0
 11 12  1  0  0  0  0
 11 39  1  0  0  0  0
 12 13  1  0  0  0  0
 12 21  1  0  0  0  0
 13 20  1  0  0  0  0
 13 14  1  0  0  0  0
 13 40  1  0  0  0  0
 14 15  1  0  0  0  0
 14 41  1  0  0  0  0
 14 42  1  0  0  0  0
 15 16  1  0  0  0  0
 15 17  1  0  0  0  0
 15 43  1  0  0  0  0
 16 44  1  0  0  0  0
 17 18  1  0  0  0  0
 17 20  1  0  0  0  0
 17 45  1  0  0  0  0
 18 19  1  0  0  0  0
 18 46  1  0  0  0  0
 18 47  1  0  0  0  0
 19 48  1  0  0  0  0
 21 22  2  0  0  0  0
 23 28  1  0  0  0  0
 23 24  1  0  0  0  0
 24 25  2  0  0  0  0
 24 49  1  0  0  0  0
 25 26  1  0  0  0  0
 25 50  1  0  0  0  0
 26 27  2  0  0  0  0
 26 51  1  0  0  0  0
 27 28  1  0  0  0  0
 27 52  1  0  0  0  0
 28 29  2  0  0  0  0
 29 53  1  0  0  0  0
M  CHG  1  29   1
M  END
> <s_m_source_file>
AV-unprocessed.smi

> <i_m_source_file_index>
113

> <i_lp_mmshare_version>
43012

> <i_f3d_flags>
0

> <s_epik_input>
W2NIXTFbY0hdW2NIXVtjSF1jKGMxMiluYyhbQ0gzXSlbY0hdYzJbQ0gyXW4zYyg9TyljKFtDSDNdKVtjSF1uKGMzPU8pW0NAQEhdNFtDSDJdW0NAQEhdKFtPSF0pW0NASF0oTzQpW0NIMl1bT0hd

> <s_epik_cmdline>
J2VwaWtfcHl0aG9uJywgJy1waCcsICc3LjAnLCAnLXRuJywgJzgnLCAnLW1hJywgJzIwMCcsICctbWV0YWxfYmluZGluZycsICctaW1hZScsICc8aW5maWxlLm1hZT4nLCAnLW9tYWUnLCAnPG91dGZpbGUubWFlPic=

> <r_lp_tautomer_probability>
1

> <r_epik_Ionization_Penalty>
0.705471

> <r_epik_Ionization_Penalty_Charging>
0.70547

> <r_epik_Ionization_Penalty_Neutral>
1.19947e-07

> <r_epik_State_Penalty>
0.728574

> <r_epik_Charging_Adjusted_Penalty>
1.43404

> <i_epik_Tot_Q>
1

> <i_epik_Tot_abs_Q>
1

> <r_epik_Metal_State_Penalty>
4.61665

> <b_epik_Metal_Only>
0

> <s_epik_Chemistry_Notes>
This compound contains an acetal/aminal-like group ( X-CH(R)-Y where X, Y are N, S, or O) that may be acid/base labile, releasing an aldehyde.

> <s_lp_Force_Field>
OPLS_2005

> <r_lp_Energy>
39.3678

> <b_lp_Chiralities_Consistent>
1

> <s_lp_Variant>
AV-unprocessed.smi:113-15

> <Gold.Version>
5.8.1

> <Gold.Id.Protein>
6NUR|6NUR_protein|mol2

> <Gold.PLP.Fitness>
55.7672

> <Gold.PLP.PLP>
-45.3162

> <Gold.PLP.part.hbond>
-5.0000

> <Gold.PLP.part.metal>
0.0000

> <Gold.PLP.part.buried>
-2.4391

> <Gold.PLP.part.nonpolar>
-38.8128

> <Gold.PLP.part.repulsive>
0.2457

> <Gold.PLP.ligand.clash>
0.0000

> <Gold.PLP.ligand.torsion>
0.5144

> <Gold.PLP.Chemscore.Hbond>
3.8112

> <Gold.PLP.Chemscore.CHOScore>
0.0000

> <Gold.PLP.Chemscore.Metal>
0.0000

> <Gold.Chemscore.Hbonds>
donor molecule, donor type, donor heavy atom, donor atom, acceptor molecule, acceptor atom, score
      L1  H    29    53       P1  8028  1.98
      P1  H  6931  6943       L1    20  0.09
      P1  H  6934  6947       L1    20  0.55

> <Gold.PLP.Chemscore.Internal.Correction>
0.0462

> <Gold.Rescore>
     Score         DG    S(hbond)    S(metal)    S(lipo)     H(rot)  DE(clash)    DE(int)     intcor
     16.41     -18.42       1.88        0.00     122.93       3.01       0.12       1.88       ----

> <Gold.Chemscore.Fitness>
16.4110

> <Gold.Chemscore.DG>
-18.4172

> <Gold.Chemscore.ZeroCoef>
-5.4800

> <Gold.Chemscore.Hbond>
1.8758

> <Gold.Chemscore.Metal>
0.0000

> <Gold.Chemscore.Lipo>
122.9301

> <Gold.Chemscore.Internal_Hbond>
0.0000

> <Gold.Chemscore.DEClash>
0.1223

> <Gold.Chemscore.DEInternal>
1.8838

> <Gold.Chemscore.Rot>
3.0120

> <Gold.Chemscore.Internal.Correction>
   9.000000E+99

> <Gold.Chemscore.Hbonds>
donor molecule, donor type, donor heavy atom, donor atom, acceptor molecule, acceptor atom, score
      L1  H    29    53       P1  8028  0.94
      P1  H  6931  6943       L1    20  0.05
      P1  H  6934  6947       L1    20  0.21

> <Gold.Chemscore.Hbond.Weighted>
-6.2651

> <Gold.Chemscore.Metal.Weighted>
-0.0000

> <Gold.Chemscore.Lipo.Weighted>
-14.3828

> <Gold.Chemscore.Internal_Hbond.Weighted>
0.0000

> <Gold.Chemscore.DEClash.Weighted>
0.1223

> <Gold.Chemscore.DEInternal.Weighted>
1.8838

> <Gold.Chemscore.Rot.Weighted>
7.7108

> <Gold.Chemscore.Internal.Correction.Weighted>
   9.000000E+99

> <Gold.Protein.RotatedTorsions>
[ 6907 6896 6895 6894 ] final   93.23 input  -60.11 | X-H torsion
[ 7974 7965 7964 7962 ] final  128.03 input  175.53 | X-H torsion
[ 8008 7997 7996 7995 ] final -172.23 input   59.86 | X-H torsion
[ 10167 10162 10161 10158 ] final   69.72 input  -65.29 | X-H torsion
[ 10718 10713 10712 10709 ] final   24.63 input   66.30 | X-H torsion
[ 10763 10752 10751 10750 ] final   91.66 input  -60.55 | X-H torsion
[ 11005 11000 10999 10996 ] final -173.61 input  -57.11 | X-H torsion

> <Gold.Protein.ActiveResidues>
 VAL166  LYS551  ARG553  GLY616  TRP617  ASP618  TYR619  PRO620  LYS621  CYS622 
 ASP623  PHE694  ASN695  SER759  ASP760  ASP761  ALA762  ILE779  LEU786  VAL792 
 PHE793  MET794  SER795  GLU796  ALA797  LYS798  CYS799  TRP800  GLU811  SER814 

> <Gold.Protein.RotatedAtoms>
  152.5452  134.1379  159.8466 H   0  0  0  0  0  0  0  0  0  0  0  0  # atno 6907 bound_to 6896
  151.1418  133.4959  159.2604 H   0  0  0  0  0  0  0  0  0  0  0  0  # atno 6908 bound_to 6896
  151.1565  135.0263  159.8746 H   0  0  0  0  0  0  0  0  0  0  0  0  # atno 6909 bound_to 6896
  145.0441  139.3938  143.5087 H   0  0  0  0  0  0  0  0  0  0  0  0  # atno 7974 bound_to 7965
  155.9418  140.1110  157.1049 H   0  0  0  0  0  0  0  0  0  0  0  0  # atno 8008 bound_to 7997
  154.4091  140.1217  156.5003 H   0  0  0  0  0  0  0  0  0  0  0  0  # atno 8009 bound_to 7997
  155.6952  140.3472  155.4912 H   0  0  0  0  0  0  0  0  0  0  0  0  # atno 8010 bound_to 7997
  140.0648  144.5202  150.7269 H   0  0  0  0  0  0  0  0  0  0  0  0  # atno 10167 bound_to 10162
  157.1824  130.6809  149.6118 H   0  0  0  0  0  0  0  0  0  0  0  0  # atno 10718 bound_to 10713
  153.2107  135.4389  155.0376 H   0  0  0  0  0  0  0  0  0  0  0  0  # atno 10763 bound_to 10752
  154.8198  135.3332  154.7073 H   0  0  0  0  0  0  0  0  0  0  0  0  # atno 10764 bound_to 10752
  153.7512  135.6998  153.5001 H   0  0  0  0  0  0  0  0  0  0  0  0  # atno 10765 bound_to 10752
  140.4838  134.6050  157.4929 H   0  0  0  0  0  0  0  0  0  0  0  0  # atno 11005 bound_to 11000
  146.3512  140.0057  142.8672 LP  0  0  0  0  0  0  0  0  0  0  0  0  # atno 17320 bound_to 7965
  145.1610  140.9673  143.4377 LP  0  0  0  0  0  0  0  0  0  0  0  0  # atno 17321 bound_to 7965
  140.7154  143.2540  151.4449 LP  0  0  0  0  0  0  0  0  0  0  0  0  # atno 17342 bound_to 10162
  139.5872  144.1579  152.2043 LP  0  0  0  0  0  0  0  0  0  0  0  0  # atno 17343 bound_to 10162
  155.9722  130.4642  150.6210 LP  0  0  0  0  0  0  0  0  0  0  0  0  # atno 17370 bound_to 10713
  157.3940  131.0800  151.1369 LP  0  0  0  0  0  0  0  0  0  0  0  0  # atno 17371 bound_to 10713
  139.9810  134.7137  155.9860 LP  0  0  0  0  0  0  0  0  0  0  0  0  # atno 17394 bound_to 11000
  141.1518  133.6547  156.4036 LP  0  0  0  0  0  0  0  0  0  0  0  0  # atno 17395 bound_to 11000

$$$$
