AV-unprocessed.smi:1047|AV-procd|sdf|4588|dock1
  -GOLD-   22720 3 63D 1   1.00000     0.00000
 Structure written by MMmdl.
 57 59  0  0  0  0  0  0  0  0  3 V2000
  149.5175  129.9102  154.6995 C   0  0  0  0  0  0  0  0  0  0  0  0
  148.4909  130.5144  153.7306 C   0  0  0  0  0  0  0  0  0  0  0  0
  148.1531  131.9145  153.9826 N   0  0  0  0  0  0  0  0  0  0  0  0
  147.2455  132.0771  155.1155 C   0  0  0  0  0  0  0  0  0  0  0  0
  146.9284  133.5572  155.3871 C   0  0  0  0  0  0  0  0  0  0  0  0
  148.1401  134.2788  155.5851 O   0  0  0  0  0  0  0  0  0  0  0  0
  149.0297  134.1922  154.4743 C   0  0  1  0  0  0  0  0  0  0  0  0
  150.2877  135.0050  154.8090 C   0  0  0  0  0  0  0  0  0  0  0  0
  150.0401  136.4533  154.6658 N   0  3  0  0  0  0  0  0  0  0  0  0
  151.1488  137.2999  155.1499 C   0  0  0  0  0  0  0  0  0  0  0  0
  150.7176  138.7715  155.3061 C   0  0  2  0  0  0  0  0  0  0  0  0
  150.4369  139.3105  154.0300 O   0  0  0  0  0  0  0  0  0  0  0  0
  151.7905  139.6707  155.9542 C   0  0  0  0  0  0  0  0  0  0  0  0
  151.2674  140.9733  156.3917 N   0  0  0  0  0  0  0  0  0  0  0  0
  150.3773  141.7985  155.7758 C   0  0  0  0  0  0  0  0  0  0  0  0
  150.2164  142.8946  156.5674 N   0  3  0  0  0  0  0  0  0  0  0  0
  151.0192  142.7718  157.7030 C   0  0  0  0  0  0  0  0  0  0  0  0
  151.1956  143.6230  158.7876 C   0  0  0  0  0  0  0  0  0  0  0  0
  152.0926  143.2051  159.7964 C   0  0  0  0  0  0  0  0  0  0  0  0
  152.3059  144.1107  160.9977 C   0  0  0  0  0  0  0  0  0  0  0  0
  152.7803  141.9684  159.6945 C   0  0  0  0  0  0  0  0  0  0  0  0
  153.7421  141.5285  160.7852 C   0  0  0  0  0  0  0  0  0  0  0  0
  152.5875  141.1169  158.5830 C   0  0  0  0  0  0  0  0  0  0  0  0
  151.6995  141.5425  157.5971 C   0  0  0  0  0  0  0  0  0  0  0  0
  149.3547  132.7065  154.2206 C   0  0  0  0  0  0  0  0  0  0  0  0
  149.6285  128.8407  154.5200 H   0  0  0  0  0  0  0  0  0  0  0  0
  149.2056  130.0407  155.7360 H   0  0  0  0  0  0  0  0  0  0  0  0
  150.5031  130.3604  154.5820 H   0  0  0  0  0  0  0  0  0  0  0  0
  148.8456  130.3955  152.7056 H   0  0  0  0  0  0  0  0  0  0  0  0
  147.5821  129.9157  153.8043 H   0  0  0  0  0  0  0  0  0  0  0  0
  146.3103  131.5496  154.9303 H   0  0  0  0  0  0  0  0  0  0  0  0
  147.6851  131.6315  156.0094 H   0  0  0  0  0  0  0  0  0  0  0  0
  146.3701  133.9910  154.5561 H   0  0  0  0  0  0  0  0  0  0  0  0
  146.3062  133.6540  156.2766 H   0  0  0  0  0  0  0  0  0  0  0  0
  148.5494  134.6139  153.5893 H   0  0  0  0  0  0  0  0  0  0  0  0
  150.6173  134.7844  155.8253 H   0  0  0  0  0  0  0  0  0  0  0  0
  151.1011  134.7241  154.1385 H   0  0  0  0  0  0  0  0  0  0  0  0
  149.8782  136.6576  153.6900 H   0  0  0  0  0  0  0  0  0  0  0  0
  151.4676  136.8997  156.1124 H   0  0  0  0  0  0  0  0  0  0  0  0
  152.0007  137.2198  154.4730 H   0  0  0  0  0  0  0  0  0  0  0  0
  149.8076  138.8242  155.9056 H   0  0  0  0  0  0  0  0  0  0  0  0
  149.5937  139.7365  154.0523 H   0  0  0  0  0  0  0  0  0  0  0  0
  152.2703  139.1706  156.7956 H   0  0  0  0  0  0  0  0  0  0  0  0
  152.5842  139.8763  155.2343 H   0  0  0  0  0  0  0  0  0  0  0  0
  149.8884  141.6183  154.8289 H   0  0  0  0  0  0  0  0  0  0  0  0
  150.6693  144.5638  158.8580 H   0  0  0  0  0  0  0  0  0  0  0  0
  152.0627  143.5857  161.9219 H   0  0  0  0  0  0  0  0  0  0  0  0
  151.6757  144.9993  160.9453 H   0  0  0  0  0  0  0  0  0  0  0  0
  153.3440  144.4403  161.0486 H   0  0  0  0  0  0  0  0  0  0  0  0
  154.2247  140.5832  160.5350 H   0  0  0  0  0  0  0  0  0  0  0  0
  153.2128  141.3935  161.7289 H   0  0  0  0  0  0  0  0  0  0  0  0
  154.5259  142.2724  160.9304 H   0  0  0  0  0  0  0  0  0  0  0  0
  153.1113  140.1752  158.5124 H   0  0  0  0  0  0  0  0  0  0  0  0
  149.8985  132.3022  155.0763 H   0  0  0  0  0  0  0  0  0  0  0  0
  150.0228  132.6260  153.3623 H   0  0  0  0  0  0  0  0  0  0  0  0
  149.2064  136.6851  155.1871 H   0  0  0  0  0  0  0  0  0  0  0  0
  149.6063  143.6710  156.3445 H   0  0  0  0  0  0  0  0  0  0  0  0
  1  2  1  0  0  0  0
  1 26  1  0  0  0  0
  1 27  1  0  0  0  0
  1 28  1  0  0  0  0
  2  3  1  0  0  0  0
  2 29  1  0  0  0  0
  2 30  1  0  0  0  0
  3 25  1  0  0  0  0
  3  4  1  0  0  0  0
  4  5  1  0  0  0  0
  4 31  1  0  0  0  0
  4 32  1  0  0  0  0
  5  6  1  0  0  0  0
  5 33  1  0  0  0  0
  5 34  1  0  0  0  0
  6  7  1  0  0  0  0
  7  8  1  0  0  0  0
  7 25  1  0  0  0  0
  7 35  1  0  0  0  0
  8  9  1  0  0  0  0
  8 36  1  0  0  0  0
  8 37  1  0  0  0  0
  9 10  1  0  0  0  0
  9 38  1  0  0  0  0
  9 56  1  0  0  0  0
 10 11  1  0  0  0  0
 10 39  1  0  0  0  0
 10 40  1  0  0  0  0
 11 12  1  0  0  0  0
 11 13  1  0  0  0  0
 11 41  1  0  0  0  0
 12 42  1  0  0  0  0
 13 14  1  0  0  0  0
 13 43  1  0  0  0  0
 13 44  1  0  0  0  0
 14 24  1  0  0  0  0
 14 15  1  0  0  0  0
 15 16  2  0  0  0  0
 15 45  1  0  0  0  0
 16 17  1  0  0  0  0
 16 57  1  0  0  0  0
 17 24  2  0  0  0  0
 17 18  1  0  0  0  0
 18 19  2  0  0  0  0
 18 46  1  0  0  0  0
 19 20  1  0  0  0  0
 19 21  1  0  0  0  0
 20 47  1  0  0  0  0
 20 48  1  0  0  0  0
 20 49  1  0  0  0  0
 21 22  1  0  0  0  0
 21 23  2  0  0  0  0
 22 50  1  0  0  0  0
 22 51  1  0  0  0  0
 22 52  1  0  0  0  0
 23 24  1  0  0  0  0
 23 53  1  0  0  0  0
 25 54  1  0  0  0  0
 25 55  1  0  0  0  0
M  CHG  1   9   1
M  CHG  1  16   1
M  END
> <s_m_source_file>
AV-unprocessed.smi

> <i_m_source_file_index>
1047

> <i_lp_mmshare_version>
43012

> <i_f3d_flags>
0

> <s_epik_input>
W0NIM11bQ0gyXU4xW0NIMl1bQ0gyXU9bQ0BIXShbQ0gyXTEpW0NIMl1bTkhdW0NIMl1bQ0BIXShbT0hdKVtDSDJdbihbY0hdbjIpYyhjMjMpW2NIXWMoW0NIM10pYyhbY0hdMylbQ0gzXQ==

> <s_epik_cmdline>
J2VwaWtfcHl0aG9uJywgJy1waCcsICc3LjAnLCAnLXRuJywgJzgnLCAnLW1hJywgJzIwMCcsICctbWV0YWxfYmluZGluZycsICctaW1hZScsICc8aW5maWxlLm1hZT4nLCAnLW9tYWUnLCAnPG91dGZpbGUubWFlPic=

> <r_epik_Ionization_Penalty>
1.75732

> <r_epik_Ionization_Penalty_Charging>
1.18089

> <r_epik_Ionization_Penalty_Neutral>
0.576429

> <r_epik_State_Penalty>
1.69377

> <r_epik_Charging_Adjusted_Penalty>
2.87466

> <i_epik_Tot_Q>
2

> <i_epik_Tot_abs_Q>
2

> <r_epik_Metal_State_Penalty>
5.70174

> <b_epik_Metal_Only>
0

> <s_lp_Force_Field>
OPLS_2005

> <r_lp_Energy>
42.0789

> <b_lp_Chiralities_Consistent>
1

> <s_lp_Variant>
AV-unprocessed.smi:1047-29

> <Gold.Version>
5.8.1

> <Gold.Id.Protein>
6NUR|6NUR_protein|mol2

> <Gold.PLP.Fitness>
63.9821

> <Gold.PLP.PLP>
-50.3205

> <Gold.PLP.part.hbond>
-3.7777

> <Gold.PLP.part.metal>
0.0000

> <Gold.PLP.part.buried>
-5.8787

> <Gold.PLP.part.nonpolar>
-41.2123

> <Gold.PLP.part.repulsive>
0.2210

> <Gold.PLP.ligand.clash>
0.0000

> <Gold.PLP.ligand.torsion>
0.7096

> <Gold.PLP.Chemscore.Hbond>
4.9840

> <Gold.PLP.Chemscore.CHOScore>
0.0000

> <Gold.PLP.Chemscore.Metal>
0.0000

> <Gold.Chemscore.Hbonds>
donor molecule, donor type, donor heavy atom, donor atom, acceptor molecule, acceptor atom, score
      L1  H     9    38       P1  7948  1.89
      L1  H    16    57       P1  8028  1.56
      P1  H  7989  7998       L1    12  1.00

> <Gold.PLP.Chemscore.Internal.Correction>
0.1288

> <Gold.Rescore>
     Score         DG    S(hbond)    S(metal)    S(lipo)     H(rot)  DE(clash)    DE(int)     intcor
     18.46     -19.97       1.97        0.00     126.55       2.69       0.11       1.40       ----

> <Gold.Chemscore.Fitness>
18.4567

> <Gold.Chemscore.DG>
-19.9667

> <Gold.Chemscore.ZeroCoef>
-5.4800

> <Gold.Chemscore.Hbond>
1.9673

> <Gold.Chemscore.Metal>
0.0000

> <Gold.Chemscore.Lipo>
126.5523

> <Gold.Chemscore.Internal_Hbond>
0.0000

> <Gold.Chemscore.DEClash>
0.1090

> <Gold.Chemscore.DEInternal>
1.4009

> <Gold.Chemscore.Rot>
2.6917

> <Gold.Chemscore.Internal.Correction>
   9.000000E+99

> <Gold.Chemscore.Hbonds>
donor molecule, donor type, donor heavy atom, donor atom, acceptor molecule, acceptor atom, score
      L1  H     9    38       P1  7948  0.30
      L1  H    16    57       P1  8028  0.77
      P1  H  7989  7998       L1    12  0.25

> <Gold.Chemscore.Hbond.Weighted>
-6.5707

> <Gold.Chemscore.Metal.Weighted>
-0.0000

> <Gold.Chemscore.Lipo.Weighted>
-14.8066

> <Gold.Chemscore.Internal_Hbond.Weighted>
0.0000

> <Gold.Chemscore.DEClash.Weighted>
0.1090

> <Gold.Chemscore.DEInternal.Weighted>
1.4009

> <Gold.Chemscore.Rot.Weighted>
6.8907

> <Gold.Chemscore.Internal.Correction.Weighted>
   9.000000E+99

> <Gold.Protein.RotatedTorsions>
[ 6907 6896 6895 6894 ] final  167.31 input  -60.11 | X-H torsion
[ 7974 7965 7964 7962 ] final  135.07 input  175.53 | X-H torsion
[ 8008 7997 7996 7995 ] final   85.47 input   59.86 | X-H torsion
[ 10167 10162 10161 10158 ] final   -0.77 input  -65.29 | X-H torsion
[ 10718 10713 10712 10709 ] final -179.11 input   66.30 | X-H torsion
[ 10763 10752 10751 10750 ] final -134.81 input  -60.55 | X-H torsion
[ 11005 11000 10999 10996 ] final  112.14 input  -57.11 | X-H torsion

> <Gold.Protein.ActiveResidues>
 VAL166  LYS551  ARG553  GLY616  TRP617  ASP618  TYR619  PRO620  LYS621  CYS622 
 ASP623  PHE694  ASN695  SER759  ASP760  ASP761  ALA762  ILE779  LEU786  VAL792 
 PHE793  MET794  SER795  GLU796  ALA797  LYS798  CYS799  TRP800  GLU811  SER814 

> <Gold.Protein.RotatedAtoms>
  151.8653  133.3465  159.3716 H   0  0  0  0  0  0  0  0  0  0  0  0  # atno 6907 bound_to 6896
  150.7168  134.5166  159.5642 H   0  0  0  0  0  0  0  0  0  0  0  0  # atno 6908 bound_to 6896
  152.2688  134.7956  160.0469 H   0  0  0  0  0  0  0  0  0  0  0  0  # atno 6909 bound_to 6896
  144.9700  139.4616  143.5437 H   0  0  0  0  0  0  0  0  0  0  0  0  # atno 7974 bound_to 7965
  155.9505  140.3401  155.6403 H   0  0  0  0  0  0  0  0  0  0  0  0  # atno 8008 bound_to 7997
  155.6926  140.0751  157.2460 H   0  0  0  0  0  0  0  0  0  0  0  0  # atno 8009 bound_to 7997
  154.4121  140.1654  156.2091 H   0  0  0  0  0  0  0  0  0  0  0  0  # atno 8010 bound_to 7997
  140.6782  143.6855  150.8070 H   0  0  0  0  0  0  0  0  0  0  0  0  # atno 10167 bound_to 10162
  156.8542  130.9729  151.3089 H   0  0  0  0  0  0  0  0  0  0  0  0  # atno 10718 bound_to 10713
  154.8713  135.3723  154.4796 H   0  0  0  0  0  0  0  0  0  0  0  0  # atno 10763 bound_to 10752
  153.5450  135.7026  153.5623 H   0  0  0  0  0  0  0  0  0  0  0  0  # atno 10764 bound_to 10752
  153.3768  135.4007  155.1792 H   0  0  0  0  0  0  0  0  0  0  0  0  # atno 10765 bound_to 10752
  139.8920  134.9523  156.6540 H   0  0  0  0  0  0  0  0  0  0  0  0  # atno 11005 bound_to 11000
  146.3379  139.8906  142.8809 LP  0  0  0  0  0  0  0  0  0  0  0  0  # atno 17320 bound_to 7965
  145.2573  141.0065  143.3847 LP  0  0  0  0  0  0  0  0  0  0  0  0  # atno 17321 bound_to 7965
  140.0551  143.5210  152.2655 LP  0  0  0  0  0  0  0  0  0  0  0  0  # atno 17342 bound_to 10162
  139.6087  144.7603  151.3003 LP  0  0  0  0  0  0  0  0  0  0  0  0  # atno 17343 bound_to 10162
  157.6286  130.8711  149.9233 LP  0  0  0  0  0  0  0  0  0  0  0  0  # atno 17370 bound_to 10713
  156.0811  130.3673  150.0578 LP  0  0  0  0  0  0  0  0  0  0  0  0  # atno 17371 bound_to 10713
  140.7499  133.8906  155.8339 LP  0  0  0  0  0  0  0  0  0  0  0  0  # atno 17394 bound_to 11000
  141.0009  134.1151  157.4318 LP  0  0  0  0  0  0  0  0  0  0  0  0  # atno 17395 bound_to 11000

$$$$
