AV-unprocessed.smi:2083|AV-procd|sdf|8497|dock5
  -GOLD-   2272011203D 1   1.00000     0.00000
 Structure written by MMmdl.
 45 46  0  0  0  0  0  0  0  0  2 V2000
  150.9391  141.5900  158.0078 C   0  0  0  0  0  0  0  0  0  0  0  0
  150.8281  140.6490  156.8576 C   0  0  0  0  0  0  0  0  0  0  0  0
  150.3489  139.3745  156.7416 C   0  0  0  0  0  0  0  0  0  0  0  0
  150.5517  139.0804  155.3673 C   0  0  0  0  0  0  0  0  0  0  0  0
  150.1793  137.8217  154.8306 N   0  0  0  0  0  0  0  0  0  0  0  0
  150.3203  136.6137  155.4022 C   0  0  0  0  0  0  0  0  0  0  0  0
  150.8108  136.4062  156.5123 O   0  0  0  0  0  0  0  0  0  0  0  0
  149.8574  135.6399  154.6041 N   0  0  0  0  0  0  0  0  0  0  0  0
  149.8208  134.2168  154.9341 C   0  0  0  0  0  0  0  0  0  0  0  0
  149.2478  133.3433  153.7835 C   0  0  1  0  0  0  0  0  0  0  0  0
  148.8662  131.9382  154.3006 C   0  0  0  0  0  0  0  0  0  0  0  0
  148.0732  133.9499  153.0721 N   0  3  2  0  0  0  0  0  0  0  0  0
  147.0588  134.4808  154.0274 C   0  0  0  0  0  0  0  0  0  0  0  0
  145.9674  135.2846  153.3064 C   0  0  0  0  0  0  0  0  0  0  0  0
  145.2733  134.4234  152.2480 C   0  0  0  0  0  0  0  0  0  0  0  0
  146.3141  133.8587  151.2706 C   0  0  2  0  0  0  0  0  0  0  0  0
  145.6550  132.9706  150.2053 C   0  0  0  0  0  0  0  0  0  0  0  0
  147.4214  133.0992  152.0319 C   0  0  0  0  0  0  0  0  0  0  0  0
  151.1019  140.0851  154.7030 N   0  0  0  0  0  0  0  0  0  0  0  0
  151.2825  141.0955  155.6551 O   0  0  0  0  0  0  0  0  0  0  0  0
  150.3482  141.2408  158.8549 H   0  0  0  0  0  0  0  0  0  0  0  0
  150.5813  142.5825  157.7331 H   0  0  0  0  0  0  0  0  0  0  0  0
  151.9754  141.6811  158.3329 H   0  0  0  0  0  0  0  0  0  0  0  0
  149.9249  138.7551  157.5180 H   0  0  0  0  0  0  0  0  0  0  0  0
  149.7546  137.8459  153.9156 H   0  0  0  0  0  0  0  0  0  0  0  0
  149.4764  135.9065  153.7079 H   0  0  0  0  0  0  0  0  0  0  0  0
  150.8107  133.8617  155.2265 H   0  0  0  0  0  0  0  0  0  0  0  0
  149.1896  134.1456  155.8198 H   0  0  0  0  0  0  0  0  0  0  0  0
  150.0505  133.2307  153.0526 H   0  0  0  0  0  0  0  0  0  0  0  0
  149.7245  131.4154  154.7216 H   0  0  0  0  0  0  0  0  0  0  0  0
  148.4766  131.2925  153.5154 H   0  0  0  0  0  0  0  0  0  0  0  0
  148.1048  132.0015  155.0790 H   0  0  0  0  0  0  0  0  0  0  0  0
  146.6070  133.6511  154.5735 H   0  0  0  0  0  0  0  0  0  0  0  0
  147.5230  135.1234  154.7738 H   0  0  0  0  0  0  0  0  0  0  0  0
  145.2345  135.6481  154.0276 H   0  0  0  0  0  0  0  0  0  0  0  0
  146.4061  136.1667  152.8384 H   0  0  0  0  0  0  0  0  0  0  0  0
  144.7324  133.6086  152.7318 H   0  0  0  0  0  0  0  0  0  0  0  0
  144.5317  135.0175  151.7126 H   0  0  0  0  0  0  0  0  0  0  0  0
  146.7796  134.6990  150.7531 H   0  0  0  0  0  0  0  0  0  0  0  0
  145.1647  132.1070  150.6558 H   0  0  0  0  0  0  0  0  0  0  0  0
  146.3907  132.6003  149.4909 H   0  0  0  0  0  0  0  0  0  0  0  0
  144.9022  133.5243  149.6433 H   0  0  0  0  0  0  0  0  0  0  0  0
  148.1513  132.7796  151.2890 H   0  0  0  0  0  0  0  0  0  0  0  0
  147.0153  132.2003  152.4988 H   0  0  0  0  0  0  0  0  0  0  0  0
  148.4422  134.7448  152.5698 H   0  0  0  0  0  0  0  0  0  0  0  0
  1  2  1  0  0  0  0
  1 21  1  0  0  0  0
  1 22  1  0  0  0  0
  1 23  1  0  0  0  0
  2 20  1  0  0  0  0
  2  3  2  0  0  0  0
  3  4  1  0  0  0  0
  3 24  1  0  0  0  0
  4  5  1  0  0  0  0
  4 19  2  0  0  0  0
  5  6  1  0  0  0  0
  5 25  1  0  0  0  0
  6  7  2  0  0  0  0
  6  8  1  0  0  0  0
  8  9  1  0  0  0  0
  8 26  1  0  0  0  0
  9 10  1  0  0  0  0
  9 27  1  0  0  0  0
  9 28  1  0  0  0  0
 10 11  1  0  0  0  0
 10 12  1  0  0  0  0
 10 29  1  0  0  0  0
 11 30  1  0  0  0  0
 11 31  1  0  0  0  0
 11 32  1  0  0  0  0
 12 18  1  0  0  0  0
 12 13  1  0  0  0  0
 12 45  1  0  0  0  0
 13 14  1  0  0  0  0
 13 33  1  0  0  0  0
 13 34  1  0  0  0  0
 14 15  1  0  0  0  0
 14 35  1  0  0  0  0
 14 36  1  0  0  0  0
 15 16  1  0  0  0  0
 15 37  1  0  0  0  0
 15 38  1  0  0  0  0
 16 17  1  0  0  0  0
 16 18  1  0  0  0  0
 16 39  1  0  0  0  0
 17 40  1  0  0  0  0
 17 41  1  0  0  0  0
 17 42  1  0  0  0  0
 18 43  1  0  0  0  0
 18 44  1  0  0  0  0
 19 20  1  0  0  0  0
M  CHG  1  12   1
M  END
> <s_m_source_file>
AV-unprocessed.smi

> <i_m_source_file_index>
2083

> <i_lp_mmshare_version>
43012

> <i_f3d_flags>
0

> <s_epik_input>
W0NIM11jMVtjSF1jKG5vMSlbTkhdQyg9TylbTkhdW0NIMl1bQ0BIXShbQ0gzXSlOMltDSDJdW0NIMl1bQ0gyXVtDQEBIXShbQ0gzXSlbQ0gyXTI=

> <s_epik_cmdline>
J2VwaWtfcHl0aG9uJywgJy1waCcsICc3LjAnLCAnLXRuJywgJzgnLCAnLW1hJywgJzIwMCcsICctbWV0YWxfYmluZGluZycsICctaW1hZScsICc8aW5maWxlLm1hZT4nLCAnLW9tYWUnLCAnPG91dGZpbGUubWFlPic=

> <r_epik_Ionization_Penalty>
0.00216453

> <r_epik_Ionization_Penalty_Charging>
0.00212879

> <r_epik_Ionization_Penalty_Neutral>
3.57418e-05

> <r_epik_State_Penalty>
0.00146033

> <r_epik_Charging_Adjusted_Penalty>
0.00358912

> <i_epik_Tot_Q>
1

> <i_epik_Tot_abs_Q>
1

> <r_epik_Metal_State_Penalty>
0.0215827

> <b_epik_Metal_Only>
0

> <s_lp_Force_Field>
OPLS_2005

> <r_lp_Energy>
20.5585

> <b_lp_Chiralities_Consistent>
1

> <s_lp_Variant>
AV-unprocessed.smi:2083-8

> <Gold.Version>
5.8.1

> <Gold.Id.Protein>
6NUR|6NUR_protein|mol2

> <Gold.PLP.Fitness>
40.1225

> <Gold.PLP.PLP>
-29.5836

> <Gold.PLP.part.hbond>
-4.0000

> <Gold.PLP.part.metal>
0.0000

> <Gold.PLP.part.buried>
-2.7863

> <Gold.PLP.part.nonpolar>
-22.5661

> <Gold.PLP.part.repulsive>
0.2014

> <Gold.PLP.ligand.clash>
0.0000

> <Gold.PLP.ligand.torsion>
0.6087

> <Gold.PLP.Chemscore.Hbond>
3.9000

> <Gold.PLP.Chemscore.CHOScore>
0.0000

> <Gold.PLP.Chemscore.Metal>
0.0000

> <Gold.Chemscore.Hbonds>
donor molecule, donor type, donor heavy atom, donor atom, acceptor molecule, acceptor atom, score
      L1  H     8    26       P1  7948  1.00
      L1  H    12    45       P1  7948  1.90
      P1  H  7989  7998       L1    19  0.85

> <Gold.PLP.Chemscore.Internal.Correction>
0.0563

> <Gold.Rescore>
     Score         DG    S(hbond)    S(metal)    S(lipo)     H(rot)  DE(clash)    DE(int)     intcor
     14.32     -16.21       2.60        0.00      51.40       1.55       0.02       1.87       ----

> <Gold.Chemscore.Fitness>
14.3166

> <Gold.Chemscore.DG>
-16.2109

> <Gold.Chemscore.ZeroCoef>
-5.4800

> <Gold.Chemscore.Hbond>
2.5985

> <Gold.Chemscore.Metal>
0.0000

> <Gold.Chemscore.Lipo>
51.3956

> <Gold.Chemscore.Internal_Hbond>
0.0000

> <Gold.Chemscore.DEClash>
0.0222

> <Gold.Chemscore.DEInternal>
1.8721

> <Gold.Chemscore.Rot>
1.5474

> <Gold.Chemscore.Internal.Correction>
   9.000000E+99

> <Gold.Chemscore.Hbonds>
donor molecule, donor type, donor heavy atom, donor atom, acceptor molecule, acceptor atom, score
      L1  H     8    26       P1  7948  0.50
      L1  H    12    45       P1  7948  0.22
      P1  H  7989  7998       L1    19  0.14

> <Gold.Chemscore.Hbond.Weighted>
-8.6789

> <Gold.Chemscore.Metal.Weighted>
-0.0000

> <Gold.Chemscore.Lipo.Weighted>
-6.0133

> <Gold.Chemscore.Internal_Hbond.Weighted>
0.0000

> <Gold.Chemscore.DEClash.Weighted>
0.0222

> <Gold.Chemscore.DEInternal.Weighted>
1.8721

> <Gold.Chemscore.Rot.Weighted>
3.9612

> <Gold.Chemscore.Internal.Correction.Weighted>
   9.000000E+99

> <Gold.Protein.RotatedTorsions>
[ 6907 6896 6895 6894 ] final  -59.10 input  -60.11 | X-H torsion
[ 7974 7965 7964 7962 ] final   91.12 input  175.53 | X-H torsion
[ 8008 7997 7996 7995 ] final  -86.70 input   59.86 | X-H torsion
[ 10167 10162 10161 10158 ] final  108.61 input  -65.29 | X-H torsion
[ 10718 10713 10712 10709 ] final    9.32 input   66.30 | X-H torsion
[ 10763 10752 10751 10750 ] final  -67.13 input  -60.55 | X-H torsion
[ 11005 11000 10999 10996 ] final  -84.54 input  -57.11 | X-H torsion

> <Gold.Protein.ActiveResidues>
 VAL166  LYS551  ARG553  GLY616  TRP617  ASP618  TYR619  PRO620  LYS621  CYS622 
 ASP623  PHE694  ASN695  SER759  ASP760  ASP761  ALA762  ILE779  LEU786  VAL792 
 PHE793  MET794  SER795  GLU796  ALA797  LYS798  CYS799  TRP800  GLU811  SER814 

> <Gold.Protein.RotatedAtoms>
  150.7956  134.7013  159.6551 H   0  0  0  0  0  0  0  0  0  0  0  0  # atno 6907 bound_to 6896
  152.4068  134.6190  160.0055 H   0  0  0  0  0  0  0  0  0  0  0  0  # atno 6908 bound_to 6896
  151.6445  133.3287  159.3174 H   0  0  0  0  0  0  0  0  0  0  0  0  # atno 6909 bound_to 6896
  145.5099  139.2277  143.2730 H   0  0  0  0  0  0  0  0  0  0  0  0  # atno 7974 bound_to 7965
  154.6548  140.0575  156.9997 H   0  0  0  0  0  0  0  0  0  0  0  0  # atno 8008 bound_to 7997
  155.1316  140.3257  155.4454 H   0  0  0  0  0  0  0  0  0  0  0  0  # atno 8009 bound_to 7997
  156.2592  140.1980  156.6435 H   0  0  0  0  0  0  0  0  0  0  0  0  # atno 8010 bound_to 7997
  139.6833  144.7116  151.1477 H   0  0  0  0  0  0  0  0  0  0  0  0  # atno 10167 bound_to 10162
  156.9646  130.5946  149.5664 H   0  0  0  0  0  0  0  0  0  0  0  0  # atno 10718 bound_to 10713
  154.3700  135.6097  153.5735 H   0  0  0  0  0  0  0  0  0  0  0  0  # atno 10763 bound_to 10752
  152.9790  135.5836  154.4533 H   0  0  0  0  0  0  0  0  0  0  0  0  # atno 10764 bound_to 10752
  154.4285  135.2847  155.1906 H   0  0  0  0  0  0  0  0  0  0  0  0  # atno 10765 bound_to 10752
  141.1649  133.7351  156.8883 H   0  0  0  0  0  0  0  0  0  0  0  0  # atno 11005 bound_to 11000
  146.2173  140.5905  142.9033 LP  0  0  0  0  0  0  0  0  0  0  0  0  # atno 17320 bound_to 7965
  144.7733  140.5686  143.6655 LP  0  0  0  0  0  0  0  0  0  0  0  0  # atno 17321 bound_to 7965
  140.7659  143.5667  150.9040 LP  0  0  0  0  0  0  0  0  0  0  0  0  # atno 17342 bound_to 10162
  139.9340  143.6459  152.3069 LP  0  0  0  0  0  0  0  0  0  0  0  0  # atno 17343 bound_to 10162
  156.0308  130.5399  150.8529 LP  0  0  0  0  0  0  0  0  0  0  0  0  # atno 17370 bound_to 10713
  157.5635  131.0946  150.9525 LP  0  0  0  0  0  0  0  0  0  0  0  0  # atno 17371 bound_to 10713
  140.1667  134.9128  157.2782 LP  0  0  0  0  0  0  0  0  0  0  0  0  # atno 17394 bound_to 11000
  140.2549  134.3639  155.7428 LP  0  0  0  0  0  0  0  0  0  0  0  0  # atno 17395 bound_to 11000

$$$$
