#       Name:                AV-unprocessed.smi:2128
#       Creating user name   scv26
#       Creation time:       Fri Mar 27 11:43:29 2020


#       File generated by GOLD software.
#

@<TRIPOS>MOLECULE
AV-unprocessed.smi:2128
    55    57     1
SMALL
NO_CHARGES


@<TRIPOS>ATOM
      1 ****        -5.5811   4.1591  -3.6302 O.2            1 S1                 0.0000
      2 ****        -5.3358   3.6252  -2.5507 C.2            1 S1                 0.0000
      3 ****        -4.0542   2.7859  -2.3954 C.3            1 S1                 0.0000
      4 ****        -3.9199   2.0510  -1.1286 N.pl3          1 S1                 0.0000
      5 ****        -2.8810   1.0897  -1.0519 C.ar           1 S1                 0.0000
      6 ****        -1.6793   1.2483  -1.7872 C.ar           1 S1                 0.0000
      7 ****        -0.6709   0.2704  -1.6889 C.ar           1 S1                 0.0000
      8 ****        -0.8792  -0.8479  -0.8502 C.ar           1 S1                 0.0000
      9 ****         0.0509  -1.9092  -0.6830 N.am           1 S1                 0.0000
     10 ****         1.3801  -1.8926  -0.8802 C.2            1 S1                 0.0000
     11 ****         2.0323  -0.9132  -1.2414 O.2            1 S1                 0.0000
     12 ****         1.9247  -3.0863  -0.6023 N.am           1 S1                 0.0000
     13 ****         3.3503  -3.4021  -0.6519 C.3            1 S1                 0.0000
     14 ****         3.9981  -3.3739   0.7466 C.3            1 S1                 0.0000
     15 ****         3.8882  -2.0308   1.4531 C.2            1 S1                 0.0000
     16 ****         3.0855  -1.8524   2.5206 C.2            1 S1                 0.0000
     17 ****         2.9479  -0.5428   3.2761 C.3            1 S1                 0.0000
     18 ****         4.0695   0.4518   2.9332 C.3            1 S1                 0.0000
     19 ****         4.3414   0.4815   1.4242 C.3            1 S1                 0.0000
     20 ****         4.7559  -0.9052   0.9006 C.3            1 S1                 0.0000
     21 ****        -2.1079  -0.9291  -0.1678 C.ar           1 S1                 0.0000
     22 ****        -3.0749   0.0071  -0.2580 N.ar           1 S1                 0.0000
     23 ****        -5.1033   1.8749  -0.2818 C.3            1 S1                 0.0000
     24 ****        -5.9130   3.1754  -0.1884 C.3            1 S1                 0.0000
     25 ****        -6.1666   3.7459  -1.5039 N.am           1 S1                 0.0000
     26 ****        -4.0009   2.0863  -3.2312 H              1 S1                 0.0000
     27 ****        -3.2182   3.4783  -2.4960 H              1 S1                 0.0000
     28 ****        -1.5069   2.1024  -2.4238 H              1 S1                 0.0000
     29 ****         0.2315   0.3931  -2.2673 H              1 S1                 0.0000
     30 ****        -0.3310  -2.7633  -0.3040 H              1 S1                 0.0000
     31 ****         1.3078  -3.8306  -0.3111 H              1 S1                 0.0000
     32 ****         3.4538  -4.4018  -1.0739 H              1 S1                 0.0000
     33 ****         3.8765  -2.7359  -1.3370 H              1 S1                 0.0000
     34 ****         3.5365  -4.1436   1.3668 H              1 S1                 0.0000
     35 ****         5.0528  -3.6406   0.6716 H              1 S1                 0.0000
     36 ****         2.4743  -2.6697   2.8750 H              1 S1                 0.0000
     37 ****         1.9762  -0.1141   3.0291 H              1 S1                 0.0000
     38 ****         2.9444  -0.7432   4.3477 H              1 S1                 0.0000
     39 ****         3.8081   1.4475   3.2925 H              1 S1                 0.0000
     40 ****         4.9832   0.1649   3.4553 H              1 S1                 0.0000
     41 ****         3.4401   0.8102   0.9045 H              1 S1                 0.0000
     42 ****         5.1152   1.2135   1.1921 H              1 S1                 0.0000
     43 ****         5.7904  -1.1135   1.1754 H              1 S1                 0.0000
     44 ****         4.7171  -0.9001  -0.1883 H              1 S1                 0.0000
     45 ****        -2.3235  -1.7692   0.4763 H              1 S1                 0.0000
     46 ****        -5.7206   1.0767  -0.6975 H              1 S1                 0.0000
     47 ****        -4.8248   1.5760   0.7298 H              1 S1                 0.0000
     48 ****        -6.8619   2.9973   0.3180 H              1 S1                 0.0000
     49 ****        -5.3694   3.9125   0.4043 H              1 S1                 0.0000
     50 ****        -7.0104   4.2881  -1.6208 H              1 S1                 0.0000
     51 ****        -6.4157   4.6982  -3.7432 LP             1 S1                 0.0000
     52 ****        -4.9460   4.0543  -4.3956 LP             1 S1                 0.0000
     53 ****         1.5727  -0.0417  -1.4121 LP             1 S1                 0.0000
     54 ****         3.0219  -0.9891  -1.3642 LP             1 S1                 0.0000
     55 ****        -3.9267  -0.0961   0.2556 LP             1 S1                 0.0000
@<TRIPOS>BOND
    1    1    2 2     
    2    2   25 am    
    3    2    3 1     
    4    3    4 1     
    5    3   26 1     
    6    3   27 1     
    7    4    5 1     
    8    4   23 1     
    9    5   22 ar    
   10    5    6 ar    
   11    6    7 ar    
   12    6   28 1     
   13    7    8 ar    
   14    7   29 1     
   15    8    9 1     
   16    8   21 ar    
   17    9   10 am    
   18    9   30 1     
   19   10   11 2     
   20   10   12 am    
   21   12   13 1     
   22   12   31 1     
   23   13   14 1     
   24   13   32 1     
   25   13   33 1     
   26   14   15 1     
   27   14   34 1     
   28   14   35 1     
   29   15   20 1     
   30   15   16 2     
   31   16   17 1     
   32   16   36 1     
   33   17   18 1     
   34   17   37 1     
   35   17   38 1     
   36   18   19 1     
   37   18   39 1     
   38   18   40 1     
   39   19   20 1     
   40   19   41 1     
   41   19   42 1     
   42   20   43 1     
   43   20   44 1     
   44   21   22 ar    
   45   21   45 1     
   46   23   24 1     
   47   23   46 1     
   48   23   47 1     
   49   24   25 1     
   50   24   48 1     
   51   24   49 1     
   52   25   50 1     
   53    1   51 1     
   54    1   52 1     
   55   11   53 1     
   56   11   54 1     
   57   22   55 1     
@<TRIPOS>SUBSTRUCTURE
      1 S1             1
@<TRIPOS>SET
LONE_PAIRS      STATIC     ATOMS    <user>   **** ""
5 51 52 53 54 55
DONOR_HYDROGENS      STATIC     ATOMS    <user>   **** ""
3 30 31 50
ATOM$BLUE        STATIC     ATOMS    COLORGROUP SYSTEM
5 51 52 53 54 55
ATOM$RED        STATIC     ATOMS    COLORGROUP SYSTEM
3 30 31 50
