AV-unprocessed.smi:3329|AV-procd|sdf|12798|dock1
  -GOLD-   2272019153D 1   1.00000     0.00000
 Structure written by MMmdl.
 41 42  0  0  0  0  0  0  0  0  1 V2000
  151.7729  141.2299  158.0880 C   0  0  0  0  0  0  0  0  0  0  0  0
  151.1255  140.7727  156.8126 C   0  0  0  0  0  0  0  0  0  0  0  0
  151.6066  139.8053  155.8845 C   0  0  0  0  0  0  0  0  0  0  0  0
  150.7924  139.6288  154.8566 N   0  0  0  0  0  0  0  0  0  0  0  0
  149.7670  140.4748  155.0901 N   0  0  0  0  0  0  0  0  0  0  0  0
  148.6604  140.5460  154.1526 C   0  0  0  0  0  0  0  0  0  0  0  0
  147.9122  139.2082  154.0206 C   0  0  0  0  0  0  0  0  0  0  0  0
  147.9786  138.7291  152.6474 N   0  0  0  0  0  0  0  0  0  0  0  0
  146.6747  138.8526  151.9888 C   0  0  0  0  0  0  0  0  0  0  0  0
  145.7734  137.6590  152.3003 C   0  0  0  0  0  0  0  0  0  0  0  0
  144.7515  137.8223  152.9649 O   0  0  0  0  0  0  0  0  0  0  0  0
  146.1703  136.4696  151.8148 N   0  0  0  0  0  0  0  0  0  0  0  0
  145.4947  135.1746  151.9282 C   0  0  2  0  0  0  0  0  0  0  0  0
  144.1057  135.2520  151.2638 C   0  0  0  0  0  0  0  0  0  0  0  0
  145.2847  134.9165  153.3650 C   0  0  0  0  0  0  0  0  0  0  0  0
  145.1196  134.7167  154.4932 N   0  0  0  0  0  0  0  0  0  0  0  0
  146.2959  134.0206  151.3152 C   0  0  0  0  0  0  0  0  0  0  0  0
  146.0028  133.4685  149.9377 C   0  0  0  0  0  0  0  0  0  0  0  0
  145.7317  132.6257  151.1650 C   0  0  0  0  0  0  0  0  0  0  0  0
  149.9436  141.1800  156.2619 C   0  0  0  0  0  0  0  0  0  0  0  0
  152.5287  140.5245  158.4343 H   0  0  0  0  0  0  0  0  0  0  0  0
  151.0452  141.3402  158.8923 H   0  0  0  0  0  0  0  0  0  0  0  0
  152.2655  142.1945  157.9644 H   0  0  0  0  0  0  0  0  0  0  0  0
  152.5187  139.2285  155.9280 H   0  0  0  0  0  0  0  0  0  0  0  0
  147.9790  141.3364  154.4711 H   0  0  0  0  0  0  0  0  0  0  0  0
  149.0538  140.8480  153.1810 H   0  0  0  0  0  0  0  0  0  0  0  0
  148.3646  138.4719  154.6860 H   0  0  0  0  0  0  0  0  0  0  0  0
  146.8718  139.3257  154.3278 H   0  0  0  0  0  0  0  0  0  0  0  0
  148.6860  139.2567  152.1555 H   0  0  0  0  0  0  0  0  0  0  0  0
  146.1753  139.7650  152.3181 H   0  0  0  0  0  0  0  0  0  0  0  0
  146.8126  138.9291  150.9090 H   0  0  0  0  0  0  0  0  0  0  0  0
  147.0304  136.4659  151.2854 H   0  0  0  0  0  0  0  0  0  0  0  0
  143.5464  134.3293  151.4231 H   0  0  0  0  0  0  0  0  0  0  0  0
  144.1724  135.4041  150.1865 H   0  0  0  0  0  0  0  0  0  0  0  0
  143.5128  136.0684  151.6784 H   0  0  0  0  0  0  0  0  0  0  0  0
  147.3563  134.0632  151.5554 H   0  0  0  0  0  0  0  0  0  0  0  0
  145.1443  133.8579  149.3947 H   0  0  0  0  0  0  0  0  0  0  0  0
  146.8546  133.1938  149.3187 H   0  0  0  0  0  0  0  0  0  0  0  0
  146.4033  131.7925  151.3615 H   0  0  0  0  0  0  0  0  0  0  0  0
  144.6928  132.4564  151.4399 H   0  0  0  0  0  0  0  0  0  0  0  0
  149.2178  141.9026  156.6051 H   0  0  0  0  0  0  0  0  0  0  0  0
  1  2  1  0  0  0  0
  1 21  1  0  0  0  0
  1 22  1  0  0  0  0
  1 23  1  0  0  0  0
  2 20  2  0  0  0  0
  2  3  1  0  0  0  0
  3  4  2  0  0  0  0
  3 24  1  0  0  0  0
  4  5  1  0  0  0  0
  5  6  1  0  0  0  0
  5 20  1  0  0  0  0
  6  7  1  0  0  0  0
  6 25  1  0  0  0  0
  6 26  1  0  0  0  0
  7  8  1  0  0  0  0
  7 27  1  0  0  0  0
  7 28  1  0  0  0  0
  8  9  1  0  0  0  0
  8 29  1  0  0  0  0
  9 10  1  0  0  0  0
  9 30  1  0  0  0  0
  9 31  1  0  0  0  0
 10 11  2  0  0  0  0
 10 12  1  0  0  0  0
 12 13  1  0  0  0  0
 12 32  1  0  0  0  0
 13 14  1  0  0  0  0
 13 15  1  0  0  0  0
 13 17  1  0  0  0  0
 14 33  1  0  0  0  0
 14 34  1  0  0  0  0
 14 35  1  0  0  0  0
 15 16  3  0  0  0  0
 17 19  1  0  0  0  0
 17 18  1  0  0  0  0
 17 36  1  0  0  0  0
 18 19  1  0  0  0  0
 18 37  1  0  0  0  0
 18 38  1  0  0  0  0
 19 39  1  0  0  0  0
 19 40  1  0  0  0  0
 20 41  1  0  0  0  0
M  END
> <s_m_source_file>
AV-unprocessed.smi

> <i_m_source_file_index>
3329

> <i_lp_mmshare_version>
43012

> <i_f3d_flags>
0

> <s_epik_input>
W0NIM11jMVtjSF1ubihbY0hdMSlbQ0gyXVtDSDJdW05IXVtDSDJdQyg9TylbTkhdW0NAQF0oW0NIM10pKEMjTilbQ0hdMltDSDJdW0NIMl0y

> <s_epik_cmdline>
J2VwaWtfcHl0aG9uJywgJy1waCcsICc3LjAnLCAnLXRuJywgJzgnLCAnLW1hJywgJzIwMCcsICctbWV0YWxfYmluZGluZycsICctaW1hZScsICc8aW5maWxlLm1hZT4nLCAnLW9tYWUnLCAnPG91dGZpbGUubWFlPic=

> <r_lp_tautomer_probability>
1

> <r_epik_Ionization_Penalty>
0.481866

> <r_epik_Ionization_Penalty_Charging>
0

> <r_epik_Ionization_Penalty_Neutral>
0.481866

> <r_epik_State_Penalty>
0.48398

> <r_epik_Charging_Adjusted_Penalty>
0.48398

> <i_epik_Tot_Q>
0

> <i_epik_Tot_abs_Q>
0

> <r_epik_Metal_State_Penalty>
0.5042

> <b_epik_Metal_Only>
0

> <s_lp_Force_Field>
OPLS_2005

> <r_lp_Energy>
14.7625

> <b_lp_Chiralities_Consistent>
1

> <s_lp_Variant>
AV-unprocessed.smi:3329-4

> <Gold.Version>
5.8.1

> <Gold.Id.Protein>
6NUR|6NUR_protein|mol2

> <Gold.PLP.Fitness>
46.9286

> <Gold.PLP.PLP>
-37.3830

> <Gold.PLP.part.hbond>
-3.9176

> <Gold.PLP.part.metal>
0.0000

> <Gold.PLP.part.buried>
-3.1759

> <Gold.PLP.part.nonpolar>
-30.9597

> <Gold.PLP.part.repulsive>
0.4664

> <Gold.PLP.ligand.clash>
0.0000

> <Gold.PLP.ligand.torsion>
1.7628

> <Gold.PLP.Chemscore.Hbond>
2.8320

> <Gold.PLP.Chemscore.CHOScore>
0.9454

> <Gold.PLP.Chemscore.Metal>
0.0000

> <Gold.Chemscore.Hbonds>
donor molecule, donor type, donor heavy atom, donor atom, acceptor molecule, acceptor atom, score
      L1  H     8    29       P1  7957  1.00
      L1  H    12    32       P1  7948  0.66
      P1  H  7989  7998       L1     4  0.65

> <Gold.PLP.Chemscore.Internal.Correction>
1.7391

> <Gold.Rescore>
     Score         DG    S(hbond)    S(metal)    S(lipo)     H(rot)  DE(clash)    DE(int)     intcor
     12.06     -14.87       1.89        0.00      76.82       2.31       0.02       2.78       ----

> <Gold.Chemscore.Fitness>
12.0643

> <Gold.Chemscore.DG>
-14.8685

> <Gold.Chemscore.ZeroCoef>
-5.4800

> <Gold.Chemscore.Hbond>
1.8928

> <Gold.Chemscore.Metal>
0.0000

> <Gold.Chemscore.Lipo>
76.8164

> <Gold.Chemscore.Internal_Hbond>
0.0000

> <Gold.Chemscore.DEClash>
0.0240

> <Gold.Chemscore.DEInternal>
2.7802

> <Gold.Chemscore.Rot>
2.3129

> <Gold.Chemscore.Internal.Correction>
   9.000000E+99

> <Gold.Chemscore.Hbonds>
donor molecule, donor type, donor heavy atom, donor atom, acceptor molecule, acceptor atom, score
      L1  H     8    29       P1  7957  0.95
      L1  H    12    32       P1  7948  0.65
      P1  H  7989  7998       L1     4  0.02

> <Gold.Chemscore.Hbond.Weighted>
-6.3221

> <Gold.Chemscore.Metal.Weighted>
-0.0000

> <Gold.Chemscore.Lipo.Weighted>
-8.9875

> <Gold.Chemscore.Internal_Hbond.Weighted>
0.0000

> <Gold.Chemscore.DEClash.Weighted>
0.0240

> <Gold.Chemscore.DEInternal.Weighted>
2.7802

> <Gold.Chemscore.Rot.Weighted>
5.9211

> <Gold.Chemscore.Internal.Correction.Weighted>
   9.000000E+99

> <Gold.Protein.RotatedTorsions>
[ 6907 6896 6895 6894 ] final  -10.14 input  -60.11 | X-H torsion
[ 7974 7965 7964 7962 ] final  -41.79 input  175.53 | X-H torsion
[ 8008 7997 7996 7995 ] final -132.62 input   59.86 | X-H torsion
[ 10167 10162 10161 10158 ] final   50.48 input  -65.29 | X-H torsion
[ 10718 10713 10712 10709 ] final  -86.90 input   66.30 | X-H torsion
[ 10763 10752 10751 10750 ] final  -80.81 input  -60.55 | X-H torsion
[ 11005 11000 10999 10996 ] final  111.15 input  -57.11 | X-H torsion

> <Gold.Protein.ActiveResidues>
 VAL166  LYS551  ARG553  GLY616  TRP617  ASP618  TYR619  PRO620  LYS621  CYS622 
 ASP623  PHE694  ASN695  SER759  ASP760  ASP761  ALA762  ILE779  LEU786  VAL792 
 PHE793  MET794  SER795  GLU796  ALA797  LYS798  CYS799  TRP800  GLU811  SER814 

> <Gold.Protein.RotatedAtoms>
  151.4067  135.0979  159.9572 H   0  0  0  0  0  0  0  0  0  0  0  0  # atno 6907 bound_to 6896
  152.5033  133.8836  159.7369 H   0  0  0  0  0  0  0  0  0  0  0  0  # atno 6908 bound_to 6896
  150.9322  133.6697  159.2836 H   0  0  0  0  0  0  0  0  0  0  0  0  # atno 6909 bound_to 6896
  146.0178  140.6887  142.9193 H   0  0  0  0  0  0  0  0  0  0  0  0  # atno 7974 bound_to 7965
  155.3319  140.0467  157.3043 H   0  0  0  0  0  0  0  0  0  0  0  0  # atno 8008 bound_to 7997
  154.5324  140.2261  155.8747 H   0  0  0  0  0  0  0  0  0  0  0  0  # atno 8009 bound_to 7997
  156.1801  140.3076  155.9139 H   0  0  0  0  0  0  0  0  0  0  0  0  # atno 8010 bound_to 7997
  140.2720  144.3254  150.6287 H   0  0  0  0  0  0  0  0  0  0  0  0  # atno 10167 bound_to 10162
  155.9987  130.4781  150.4785 H   0  0  0  0  0  0  0  0  0  0  0  0  # atno 10718 bound_to 10713
  154.5559  135.5648  153.6963 H   0  0  0  0  0  0  0  0  0  0  0  0  # atno 10763 bound_to 10752
  153.0003  135.6262  154.2311 H   0  0  0  0  0  0  0  0  0  0  0  0  # atno 10764 bound_to 10752
  154.2247  135.2868  155.2891 H   0  0  0  0  0  0  0  0  0  0  0  0  # atno 10765 bound_to 10752
  139.8897  134.9501  156.6388 H   0  0  0  0  0  0  0  0  0  0  0  0  # atno 11005 bound_to 11000
  144.6978  140.3512  143.7181 LP  0  0  0  0  0  0  0  0  0  0  0  0  # atno 17320 bound_to 7965
  145.7241  139.1718  143.2467 LP  0  0  0  0  0  0  0  0  0  0  0  0  # atno 17321 bound_to 7965
  140.5882  143.2169  151.7303 LP  0  0  0  0  0  0  0  0  0  0  0  0  # atno 17342 bound_to 10162
  139.4986  144.3979  152.0212 LP  0  0  0  0  0  0  0  0  0  0  0  0  # atno 17343 bound_to 10162
  157.2793  131.0603  151.2208 LP  0  0  0  0  0  0  0  0  0  0  0  0  # atno 17370 bound_to 10713
  157.3260  130.6961  149.6297 LP  0  0  0  0  0  0  0  0  0  0  0  0  # atno 17371 bound_to 10713
  140.7610  133.8817  155.8418 LP  0  0  0  0  0  0  0  0  0  0  0  0  # atno 17394 bound_to 11000
  140.9922  134.1263  157.4397 LP  0  0  0  0  0  0  0  0  0  0  0  0  # atno 17395 bound_to 11000

$$$$
