#       Name:                AV-unprocessed.smi:2302
#       Creating user name   scv26
#       Creation time:       Fri Mar 27 12:45:53 2020


#       File generated by GOLD software.
#

@<TRIPOS>MOLECULE
AV-unprocessed.smi:2302
    45    46     1
SMALL
NO_CHARGES


@<TRIPOS>ATOM
      1 ****        -3.9055   4.0591   1.2101 C.3            1 S1                 0.0000
      2 ****        -4.1568   2.5660   1.1770 C.ar           1 S1                 0.0000
      3 ****        -5.4672   2.0507   1.1357 C.ar           1 S1                 0.0000
      4 ****        -5.6292   0.6543   1.0991 C.ar           1 S1                 0.0000
      5 ****        -4.4827  -0.1635   1.1060 C.ar           1 S1                 0.0000
      6 ****        -3.2027   0.4337   1.1505 C.ar           1 S1                 0.0000
      7 ****        -2.1128  -0.4770   1.1517 N.am           1 S1                 0.0000
      8 ****        -0.7976  -0.1992   1.1855 C.2            1 S1                 0.0000
      9 ****        -0.3092   0.9295   1.2515 O.2            1 S1                 0.0000
     10 ****        -0.0652  -1.3213   1.1362 N.am           1 S1                 0.0000
     11 ****         1.3929  -1.3740   1.1135 C.3            1 S1                 0.0000
     12 ****         1.9356  -1.3778  -0.3257 C.3            1 S1                 0.0000
     13 ****         3.4584  -1.6163  -0.3653 C.3            1 S1                 0.0000
     14 ****         3.9813  -1.5560  -1.7245 N.3            1 S1                 0.0000
     15 ****         5.4178  -1.7848  -1.7589 C.3            1 S1                 0.0000
     16 ****         3.6274  -0.2783  -2.3281 C.3            1 S1                 0.0000
     17 ****         2.1110  -0.0278  -2.2787 C.3            1 S1                 0.0000
     18 ****         1.6608  -0.1152  -0.9308 O.3            1 S1                 0.0000
     19 ****        -3.0575   1.7820   1.1856 N.ar           1 S1                 0.0000
     20 ****        -4.8411   4.6187   1.2237 H              1 S1                 0.0000
     21 ****        -3.3384   4.3661   0.3310 H              1 S1                 0.0000
     22 ****        -3.3344   4.3285   2.0989 H              1 S1                 0.0000
     23 ****        -6.3262   2.7055   1.1299 H              1 S1                 0.0000
     24 ****        -6.6160   0.2167   1.0652 H              1 S1                 0.0000
     25 ****        -4.5900  -1.2381   1.0768 H              1 S1                 0.0000
     26 ****        -2.3633  -1.4534   1.1068 H              1 S1                 0.0000
     27 ****        -0.5511  -2.2046   1.0867 H              1 S1                 0.0000
     28 ****         1.8249  -0.5520   1.6868 H              1 S1                 0.0000
     29 ****         1.6929  -2.2919   1.6198 H              1 S1                 0.0000
     30 ****         1.4336  -2.1634  -0.8939 H              1 S1                 0.0000
     31 ****         3.9587  -0.8715   0.2560 H              1 S1                 0.0000
     32 ****         3.6850  -2.5895   0.0718 H              1 S1                 0.0000
     33 ****         5.7854  -1.7737  -2.7854 H              1 S1                 0.0000
     34 ****         5.6649  -2.7558  -1.3286 H              1 S1                 0.0000
     35 ****         5.9532  -1.0175  -1.1978 H              1 S1                 0.0000
     36 ****         4.1419   0.5314  -1.8080 H              1 S1                 0.0000
     37 ****         3.9676  -0.2504  -3.3639 H              1 S1                 0.0000
     38 ****         1.8764   0.9623  -2.6693 H              1 S1                 0.0000
     39 ****         1.5770  -0.7520  -2.8959 H              1 S1                 0.0000
     40 ****        -0.9058   1.7313   1.2845 LP             1 S1                 0.0000
     41 ****         0.6840   1.0441   1.2720 LP             1 S1                 0.0000
     42 ****         3.5640  -2.2904  -2.2598 LP             1 S1                 0.0000
     43 ****         2.1152   0.5982  -0.3974 LP             1 S1                 0.0000
     44 ****         0.6724   0.0358  -0.9157 LP             1 S1                 0.0000
     45 ****        -2.1456   2.1911   1.2175 LP             1 S1                 0.0000
@<TRIPOS>BOND
    1    1    2 1     
    2    1   20 1     
    3    1   21 1     
    4    1   22 1     
    5    2   19 ar    
    6    2    3 ar    
    7    3    4 ar    
    8    3   23 1     
    9    4    5 ar    
   10    4   24 1     
   11    5    6 ar    
   12    5   25 1     
   13    6    7 1     
   14    6   19 ar    
   15    7    8 am    
   16    7   26 1     
   17    8    9 2     
   18    8   10 am    
   19   10   11 1     
   20   10   27 1     
   21   11   12 1     
   22   11   28 1     
   23   11   29 1     
   24   12   18 1     
   25   12   13 1     
   26   12   30 1     
   27   13   14 1     
   28   13   31 1     
   29   13   32 1     
   30   14   15 1     
   31   14   16 1     
   32   15   33 1     
   33   15   34 1     
   34   15   35 1     
   35   16   17 1     
   36   16   36 1     
   37   16   37 1     
   38   17   18 1     
   39   17   38 1     
   40   17   39 1     
   41    9   40 1     
   42    9   41 1     
   43   14   42 1     
   44   18   43 1     
   45   18   44 1     
   46   19   45 1     
@<TRIPOS>SUBSTRUCTURE
      1 S1             1
@<TRIPOS>SET
LONE_PAIRS      STATIC     ATOMS    <user>   **** ""
6 40 41 42 43 44 45
DONOR_HYDROGENS      STATIC     ATOMS    <user>   **** ""
2 26 27
ATOM$BLUE        STATIC     ATOMS    COLORGROUP SYSTEM
6 40 41 42 43 44 45
ATOM$RED        STATIC     ATOMS    COLORGROUP SYSTEM
2 26 27
