AV-unprocessed.smi:3345|AV-procd|sdf|12903|dock7
  -GOLD-   2272019313D 1   1.00000     0.00000
 Structure written by MMmdl.
 41 42  0  0  0  0  0  0  0  0  2 V2000
  148.5222  133.9437  154.8390 C   0  0  0  0  0  0  0  0  0  0  0  0
  147.5251  133.6869  153.7015 C   0  0  2  0  0  0  0  0  0  0  0  0
  148.1960  132.9783  152.5026 C   0  0  0  0  0  0  0  0  0  0  0  0
  147.2324  132.2505  151.6360 N   0  3  0  0  0  0  0  0  0  0  0  0
  146.3808  131.3013  152.3907 C   0  0  0  0  0  0  0  0  0  0  0  0
  145.4587  130.5288  151.4316 C   0  0  0  0  0  0  0  0  0  0  0  0
  144.6819  131.4422  150.6665 O   0  0  0  0  0  0  0  0  0  0  0  0
  145.4933  132.3035  149.8769 C   0  0  0  0  0  0  0  0  0  0  0  0
  146.3947  133.1414  150.7978 C   0  0  0  0  0  0  0  0  0  0  0  0
  146.9296  134.9545  153.2803 N   0  0  0  0  0  0  0  0  0  0  0  0
  145.6152  135.2217  153.2050 C   0  0  0  0  0  0  0  0  0  0  0  0
  144.7431  134.4361  153.5760 O   0  0  0  0  0  0  0  0  0  0  0  0
  145.2374  136.5650  152.5651 C   0  0  2  0  0  0  0  0  0  0  0  0
  145.6337  136.6509  151.0775 C   0  0  0  0  0  0  0  0  0  0  0  0
  145.8044  137.6545  153.3508 N   0  0  0  0  0  0  0  0  0  0  0  0
  146.5926  138.6637  152.9741 C   0  0  0  0  0  0  0  0  0  0  0  0
  146.8727  139.5202  153.9462 N   0  0  0  0  0  0  0  0  0  0  0  0
  146.1802  138.9388  154.9698 C   0  0  0  0  0  0  0  0  0  0  0  0
  145.5025  137.8337  154.6613 N   0  0  0  0  0  0  0  0  0  0  0  0
  148.9680  133.0111  155.1862 H   0  0  0  0  0  0  0  0  0  0  0  0
  148.0306  134.4104  155.6935 H   0  0  0  0  0  0  0  0  0  0  0  0
  149.3318  134.6013  154.5205 H   0  0  0  0  0  0  0  0  0  0  0  0
  146.7528  133.0302  154.1039 H   0  0  0  0  0  0  0  0  0  0  0  0
  148.6955  133.7383  151.8995 H   0  0  0  0  0  0  0  0  0  0  0  0
  148.9779  132.2980  152.8431 H   0  0  0  0  0  0  0  0  0  0  0  0
  147.0059  130.5973  152.9409 H   0  0  0  0  0  0  0  0  0  0  0  0
  145.7860  131.8473  153.1247 H   0  0  0  0  0  0  0  0  0  0  0  0
  146.0385  129.8856  150.7693 H   0  0  0  0  0  0  0  0  0  0  0  0
  144.7879  129.8807  151.9958 H   0  0  0  0  0  0  0  0  0  0  0  0
  146.0896  131.7211  149.1725 H   0  0  0  0  0  0  0  0  0  0  0  0
  144.8484  132.9549  149.2872 H   0  0  0  0  0  0  0  0  0  0  0  0
  145.7854  133.7826  151.4366 H   0  0  0  0  0  0  0  0  0  0  0  0
  147.0191  133.7974  150.1924 H   0  0  0  0  0  0  0  0  0  0  0  0
  147.5703  135.6700  152.9679 H   0  0  0  0  0  0  0  0  0  0  0  0
  144.1513  136.6597  152.6175 H   0  0  0  0  0  0  0  0  0  0  0  0
  145.1728  135.8481  150.5009 H   0  0  0  0  0  0  0  0  0  0  0  0
  146.7129  136.5822  150.9343 H   0  0  0  0  0  0  0  0  0  0  0  0
  145.3038  137.5948  150.6426 H   0  0  0  0  0  0  0  0  0  0  0  0
  146.9614  138.7797  151.9655 H   0  0  0  0  0  0  0  0  0  0  0  0
  146.1567  139.3545  155.9665 H   0  0  0  0  0  0  0  0  0  0  0  0
  147.7857  131.6904  151.0032 H   0  0  0  0  0  0  0  0  0  0  0  0
  1  2  1  0  0  0  0
  1 20  1  0  0  0  0
  1 21  1  0  0  0  0
  1 22  1  0  0  0  0
  2  3  1  0  0  0  0
  2 10  1  0  0  0  0
  2 23  1  0  0  0  0
  3  4  1  0  0  0  0
  3 24  1  0  0  0  0
  3 25  1  0  0  0  0
  4  9  1  0  0  0  0
  4  5  1  0  0  0  0
  4 41  1  0  0  0  0
  5  6  1  0  0  0  0
  5 26  1  0  0  0  0
  5 27  1  0  0  0  0
  6  7  1  0  0  0  0
  6 28  1  0  0  0  0
  6 29  1  0  0  0  0
  7  8  1  0  0  0  0
  8  9  1  0  0  0  0
  8 30  1  0  0  0  0
  8 31  1  0  0  0  0
  9 32  1  0  0  0  0
  9 33  1  0  0  0  0
 10 11  1  0  0  0  0
 10 34  1  0  0  0  0
 11 12  2  0  0  0  0
 11 13  1  0  0  0  0
 13 14  1  0  0  0  0
 13 15  1  0  0  0  0
 13 35  1  0  0  0  0
 14 36  1  0  0  0  0
 14 37  1  0  0  0  0
 14 38  1  0  0  0  0
 15 19  1  0  0  0  0
 15 16  1  0  0  0  0
 16 17  2  0  0  0  0
 16 39  1  0  0  0  0
 17 18  1  0  0  0  0
 18 19  2  0  0  0  0
 18 40  1  0  0  0  0
M  CHG  1   4   1
M  END
> <s_m_source_file>
AV-unprocessed.smi

> <i_m_source_file_index>
3345

> <i_lp_mmshare_version>
43012

> <i_f3d_flags>
0

> <s_epik_input>
W0NIMl0xW0NIMl1PW0NIMl1bQ0gyXU4xW0NIMl1bQ0BASF0oW0NIM10pW05IXUMoPU8pW0NASF0oW0NIM10pbjJbY0hdbltjSF1uMg==

> <s_epik_cmdline>
J2VwaWtfcHl0aG9uJywgJy1waCcsICc3LjAnLCAnLXRuJywgJzgnLCAnLW1hJywgJzIwMCcsICctbWV0YWxfYmluZGluZycsICctaW1hZScsICc8aW5maWxlLm1hZT4nLCAnLW9tYWUnLCAnPG91dGZpbGUubWFlPic=

> <r_lp_tautomer_probability>
1

> <r_epik_Ionization_Penalty>
0.71326

> <r_epik_Ionization_Penalty_Charging>
0.713252

> <r_epik_Ionization_Penalty_Neutral>
8.27671e-06

> <r_epik_State_Penalty>
0.737017

> <r_epik_Charging_Adjusted_Penalty>
1.45027

> <i_epik_Tot_Q>
1

> <i_epik_Tot_abs_Q>
1

> <r_epik_Metal_State_Penalty>
0.73702

> <b_epik_Metal_Only>
0

> <s_lp_Force_Field>
OPLS_2005

> <r_lp_Energy>
25.9312

> <b_lp_Chiralities_Consistent>
1

> <s_lp_Variant>
AV-unprocessed.smi:3345-5

> <Gold.Version>
5.8.1

> <Gold.Id.Protein>
6NUR|6NUR_protein|mol2

> <Gold.PLP.Fitness>
36.6184

> <Gold.PLP.PLP>
-29.4267

> <Gold.PLP.part.hbond>
-2.1409

> <Gold.PLP.part.metal>
0.0000

> <Gold.PLP.part.buried>
-2.1561

> <Gold.PLP.part.nonpolar>
-26.5028

> <Gold.PLP.part.repulsive>
0.5687

> <Gold.PLP.ligand.clash>
0.0000

> <Gold.PLP.ligand.torsion>
0.3896

> <Gold.PLP.Chemscore.Hbond>
2.0000

> <Gold.PLP.Chemscore.CHOScore>
0.6071

> <Gold.PLP.Chemscore.Metal>
0.0000

> <Gold.Chemscore.Hbonds>
donor molecule, donor type, donor heavy atom, donor atom, acceptor molecule, acceptor atom, score
      L1  H     4    41       P1 10747  1.00
      L1  H    10    34       P1  7948  0.99

> <Gold.PLP.Chemscore.Internal.Correction>
0.1495

> <Gold.Rescore>
     Score         DG    S(hbond)    S(metal)    S(lipo)     H(rot)  DE(clash)    DE(int)     intcor
     12.03     -12.95       1.98        0.00      64.58       2.61       0.48       0.43       ----

> <Gold.Chemscore.Fitness>
12.0349

> <Gold.Chemscore.DG>
-12.9474

> <Gold.Chemscore.ZeroCoef>
-5.4800

> <Gold.Chemscore.Hbond>
1.9768

> <Gold.Chemscore.Metal>
0.0000

> <Gold.Chemscore.Lipo>
64.5813

> <Gold.Chemscore.Internal_Hbond>
0.0000

> <Gold.Chemscore.DEClash>
0.4802

> <Gold.Chemscore.DEInternal>
0.4324

> <Gold.Chemscore.Rot>
2.6138

> <Gold.Chemscore.Internal.Correction>
   9.000000E+99

> <Gold.Chemscore.Hbonds>
donor molecule, donor type, donor heavy atom, donor atom, acceptor molecule, acceptor atom, score
      L1  H     4    41       P1 10747  0.99
      L1  H    10    34       P1  7948  0.93

> <Gold.Chemscore.Hbond.Weighted>
-6.6027

> <Gold.Chemscore.Metal.Weighted>
-0.0000

> <Gold.Chemscore.Lipo.Weighted>
-7.5560

> <Gold.Chemscore.Internal_Hbond.Weighted>
0.0000

> <Gold.Chemscore.DEClash.Weighted>
0.4802

> <Gold.Chemscore.DEInternal.Weighted>
0.4324

> <Gold.Chemscore.Rot.Weighted>
6.6912

> <Gold.Chemscore.Internal.Correction.Weighted>
   9.000000E+99

> <Gold.Protein.RotatedTorsions>
[ 6907 6896 6895 6894 ] final  179.52 input  -60.11 | X-H torsion
[ 7974 7965 7964 7962 ] final   62.61 input  175.53 | X-H torsion
[ 8008 7997 7996 7995 ] final  116.09 input   59.86 | X-H torsion
[ 10167 10162 10161 10158 ] final   69.83 input  -65.29 | X-H torsion
[ 10718 10713 10712 10709 ] final   87.50 input   66.30 | X-H torsion
[ 10763 10752 10751 10750 ] final  -96.99 input  -60.55 | X-H torsion
[ 11005 11000 10999 10996 ] final   75.94 input  -57.11 | X-H torsion

> <Gold.Protein.ActiveResidues>
 VAL166  LYS551  ARG553  GLY616  TRP617  ASP618  TYR619  PRO620  LYS621  CYS622 
 ASP623  PHE694  ASN695  SER759  ASP760  ASP761  ALA762  ILE779  LEU786  VAL792 
 PHE793  MET794  SER795  GLU796  ALA797  LYS798  CYS799  TRP800  GLU811  SER814 

> <Gold.Protein.RotatedAtoms>
  151.6702  133.3314  159.3194 H   0  0  0  0  0  0  0  0  0  0  0  0  # atno 6907 bound_to 6896
  150.7871  134.6868  159.6484 H   0  0  0  0  0  0  0  0  0  0  0  0  # atno 6908 bound_to 6896
  152.3943  134.6394  160.0147 H   0  0  0  0  0  0  0  0  0  0  0  0  # atno 6909 bound_to 6896
  145.8713  139.3380  143.0761 H   0  0  0  0  0  0  0  0  0  0  0  0  # atno 7974 bound_to 7965
  156.2419  140.2925  156.0469 H   0  0  0  0  0  0  0  0  0  0  0  0  # atno 8008 bound_to 7997
  155.1925  140.0407  157.2920 H   0  0  0  0  0  0  0  0  0  0  0  0  # atno 8009 bound_to 7997
  154.6185  140.2470  155.7586 H   0  0  0  0  0  0  0  0  0  0  0  0  # atno 8010 bound_to 7997
  140.0636  144.5212  150.7277 H   0  0  0  0  0  0  0  0  0  0  0  0  # atno 10167 bound_to 10162
  157.6940  131.0258  150.3132 H   0  0  0  0  0  0  0  0  0  0  0  0  # atno 10718 bound_to 10713
  154.7289  135.5063  153.8931 H   0  0  0  0  0  0  0  0  0  0  0  0  # atno 10763 bound_to 10752
  153.0931  135.6664  153.9824 H   0  0  0  0  0  0  0  0  0  0  0  0  # atno 10764 bound_to 10752
  153.9630  135.3046  155.3411 H   0  0  0  0  0  0  0  0  0  0  0  0  # atno 10765 bound_to 10752
  139.9321  134.7559  156.1333 H   0  0  0  0  0  0  0  0  0  0  0  0  # atno 11005 bound_to 11000
  145.9133  140.9165  143.0443 LP  0  0  0  0  0  0  0  0  0  0  0  0  # atno 17320 bound_to 7965
  144.6726  140.1190  143.7451 LP  0  0  0  0  0  0  0  0  0  0  0  0  # atno 17321 bound_to 7965
  140.7160  143.2545  151.4433 LP  0  0  0  0  0  0  0  0  0  0  0  0  # atno 17342 bound_to 10162
  139.5879  144.1564  152.2051 LP  0  0  0  0  0  0  0  0  0  0  0  0  # atno 17343 bound_to 10162
  156.3630  130.3850  149.7236 LP  0  0  0  0  0  0  0  0  0  0  0  0  # atno 17370 bound_to 10713
  156.4675  130.7981  151.3000 LP  0  0  0  0  0  0  0  0  0  0  0  0  # atno 17371 bound_to 10713
  141.0915  133.6712  156.2551 LP  0  0  0  0  0  0  0  0  0  0  0  0  # atno 17394 bound_to 11000
  140.6174  134.5396  157.5542 LP  0  0  0  0  0  0  0  0  0  0  0  0  # atno 17395 bound_to 11000

$$$$
