#       Name:                AV-unprocessed.smi:13
#       Creating user name   scv26
#       Creation time:       Thu Mar 26 15:19:08 2020


#       File generated by GOLD software.
#

@<TRIPOS>MOLECULE
AV-unprocessed.smi:13
    64    68     1
SMALL
NO_CHARGES


@<TRIPOS>ATOM
      1 ****        -4.8631  -0.8251  -0.9160 C.3            1 S1                 0.0000
      2 ****        -3.6511  -0.2438  -0.1759 C.3            1 S1                 0.0000
      3 ****        -4.2015   0.6959   0.8963 C.3            1 S1                 0.0000
      4 ****        -2.6118  -1.2684   0.3048 C.3            1 S1                 0.0000
      5 ****        -1.8669  -0.9780  -0.9093 N.3            1 S1                 0.0000
      6 ****        -0.4544  -0.9557  -0.7627 C.ar           1 S1                 0.0000
      7 ****         0.2532  -1.7324  -1.6210 N.ar           1 S1                 0.0000
      8 ****         1.5874  -1.7757  -1.5750 C.ar           1 S1                 0.0000
      9 ****         2.4137  -1.1265  -0.7554 N.ar           1 S1                 0.0000
     10 ****         1.7203  -0.3417   0.1162 C.ar           1 S1                 0.0000
     11 ****         0.3042  -0.1986   0.1809 C.ar           1 S1                 0.0000
     12 ****        -0.0276   0.6915   1.1969 N.2            1 S1                 0.0000
     13 ****         1.1207   1.0516   1.7001 C.2            1 S1                 0.0000
     14 ****         2.2234   0.4732   1.1151 N.pl3          1 S1                 0.0000
     15 ****         3.6155   0.6885   1.4786 C.3            1 S1                 0.0000
     16 ****         4.0724  -0.1724   2.6787 C.3            1 S1                 0.0000
     17 ****         3.3557   0.2333   3.8323 O.3            1 S1                 0.0000
     18 ****         3.8702  -1.6721   2.4858 C.3            1 S1                 0.0000
     19 ****         5.0041  -2.2729   3.3040 C.3            1 S1                 0.0000
     20 ****         6.0820  -1.3923   3.0349 O.3            1 S1                 0.0000
     21 ****         5.5808  -0.0599   2.9767 C.3            1 S1                 0.0000
     22 ****        -2.5024   0.3280  -1.0338 C.3            1 S1                 0.0000
     23 ****        -2.7019   0.7170  -2.4989 C.3            1 S1                 0.0000
     24 ****        -1.4410   1.2492  -3.1794 C.3            1 S1                 0.0000
     25 ****        -1.9836   2.1255  -4.2962 C.3            1 S1                 0.0000
     26 ****        -3.4402   2.3771  -3.8954 C.3            1 S1                 0.0000
     27 ****        -3.5678   1.8368  -2.5873 O.3            1 S1                 0.0000
     28 ****        -5.5289  -1.3571  -0.2359 H              1 S1                 0.0000
     29 ****        -4.5631  -1.5350  -1.6875 H              1 S1                 0.0000
     30 ****        -5.4471  -0.0439  -1.4038 H              1 S1                 0.0000
     31 ****        -3.3999   1.1418   1.4861 H              1 S1                 0.0000
     32 ****        -4.8585   0.1716   1.5909 H              1 S1                 0.0000
     33 ****        -4.7703   1.5148   0.4548 H              1 S1                 0.0000
     34 ****        -2.1042  -0.9754   1.2243 H              1 S1                 0.0000
     35 ****        -2.9804  -2.2934   0.3537 H              1 S1                 0.0000
     36 ****         2.0596  -2.4240  -2.2985 H              1 S1                 0.0000
     37 ****         1.1955   1.7487   2.5219 H              1 S1                 0.0000
     38 ****         4.2333   0.4723   0.6059 H              1 S1                 0.0000
     39 ****         3.7552   1.7484   1.6954 H              1 S1                 0.0000
     40 ****         3.6422  -0.2936   4.5627 H              1 S1                 0.0000
     41 ****         2.8833  -2.0276   2.7860 H              1 S1                 0.0000
     42 ****         4.0160  -1.9410   1.4390 H              1 S1                 0.0000
     43 ****         4.7713  -2.2579   4.3699 H              1 S1                 0.0000
     44 ****         5.2381  -3.2972   3.0136 H              1 S1                 0.0000
     45 ****         6.1163   0.4815   2.1962 H              1 S1                 0.0000
     46 ****         5.7782   0.4513   3.9204 H              1 S1                 0.0000
     47 ****        -1.9722   1.0974  -0.4721 H              1 S1                 0.0000
     48 ****        -3.1269  -0.1030  -3.0812 H              1 S1                 0.0000
     49 ****        -0.8657   1.8605  -2.4825 H              1 S1                 0.0000
     50 ****        -0.7898   0.4535  -3.5421 H              1 S1                 0.0000
     51 ****        -1.4164   3.0533  -4.3769 H              1 S1                 0.0000
     52 ****        -1.9347   1.6159  -5.2591 H              1 S1                 0.0000
     53 ****        -3.7008   3.4356  -3.9067 H              1 S1                 0.0000
     54 ****        -4.1190   1.8519  -4.5688 H              1 S1                 0.0000
     55 ****        -1.9084  -1.6182  -1.6764 LP             1 S1                 0.0000
     56 ****        -0.2329  -2.2823  -2.3003 LP             1 S1                 0.0000
     57 ****         3.4104  -1.2050  -0.7772 LP             1 S1                 0.0000
     58 ****        -0.9402   0.9883   1.4780 LP             1 S1                 0.0000
     59 ****         2.3755   0.1012   3.6846 LP             1 S1                 0.0000
     60 ****         3.5373   1.1985   4.0205 LP             1 S1                 0.0000
     61 ****         6.5019  -1.6323   2.1596 LP             1 S1                 0.0000
     62 ****         6.7642  -1.4636   3.7625 LP             1 S1                 0.0000
     63 ****        -3.3079   2.5232  -1.9081 LP             1 S1                 0.0000
     64 ****        -4.5126   1.5506  -2.4273 LP             1 S1                 0.0000
@<TRIPOS>BOND
    1    1    2 1     
    2    1   28 1     
    3    1   29 1     
    4    1   30 1     
    5    2   22 1     
    6    2    3 1     
    7    2    4 1     
    8    3   31 1     
    9    3   32 1     
   10    3   33 1     
   11    4    5 1     
   12    4   34 1     
   13    4   35 1     
   14    5    6 1     
   15    5   22 1     
   16    6   11 ar    
   17    6    7 ar    
   18    7    8 ar    
   19    8    9 ar    
   20    8   36 1     
   21    9   10 ar    
   22   10   14 1     
   23   10   11 ar    
   24   11   12 1     
   25   12   13 2     
   26   13   14 1     
   27   13   37 1     
   28   14   15 1     
   29   15   16 1     
   30   15   38 1     
   31   15   39 1     
   32   16   21 1     
   33   16   17 1     
   34   16   18 1     
   35   17   40 1     
   36   18   19 1     
   37   18   41 1     
   38   18   42 1     
   39   19   20 1     
   40   19   43 1     
   41   19   44 1     
   42   20   21 1     
   43   21   45 1     
   44   21   46 1     
   45   22   23 1     
   46   22   47 1     
   47   23   27 1     
   48   23   24 1     
   49   23   48 1     
   50   24   25 1     
   51   24   49 1     
   52   24   50 1     
   53   25   26 1     
   54   25   51 1     
   55   25   52 1     
   56   26   27 1     
   57   26   53 1     
   58   26   54 1     
   59    5   55 1     
   60    7   56 1     
   61    9   57 1     
   62   12   58 1     
   63   17   59 1     
   64   17   60 1     
   65   20   61 1     
   66   20   62 1     
   67   27   63 1     
   68   27   64 1     
@<TRIPOS>SUBSTRUCTURE
      1 S1             1
@<TRIPOS>SET
LONE_PAIRS      STATIC     ATOMS    <user>   **** ""
10 55 56 57 58 59 60 61 62 63 64
DONOR_HYDROGENS      STATIC     ATOMS    <user>   **** ""
1 40
ATOM$BLUE        STATIC     ATOMS    COLORGROUP SYSTEM
10 55 56 57 58 59 60 61 62 63 64
ATOM$RED        STATIC     ATOMS    COLORGROUP SYSTEM
1 40
