AV-unprocessed.smi:3252|AV-procd|sdf|12444|dock5
  -GOLD-   2272018333D 1   1.00000     0.00000
 Structure written by MMmdl.
 36 37  0  0  0  0  0  0  0  0  1 V2000
  151.1780  137.2296  155.0723 C   0  0  0  0  0  0  0  0  0  0  0  0
  151.7301  138.5070  154.4237 C   0  0  0  0  0  0  0  0  0  0  0  0
  150.8494  139.6706  154.5061 N   0  0  0  0  0  0  0  0  0  0  0  0
  150.7190  140.1798  155.8691 C   0  0  0  0  0  0  0  0  0  0  0  0
  149.7587  141.3794  155.9438 C   0  0  0  0  0  0  0  0  0  0  0  0
  148.4936  141.0151  155.4011 O   0  0  0  0  0  0  0  0  0  0  0  0
  148.5748  140.5717  154.0484 C   0  0  2  0  0  0  0  0  0  0  0  0
  147.1636  140.2122  153.5652 C   0  0  0  0  0  0  0  0  0  0  0  0
  147.1866  139.6094  152.2399 N   0  0  0  0  0  0  0  0  0  0  0  0
  146.5150  138.4059  151.9865 C   0  0  0  0  0  0  0  0  0  0  0  0
  145.8208  137.7837  153.0457 C   0  0  0  0  0  0  0  0  0  0  0  0
  145.1400  136.5760  152.7954 C   0  0  0  0  0  0  0  0  0  0  0  0
  145.1780  136.0324  151.4962 C   0  0  0  0  0  0  0  0  0  0  0  0
  144.4910  134.7899  151.1877 C   0  0  0  0  0  0  0  0  0  0  0  0
  143.9441  133.8003  150.9420 N   0  0  0  0  0  0  0  0  0  0  0  0
  145.8993  136.7255  150.5028 C   0  0  0  0  0  0  0  0  0  0  0  0
  146.5529  137.8841  150.7367 N   0  0  0  0  0  0  0  0  0  0  0  0
  149.5213  139.3570  153.9906 C   0  0  0  0  0  0  0  0  0  0  0  0
  151.9303  136.4407  155.0617 H   0  0  0  0  0  0  0  0  0  0  0  0
  150.3029  136.8490  154.5458 H   0  0  0  0  0  0  0  0  0  0  0  0
  150.8987  137.4053  156.1114 H   0  0  0  0  0  0  0  0  0  0  0  0
  152.6716  138.7436  154.9213 H   0  0  0  0  0  0  0  0  0  0  0  0
  151.9846  138.3066  153.3819 H   0  0  0  0  0  0  0  0  0  0  0  0
  150.3576  139.3876  156.5265 H   0  0  0  0  0  0  0  0  0  0  0  0
  151.6912  140.4869  156.2532 H   0  0  0  0  0  0  0  0  0  0  0  0
  149.6251  141.6944  156.9788 H   0  0  0  0  0  0  0  0  0  0  0  0
  150.1632  142.2334  155.3984 H   0  0  0  0  0  0  0  0  0  0  0  0
  148.9789  141.3718  153.4248 H   0  0  0  0  0  0  0  0  0  0  0  0
  146.7148  139.5005  154.2593 H   0  0  0  0  0  0  0  0  0  0  0  0
  146.5287  141.0991  153.5569 H   0  0  0  0  0  0  0  0  0  0  0  0
  147.7174  140.0588  151.5077 H   0  0  0  0  0  0  0  0  0  0  0  0
  145.8062  138.2220  154.0329 H   0  0  0  0  0  0  0  0  0  0  0  0
  144.5994  136.0816  153.5899 H   0  0  0  0  0  0  0  0  0  0  0  0
  145.9561  136.3462  149.4925 H   0  0  0  0  0  0  0  0  0  0  0  0
  149.6006  139.0129  152.9586 H   0  0  0  0  0  0  0  0  0  0  0  0
  149.0893  138.5325  154.5602 H   0  0  0  0  0  0  0  0  0  0  0  0
  1  2  1  0  0  0  0
  1 19  1  0  0  0  0
  1 20  1  0  0  0  0
  1 21  1  0  0  0  0
  2  3  1  0  0  0  0
  2 22  1  0  0  0  0
  2 23  1  0  0  0  0
  3 18  1  0  0  0  0
  3  4  1  0  0  0  0
  4  5  1  0  0  0  0
  4 24  1  0  0  0  0
  4 25  1  0  0  0  0
  5  6  1  0  0  0  0
  5 26  1  0  0  0  0
  5 27  1  0  0  0  0
  6  7  1  0  0  0  0
  7  8  1  0  0  0  0
  7 18  1  0  0  0  0
  7 28  1  0  0  0  0
  8  9  1  0  0  0  0
  8 29  1  0  0  0  0
  8 30  1  0  0  0  0
  9 10  1  0  0  0  0
  9 31  1  0  0  0  0
 10 17  1  0  0  0  0
 10 11  2  0  0  0  0
 11 12  1  0  0  0  0
 11 32  1  0  0  0  0
 12 13  2  0  0  0  0
 12 33  1  0  0  0  0
 13 14  1  0  0  0  0
 13 16  1  0  0  0  0
 14 15  3  0  0  0  0
 16 17  2  0  0  0  0
 16 34  1  0  0  0  0
 18 35  1  0  0  0  0
 18 36  1  0  0  0  0
M  END
> <s_m_source_file>
AV-unprocessed.smi

> <i_m_source_file_index>
3252

> <i_lp_mmshare_version>
43012

> <i_f3d_flags>
0

> <s_epik_input>
W0NIM11bQ0gyXU4xW0NIMl1bQ0gyXU9bQ0BIXShbQ0gyXTEpW0NIMl1bTkhdYzJbY0hdW2NIXWMoQyNOKVtjSF1uMg==

> <s_epik_cmdline>
J2VwaWtfcHl0aG9uJywgJy1waCcsICc3LjAnLCAnLXRuJywgJzgnLCAnLW1hJywgJzIwMCcsICctbWV0YWxfYmluZGluZycsICctaW1hZScsICc8aW5maWxlLm1hZT4nLCAnLW9tYWUnLCAnPG91dGZpbGUubWFlPic=

> <r_epik_Ionization_Penalty>
0.797836

> <r_epik_Ionization_Penalty_Charging>
0

> <r_epik_Ionization_Penalty_Neutral>
0.797836

> <r_epik_State_Penalty>
0.828842

> <r_epik_Charging_Adjusted_Penalty>
0.828842

> <i_epik_Tot_Q>
0

> <i_epik_Tot_abs_Q>
0

> <r_epik_Metal_State_Penalty>
0.828842

> <b_epik_Metal_Only>
0

> <s_lp_Force_Field>
OPLS_2005

> <r_lp_Energy>
23.1529

> <b_lp_Chiralities_Consistent>
1

> <s_lp_Variant>
AV-unprocessed.smi:3252-6

> <Gold.Version>
5.8.1

> <Gold.Id.Protein>
6NUR|6NUR_protein|mol2

> <Gold.PLP.Fitness>
41.9178

> <Gold.PLP.PLP>
-31.1832

> <Gold.PLP.part.hbond>
-3.0000

> <Gold.PLP.part.metal>
0.0000

> <Gold.PLP.part.buried>
-2.0932

> <Gold.PLP.part.nonpolar>
-29.9530

> <Gold.PLP.part.repulsive>
2.5023

> <Gold.PLP.ligand.clash>
0.0000

> <Gold.PLP.ligand.torsion>
0.0960

> <Gold.PLP.Chemscore.Hbond>
2.6400

> <Gold.PLP.Chemscore.CHOScore>
1.0000

> <Gold.PLP.Chemscore.Metal>
0.0000

> <Gold.Chemscore.Hbonds>
donor molecule, donor type, donor heavy atom, donor atom, acceptor molecule, acceptor atom, score
      L1  H     9    31       P1  7957  0.64
      P1  H  7954  7966       L1    17  1.00
      P1  H  7989  7998       L1     3  1.00
      L1  C    16    34       P1  7921  1.00

> <Gold.PLP.Chemscore.Internal.Correction>
0.0067

> <Gold.Rescore>
     Score         DG    S(hbond)    S(metal)    S(lipo)     H(rot)  DE(clash)    DE(int)     intcor
     15.25     -16.98       2.15        0.00      68.17       1.43       1.57       0.16       ----

> <Gold.Chemscore.Fitness>
15.2513

> <Gold.Chemscore.DG>
-16.9800

> <Gold.Chemscore.ZeroCoef>
-5.4800

> <Gold.Chemscore.Hbond>
2.1534

> <Gold.Chemscore.Metal>
0.0000

> <Gold.Chemscore.Lipo>
68.1742

> <Gold.Chemscore.Internal_Hbond>
0.0000

> <Gold.Chemscore.DEClash>
1.5706

> <Gold.Chemscore.DEInternal>
0.1581

> <Gold.Chemscore.Rot>
1.4331

> <Gold.Chemscore.Internal.Correction>
   9.000000E+99

> <Gold.Chemscore.Hbonds>
donor molecule, donor type, donor heavy atom, donor atom, acceptor molecule, acceptor atom, score
      L1  H     9    31       P1  7957  0.64
      P1  H  7954  7966       L1    17  0.70
      P1  H  7989  7998       L1     3  0.25

> <Gold.Chemscore.Hbond.Weighted>
-7.1924

> <Gold.Chemscore.Metal.Weighted>
-0.0000

> <Gold.Chemscore.Lipo.Weighted>
-7.9764

> <Gold.Chemscore.Internal_Hbond.Weighted>
0.0000

> <Gold.Chemscore.DEClash.Weighted>
1.5706

> <Gold.Chemscore.DEInternal.Weighted>
0.1581

> <Gold.Chemscore.Rot.Weighted>
3.6688

> <Gold.Chemscore.Internal.Correction.Weighted>
   9.000000E+99

> <Gold.Protein.RotatedTorsions>
[ 6907 6896 6895 6894 ] final  175.08 input  -60.11 | X-H torsion
[ 7974 7965 7964 7962 ] final  119.73 input  175.53 | X-H torsion
[ 8008 7997 7996 7995 ] final  124.36 input   59.86 | X-H torsion
[ 10167 10162 10161 10158 ] final  -19.16 input  -65.29 | X-H torsion
[ 10718 10713 10712 10709 ] final   73.30 input   66.30 | X-H torsion
[ 10763 10752 10751 10750 ] final -175.39 input  -60.55 | X-H torsion
[ 11005 11000 10999 10996 ] final  111.55 input  -57.11 | X-H torsion

> <Gold.Protein.ActiveResidues>
 VAL166  LYS551  ARG553  GLY616  TRP617  ASP618  TYR619  PRO620  LYS621  CYS622 
 ASP623  PHE694  ASN695  SER759  ASP760  ASP761  ALA762  ILE779  LEU786  VAL792 
 PHE793  MET794  SER795  GLU796  ALA797  LYS798  CYS799  TRP800  GLU811  SER814 

> <Gold.Protein.RotatedAtoms>
  151.7419  133.3322  159.3367 H   0  0  0  0  0  0  0  0  0  0  0  0  # atno 6907 bound_to 6896
  150.7570  134.6270  159.6175 H   0  0  0  0  0  0  0  0  0  0  0  0  # atno 6908 bound_to 6896
  152.3525  134.6988  160.0284 H   0  0  0  0  0  0  0  0  0  0  0  0  # atno 6909 bound_to 6896
  145.1397  139.3276  143.4622 H   0  0  0  0  0  0  0  0  0  0  0  0  # atno 7974 bound_to 7965
  156.2799  140.2741  156.1776 H   0  0  0  0  0  0  0  0  0  0  0  0  # atno 8008 bound_to 7997
  155.0590  140.0386  157.2588 H   0  0  0  0  0  0  0  0  0  0  0  0  # atno 8009 bound_to 7997
  154.7133  140.2673  155.6614 H   0  0  0  0  0  0  0  0  0  0  0  0  # atno 8010 bound_to 7997
  140.7266  143.4846  151.0072 H   0  0  0  0  0  0  0  0  0  0  0  0  # atno 10167 bound_to 10162
  157.6541  130.9621  150.1049 H   0  0  0  0  0  0  0  0  0  0  0  0  # atno 10718 bound_to 10713
  154.5849  135.2839  155.0695 H   0  0  0  0  0  0  0  0  0  0  0  0  # atno 10763 bound_to 10752
  154.2017  135.6423  153.5093 H   0  0  0  0  0  0  0  0  0  0  0  0  # atno 10764 bound_to 10752
  153.0101  135.5470  154.6516 H   0  0  0  0  0  0  0  0  0  0  0  0  # atno 10765 bound_to 10752
  139.8906  134.9510  156.6449 H   0  0  0  0  0  0  0  0  0  0  0  0  # atno 11005 bound_to 11000
  146.3506  140.1429  142.8594 LP  0  0  0  0  0  0  0  0  0  0  0  0  # atno 17320 bound_to 7965
  145.0546  140.9043  143.4975 LP  0  0  0  0  0  0  0  0  0  0  0  0  # atno 17321 bound_to 7965
  139.8547  143.7393  152.3176 LP  0  0  0  0  0  0  0  0  0  0  0  0  # atno 17342 bound_to 10162
  139.7587  144.7513  151.0396 LP  0  0  0  0  0  0  0  0  0  0  0  0  # atno 17343 bound_to 10162
  156.1962  130.3657  149.8847 LP  0  0  0  0  0  0  0  0  0  0  0  0  # atno 17370 bound_to 10713
  156.6762  130.8840  151.3569 LP  0  0  0  0  0  0  0  0  0  0  0  0  # atno 17371 bound_to 10713
  140.7565  133.8853  155.8386 LP  0  0  0  0  0  0  0  0  0  0  0  0  # atno 17394 bound_to 11000
  140.9958  134.1218  157.4365 LP  0  0  0  0  0  0  0  0  0  0  0  0  # atno 17395 bound_to 11000

$$$$
