AV-unprocessed.smi:1670|AV-procd|sdf|6694|dock9
  -GOLD-   22720 7423D 1   1.00000     0.00000
 Structure written by MMmdl.
 41 42  0  0  0  0  0  0  0  0  1 V2000
  147.6328  138.2876  155.9647 C   0  0  0  0  0  0  0  0  0  0  0  0
  147.5063  138.5988  154.4673 C   0  0  1  0  0  0  0  0  0  0  0  0
  148.6404  139.5312  153.9891 C   0  0  0  0  0  0  0  0  0  0  0  0
  149.9573  139.0548  154.3750 N   0  0  0  0  0  0  0  0  0  0  0  0
  150.4363  137.7618  154.3635 C   0  0  0  0  0  0  0  0  0  0  0  0
  151.7191  137.7995  154.8295 C   0  0  0  0  0  0  0  0  0  0  0  0
  151.9391  139.1786  155.1026 C   0  0  0  0  0  0  0  0  0  0  0  0
  150.8851  139.9284  154.8243 N   0  0  0  0  0  0  0  0  0  0  0  0
  147.5127  137.3428  153.7179 N   0  0  0  0  0  0  0  0  0  0  0  0
  146.4454  136.5610  153.4984 C   0  0  0  0  0  0  0  0  0  0  0  0
  145.3214  136.7896  153.9456 O   0  0  0  0  0  0  0  0  0  0  0  0
  146.7527  135.5167  152.7134 N   0  0  0  0  0  0  0  0  0  0  0  0
  145.8413  134.4895  152.2064 C   0  0  2  0  0  0  0  0  0  0  0  0
  146.5707  133.4061  151.3822 C   0  0  0  0  0  0  0  0  0  0  0  0
  145.5941  132.3056  150.9366 C   0  0  0  0  0  0  0  0  0  0  0  0
  144.4075  132.9004  150.1567 C   0  0  1  0  0  0  0  0  0  0  0  0
  143.5012  131.8707  149.8226 O   0  0  0  0  0  0  0  0  0  0  0  0
  143.6790  133.9773  150.9816 C   0  0  0  0  0  0  0  0  0  0  0  0
  144.6489  135.0838  151.4263 C   0  0  0  0  0  0  0  0  0  0  0  0
  147.6007  139.2016  156.5583 H   0  0  0  0  0  0  0  0  0  0  0  0
  148.5711  137.7785  156.1881 H   0  0  0  0  0  0  0  0  0  0  0  0
  146.8171  137.6481  156.3037 H   0  0  0  0  0  0  0  0  0  0  0  0
  146.5517  139.1087  154.3253 H   0  0  0  0  0  0  0  0  0  0  0  0
  148.6241  139.6101  152.9016 H   0  0  0  0  0  0  0  0  0  0  0  0
  148.4958  140.5422  154.3743 H   0  0  0  0  0  0  0  0  0  0  0  0
  149.8282  136.9319  154.0347 H   0  0  0  0  0  0  0  0  0  0  0  0
  152.3957  136.9680  154.9588 H   0  0  0  0  0  0  0  0  0  0  0  0
  152.8277  139.6543  155.4908 H   0  0  0  0  0  0  0  0  0  0  0  0
  148.3913  137.0692  153.3031 H   0  0  0  0  0  0  0  0  0  0  0  0
  147.7126  135.4381  152.4116 H   0  0  0  0  0  0  0  0  0  0  0  0
  145.4388  134.0049  153.0969 H   0  0  0  0  0  0  0  0  0  0  0  0
  147.0368  133.8444  150.4992 H   0  0  0  0  0  0  0  0  0  0  0  0
  147.3771  132.9663  151.9703 H   0  0  0  0  0  0  0  0  0  0  0  0
  146.1189  131.5741  150.3211 H   0  0  0  0  0  0  0  0  0  0  0  0
  145.2301  131.7687  151.8139 H   0  0  0  0  0  0  0  0  0  0  0  0
  144.7708  133.3419  149.2275 H   0  0  0  0  0  0  0  0  0  0  0  0
  142.6219  132.2072  149.9033 H   0  0  0  0  0  0  0  0  0  0  0  0
  142.8668  134.4121  150.3978 H   0  0  0  0  0  0  0  0  0  0  0  0
  143.2203  133.5237  151.8616 H   0  0  0  0  0  0  0  0  0  0  0  0
  144.1197  135.8095  152.0451 H   0  0  0  0  0  0  0  0  0  0  0  0
  144.9971  135.6236  150.5454 H   0  0  0  0  0  0  0  0  0  0  0  0
  1  2  1  0  0  0  0
  1 20  1  0  0  0  0
  1 21  1  0  0  0  0
  1 22  1  0  0  0  0
  2  3  1  0  0  0  0
  2  9  1  0  0  0  0
  2 23  1  0  0  0  0
  3  4  1  0  0  0  0
  3 24  1  0  0  0  0
  3 25  1  0  0  0  0
  4  8  1  0  0  0  0
  4  5  1  0  0  0  0
  5  6  2  0  0  0  0
  5 26  1  0  0  0  0
  6  7  1  0  0  0  0
  6 27  1  0  0  0  0
  7  8  2  0  0  0  0
  7 28  1  0  0  0  0
  9 10  1  0  0  0  0
  9 29  1  0  0  0  0
 10 11  2  0  0  0  0
 10 12  1  0  0  0  0
 12 13  1  0  0  0  0
 12 30  1  0  0  0  0
 13 19  1  0  0  0  0
 13 14  1  0  0  0  0
 13 31  1  0  0  0  0
 14 15  1  0  0  0  0
 14 32  1  0  0  0  0
 14 33  1  0  0  0  0
 15 16  1  0  0  0  0
 15 34  1  0  0  0  0
 15 35  1  0  0  0  0
 16 17  1  0  0  0  0
 16 18  1  0  0  0  0
 16 36  1  0  0  0  0
 17 37  1  0  0  0  0
 18 19  1  0  0  0  0
 18 38  1  0  0  0  0
 18 39  1  0  0  0  0
 19 40  1  0  0  0  0
 19 41  1  0  0  0  0
M  END
> <s_m_source_file>
AV-unprocessed.smi

> <i_m_source_file_index>
1670

> <i_lp_mmshare_version>
43012

> <i_f3d_flags>
0

> <s_epik_input>
bjFbY0hdW2NIXVtjSF1uMVtDSDJdW0NAQEhdKFtDSDNdKVtOSF1DKD1PKVtOSF1bQ0BASF0yW0NIMl1bQ0gyXVtDQEBIXShbT0hdKVtDSDJdW0NIMl0y

> <s_epik_cmdline>
J2VwaWtfcHl0aG9uJywgJy1waCcsICc3LjAnLCAnLXRuJywgJzgnLCAnLW1hJywgJzIwMCcsICctbWV0YWxfYmluZGluZycsICctaW1hZScsICc8aW5maWxlLm1hZT4nLCAnLW9tYWUnLCAnPG91dGZpbGUubWFlPic=

> <r_lp_tautomer_probability>
1

> <r_epik_Ionization_Penalty>
7.33369e-05

> <r_epik_Ionization_Penalty_Charging>
0

> <r_epik_Ionization_Penalty_Neutral>
7.33369e-05

> <r_epik_State_Penalty>
-0

> <r_epik_Charging_Adjusted_Penalty>
0

> <i_epik_Tot_Q>
0

> <i_epik_Tot_abs_Q>
0

> <r_epik_Metal_State_Penalty>
-0

> <b_epik_Metal_Only>
0

> <s_lp_Force_Field>
OPLS_2005

> <r_lp_Energy>
5.2693

> <b_lp_Chiralities_Consistent>
1

> <s_lp_Variant>
AV-unprocessed.smi:1670-2

> <Gold.Version>
5.8.1

> <Gold.Id.Protein>
6NUR|6NUR_protein|mol2

> <Gold.PLP.Fitness>
44.0237

> <Gold.PLP.PLP>
-31.6056

> <Gold.PLP.part.hbond>
-4.3629

> <Gold.PLP.part.metal>
0.0000

> <Gold.PLP.part.buried>
-2.0558

> <Gold.PLP.part.nonpolar>
-26.0129

> <Gold.PLP.part.repulsive>
0.1674

> <Gold.PLP.ligand.clash>
0.0000

> <Gold.PLP.ligand.torsion>
0.6763

> <Gold.PLP.Chemscore.Hbond>
3.5740

> <Gold.PLP.Chemscore.CHOScore>
1.0000

> <Gold.PLP.Chemscore.Metal>
0.0000

> <Gold.Chemscore.Hbonds>
donor molecule, donor type, donor heavy atom, donor atom, acceptor molecule, acceptor atom, score
      L1  H     9    29       P1  7948  0.77
      L1  H    12    30       P1  7948  0.91
      P1  H  7989  7998       L1     8  0.85
      P1  H 10785 10796       L1    17  0.93
      L1  C     5    26       P1  7948  1.00

> <Gold.PLP.Chemscore.Internal.Correction>
0.0487

> <Gold.Rescore>
     Score         DG    S(hbond)    S(metal)    S(lipo)     H(rot)  DE(clash)    DE(int)     intcor
     16.10     -19.85       3.52        0.00      70.85       2.22       2.18       1.56       ----

> <Gold.Chemscore.Fitness>
16.1021

> <Gold.Chemscore.DG>
-19.8498

> <Gold.Chemscore.ZeroCoef>
-5.4800

> <Gold.Chemscore.Hbond>
3.5238

> <Gold.Chemscore.Metal>
0.0000

> <Gold.Chemscore.Lipo>
70.8505

> <Gold.Chemscore.Internal_Hbond>
0.0000

> <Gold.Chemscore.DEClash>
2.1848

> <Gold.Chemscore.DEInternal>
1.5629

> <Gold.Chemscore.Rot>
2.2224

> <Gold.Chemscore.Internal.Correction>
   9.000000E+99

> <Gold.Chemscore.Hbonds>
donor molecule, donor type, donor heavy atom, donor atom, acceptor molecule, acceptor atom, score
      L1  H     9    29       P1  7948  0.78
      L1  H    12    30       P1  7948  0.85
      P1  H  7989  7998       L1     8  0.12
      P1  H 10785 10796       L1    17  0.29

> <Gold.Chemscore.Hbond.Weighted>
-11.7696

> <Gold.Chemscore.Metal.Weighted>
-0.0000

> <Gold.Chemscore.Lipo.Weighted>
-8.2895

> <Gold.Chemscore.Internal_Hbond.Weighted>
0.0000

> <Gold.Chemscore.DEClash.Weighted>
2.1848

> <Gold.Chemscore.DEInternal.Weighted>
1.5629

> <Gold.Chemscore.Rot.Weighted>
5.6893

> <Gold.Chemscore.Internal.Correction.Weighted>
   9.000000E+99

> <Gold.Protein.RotatedTorsions>
[ 6907 6896 6895 6894 ] final -115.62 input  -60.11 | X-H torsion
[ 7974 7965 7964 7962 ] final -138.08 input  175.53 | X-H torsion
[ 8008 7997 7996 7995 ] final   23.49 input   59.86 | X-H torsion
[ 10167 10162 10161 10158 ] final   -3.66 input  -65.29 | X-H torsion
[ 10718 10713 10712 10709 ] final  -87.43 input   66.30 | X-H torsion
[ 10763 10752 10751 10750 ] final   75.85 input  -60.55 | X-H torsion
[ 11005 11000 10999 10996 ] final  113.00 input  -57.11 | X-H torsion

> <Gold.Protein.ActiveResidues>
 VAL166  LYS551  ARG553  GLY616  TRP617  ASP618  TYR619  PRO620  LYS621  CYS622 
 ASP623  PHE694  ASN695  SER759  ASP760  ASP761  ALA762  ILE779  LEU786  VAL792 
 PHE793  MET794  SER795  GLU796  ALA797  LYS798  CYS799  TRP800  GLU811  SER814 

> <Gold.Protein.RotatedAtoms>
  150.7992  133.8632  159.3237 H   0  0  0  0  0  0  0  0  0  0  0  0  # atno 6907 bound_to 6896
  151.6449  135.1006  160.0158 H   0  0  0  0  0  0  0  0  0  0  0  0  # atno 6908 bound_to 6896
  152.4077  133.6876  159.6406 H   0  0  0  0  0  0  0  0  0  0  0  0  # atno 6909 bound_to 6896
  144.8788  140.6477  143.5219 H   0  0  0  0  0  0  0  0  0  0  0  0  # atno 7974 bound_to 7965
  154.9817  140.3103  155.4943 H   0  0  0  0  0  0  0  0  0  0  0  0  # atno 8008 bound_to 7997
  156.2952  140.2265  156.4856 H   0  0  0  0  0  0  0  0  0  0  0  0  # atno 8009 bound_to 7997
  154.7783  140.0447  157.1095 H   0  0  0  0  0  0  0  0  0  0  0  0  # atno 8010 bound_to 7997
  140.6899  143.6513  150.8347 H   0  0  0  0  0  0  0  0  0  0  0  0  # atno 10167 bound_to 10162
  155.9985  130.4800  150.4866 H   0  0  0  0  0  0  0  0  0  0  0  0  # atno 10718 bound_to 10713
  153.0683  135.4973  154.8250 H   0  0  0  0  0  0  0  0  0  0  0  0  # atno 10763 bound_to 10752
  154.6986  135.2997  154.9376 H   0  0  0  0  0  0  0  0  0  0  0  0  # atno 10764 bound_to 10752
  154.0108  135.6754  153.4818 H   0  0  0  0  0  0  0  0  0  0  0  0  # atno 10765 bound_to 10752
  139.8941  134.9541  156.6672 H   0  0  0  0  0  0  0  0  0  0  0  0  # atno 11005 bound_to 11000
  145.3992  139.1601  143.4186 LP  0  0  0  0  0  0  0  0  0  0  0  0  # atno 17320 bound_to 7965
  146.2981  140.4088  142.8714 LP  0  0  0  0  0  0  0  0  0  0  0  0  # atno 17321 bound_to 7965
  140.0225  143.5528  152.2794 LP  0  0  0  0  0  0  0  0  0  0  0  0  # atno 17342 bound_to 10162
  139.6291  144.7641  151.2575 LP  0  0  0  0  0  0  0  0  0  0  0  0  # atno 17343 bound_to 10162
  157.2865  131.0617  151.2162 LP  0  0  0  0  0  0  0  0  0  0  0  0  # atno 17370 bound_to 10713
  157.3190  130.6927  149.6258 LP  0  0  0  0  0  0  0  0  0  0  0  0  # atno 17371 bound_to 10713
  140.7401  133.8985  155.8272 LP  0  0  0  0  0  0  0  0  0  0  0  0  # atno 17394 bound_to 11000
  141.0084  134.1054  157.4246 LP  0  0  0  0  0  0  0  0  0  0  0  0  # atno 17395 bound_to 11000

$$$$
