#       Name:                AV-unprocessed.smi:2037
#       Creating user name   scv26
#       Creation time:       Fri Mar 27 10:54:25 2020


#       File generated by GOLD software.
#

@<TRIPOS>MOLECULE
AV-unprocessed.smi:2037
    42    43     1
SMALL
NO_CHARGES


@<TRIPOS>ATOM
      1 ****        -2.5512   4.2287  -2.9371 C.3            1 S1                 0.0000
      2 ****        -2.2024   2.9704  -2.1300 C.3            1 S1                 0.0000
      3 ****        -2.2915   3.2215  -0.6157 C.3            1 S1                 0.0000
      4 ****        -1.9112   1.9628   0.1821 C.3            1 S1                 0.0000
      5 ****        -0.5523   1.4843  -0.1816 N.4            1 S1                 1.0000
      6 ****        -0.1142   0.3468   0.6654 C.3            1 S1                 0.0000
      7 ****         1.4203   0.2129   0.7221 C.3            1 S1                 0.0000
      8 ****         1.8307  -0.8908   1.5825 N.am           1 S1                 0.0000
      9 ****         1.7674  -2.1870   1.2444 C.2            1 S1                 0.0000
     10 ****         1.3423  -2.5804   0.1576 O.2            1 S1                 0.0000
     11 ****         2.2204  -2.9748   2.2353 N.am           1 S1                 0.0000
     12 ****         2.2975  -4.3923   2.2625 C.2            1 S1                 0.0000
     13 ****         1.8932  -5.1890   1.2661 N.2            1 S1                 0.0000
     14 ****         2.0850  -6.5404   1.5650 C.2            1 S1                 0.0000
     15 ****         2.6391  -6.7557   2.8026 C.2            1 S1                 0.0000
     16 ****         2.9438  -5.2610   3.6469 S.3            1 S1                 0.0000
     17 ****        -0.4486   1.2013  -1.6384 C.3            1 S1                 0.0000
     18 ****        -0.7982   2.4452  -2.4724 C.3            1 S1                 0.0000
     19 ****        -1.8609   5.0445  -2.7201 H              1 S1                 0.0000
     20 ****        -3.5590   4.5757  -2.7069 H              1 S1                 0.0000
     21 ****        -2.5076   4.0321  -4.0087 H              1 S1                 0.0000
     22 ****        -2.9278   2.1978  -2.3898 H              1 S1                 0.0000
     23 ****        -1.6305   4.0435  -0.3364 H              1 S1                 0.0000
     24 ****        -3.3016   3.5336  -0.3477 H              1 S1                 0.0000
     25 ****        -1.9492   2.1935   1.2475 H              1 S1                 0.0000
     26 ****        -2.6381   1.1686   0.0032 H              1 S1                 0.0000
     27 ****        -0.4747   0.4952   1.6843 H              1 S1                 0.0000
     28 ****        -0.5800  -0.5725   0.3069 H              1 S1                 0.0000
     29 ****         1.8484   0.0665  -0.2699 H              1 S1                 0.0000
     30 ****         1.8584   1.1303   1.1162 H              1 S1                 0.0000
     31 ****         2.1949  -0.6515   2.4935 H              1 S1                 0.0000
     32 ****         2.5467  -2.5084   3.0689 H              1 S1                 0.0000
     33 ****         1.7978  -7.2850   0.8373 H              1 S1                 0.0000
     34 ****         2.8852  -7.6991   3.2668 H              1 S1                 0.0000
     35 ****         0.5605   0.8803  -1.8938 H              1 S1                 0.0000
     36 ****        -1.1150   0.3772  -1.8988 H              1 S1                 0.0000
     37 ****        -0.7391   2.2023  -3.5340 H              1 S1                 0.0000
     38 ****        -0.0558   3.2244  -2.2928 H              1 S1                 0.0000
     39 ****         0.0774   2.2485   0.0172 H              1 S1                 0.0000
     40 ****         1.0229  -1.9208  -0.5228 LP             1 S1                 0.0000
     41 ****         1.3165  -3.5594  -0.0445 LP             1 S1                 0.0000
     42 ****         1.5002  -4.8564   0.4088 LP             1 S1                 0.0000
@<TRIPOS>BOND
    1    1    2 1     
    2    1   19 1     
    3    1   20 1     
    4    1   21 1     
    5    2   18 1     
    6    2    3 1     
    7    2   22 1     
    8    3    4 1     
    9    3   23 1     
   10    3   24 1     
   11    4    5 1     
   12    4   25 1     
   13    4   26 1     
   14    5    6 1     
   15    5   17 1     
   16    5   39 1     
   17    6    7 1     
   18    6   27 1     
   19    6   28 1     
   20    7    8 1     
   21    7   29 1     
   22    7   30 1     
   23    8    9 am    
   24    8   31 1     
   25    9   10 2     
   26    9   11 am    
   27   11   12 1     
   28   11   32 1     
   29   12   16 1     
   30   12   13 2     
   31   13   14 1     
   32   14   15 2     
   33   14   33 1     
   34   15   16 1     
   35   15   34 1     
   36   17   18 1     
   37   17   35 1     
   38   17   36 1     
   39   18   37 1     
   40   18   38 1     
   41   10   40 1     
   42   10   41 1     
   43   13   42 1     
@<TRIPOS>SUBSTRUCTURE
      1 S1             1
@<TRIPOS>SET
LONE_PAIRS      STATIC     ATOMS    <user>   **** ""
3 40 41 42
DONOR_HYDROGENS      STATIC     ATOMS    <user>   **** ""
3 39 31 32
ATOM$BLUE        STATIC     ATOMS    COLORGROUP SYSTEM
3 40 41 42
ATOM$RED        STATIC     ATOMS    COLORGROUP SYSTEM
3 39 31 32
