#       Name:                AV-unprocessed.smi:1711
#       Creating user name   scv26
#       Creation time:       Fri Mar 27 08:10:28 2020


#       File generated by GOLD software.
#

@<TRIPOS>MOLECULE
AV-unprocessed.smi:1711
    40    41     1
SMALL
NO_CHARGES


@<TRIPOS>ATOM
      1 ****        -1.8084   1.2745   0.9910 O.2            1 S1                 0.0000
      2 ****        -2.3044   0.1499   0.9181 C.2            1 S1                 0.0000
      3 ****        -1.5765  -0.9741   0.8512 N.am           1 S1                 0.0000
      4 ****        -0.1191  -1.0232   0.8684 C.3            1 S1                 0.0000
      5 ****         0.4765  -0.6551  -0.5045 C.3            1 S1                 0.0000
      6 ****         1.9592  -0.7301  -0.5142 N.4            1 S1                 1.0000
      7 ****         2.5025  -0.9497  -1.8803 C.3            1 S1                 0.0000
      8 ****         4.0256  -1.1623  -1.8464 C.3            1 S1                 0.0000
      9 ****         4.7307   0.0185  -1.1672 C.3            1 S1                 0.0000
     10 ****         4.1326   0.2530   0.2259 C.3            1 S1                 0.0000
     11 ****         2.6069   0.4337   0.1493 C.3            1 S1                 0.0000
     12 ****        -3.6207  -0.1154   0.8906 N.am           1 S1                 0.0000
     13 ****        -4.6879   0.8160   0.9574 C.2            1 S1                 0.0000
     14 ****        -6.0663   0.4718   0.9087 C.2            1 S1                 0.0000
     15 ****        -6.8366   1.5467   0.9961 N.2            1 S1                 0.0000
     16 ****        -5.9633   2.5737   1.1014 N.pl3          1 S1                 0.0000
     17 ****        -4.6445   2.1765   1.0819 C.2            1 S1                 0.0000
     18 ****        -6.2795   3.5294   1.1859 H              1 S1                 0.0000
     19 ****        -2.0646  -1.8565   0.7969 H              1 S1                 0.0000
     20 ****         0.2501  -0.3658   1.6560 H              1 S1                 0.0000
     21 ****         0.1820  -2.0343   1.1439 H              1 S1                 0.0000
     22 ****         0.0742  -1.3520  -1.2413 H              1 S1                 0.0000
     23 ****         0.1599   0.3404  -0.8199 H              1 S1                 0.0000
     24 ****         2.0318  -1.8252  -2.3294 H              1 S1                 0.0000
     25 ****         2.2545  -0.0959  -2.5131 H              1 S1                 0.0000
     26 ****         4.2552  -2.0844  -1.3103 H              1 S1                 0.0000
     27 ****         4.4073  -1.2907  -2.8596 H              1 S1                 0.0000
     28 ****         5.8015  -0.1736  -1.0914 H              1 S1                 0.0000
     29 ****         4.6156   0.9169  -1.7750 H              1 S1                 0.0000
     30 ****         4.3692  -0.5923   0.8736 H              1 S1                 0.0000
     31 ****         4.5894   1.1310   0.6836 H              1 S1                 0.0000
     32 ****         2.3658   1.3464  -0.3980 H              1 S1                 0.0000
     33 ****         2.2175   0.5617   1.1586 H              1 S1                 0.0000
     34 ****        -3.8898  -1.0858   0.8199 H              1 S1                 0.0000
     35 ****        -6.5239  -0.5021   0.8156 H              1 S1                 0.0000
     36 ****        -3.8280   2.8793   1.1581 H              1 S1                 0.0000
     37 ****         2.2071  -1.5508   0.0198 H              1 S1                 0.0000
     38 ****        -0.8144   1.3828   1.0026 LP             1 S1                 0.0000
     39 ****        -2.3997   2.0796   1.0385 LP             1 S1                 0.0000
     40 ****        -7.8357   1.5887   0.9864 LP             1 S1                 0.0000
@<TRIPOS>BOND
    1    1    2 2     
    2    2    3 am    
    3    2   12 am    
    4    3    4 1     
    5    3   19 1     
    6    4    5 1     
    7    4   20 1     
    8    4   21 1     
    9    5    6 1     
   10    5   22 1     
   11    5   23 1     
   12    6   11 1     
   13    6    7 1     
   14    6   37 1     
   15    7    8 1     
   16    7   24 1     
   17    7   25 1     
   18    8    9 1     
   19    8   26 1     
   20    8   27 1     
   21    9   10 1     
   22    9   28 1     
   23    9   29 1     
   24   10   11 1     
   25   10   30 1     
   26   10   31 1     
   27   11   32 1     
   28   11   33 1     
   29   12   13 1     
   30   12   34 1     
   31   13   17 2     
   32   13   14 1     
   33   14   15 2     
   34   14   35 1     
   35   15   16 1     
   36   16   18 1     
   37   16   17 1     
   38   17   36 1     
   39    1   38 1     
   40    1   39 1     
   41   15   40 1     
@<TRIPOS>SUBSTRUCTURE
      1 S1             1
@<TRIPOS>SET
LONE_PAIRS      STATIC     ATOMS    <user>   **** ""
3 38 39 40
DONOR_HYDROGENS      STATIC     ATOMS    <user>   **** ""
4 19 37 34 18
ATOM$BLUE        STATIC     ATOMS    COLORGROUP SYSTEM
3 38 39 40
ATOM$RED        STATIC     ATOMS    COLORGROUP SYSTEM
4 19 37 34 18
