AV-unprocessed.smi:16|AV-procd|sdf|87|dock9
  -GOLD-   2262015223D 1   1.00000     0.00000
 Structure written by MMmdl.
 60 64  0  0  0  0  0  0  0  0  2 V2000
  148.6766  141.7555  156.9457 C   0  0  0  0  0  0  0  0  0  0  0  0
  149.0436  142.5309  158.2180 C   0  0  0  0  0  0  0  0  0  0  0  0
  150.0440  143.6008  157.9630 N   0  3  1  0  0  0  0  0  0  0  0  0
  150.3673  144.4514  159.1395 C   0  0  0  0  0  0  0  0  0  0  0  0
  151.3045  143.7378  160.1268 C   0  0  0  0  0  0  0  0  0  0  0  0
  152.5938  143.2763  159.4188 C   0  0  1  0  0  0  0  0  0  0  0  0
  153.4977  142.6151  160.3043 O   0  0  0  0  0  0  0  0  0  0  0  0
  153.0742  141.3216  160.7250 C   0  0  0  0  0  0  0  0  0  0  0  0
  152.8375  140.4269  159.5018 C   0  0  0  0  0  0  0  0  0  0  0  0
  151.8948  141.0507  158.5798 N   0  0  0  0  0  0  0  0  0  0  0  0
  151.5520  140.1766  157.6039 C   0  0  0  0  0  0  0  0  0  0  0  0
  151.7625  140.4849  156.2969 N   0  0  0  0  0  0  0  0  0  0  0  0
  151.4294  139.6107  155.3426 C   0  0  0  0  0  0  0  0  0  0  0  0
  150.8881  138.3975  155.4743 N   0  0  0  0  0  0  0  0  0  0  0  0
  150.6871  138.0812  156.7863 C   0  0  0  0  0  0  0  0  0  0  0  0
  150.9911  138.9074  157.9037 C   0  0  0  0  0  0  0  0  0  0  0  0
  150.6450  138.2637  159.0842 N   0  0  0  0  0  0  0  0  0  0  0  0
  150.1628  137.1175  158.6871 C   0  0  0  0  0  0  0  0  0  0  0  0
  150.1550  136.9211  157.3234 N   0  0  0  0  0  0  0  0  0  0  0  0
  149.6731  135.7636  156.6245 C   0  0  0  0  0  0  0  0  0  0  0  0
  149.3028  134.4889  157.3830 C   0  0  0  0  0  0  0  0  0  0  0  0
  149.7640  133.6448  156.1732 C   0  0  0  0  0  0  0  0  0  0  0  0
  150.5596  132.3772  156.5258 C   0  0  0  0  0  0  0  0  0  0  0  0
  151.1911  132.5030  157.7838 O   0  0  0  0  0  0  0  0  0  0  0  0
  148.6532  133.2811  155.1669 C   0  0  0  0  0  0  0  0  0  0  0  0
  149.1908  132.7485  153.9732 O   0  0  0  0  0  0  0  0  0  0  0  0
  150.6130  134.8821  155.7994 C   0  0  0  0  0  0  0  0  0  0  0  0
  152.2921  142.4059  158.1757 C   0  0  1  0  0  0  0  0  0  0  0  0
  151.2681  143.1325  157.2562 C   0  0  0  0  0  0  0  0  0  0  0  0
  153.1123  144.1734  159.0781 H   0  0  0  0  0  0  0  0  0  0  0  0
  153.2243  142.3034  157.6178 H   0  0  0  0  0  0  0  0  0  0  0  0
  148.0190  140.9197  157.1855 H   0  0  0  0  0  0  0  0  0  0  0  0
  149.5647  141.3477  156.4620 H   0  0  0  0  0  0  0  0  0  0  0  0
  148.1536  142.3794  156.2217 H   0  0  0  0  0  0  0  0  0  0  0  0
  148.1462  142.9366  158.6843 H   0  0  0  0  0  0  0  0  0  0  0  0
  149.4619  141.8160  158.9274 H   0  0  0  0  0  0  0  0  0  0  0  0
  150.8513  145.3597  158.7784 H   0  0  0  0  0  0  0  0  0  0  0  0
  149.4597  144.7781  159.6457 H   0  0  0  0  0  0  0  0  0  0  0  0
  151.5578  144.4121  160.9451 H   0  0  0  0  0  0  0  0  0  0  0  0
  150.7770  142.8990  160.5782 H   0  0  0  0  0  0  0  0  0  0  0  0
  153.8521  140.8894  161.3544 H   0  0  0  0  0  0  0  0  0  0  0  0
  152.1794  141.3825  161.3436 H   0  0  0  0  0  0  0  0  0  0  0  0
  153.7824  140.2494  158.9855 H   0  0  0  0  0  0  0  0  0  0  0  0
  152.4650  139.4550  159.8290 H   0  0  0  0  0  0  0  0  0  0  0  0
  151.6249  139.9278  154.3288 H   0  0  0  0  0  0  0  0  0  0  0  0
  149.7951  136.3794  159.3853 H   0  0  0  0  0  0  0  0  0  0  0  0
  148.8356  136.0919  156.0070 H   0  0  0  0  0  0  0  0  0  0  0  0
  149.9202  134.3327  158.2696 H   0  0  0  0  0  0  0  0  0  0  0  0
  148.2435  134.4001  157.6260 H   0  0  0  0  0  0  0  0  0  0  0  0
  149.9243  131.4914  156.5333 H   0  0  0  0  0  0  0  0  0  0  0  0
  151.3357  132.1890  155.7835 H   0  0  0  0  0  0  0  0  0  0  0  0
  151.2622  131.6439  158.1708 H   0  0  0  0  0  0  0  0  0  0  0  0
  147.9529  132.5594  155.5882 H   0  0  0  0  0  0  0  0  0  0  0  0
  148.0598  134.1563  154.9020 H   0  0  0  0  0  0  0  0  0  0  0  0
  148.6467  132.0279  153.6945 H   0  0  0  0  0  0  0  0  0  0  0  0
  150.6344  135.1239  154.7363 H   0  0  0  0  0  0  0  0  0  0  0  0
  151.6249  134.8407  156.2055 H   0  0  0  0  0  0  0  0  0  0  0  0
  150.9960  142.5383  156.3842 H   0  0  0  0  0  0  0  0  0  0  0  0
  151.7538  144.0200  156.8486 H   0  0  0  0  0  0  0  0  0  0  0  0
  149.5865  144.2136  157.3031 H   0  0  0  0  0  0  0  0  0  0  0  0
  1  2  1  0  0  0  0
  1 32  1  0  0  0  0
  1 33  1  0  0  0  0
  1 34  1  0  0  0  0
  2  3  1  0  0  0  0
  2 35  1  0  0  0  0
  2 36  1  0  0  0  0
  3 29  1  0  0  0  0
  3  4  1  0  0  0  0
  3 60  1  0  0  0  0
  4  5  1  0  0  0  0
  4 37  1  0  0  0  0
  4 38  1  0  0  0  0
  5  6  1  0  0  0  0
  5 39  1  0  0  0  0
  5 40  1  0  0  0  0
  6 30  1  0  0  0  0
  6 28  1  0  0  0  0
  6  7  1  0  0  0  0
  7  8  1  0  0  0  0
  8  9  1  0  0  0  0
  8 41  1  0  0  0  0
  8 42  1  0  0  0  0
  9 10  1  0  0  0  0
  9 43  1  0  0  0  0
  9 44  1  0  0  0  0
 10 11  1  0  0  0  0
 10 28  1  0  0  0  0
 11 16  1  0  0  0  0
 11 12  2  0  0  0  0
 12 13  1  0  0  0  0
 13 14  2  0  0  0  0
 13 45  1  0  0  0  0
 14 15  1  0  0  0  0
 15 19  1  0  0  0  0
 15 16  2  0  0  0  0
 16 17  1  0  0  0  0
 17 18  2  0  0  0  0
 18 19  1  0  0  0  0
 18 46  1  0  0  0  0
 19 20  1  0  0  0  0
 20 27  1  0  0  0  0
 20 21  1  0  0  0  0
 20 47  1  0  0  0  0
 21 22  1  0  0  0  0
 21 48  1  0  0  0  0
 21 49  1  0  0  0  0
 22 23  1  0  0  0  0
 22 25  1  0  0  0  0
 22 27  1  0  0  0  0
 23 24  1  0  0  0  0
 23 50  1  0  0  0  0
 23 51  1  0  0  0  0
 24 52  1  0  0  0  0
 25 26  1  0  0  0  0
 25 53  1  0  0  0  0
 25 54  1  0  0  0  0
 26 55  1  0  0  0  0
 27 56  1  0  0  0  0
 27 57  1  0  0  0  0
 28 31  1  0  0  0  0
 28 29  1  0  0  0  0
 29 58  1  0  0  0  0
 29 59  1  0  0  0  0
M  CHG  1   3   1
M  END
> <s_m_source_file>
AV-unprocessed.smi

> <i_m_source_file_index>
16

> <i_lp_mmshare_version>
43012

> <i_f3d_flags>
0

> <s_epik_input>
W0NIM11bQ0gyXU4oW0NIMl1bQ0gyXTEpW0NIMl1bQ0BASF0oW0NAQEhdMTIpTihbQ0gyXVtDSDJdTzIpYyhuW2NIXW4zKWMoYzM0KW5bY0hdbjRbQ0hdKFtDSDJdNSlbQ0gyXUM1KFtDSDJdW09IXSlbQ0gyXVtPSF0=

> <s_epik_cmdline>
J2VwaWtfcHl0aG9uJywgJy1waCcsICc3LjAnLCAnLXRuJywgJzgnLCAnLW1hJywgJzIwMCcsICctbWV0YWxfYmluZGluZycsICctaW1hZScsICc8aW5maWxlLm1hZT4nLCAnLW9tYWUnLCAnPG91dGZpbGUubWFlPic=

> <r_lp_tautomer_probability>
1

> <r_epik_Ionization_Penalty>
0.0135603

> <r_epik_Ionization_Penalty_Charging>
0.0131385

> <r_epik_Ionization_Penalty_Neutral>
0.000421734

> <r_epik_State_Penalty>
0.0102091

> <r_epik_Charging_Adjusted_Penalty>
0.0233476

> <i_epik_Tot_Q>
1

> <i_epik_Tot_abs_Q>
1

> <r_epik_Metal_State_Penalty>
0.0103746

> <b_epik_Metal_Only>
0

> <s_lp_Force_Field>
OPLS_2005

> <r_lp_Energy>
65.3073

> <b_lp_Chiralities_Consistent>
1

> <s_lp_Variant>
AV-unprocessed.smi:16-1

> <Gold.Version>
5.8.1

> <Gold.Id.Protein>
6NUR|6NUR_protein|mol2

> <Gold.PLP.Fitness>
46.4615

> <Gold.PLP.PLP>
-38.1487

> <Gold.PLP.part.hbond>
-2.4683

> <Gold.PLP.part.metal>
0.0000

> <Gold.PLP.part.buried>
-7.0126

> <Gold.PLP.part.nonpolar>
-29.6288

> <Gold.PLP.part.repulsive>
0.0756

> <Gold.PLP.ligand.clash>
0.0000

> <Gold.PLP.ligand.torsion>
0.6798

> <Gold.PLP.Chemscore.Hbond>
3.0000

> <Gold.PLP.Chemscore.CHOScore>
0.0000

> <Gold.PLP.Chemscore.Metal>
0.0000

> <Gold.Chemscore.Hbonds>
donor molecule, donor type, donor heavy atom, donor atom, acceptor molecule, acceptor atom, score
      L1  H     3    60       P1  8028  2.00
      P1  H  6896  6909       L1    24  0.95

> <Gold.PLP.Chemscore.Internal.Correction>
0.6724

> <Gold.Rescore>
     Score         DG    S(hbond)    S(metal)    S(lipo)     H(rot)  DE(clash)    DE(int)     intcor
     11.75     -13.85       1.74        0.00      94.49       3.33       0.04       2.06       ----

> <Gold.Chemscore.Fitness>
11.7521

> <Gold.Chemscore.DG>
-13.8513

> <Gold.Chemscore.ZeroCoef>
-5.4800

> <Gold.Chemscore.Hbond>
1.7449

> <Gold.Chemscore.Metal>
0.0000

> <Gold.Chemscore.Lipo>
94.4921

> <Gold.Chemscore.Internal_Hbond>
0.0000

> <Gold.Chemscore.DEClash>
0.0354

> <Gold.Chemscore.DEInternal>
2.0639

> <Gold.Chemscore.Rot>
3.3251

> <Gold.Chemscore.Internal.Correction>
   9.000000E+99

> <Gold.Chemscore.Hbonds>
donor molecule, donor type, donor heavy atom, donor atom, acceptor molecule, acceptor atom, score
      L1  H     3    60       P1  8028  0.30
      P1  H  6896  6909       L1    24  0.21

> <Gold.Chemscore.Hbond.Weighted>
-5.8279

> <Gold.Chemscore.Metal.Weighted>
-0.0000

> <Gold.Chemscore.Lipo.Weighted>
-11.0556

> <Gold.Chemscore.Internal_Hbond.Weighted>
0.0000

> <Gold.Chemscore.DEClash.Weighted>
0.0354

> <Gold.Chemscore.DEInternal.Weighted>
2.0639

> <Gold.Chemscore.Rot.Weighted>
8.5122

> <Gold.Chemscore.Internal.Correction.Weighted>
   9.000000E+99

> <Gold.Protein.RotatedTorsions>
[ 6907 6896 6895 6894 ] final  -27.98 input  -60.11 | X-H torsion
[ 7974 7965 7964 7962 ] final  122.15 input  175.53 | X-H torsion
[ 8008 7997 7996 7995 ] final   29.56 input   59.86 | X-H torsion
[ 10167 10162 10161 10158 ] final   45.04 input  -65.29 | X-H torsion
[ 10718 10713 10712 10709 ] final  107.39 input   66.30 | X-H torsion
[ 10763 10752 10751 10750 ] final  -64.82 input  -60.55 | X-H torsion
[ 11005 11000 10999 10996 ] final   28.26 input  -57.11 | X-H torsion

> <Gold.Protein.ActiveResidues>
 VAL166  LYS551  ARG553  GLY616  TRP617  ASP618  TYR619  PRO620  LYS621  CYS622 
 ASP623  PHE694  ASN695  SER759  ASP760  ASP761  ALA762  ILE779  LEU786  VAL792 
 PHE793  MET794  SER795  GLU796  ALA797  LYS798  CYS799  TRP800  GLU811  SER814 

> <Gold.Protein.RotatedAtoms>
  151.1394  135.0171  159.8618 H   0  0  0  0  0  0  0  0  0  0  0  0  # atno 6907 bound_to 6896
  152.5452  134.1517  159.8531 H   0  0  0  0  0  0  0  0  0  0  0  0  # atno 6908 bound_to 6896
  151.1591  133.4811  159.2627 H   0  0  0  0  0  0  0  0  0  0  0  0  # atno 6909 bound_to 6896
  145.1110  139.3453  143.4763 H   0  0  0  0  0  0  0  0  0  0  0  0  # atno 7974 bound_to 7965
  155.0764  140.3205  155.4614 H   0  0  0  0  0  0  0  0  0  0  0  0  # atno 8008 bound_to 7997
  156.2778  140.2102  156.5837 H   0  0  0  0  0  0  0  0  0  0  0  0  # atno 8009 bound_to 7997
  154.7013  140.0507  157.0448 H   0  0  0  0  0  0  0  0  0  0  0  0  # atno 8010 bound_to 7997
  140.3282  144.2621  150.6172 H   0  0  0  0  0  0  0  0  0  0  0  0  # atno 10167 bound_to 10162
  157.6630  131.0871  150.6149 H   0  0  0  0  0  0  0  0  0  0  0  0  # atno 10718 bound_to 10713
  154.3359  135.6167  153.5573 H   0  0  0  0  0  0  0  0  0  0  0  0  # atno 10763 bound_to 10752
  152.9808  135.5758  154.4909 H   0  0  0  0  0  0  0  0  0  0  0  0  # atno 10764 bound_to 10752
  154.4604  135.2855  155.1694 H   0  0  0  0  0  0  0  0  0  0  0  0  # atno 10765 bound_to 10752
  140.3175  134.2581  155.7723 H   0  0  0  0  0  0  0  0  0  0  0  0  # atno 11005 bound_to 11000
  146.3526  140.1028  142.8607 LP  0  0  0  0  0  0  0  0  0  0  0  0  # atno 17320 bound_to 7965
  145.0847  140.9245  143.4804 LP  0  0  0  0  0  0  0  0  0  0  0  0  # atno 17321 bound_to 7965
  140.5421  143.2221  151.8067 LP  0  0  0  0  0  0  0  0  0  0  0  0  # atno 17342 bound_to 10162
  139.4861  144.4586  151.9568 LP  0  0  0  0  0  0  0  0  0  0  0  0  # atno 17343 bound_to 10162
  156.6451  130.4469  149.5739 LP  0  0  0  0  0  0  0  0  0  0  0  0  # atno 17370 bound_to 10713
  156.2180  130.6719  151.1338 LP  0  0  0  0  0  0  0  0  0  0  0  0  # atno 17371 bound_to 10713
  141.2094  133.7749  156.9997 LP  0  0  0  0  0  0  0  0  0  0  0  0  # atno 17394 bound_to 11000
  140.0971  134.9558  157.1866 LP  0  0  0  0  0  0  0  0  0  0  0  0  # atno 17395 bound_to 11000

$$$$
