AV-unprocessed.smi:581|AV-procd|sdf|2994|dock10
  -GOLD-   2262023503D 1   1.00000     0.00000
 Structure written by MMmdl.
 34 35  0  0  0  0  0  0  0  0  3 V2000
  151.7113  139.3332  156.0720 C   0  0  0  0  0  0  0  0  0  0  0  0
  152.1718  139.7671  157.4524 C   0  0  0  0  0  0  0  0  0  0  0  0
  151.9608  141.1169  157.7718 N   0  0  0  0  0  0  0  0  0  0  0  0
  152.3182  141.5775  158.9329 C   0  0  0  0  0  0  0  0  0  0  0  0
  152.1227  142.9142  159.2921 N   0  0  0  0  0  0  0  0  0  0  0  0
  151.8435  143.9371  158.2813 C   0  0  0  0  0  0  0  0  0  0  0  0
  151.1187  145.1463  158.8950 C   0  0  0  0  0  0  0  0  0  0  0  0
  151.8839  145.6673  159.9734 O   0  0  0  0  0  0  0  0  0  0  0  0
  152.0440  144.7035  161.0054 C   0  0  0  0  0  0  0  0  0  0  0  0
  152.7983  143.4791  160.4608 C   0  0  0  0  0  0  0  0  0  0  0  0
  152.9257  140.7830  159.8922 N   0  5  0  0  0  0  0  0  0  0  0  0
  153.1555  139.4603  159.6535 C   0  0  0  0  0  0  0  0  0  0  0  0
  153.6817  138.7297  160.4922 O   0  0  0  0  0  0  0  0  0  0  0  0
  152.7498  138.9156  158.3459 C   0  0  0  0  0  0  0  0  0  0  0  0
  153.0134  137.4403  158.0474 C   0  0  0  0  0  0  0  0  0  0  0  0
  154.4989  137.0703  158.2097 C   0  0  0  0  0  0  0  0  0  0  0  0
  154.6910  135.5562  158.1208 C   0  0  0  0  0  0  0  0  0  0  0  0
  154.1607  134.8579  159.0125 O   0  0  0  0  0  0  0  0  0  0  0  0
  155.3668  135.1215  157.1623 O   0  5  0  0  0  0  0  0  0  0  0  0
  151.0765  138.4492  156.1378 H   0  0  0  0  0  0  0  0  0  0  0  0
  152.5699  139.0995  155.4421 H   0  0  0  0  0  0  0  0  0  0  0  0
  151.1371  140.1204  155.5820 H   0  0  0  0  0  0  0  0  0  0  0  0
  152.7890  144.2563  157.8413 H   0  0  0  0  0  0  0  0  0  0  0  0
  151.2391  143.5425  157.4642 H   0  0  0  0  0  0  0  0  0  0  0  0
  150.9891  145.9258  158.1441 H   0  0  0  0  0  0  0  0  0  0  0  0
  150.1216  144.8674  159.2397 H   0  0  0  0  0  0  0  0  0  0  0  0
  152.6029  145.1530  161.8261 H   0  0  0  0  0  0  0  0  0  0  0  0
  151.0704  144.4136  161.4040 H   0  0  0  0  0  0  0  0  0  0  0  0
  152.8801  142.7326  161.2523 H   0  0  0  0  0  0  0  0  0  0  0  0
  153.8145  143.7596  160.1807 H   0  0  0  0  0  0  0  0  0  0  0  0
  152.4057  136.8157  158.7021 H   0  0  0  0  0  0  0  0  0  0  0  0
  152.6723  137.2054  157.0379 H   0  0  0  0  0  0  0  0  0  0  0  0
  155.0991  137.5546  157.4385 H   0  0  0  0  0  0  0  0  0  0  0  0
  154.8760  137.4253  159.1697 H   0  0  0  0  0  0  0  0  0  0  0  0
  1  2  1  0  0  0  0
  1 20  1  0  0  0  0
  1 21  1  0  0  0  0
  1 22  1  0  0  0  0
  2 14  2  0  0  0  0
  2  3  1  0  0  0  0
  3  4  2  0  0  0  0
  4  5  1  0  0  0  0
  4 11  1  0  0  0  0
  5 10  1  0  0  0  0
  5  6  1  0  0  0  0
  6  7  1  0  0  0  0
  6 23  1  0  0  0  0
  6 24  1  0  0  0  0
  7  8  1  0  0  0  0
  7 25  1  0  0  0  0
  7 26  1  0  0  0  0
  8  9  1  0  0  0  0
  9 10  1  0  0  0  0
  9 27  1  0  0  0  0
  9 28  1  0  0  0  0
 10 29  1  0  0  0  0
 10 30  1  0  0  0  0
 11 12  1  0  0  0  0
 12 13  2  0  0  0  0
 12 14  1  0  0  0  0
 14 15  1  0  0  0  0
 15 16  1  0  0  0  0
 15 31  1  0  0  0  0
 15 32  1  0  0  0  0
 16 17  1  0  0  0  0
 16 33  1  0  0  0  0
 16 34  1  0  0  0  0
 17 18  2  0  0  0  0
 17 19  1  0  0  0  0
M  CHG  1  11  -1
M  CHG  1  19  -1
M  END
> <s_m_source_file>
AV-unprocessed.smi

> <i_m_source_file_index>
581

> <i_lp_mmshare_version>
43012

> <i_f3d_flags>
0

> <s_epik_input>
W0NIMl0xW0NIMl1PW0NIMl1bQ0gyXU4xYyhuYzJbQ0gzXSlbbkhdYyg9TyljMltDSDJdW0NIMl1DKD1PKVtPSF0=

> <s_epik_cmdline>
J2VwaWtfcHl0aG9uJywgJy1waCcsICc3LjAnLCAnLXRuJywgJzgnLCAnLW1hJywgJzIwMCcsICctbWV0YWxfYmluZGluZycsICctaW1hZScsICc8aW5maWxlLm1hZT4nLCAnLW9tYWUnLCAnPG91dGZpbGUubWFlPic=

> <r_lp_tautomer_probability>
0.878553

> <r_epik_Ionization_Penalty>
5.42566

> <r_epik_Ionization_Penalty_Charging>
0.003235

> <r_epik_Ionization_Penalty_Neutral>
5.42243

> <r_epik_State_Penalty>
3.98511

> <r_epik_Charging_Adjusted_Penalty>
3.98834

> <i_epik_Tot_Q>
-2

> <i_epik_Tot_abs_Q>
2

> <r_epik_Metal_State_Penalty>
0.64219

> <b_epik_Metal_Only>
1

> <s_lp_Force_Field>
OPLS_2005

> <r_lp_Energy>
30.9787

> <b_lp_Chiralities_Consistent>
1

> <s_lp_Variant>
AV-unprocessed.smi:581-4

> <Gold.Version>
5.8.1

> <Gold.Id.Protein>
6NUR|6NUR_protein|mol2

> <Gold.PLP.Fitness>
44.2024

> <Gold.PLP.PLP>
-32.3508

> <Gold.PLP.part.hbond>
-2.0000

> <Gold.PLP.part.metal>
0.0000

> <Gold.PLP.part.buried>
-5.4335

> <Gold.PLP.part.nonpolar>
-25.8068

> <Gold.PLP.part.repulsive>
0.1478

> <Gold.PLP.ligand.clash>
0.0000

> <Gold.PLP.ligand.torsion>
0.1564

> <Gold.PLP.Chemscore.Hbond>
3.9840

> <Gold.PLP.Chemscore.CHOScore>
0.0000

> <Gold.PLP.Chemscore.Metal>
0.0000

> <Gold.Chemscore.Hbonds>
donor molecule, donor type, donor heavy atom, donor atom, acceptor molecule, acceptor atom, score
      P1  H  6896  6908       L1    18  2.00
      P1  H 10752 10764       L1    19  1.59

> <Gold.PLP.Chemscore.Internal.Correction>
0.2123

> <Gold.Rescore>
     Score         DG    S(hbond)    S(metal)    S(lipo)     H(rot)  DE(clash)    DE(int)     intcor
     15.05     -15.28       1.95        0.00      68.86       1.86       0.04       0.19       ----

> <Gold.Chemscore.Fitness>
15.0484

> <Gold.Chemscore.DG>
-15.2797

> <Gold.Chemscore.ZeroCoef>
-5.4800

> <Gold.Chemscore.Hbond>
1.9499

> <Gold.Chemscore.Metal>
0.0000

> <Gold.Chemscore.Lipo>
68.8572

> <Gold.Chemscore.Internal_Hbond>
0.0000

> <Gold.Chemscore.DEClash>
0.0411

> <Gold.Chemscore.DEInternal>
0.1902

> <Gold.Chemscore.Rot>
1.8630

> <Gold.Chemscore.Internal.Correction>
   9.000000E+99

> <Gold.Chemscore.Hbonds>
donor molecule, donor type, donor heavy atom, donor atom, acceptor molecule, acceptor atom, score
      P1  H  6896  6908       L1    18  0.98
      P1  H 10752 10764       L1    19  0.69

> <Gold.Chemscore.Hbond.Weighted>
-6.5128

> <Gold.Chemscore.Metal.Weighted>
-0.0000

> <Gold.Chemscore.Lipo.Weighted>
-8.0563

> <Gold.Chemscore.Internal_Hbond.Weighted>
0.0000

> <Gold.Chemscore.DEClash.Weighted>
0.0411

> <Gold.Chemscore.DEInternal.Weighted>
0.1902

> <Gold.Chemscore.Rot.Weighted>
4.7694

> <Gold.Chemscore.Internal.Correction.Weighted>
   9.000000E+99

> <Gold.Protein.RotatedTorsions>
[ 6907 6896 6895 6894 ] final  -31.82 input  -60.11 | X-H torsion
[ 7974 7965 7964 7962 ] final   14.12 input  175.53 | X-H torsion
[ 8008 7997 7996 7995 ] final  -47.99 input   59.86 | X-H torsion
[ 10167 10162 10161 10158 ] final  105.61 input  -65.29 | X-H torsion
[ 10718 10713 10712 10709 ] final   21.30 input   66.30 | X-H torsion
[ 10763 10752 10751 10750 ] final   50.29 input  -60.55 | X-H torsion
[ 11005 11000 10999 10996 ] final   91.74 input  -57.11 | X-H torsion

> <Gold.Protein.ActiveResidues>
 VAL166  LYS551  ARG553  GLY616  TRP617  ASP618  TYR619  PRO620  LYS621  CYS622 
 ASP623  PHE694  ASN695  SER759  ASP760  ASP761  ALA762  ILE779  LEU786  VAL792 
 PHE793  MET794  SER795  GLU796  ALA797  LYS798  CYS799  TRP800  GLU811  SER814 

> <Gold.Protein.RotatedAtoms>
  151.0869  134.9892  159.8383 H   0  0  0  0  0  0  0  0  0  0  0  0  # atno 6907 bound_to 6896
  152.5425  134.2113  159.8761 H   0  0  0  0  0  0  0  0  0  0  0  0  # atno 6908 bound_to 6896
  151.2146  133.4492  159.2632 H   0  0  0  0  0  0  0  0  0  0  0  0  # atno 6909 bound_to 6896
  146.2313  139.9088  142.8527 H   0  0  0  0  0  0  0  0  0  0  0  0  # atno 7974 bound_to 7965
  154.4023  140.1332  156.4266 H   0  0  0  0  0  0  0  0  0  0  0  0  # atno 8008 bound_to 7997
  155.7591  140.3486  155.5169 H   0  0  0  0  0  0  0  0  0  0  0  0  # atno 8009 bound_to 7997
  155.8876  140.0998  157.1432 H   0  0  0  0  0  0  0  0  0  0  0  0  # atno 8010 bound_to 7997
  139.7078  144.7083  151.1077 H   0  0  0  0  0  0  0  0  0  0  0  0  # atno 10167 bound_to 10162
  157.1365  130.6614  149.5968 H   0  0  0  0  0  0  0  0  0  0  0  0  # atno 10718 bound_to 10713
  152.9785  135.5884  154.4228 H   0  0  0  0  0  0  0  0  0  0  0  0  # atno 10763 bound_to 10752
  154.3851  135.2767  155.2190 H   0  0  0  0  0  0  0  0  0  0  0  0  # atno 10764 bound_to 10752
  154.4087  135.6086  153.5994 H   0  0  0  0  0  0  0  0  0  0  0  0  # atno 10765 bound_to 10752
  139.8834  134.8692  156.3471 H   0  0  0  0  0  0  0  0  0  0  0  0  # atno 11005 bound_to 11000
  145.2250  140.9950  143.4024 LP  0  0  0  0  0  0  0  0  0  0  0  0  # atno 17320 bound_to 7965
  144.9578  139.4012  143.6370 LP  0  0  0  0  0  0  0  0  0  0  0  0  # atno 17321 bound_to 7965
  140.7726  143.5334  150.9396 LP  0  0  0  0  0  0  0  0  0  0  0  0  # atno 17342 bound_to 10162
  139.9018  143.6826  152.3130 LP  0  0  0  0  0  0  0  0  0  0  0  0  # atno 17343 bound_to 10162
  155.9797  130.4792  150.6730 LP  0  0  0  0  0  0  0  0  0  0  0  0  # atno 17370 bound_to 10713
  157.4345  131.0853  151.1005 LP  0  0  0  0  0  0  0  0  0  0  0  0  # atno 17371 bound_to 10713
  140.9619  133.7383  156.0413 LP  0  0  0  0  0  0  0  0  0  0  0  0  # atno 17394 bound_to 11000
  140.7979  134.3543  157.5447 LP  0  0  0  0  0  0  0  0  0  0  0  0  # atno 17395 bound_to 11000

$$$$
