AV-unprocessed.smi:951|AV-procd|sdf|4251|dock7
  -GOLD-   22720 2153D 1   1.00000     0.00000
 Structure written by MMmdl.
 51 53  0  0  0  0  0  0  0  0  1 V2000
  152.7315  138.8502  156.9071 O   0  0  0  0  0  0  0  0  0  0  0  0
  151.6427  139.0756  156.3794 C   0  0  0  0  0  0  0  0  0  0  0  0
  150.7614  139.9519  156.8888 N   0  0  0  0  0  0  0  0  0  0  0  0
  150.9592  140.7263  158.1041 C   0  0  0  0  0  0  0  0  0  0  0  0
  152.2214  141.5912  157.9835 C   0  0  0  0  0  0  0  0  0  0  0  0
  152.2066  142.7666  158.9420 C   0  0  0  0  0  0  0  0  0  0  0  0
  151.8543  144.0581  158.4947 C   0  0  0  0  0  0  0  0  0  0  0  0
  151.8489  145.1128  159.4280 C   0  0  0  0  0  0  0  0  0  0  0  0
  152.1936  144.8371  160.7651 C   0  0  0  0  0  0  0  0  0  0  0  0
  152.5292  143.5129  161.1116 C   0  0  0  0  0  0  0  0  0  0  0  0
  152.5381  142.4946  160.2245 N   0  0  0  0  0  0  0  0  0  0  0  0
  151.2567  138.3169  155.0883 C   0  0  2  0  0  0  0  0  0  0  0  0
  150.5652  139.2607  154.0930 C   0  0  0  0  0  0  0  0  0  0  0  0
  149.0855  139.1171  154.4107 C   0  0  0  0  0  0  0  0  0  0  0  0
  148.9436  137.6578  154.8452 C   0  0  0  0  0  0  0  0  0  0  0  0
  150.2739  137.2388  155.2995 N   0  0  0  0  0  0  0  0  0  0  0  0
  150.5884  136.0295  155.8237 C   0  0  0  0  0  0  0  0  0  0  0  0
  151.7476  135.7475  156.1276 O   0  0  0  0  0  0  0  0  0  0  0  0
  149.4637  134.9950  156.0665 C   0  0  0  0  0  0  0  0  0  0  0  0
  149.9937  133.7512  156.8187 C   0  0  0  0  0  0  0  0  0  0  0  0
  150.8073  132.8054  155.9185 C   0  0  0  0  0  0  0  0  0  0  0  0
  149.9785  132.3600  154.7052 C   0  0  0  0  0  0  0  0  0  0  0  0
  149.4877  133.5681  153.8943 C   0  0  0  0  0  0  0  0  0  0  0  0
  148.7150  134.5719  154.7758 C   0  0  0  0  0  0  0  0  0  0  0  0
  149.8868  140.0813  156.4011 H   0  0  0  0  0  0  0  0  0  0  0  0
  150.0878  141.3593  158.2798 H   0  0  0  0  0  0  0  0  0  0  0  0
  151.0443  140.0462  158.9531 H   0  0  0  0  0  0  0  0  0  0  0  0
  153.1090  140.9875  158.1793 H   0  0  0  0  0  0  0  0  0  0  0  0
  152.3231  141.9621  156.9624 H   0  0  0  0  0  0  0  0  0  0  0  0
  151.5917  144.2374  157.4624 H   0  0  0  0  0  0  0  0  0  0  0  0
  151.5840  146.1148  159.1243 H   0  0  0  0  0  0  0  0  0  0  0  0
  152.2000  145.6208  161.5081 H   0  0  0  0  0  0  0  0  0  0  0  0
  152.7977  143.2648  162.1279 H   0  0  0  0  0  0  0  0  0  0  0  0
  152.1698  137.9213  154.6396 H   0  0  0  0  0  0  0  0  0  0  0  0
  150.9063  140.2956  154.1502 H   0  0  0  0  0  0  0  0  0  0  0  0
  150.7532  138.9150  153.0755 H   0  0  0  0  0  0  0  0  0  0  0  0
  148.8249  139.7749  155.2410 H   0  0  0  0  0  0  0  0  0  0  0  0
  148.4424  139.3730  153.5682 H   0  0  0  0  0  0  0  0  0  0  0  0
  148.1876  137.5520  155.6238 H   0  0  0  0  0  0  0  0  0  0  0  0
  148.6474  137.0456  153.9925 H   0  0  0  0  0  0  0  0  0  0  0  0
  148.7091  135.4661  156.6947 H   0  0  0  0  0  0  0  0  0  0  0  0
  150.6047  134.0502  157.6713 H   0  0  0  0  0  0  0  0  0  0  0  0
  149.1488  133.2037  157.2383 H   0  0  0  0  0  0  0  0  0  0  0  0
  151.7213  133.2973  155.5835 H   0  0  0  0  0  0  0  0  0  0  0  0
  151.1221  131.9325  156.4908 H   0  0  0  0  0  0  0  0  0  0  0  0
  150.5720  131.7023  154.0695 H   0  0  0  0  0  0  0  0  0  0  0  0
  149.1224  131.7742  155.0427 H   0  0  0  0  0  0  0  0  0  0  0  0
  150.3375  134.0528  153.4154 H   0  0  0  0  0  0  0  0  0  0  0  0
  148.8456  133.2270  153.0817 H   0  0  0  0  0  0  0  0  0  0  0  0
  147.7655  134.1181  155.0619 H   0  0  0  0  0  0  0  0  0  0  0  0
  148.4533  135.4514  154.1858 H   0  0  0  0  0  0  0  0  0  0  0  0
  1  2  2  0  0  0  0
  2  3  1  0  0  0  0
  2 12  1  0  0  0  0
  3  4  1  0  0  0  0
  3 25  1  0  0  0  0
  4  5  1  0  0  0  0
  4 26  1  0  0  0  0
  4 27  1  0  0  0  0
  5  6  1  0  0  0  0
  5 28  1  0  0  0  0
  5 29  1  0  0  0  0
  6 11  1  0  0  0  0
  6  7  2  0  0  0  0
  7  8  1  0  0  0  0
  7 30  1  0  0  0  0
  8  9  2  0  0  0  0
  8 31  1  0  0  0  0
  9 10  1  0  0  0  0
  9 32  1  0  0  0  0
 10 11  2  0  0  0  0
 10 33  1  0  0  0  0
 12 16  1  0  0  0  0
 12 13  1  0  0  0  0
 12 34  1  0  0  0  0
 13 14  1  0  0  0  0
 13 35  1  0  0  0  0
 13 36  1  0  0  0  0
 14 15  1  0  0  0  0
 14 37  1  0  0  0  0
 14 38  1  0  0  0  0
 15 16  1  0  0  0  0
 15 39  1  0  0  0  0
 15 40  1  0  0  0  0
 16 17  1  0  0  0  0
 17 18  2  0  0  0  0
 17 19  1  0  0  0  0
 19 24  1  0  0  0  0
 19 20  1  0  0  0  0
 19 41  1  0  0  0  0
 20 21  1  0  0  0  0
 20 42  1  0  0  0  0
 20 43  1  0  0  0  0
 21 22  1  0  0  0  0
 21 44  1  0  0  0  0
 21 45  1  0  0  0  0
 22 23  1  0  0  0  0
 22 46  1  0  0  0  0
 22 47  1  0  0  0  0
 23 24  1  0  0  0  0
 23 48  1  0  0  0  0
 23 49  1  0  0  0  0
 24 50  1  0  0  0  0
 24 51  1  0  0  0  0
M  END
> <s_m_source_file>
AV-unprocessed.smi

> <i_m_source_file_index>
951

> <i_lp_mmshare_version>
43012

> <i_f3d_flags>
0

> <s_epik_input>
bjFbY0hdW2NIXVtjSF1bY0hdYzFbQ0gyXVtDSDJdW05IXUMoPU8pW0NAQEhdMltDSDJdW0NIMl1bQ0gyXU4yQyg9TylbQ0hdM1tDSDJdW0NIMl1bQ0gyXVtDSDJdW0NIMl0z

> <s_epik_cmdline>
J2VwaWtfcHl0aG9uJywgJy1waCcsICc3LjAnLCAnLXRuJywgJzgnLCAnLW1hJywgJzIwMCcsICctbWV0YWxfYmluZGluZycsICctaW1hZScsICc8aW5maWxlLm1hZT4nLCAnLW9tYWUnLCAnPG91dGZpbGUubWFlPic=

> <r_epik_Ionization_Penalty>
0.0265505

> <r_epik_Ionization_Penalty_Charging>
0

> <r_epik_Ionization_Penalty_Neutral>
0.0265505

> <r_epik_State_Penalty>
0.02168

> <r_epik_Charging_Adjusted_Penalty>
0.02168

> <i_epik_Tot_Q>
0

> <i_epik_Tot_abs_Q>
0

> <r_epik_Metal_State_Penalty>
0.020746

> <b_epik_Metal_Only>
0

> <s_lp_Force_Field>
OPLS_2005

> <r_lp_Energy>
18.972

> <b_lp_Chiralities_Consistent>
1

> <s_lp_Variant>
AV-unprocessed.smi:951-1

> <Gold.Version>
5.8.1

> <Gold.Id.Protein>
6NUR|6NUR_protein|mol2

> <Gold.PLP.Fitness>
48.4033

> <Gold.PLP.PLP>
-44.1233

> <Gold.PLP.part.hbond>
-1.9975

> <Gold.PLP.part.metal>
0.0000

> <Gold.PLP.part.buried>
-5.4098

> <Gold.PLP.part.nonpolar>
-35.2800

> <Gold.PLP.part.repulsive>
0.0604

> <Gold.PLP.ligand.clash>
0.0000

> <Gold.PLP.ligand.torsion>
0.8778

> <Gold.PLP.Chemscore.Hbond>
1.9913

> <Gold.PLP.Chemscore.CHOScore>
0.0000

> <Gold.PLP.Chemscore.Metal>
0.0000

> <Gold.Chemscore.Hbonds>
donor molecule, donor type, donor heavy atom, donor atom, acceptor molecule, acceptor atom, score
      P1  H  7997  8010       L1     1  0.91
      P1  H 10752 10763       L1    18  1.00

> <Gold.PLP.Chemscore.Internal.Correction>
0.0618

> <Gold.Rescore>
     Score         DG    S(hbond)    S(metal)    S(lipo)     H(rot)  DE(clash)    DE(int)     intcor
     20.64     -22.37       1.94        0.00     122.79       1.55       0.18       1.55       ----

> <Gold.Chemscore.Fitness>
20.6361

> <Gold.Chemscore.DG>
-22.3707

> <Gold.Chemscore.ZeroCoef>
-5.4800

> <Gold.Chemscore.Hbond>
1.9443

> <Gold.Chemscore.Metal>
0.0000

> <Gold.Chemscore.Lipo>
122.7893

> <Gold.Chemscore.Internal_Hbond>
0.0000

> <Gold.Chemscore.DEClash>
0.1836

> <Gold.Chemscore.DEInternal>
1.5510

> <Gold.Chemscore.Rot>
1.5506

> <Gold.Chemscore.Internal.Correction>
   9.000000E+99

> <Gold.Chemscore.Hbonds>
donor molecule, donor type, donor heavy atom, donor atom, acceptor molecule, acceptor atom, score
      P1  H  7997  8010       L1     1  0.86
      P1  H 10752 10763       L1    18  1.00

> <Gold.Chemscore.Hbond.Weighted>
-6.4938

> <Gold.Chemscore.Metal.Weighted>
-0.0000

> <Gold.Chemscore.Lipo.Weighted>
-14.3663

> <Gold.Chemscore.Internal_Hbond.Weighted>
0.0000

> <Gold.Chemscore.DEClash.Weighted>
0.1836

> <Gold.Chemscore.DEInternal.Weighted>
1.5510

> <Gold.Chemscore.Rot.Weighted>
3.9695

> <Gold.Chemscore.Internal.Correction.Weighted>
   9.000000E+99

> <Gold.Protein.RotatedTorsions>
[ 6907 6896 6895 6894 ] final  -72.72 input  -60.11 | X-H torsion
[ 7974 7965 7964 7962 ] final  110.35 input  175.53 | X-H torsion
[ 8008 7997 7996 7995 ] final   60.02 input   59.86 | X-H torsion
[ 10167 10162 10161 10158 ] final  106.32 input  -65.29 | X-H torsion
[ 10718 10713 10712 10709 ] final  -25.52 input   66.30 | X-H torsion
[ 10763 10752 10751 10750 ] final   84.42 input  -60.55 | X-H torsion
[ 11005 11000 10999 10996 ] final  166.74 input  -57.11 | X-H torsion

> <Gold.Protein.ActiveResidues>
 VAL166  LYS551  ARG553  GLY616  TRP617  ASP618  TYR619  PRO620  LYS621  CYS622 
 ASP623  PHE694  ASN695  SER759  ASP760  ASP761  ALA762  ILE779  LEU786  VAL792 
 PHE793  MET794  SER795  GLU796  ALA797  LYS798  CYS799  TRP800  GLU811  SER814 

> <Gold.Protein.RotatedAtoms>
  150.7158  134.5121  159.5612 H   0  0  0  0  0  0  0  0  0  0  0  0  # atno 6907 bound_to 6896
  152.2695  134.7945  160.0426 H   0  0  0  0  0  0  0  0  0  0  0  0  # atno 6908 bound_to 6896
  151.8630  133.3425  159.3747 H   0  0  0  0  0  0  0  0  0  0  0  0  # atno 6909 bound_to 6896
  145.2561  139.2721  143.4042 H   0  0  0  0  0  0  0  0  0  0  0  0  # atno 7974 bound_to 7965
  155.5756  140.3490  155.4527 H   0  0  0  0  0  0  0  0  0  0  0  0  # atno 8008 bound_to 7997
  156.0411  140.1296  157.0179 H   0  0  0  0  0  0  0  0  0  0  0  0  # atno 8009 bound_to 7997
  154.4392  140.1024  156.6224 H   0  0  0  0  0  0  0  0  0  0  0  0  # atno 8010 bound_to 7997
  139.7019  144.7093  151.1171 H   0  0  0  0  0  0  0  0  0  0  0  0  # atno 10167 bound_to 10162
  156.4632  130.4508  149.6915 H   0  0  0  0  0  0  0  0  0  0  0  0  # atno 10718 bound_to 10713
  153.1380  135.4655  154.9453 H   0  0  0  0  0  0  0  0  0  0  0  0  # atno 10763 bound_to 10752
  154.7723  135.3162  154.8166 H   0  0  0  0  0  0  0  0  0  0  0  0  # atno 10764 bound_to 10752
  153.8695  135.6905  153.4829 H   0  0  0  0  0  0  0  0  0  0  0  0  # atno 10765 bound_to 10752
  140.2696  134.7837  157.3663 H   0  0  0  0  0  0  0  0  0  0  0  0  # atno 11005 bound_to 11000
  146.3289  140.2965  142.8618 LP  0  0  0  0  0  0  0  0  0  0  0  0  # atno 17320 bound_to 7965
  144.9460  140.8128  143.5601 LP  0  0  0  0  0  0  0  0  0  0  0  0  # atno 17321 bound_to 7965
  140.7712  143.5412  150.9311 LP  0  0  0  0  0  0  0  0  0  0  0  0  # atno 17342 bound_to 10162
  139.9094  143.6739  152.3118 LP  0  0  0  0  0  0  0  0  0  0  0  0  # atno 17343 bound_to 10162
  156.3694  130.7523  151.2504 LP  0  0  0  0  0  0  0  0  0  0  0  0  # atno 17370 bound_to 10713
  157.7496  131.0327  150.4239 LP  0  0  0  0  0  0  0  0  0  0  0  0  # atno 17371 bound_to 10713
  140.1386  134.5002  155.8049 LP  0  0  0  0  0  0  0  0  0  0  0  0  # atno 17394 bound_to 11000
  141.2179  133.6816  156.7169 LP  0  0  0  0  0  0  0  0  0  0  0  0  # atno 17395 bound_to 11000

$$$$
