AV-unprocessed.smi:2104|AV-procd|sdf|8586|dock2
  -GOLD-   2272011313D 1   1.00000     0.00000
 Structure written by MMmdl.
 43 44  0  0  0  0  0  0  0  0  1 V2000
  150.5122  131.5293  156.4535 C   0  0  0  0  0  0  0  0  0  0  0  0
  150.1888  132.7689  155.6924 C   0  0  0  0  0  0  0  0  0  0  0  0
  150.6181  134.0623  155.7946 C   0  0  0  0  0  0  0  0  0  0  0  0
  149.9015  134.7198  154.7593 C   0  0  0  0  0  0  0  0  0  0  0  0
  150.0674  136.1091  154.5283 N   0  0  0  0  0  0  0  0  0  0  0  0
  150.9161  136.9465  155.1482 C   0  0  0  0  0  0  0  0  0  0  0  0
  151.7053  136.6274  156.0382 O   0  0  0  0  0  0  0  0  0  0  0  0
  150.7970  138.1961  154.6781 N   0  0  0  0  0  0  0  0  0  0  0  0
  151.5477  139.3498  155.1627 C   0  0  0  0  0  0  0  0  0  0  0  0
  150.8661  139.9998  156.3753 C   0  0  0  0  0  0  0  0  0  0  0  0
  151.5789  141.1788  156.7202 O   0  0  0  0  0  0  0  0  0  0  0  0
  151.7438  141.3839  158.1176 C   0  0  1  0  0  0  0  0  0  0  0  0
  152.7182  140.3310  158.6862 C   0  0  0  0  0  0  0  0  0  0  0  0
  153.0394  140.5993  160.1636 C   0  0  0  0  0  0  0  0  0  0  0  0
  153.5924  142.0177  160.3580 C   0  0  0  0  0  0  0  0  0  0  0  0
  152.6194  143.0691  159.8038 C   0  0  0  0  0  0  0  0  0  0  0  0
  152.2875  142.8164  158.3194 C   0  0  2  0  0  0  0  0  0  0  0  0
  151.3038  143.8758  157.7945 C   0  0  0  0  0  0  0  0  0  0  0  0
  149.1080  133.9015  154.0853 N   0  0  0  0  0  0  0  0  0  0  0  0
  149.2875  132.6472  154.6803 O   0  0  0  0  0  0  0  0  0  0  0  0
  151.3300  131.7039  157.1528 H   0  0  0  0  0  0  0  0  0  0  0  0
  150.8105  130.7270  155.7785 H   0  0  0  0  0  0  0  0  0  0  0  0
  149.6469  131.1896  157.0230 H   0  0  0  0  0  0  0  0  0  0  0  0
  151.3290  134.4694  156.4985 H   0  0  0  0  0  0  0  0  0  0  0  0
  149.4750  136.5091  153.8161 H   0  0  0  0  0  0  0  0  0  0  0  0
  150.1214  138.3698  153.9482 H   0  0  0  0  0  0  0  0  0  0  0  0
  152.5657  139.0507  155.4172 H   0  0  0  0  0  0  0  0  0  0  0  0
  151.6300  140.0731  154.3512 H   0  0  0  0  0  0  0  0  0  0  0  0
  149.8262  140.2336  156.1427 H   0  0  0  0  0  0  0  0  0  0  0  0
  150.8623  139.3011  157.2118 H   0  0  0  0  0  0  0  0  0  0  0  0
  150.7819  141.3071  158.6287 H   0  0  0  0  0  0  0  0  0  0  0  0
  152.3011  139.3292  158.5866 H   0  0  0  0  0  0  0  0  0  0  0  0
  153.6425  140.3390  158.1072 H   0  0  0  0  0  0  0  0  0  0  0  0
  152.1374  140.4714  160.7634 H   0  0  0  0  0  0  0  0  0  0  0  0
  153.7601  139.8660  160.5270 H   0  0  0  0  0  0  0  0  0  0  0  0
  153.7771  142.2030  161.4166 H   0  0  0  0  0  0  0  0  0  0  0  0
  154.5557  142.1086  159.8546 H   0  0  0  0  0  0  0  0  0  0  0  0
  151.7014  143.0582  160.3933 H   0  0  0  0  0  0  0  0  0  0  0  0
  153.0513  144.0632  159.9253 H   0  0  0  0  0  0  0  0  0  0  0  0
  153.2130  142.9116  157.7493 H   0  0  0  0  0  0  0  0  0  0  0  0
  150.3463  143.8188  158.3132 H   0  0  0  0  0  0  0  0  0  0  0  0
  151.1114  143.7478  156.7288 H   0  0  0  0  0  0  0  0  0  0  0  0
  151.6990  144.8822  157.9355 H   0  0  0  0  0  0  0  0  0  0  0  0
  1  2  1  0  0  0  0
  1 21  1  0  0  0  0
  1 22  1  0  0  0  0
  1 23  1  0  0  0  0
  2 20  1  0  0  0  0
  2  3  2  0  0  0  0
  3  4  1  0  0  0  0
  3 24  1  0  0  0  0
  4  5  1  0  0  0  0
  4 19  2  0  0  0  0
  5  6  1  0  0  0  0
  5 25  1  0  0  0  0
  6  7  2  0  0  0  0
  6  8  1  0  0  0  0
  8  9  1  0  0  0  0
  8 26  1  0  0  0  0
  9 10  1  0  0  0  0
  9 27  1  0  0  0  0
  9 28  1  0  0  0  0
 10 11  1  0  0  0  0
 10 29  1  0  0  0  0
 10 30  1  0  0  0  0
 11 12  1  0  0  0  0
 12 17  1  0  0  0  0
 12 13  1  0  0  0  0
 12 31  1  0  0  0  0
 13 14  1  0  0  0  0
 13 32  1  0  0  0  0
 13 33  1  0  0  0  0
 14 15  1  0  0  0  0
 14 34  1  0  0  0  0
 14 35  1  0  0  0  0
 15 16  1  0  0  0  0
 15 36  1  0  0  0  0
 15 37  1  0  0  0  0
 16 17  1  0  0  0  0
 16 38  1  0  0  0  0
 16 39  1  0  0  0  0
 17 18  1  0  0  0  0
 17 40  1  0  0  0  0
 18 41  1  0  0  0  0
 18 42  1  0  0  0  0
 18 43  1  0  0  0  0
 19 20  1  0  0  0  0
M  END
> <s_m_source_file>
AV-unprocessed.smi

> <i_m_source_file_index>
2104

> <i_lp_mmshare_version>
43012

> <i_f3d_flags>
0

> <s_epik_input>
W0NIM11jMVtjSF1jKG5vMSlbTkhdQyg9TylbTkhdW0NIMl1bQ0gyXU9bQ0BASF0yW0NIMl1bQ0gyXVtDSDJdW0NIMl1bQ0BIXTJbQ0gzXQ==

> <s_epik_cmdline>
J2VwaWtfcHl0aG9uJywgJy1waCcsICc3LjAnLCAnLXRuJywgJzgnLCAnLW1hJywgJzIwMCcsICctbWV0YWxfYmluZGluZycsICctaW1hZScsICc8aW5maWxlLm1hZT4nLCAnLW9tYWUnLCAnPG91dGZpbGUubWFlPic=

> <r_lp_tautomer_probability>
1

> <r_epik_Ionization_Penalty>
2.94418e-05

> <r_epik_Ionization_Penalty_Charging>
0

> <r_epik_Ionization_Penalty_Neutral>
2.94418e-05

> <r_epik_State_Penalty>
-0

> <r_epik_Charging_Adjusted_Penalty>
0

> <i_epik_Tot_Q>
0

> <i_epik_Tot_abs_Q>
0

> <r_epik_Metal_State_Penalty>
0.0104148

> <b_epik_Metal_Only>
0

> <s_lp_Force_Field>
OPLS_2005

> <r_lp_Energy>
8.17473

> <b_lp_Chiralities_Consistent>
1

> <s_lp_Variant>
AV-unprocessed.smi:2104-4

> <Gold.Version>
5.8.1

> <Gold.Id.Protein>
6NUR|6NUR_protein|mol2

> <Gold.PLP.Fitness>
40.4935

> <Gold.PLP.PLP>
-36.0657

> <Gold.PLP.part.hbond>
-2.6058

> <Gold.PLP.part.metal>
0.0000

> <Gold.PLP.part.buried>
-3.7194

> <Gold.PLP.part.nonpolar>
-30.4189

> <Gold.PLP.part.repulsive>
0.4076

> <Gold.PLP.ligand.clash>
0.0000

> <Gold.PLP.ligand.torsion>
0.5257

> <Gold.PLP.Chemscore.Hbond>
1.8160

> <Gold.PLP.Chemscore.CHOScore>
0.0000

> <Gold.PLP.Chemscore.Metal>
0.0000

> <Gold.Chemscore.Hbonds>
donor molecule, donor type, donor heavy atom, donor atom, acceptor molecule, acceptor atom, score
      L1  H     5    25       P1  7948  0.78
      P1  H 10752 10764       L1     7  0.89

> <Gold.PLP.Chemscore.Internal.Correction>
0.0311

> <Gold.Rescore>
     Score         DG    S(hbond)    S(metal)    S(lipo)     H(rot)  DE(clash)    DE(int)     intcor
     14.95     -16.91       1.41        0.00      95.75       1.75       0.05       1.91       ----

> <Gold.Chemscore.Fitness>
14.9490

> <Gold.Chemscore.DG>
-16.9142

> <Gold.Chemscore.ZeroCoef>
-5.4800

> <Gold.Chemscore.Hbond>
1.4124

> <Gold.Chemscore.Metal>
0.0000

> <Gold.Chemscore.Lipo>
95.7521

> <Gold.Chemscore.Internal_Hbond>
0.0000

> <Gold.Chemscore.DEClash>
0.0540

> <Gold.Chemscore.DEInternal>
1.9112

> <Gold.Chemscore.Rot>
1.7524

> <Gold.Chemscore.Internal.Correction>
   9.000000E+99

> <Gold.Chemscore.Hbonds>
donor molecule, donor type, donor heavy atom, donor atom, acceptor molecule, acceptor atom, score
      L1  H     5    25       P1  7948  0.60
      P1  H 10752 10764       L1     7  0.26

> <Gold.Chemscore.Hbond.Weighted>
-4.7173

> <Gold.Chemscore.Metal.Weighted>
-0.0000

> <Gold.Chemscore.Lipo.Weighted>
-11.2030

> <Gold.Chemscore.Internal_Hbond.Weighted>
0.0000

> <Gold.Chemscore.DEClash.Weighted>
0.0540

> <Gold.Chemscore.DEInternal.Weighted>
1.9112

> <Gold.Chemscore.Rot.Weighted>
4.4861

> <Gold.Chemscore.Internal.Correction.Weighted>
   9.000000E+99

> <Gold.Protein.RotatedTorsions>
[ 6907 6896 6895 6894 ] final  100.07 input  -60.11 | X-H torsion
[ 7974 7965 7964 7962 ] final    7.19 input  175.53 | X-H torsion
[ 8008 7997 7996 7995 ] final  138.91 input   59.86 | X-H torsion
[ 10167 10162 10161 10158 ] final  154.11 input  -65.29 | X-H torsion
[ 10718 10713 10712 10709 ] final  101.18 input   66.30 | X-H torsion
[ 10763 10752 10751 10750 ] final  -36.79 input  -60.55 | X-H torsion
[ 11005 11000 10999 10996 ] final  136.57 input  -57.11 | X-H torsion

> <Gold.Protein.ActiveResidues>
 VAL166  LYS551  ARG553  GLY616  TRP617  ASP618  TYR619  PRO620  LYS621  CYS622 
 ASP623  PHE694  ASN695  SER759  ASP760  ASP761  ALA762  ILE779  LEU786  VAL792 
 PHE793  MET794  SER795  GLU796  ALA797  LYS798  CYS799  TRP800  GLU811  SER814 

> <Gold.Protein.RotatedAtoms>
  152.5379  134.0332  159.8033 H   0  0  0  0  0  0  0  0  0  0  0  0  # atno 6907 bound_to 6896
  151.0500  133.5625  159.2650 H   0  0  0  0  0  0  0  0  0  0  0  0  # atno 6908 bound_to 6896
  151.2563  135.0646  159.9135 H   0  0  0  0  0  0  0  0  0  0  0  0  # atno 6909 bound_to 6896
  146.2429  140.0121  142.8405 H   0  0  0  0  0  0  0  0  0  0  0  0  # atno 7974 bound_to 7965
  156.2994  140.2381  156.4150 H   0  0  0  0  0  0  0  0  0  0  0  0  # atno 8008 bound_to 7997
  154.8406  140.0428  157.1559 H   0  0  0  0  0  0  0  0  0  0  0  0  # atno 8009 bound_to 7997
  154.9106  140.2990  155.5272 H   0  0  0  0  0  0  0  0  0  0  0  0  # atno 8010 bound_to 7997
  139.4824  144.5215  151.7868 H   0  0  0  0  0  0  0  0  0  0  0  0  # atno 10167 bound_to 10162
  157.6836  131.0719  150.5213 H   0  0  0  0  0  0  0  0  0  0  0  0  # atno 10718 bound_to 10713
  153.8856  135.6817  153.4764 H   0  0  0  0  0  0  0  0  0  0  0  0  # atno 10763 bound_to 10752
  153.1209  135.4740  154.9192 H   0  0  0  0  0  0  0  0  0  0  0  0  # atno 10764 bound_to 10752
  154.7647  135.3221  154.8261 H   0  0  0  0  0  0  0  0  0  0  0  0  # atno 10765 bound_to 10752
  140.0055  134.9461  157.0165 H   0  0  0  0  0  0  0  0  0  0  0  0  # atno 11005 bound_to 11000
  145.1318  140.9522  143.4540 LP  0  0  0  0  0  0  0  0  0  0  0  0  # atno 17320 bound_to 7965
  145.0380  139.3284  143.5991 LP  0  0  0  0  0  0  0  0  0  0  0  0  # atno 17321 bound_to 7965
  140.4730  144.1560  150.5920 LP  0  0  0  0  0  0  0  0  0  0  0  0  # atno 17342 bound_to 10162
  140.4362  143.2546  151.9532 LP  0  0  0  0  0  0  0  0  0  0  0  0  # atno 17343 bound_to 10162
  156.5526  130.4235  149.6100 LP  0  0  0  0  0  0  0  0  0  0  0  0  # atno 17370 bound_to 10713
  156.2889  130.7113  151.1957 LP  0  0  0  0  0  0  0  0  0  0  0  0  # atno 17371 bound_to 10713
  140.4649  134.1446  155.7196 LP  0  0  0  0  0  0  0  0  0  0  0  0  # atno 17394 bound_to 11000
  141.1674  133.8677  157.1675 LP  0  0  0  0  0  0  0  0  0  0  0  0  # atno 17395 bound_to 11000

$$$$
