#       Name:                AV-unprocessed.smi:1783
#       Creating user name   scv26
#       Creation time:       Fri Mar 27 08:43:40 2020


#       File generated by GOLD software.
#

@<TRIPOS>MOLECULE
AV-unprocessed.smi:1783
    36    37     1
SMALL
NO_CHARGES


@<TRIPOS>ATOM
      1 ****        -0.5590   1.0547  -0.6446 O.2            1 S1                 0.0000
      2 ****        -0.7912  -0.0804  -0.2283 C.2            1 S1                 0.0000
      3 ****         0.1323  -0.9462   0.2334 N.am           1 S1                 0.0000
      4 ****         1.5211  -0.7865   0.3829 C.2            1 S1                 0.0000
      5 ****         2.1796   0.4051   0.3395 C.2            1 S1                 0.0000
      6 ****         3.6234   0.5059   0.5123 C.2            1 S1                 0.0000
      7 ****         4.3775   1.8235   0.5461 C.3            1 S1                 0.0000
      8 ****         5.4087   1.7659   1.3891 F              1 S1                 0.0000
      9 ****         4.8485   2.1076  -0.6673 F              1 S1                 0.0000
     10 ****         3.5794   2.8212   0.9260 F              1 S1                 0.0000
     11 ****         4.2099  -0.7221   0.7498 C.2            1 S1                 0.0000
     12 ****         3.6353  -1.9437   0.8005 N.pl3          1 S1                -1.0000
     13 ****         2.2857  -2.0271   0.6293 C.2            1 S1                 0.0000
     14 ****         1.6967  -3.1078   0.6749 O.2            1 S1                 0.0000
     15 ****        -2.2340  -0.5991  -0.2209 C.3            1 S1                 0.0000
     16 ****        -3.0138  -0.3018  -1.5159 C.3            1 S1                 0.0000
     17 ****        -4.0606   0.7076  -1.0851 C.3            1 S1                 0.0000
     18 ****        -4.2615   0.3467   0.3795 C.3            1 S1                 0.0000
     19 ****        -2.9423   0.0705   0.8206 O.3            1 S1                 0.0000
     20 ****        -0.2068  -1.8629   0.4873 H              1 S1                 0.0000
     21 ****         1.6471   1.3289   0.1879 H              1 S1                 0.0000
     22 ****         5.3061  -0.7226   0.9304 H              1 S1                 0.0000
     23 ****        -2.2505  -1.6728  -0.0246 H              1 S1                 0.0000
     24 ****        -2.3967   0.0748  -2.3331 H              1 S1                 0.0000
     25 ****        -3.4973  -1.2135  -1.8691 H              1 S1                 0.0000
     26 ****        -3.6619   1.7196  -1.1681 H              1 S1                 0.0000
     27 ****        -4.9786   0.6503  -1.6702 H              1 S1                 0.0000
     28 ****        -4.7183   1.1517   0.9553 H              1 S1                 0.0000
     29 ****        -4.8775  -0.5481   0.4817 H              1 S1                 0.0000
     30 ****         0.3793   1.4003  -0.6577 LP             1 S1                 0.0000
     31 ****        -1.3087   1.6312  -0.9696 LP             1 S1                 0.0000
     32 ****         4.1848  -2.7639   0.9592 LP             1 S1                 0.0000
     33 ****         0.7057  -3.1430   0.5455 LP             1 S1                 0.0000
     34 ****         2.2094  -3.9500   0.8414 LP             1 S1                 0.0000
     35 ****        -2.4777   0.9272   1.0448 LP             1 S1                 0.0000
     36 ****        -2.9756  -0.5129   1.6321 LP             1 S1                 0.0000
@<TRIPOS>BOND
    1    1    2 2     
    2    2    3 am    
    3    2   15 1     
    4    3    4 1     
    5    3   20 1     
    6    4   13 1     
    7    4    5 2     
    8    5    6 1     
    9    5   21 1     
   10    6    7 1     
   11    6   11 2     
   12    7    8 1     
   13    7    9 1     
   14    7   10 1     
   15   11   12 1     
   16   11   22 1     
   17   12   13 1     
   18   13   14 2     
   19   15   19 1     
   20   15   16 1     
   21   15   23 1     
   22   16   17 1     
   23   16   24 1     
   24   16   25 1     
   25   17   18 1     
   26   17   26 1     
   27   17   27 1     
   28   18   19 1     
   29   18   28 1     
   30   18   29 1     
   31    1   30 1     
   32    1   31 1     
   33   12   32 1     
   34   14   33 1     
   35   14   34 1     
   36   19   35 1     
   37   19   36 1     
@<TRIPOS>SUBSTRUCTURE
      1 S1             1
@<TRIPOS>SET
LONE_PAIRS      STATIC     ATOMS    <user>   **** ""
7 30 31 32 33 34 35 36
DONOR_HYDROGENS      STATIC     ATOMS    <user>   **** ""
1 20
ATOM$BLUE        STATIC     ATOMS    COLORGROUP SYSTEM
7 30 31 32 33 34 35 36
ATOM$RED        STATIC     ATOMS    COLORGROUP SYSTEM
1 20
