AV-unprocessed.smi:2397|AV-procd|sdf|9496|dock4
  -GOLD-   2272013123D 1   1.00000     0.00000
 Structure written by MMmdl.
 37 38  0  0  0  0  0  0  0  0  2 V2000
  152.5847  145.0389  158.1209 C   0  0  0  0  0  0  0  0  0  0  0  0
  151.9259  143.9095  158.9274 C   0  0  0  0  0  0  0  0  0  0  0  0
  152.6530  143.6104  160.2472 C   0  0  0  0  0  0  0  0  0  0  0  0
  151.7268  142.6541  158.0904 C   0  0  0  0  0  0  0  0  0  0  0  0
  150.9032  142.7019  157.0314 N   0  3  0  0  0  0  0  0  0  0  0  0
  150.7135  141.5922  156.2780 C   0  0  0  0  0  0  0  0  0  0  0  0
  151.3750  140.3925  156.5973 C   0  0  0  0  0  0  0  0  0  0  0  0
  152.2320  140.4107  157.7188 C   0  0  0  0  0  0  0  0  0  0  0  0
  152.9566  139.2839  158.1580 N   0  0  0  0  0  0  0  0  0  0  0  0
  152.7671  139.0666  159.5914 C   0  0  0  0  0  0  0  0  0  0  0  0
  153.6965  137.9581  160.1037 C   0  0  0  0  0  0  0  0  0  0  0  0
  153.4688  136.7780  159.3471 O   0  0  0  0  0  0  0  0  0  0  0  0
  153.7931  136.9672  157.9754 C   0  0  0  0  0  0  0  0  0  0  0  0
  152.8927  138.0568  157.3458 C   0  0  2  0  0  0  0  0  0  0  0  0
  153.2997  138.2039  155.8651 C   0  0  0  0  0  0  0  0  0  0  0  0
  152.3600  138.0402  154.9277 N   0  0  0  0  0  0  0  0  0  0  0  0
  154.4679  138.4476  155.5729 O   0  0  0  0  0  0  0  0  0  0  0  0
  152.3843  141.5404  158.4422 N   0  0  0  0  0  0  0  0  0  0  0  0
  152.0026  145.2761  157.2300 H   0  0  0  0  0  0  0  0  0  0  0  0
  153.5902  144.7654  157.7992 H   0  0  0  0  0  0  0  0  0  0  0  0
  152.6645  145.9497  158.7150 H   0  0  0  0  0  0  0  0  0  0  0  0
  150.9322  144.2690  159.2007 H   0  0  0  0  0  0  0  0  0  0  0  0
  152.1192  142.8576  160.8279 H   0  0  0  0  0  0  0  0  0  0  0  0
  152.7321  144.5067  160.8628 H   0  0  0  0  0  0  0  0  0  0  0  0
  153.6636  143.2406  160.0706 H   0  0  0  0  0  0  0  0  0  0  0  0
  150.0359  141.7000  155.4438 H   0  0  0  0  0  0  0  0  0  0  0  0
  151.2182  139.5072  155.9995 H   0  0  0  0  0  0  0  0  0  0  0  0
  152.9629  139.9815  160.1526 H   0  0  0  0  0  0  0  0  0  0  0  0
  151.7275  138.7942  159.7805 H   0  0  0  0  0  0  0  0  0  0  0  0
  154.7434  138.2587  160.0354 H   0  0  0  0  0  0  0  0  0  0  0  0
  153.4918  137.7511  161.1543 H   0  0  0  0  0  0  0  0  0  0  0  0
  154.8504  137.2240  157.8829 H   0  0  0  0  0  0  0  0  0  0  0  0
  153.6563  136.0149  157.4613 H   0  0  0  0  0  0  0  0  0  0  0  0
  151.8680  137.6836  157.3764 H   0  0  0  0  0  0  0  0  0  0  0  0
  152.6054  138.1093  153.9504 H   0  0  0  0  0  0  0  0  0  0  0  0
  151.4115  137.8257  155.2008 H   0  0  0  0  0  0  0  0  0  0  0  0
  150.4164  143.5654  156.7889 H   0  0  0  0  0  0  0  0  0  0  0  0
  1  2  1  0  0  0  0
  1 19  1  0  0  0  0
  1 20  1  0  0  0  0
  1 21  1  0  0  0  0
  2  3  1  0  0  0  0
  2  4  1  0  0  0  0
  2 22  1  0  0  0  0
  3 23  1  0  0  0  0
  3 24  1  0  0  0  0
  3 25  1  0  0  0  0
  4 18  1  0  0  0  0
  4  5  2  0  0  0  0
  5  6  1  0  0  0  0
  5 37  1  0  0  0  0
  6  7  2  0  0  0  0
  6 26  1  0  0  0  0
  7  8  1  0  0  0  0
  7 27  1  0  0  0  0
  8  9  1  0  0  0  0
  8 18  2  0  0  0  0
  9 14  1  0  0  0  0
  9 10  1  0  0  0  0
 10 11  1  0  0  0  0
 10 28  1  0  0  0  0
 10 29  1  0  0  0  0
 11 12  1  0  0  0  0
 11 30  1  0  0  0  0
 11 31  1  0  0  0  0
 12 13  1  0  0  0  0
 13 14  1  0  0  0  0
 13 32  1  0  0  0  0
 13 33  1  0  0  0  0
 14 15  1  0  0  0  0
 14 34  1  0  0  0  0
 15 16  1  0  0  0  0
 15 17  2  0  0  0  0
 16 35  1  0  0  0  0
 16 36  1  0  0  0  0
M  CHG  1   5   1
M  END
> <s_m_source_file>
AV-unprocessed.smi

> <i_m_source_file_index>
2397

> <i_lp_mmshare_version>
43012

> <i_f3d_flags>
0

> <s_epik_input>
W0NIM11bQ0hdKFtDSDNdKWMxbltjSF1bY0hdYyhuMSlOMltDSDJdW0NIMl1PW0NIMl1bQ0BIXTJDKD1PKVtOSDJd

> <s_epik_cmdline>
J2VwaWtfcHl0aG9uJywgJy1waCcsICc3LjAnLCAnLXRuJywgJzgnLCAnLW1hJywgJzIwMCcsICctbWV0YWxfYmluZGluZycsICctaW1hZScsICc8aW5maWxlLm1hZT4nLCAnLW9tYWUnLCAnPG91dGZpbGUubWFlPic=

> <r_lp_tautomer_probability>
0.999336

> <r_epik_Ionization_Penalty>
1.74009

> <r_epik_Ionization_Penalty_Charging>
1.74009

> <r_epik_Ionization_Penalty_Neutral>
2.46902e-07

> <r_epik_State_Penalty>
1.8491

> <r_epik_Charging_Adjusted_Penalty>
3.5892

> <i_epik_Tot_Q>
1

> <i_epik_Tot_abs_Q>
1

> <r_epik_Metal_State_Penalty>
1.87997

> <b_epik_Metal_Only>
0

> <s_lp_Force_Field>
OPLS_2005

> <r_lp_Energy>
12.8895

> <b_lp_Chiralities_Consistent>
1

> <s_lp_Variant>
AV-unprocessed.smi:2397-4

> <Gold.Version>
5.8.1

> <Gold.Id.Protein>
6NUR|6NUR_protein|mol2

> <Gold.PLP.Fitness>
41.2198

> <Gold.PLP.PLP>
-32.7752

> <Gold.PLP.part.hbond>
-3.0607

> <Gold.PLP.part.metal>
0.0000

> <Gold.PLP.part.buried>
-4.1343

> <Gold.PLP.part.nonpolar>
-24.7755

> <Gold.PLP.part.repulsive>
0.2200

> <Gold.PLP.ligand.clash>
0.0000

> <Gold.PLP.ligand.torsion>
0.3301

> <Gold.PLP.Chemscore.Hbond>
2.9370

> <Gold.PLP.Chemscore.CHOScore>
0.0000

> <Gold.PLP.Chemscore.Metal>
0.0000

> <Gold.Chemscore.Hbonds>
donor molecule, donor type, donor heavy atom, donor atom, acceptor molecule, acceptor atom, score
      L1  H     5    37       P1  8028  1.07
      P1  H  7997  8008       L1    17  0.03
      P1  H  7997  8010       L1     9  0.18

> <Gold.PLP.Chemscore.Internal.Correction>
0.2939

> <Gold.Rescore>
     Score         DG    S(hbond)    S(metal)    S(lipo)     H(rot)  DE(clash)    DE(int)     intcor
     13.36     -14.90       1.75        0.00      69.45       1.77       0.21       1.33       ----

> <Gold.Chemscore.Fitness>
13.3560

> <Gold.Chemscore.DG>
-14.9026

> <Gold.Chemscore.ZeroCoef>
-5.4800

> <Gold.Chemscore.Hbond>
1.7463

> <Gold.Chemscore.Metal>
0.0000

> <Gold.Chemscore.Lipo>
69.4503

> <Gold.Chemscore.Internal_Hbond>
0.0000

> <Gold.Chemscore.DEClash>
0.2133

> <Gold.Chemscore.DEInternal>
1.3333

> <Gold.Chemscore.Rot>
1.7717

> <Gold.Chemscore.Internal.Correction>
   9.000000E+99

> <Gold.Chemscore.Hbonds>
donor molecule, donor type, donor heavy atom, donor atom, acceptor molecule, acceptor atom, score
      L1  H     5    37       P1  8028  0.53
      P1  H  7997  8008       L1    17  0.08

> <Gold.Chemscore.Hbond.Weighted>
-5.8326

> <Gold.Chemscore.Metal.Weighted>
-0.0000

> <Gold.Chemscore.Lipo.Weighted>
-8.1257

> <Gold.Chemscore.Internal_Hbond.Weighted>
0.0000

> <Gold.Chemscore.DEClash.Weighted>
0.2133

> <Gold.Chemscore.DEInternal.Weighted>
1.3333

> <Gold.Chemscore.Rot.Weighted>
4.5357

> <Gold.Chemscore.Internal.Correction.Weighted>
   9.000000E+99

> <Gold.Protein.RotatedTorsions>
[ 6907 6896 6895 6894 ] final -121.91 input  -60.11 | X-H torsion
[ 7974 7965 7964 7962 ] final  -91.98 input  175.53 | X-H torsion
[ 8008 7997 7996 7995 ] final   31.13 input   59.86 | X-H torsion
[ 10167 10162 10161 10158 ] final  -26.19 input  -65.29 | X-H torsion
[ 10718 10713 10712 10709 ] final  101.42 input   66.30 | X-H torsion
[ 10763 10752 10751 10750 ] final -169.19 input  -60.55 | X-H torsion
[ 11005 11000 10999 10996 ] final   38.65 input  -57.11 | X-H torsion

> <Gold.Protein.ActiveResidues>
 VAL166  LYS551  ARG553  GLY616  TRP617  ASP618  TYR619  PRO620  LYS621  CYS622 
 ASP623  PHE694  ASN695  SER759  ASP760  ASP761  ALA762  ILE779  LEU786  VAL792 
 PHE793  MET794  SER795  GLU796  ALA797  LYS798  CYS799  TRP800  GLU811  SER814 

> <Gold.Protein.RotatedAtoms>
  150.8526  133.7763  159.3019 H   0  0  0  0  0  0  0  0  0  0  0  0  # atno 6907 bound_to 6896
  151.5430  135.1066  159.9940 H   0  0  0  0  0  0  0  0  0  0  0  0  # atno 6908 bound_to 6896
  152.4565  133.7690  159.6844 H   0  0  0  0  0  0  0  0  0  0  0  0  # atno 6909 bound_to 6896
  145.4059  140.9541  143.2261 H   0  0  0  0  0  0  0  0  0  0  0  0  # atno 7974 bound_to 7965
  155.1014  140.3230  155.4546 H   0  0  0  0  0  0  0  0  0  0  0  0  # atno 8008 bound_to 7997
  156.2716  140.2060  156.6087 H   0  0  0  0  0  0  0  0  0  0  0  0  # atno 8009 bound_to 7997
  154.6826  140.0524  157.0268 H   0  0  0  0  0  0  0  0  0  0  0  0  # atno 8010 bound_to 7997
  140.7284  143.4199  151.0968 H   0  0  0  0  0  0  0  0  0  0  0  0  # atno 10167 bound_to 10162
  157.6830  131.0725  150.5249 H   0  0  0  0  0  0  0  0  0  0  0  0  # atno 10718 bound_to 10713
  154.6549  135.2916  154.9940 H   0  0  0  0  0  0  0  0  0  0  0  0  # atno 10763 bound_to 10752
  154.1020  135.6575  153.4874 H   0  0  0  0  0  0  0  0  0  0  0  0  # atno 10764 bound_to 10752
  153.0397  135.5244  154.7474 H   0  0  0  0  0  0  0  0  0  0  0  0  # atno 10765 bound_to 10752
  140.2105  134.3760  155.8051 H   0  0  0  0  0  0  0  0  0  0  0  0  # atno 11005 bound_to 11000
  144.8342  139.5578  143.6930 LP  0  0  0  0  0  0  0  0  0  0  0  0  # atno 17320 bound_to 7965
  146.2729  139.6679  142.9283 LP  0  0  0  0  0  0  0  0  0  0  0  0  # atno 17321 bound_to 7965
  139.7844  143.8309  152.3142 LP  0  0  0  0  0  0  0  0  0  0  0  0  # atno 17342 bound_to 10162
  139.8271  144.7270  150.9498 LP  0  0  0  0  0  0  0  0  0  0  0  0  # atno 17343 bound_to 10162
  156.5561  130.4244  149.6085 LP  0  0  0  0  0  0  0  0  0  0  0  0  # atno 17370 bound_to 10713
  156.2861  130.7098  151.1935 LP  0  0  0  0  0  0  0  0  0  0  0  0  # atno 17371 bound_to 10713
  141.2226  133.7141  156.8410 LP  0  0  0  0  0  0  0  0  0  0  0  0  # atno 17394 bound_to 11000
  140.1956  134.8934  157.3110 LP  0  0  0  0  0  0  0  0  0  0  0  0  # atno 17395 bound_to 11000

$$$$
