AV-unprocessed.smi:2718|AV-procd|sdf|10491|dock2
  -GOLD-   2272014533D 1   1.00000     0.00000
 Structure written by MMmdl.
 47 48  0  0  0  0  0  0  0  0  1 V2000
  147.3877  136.1591  163.5474 C   0  0  0  0  0  0  0  0  0  0  0  0
  146.8261  136.0754  162.1421 C   0  0  0  0  0  0  0  0  0  0  0  0
  145.9126  134.8874  161.8944 C   0  0  0  0  0  0  0  0  0  0  0  0
  147.1272  136.9945  161.2046 C   0  0  0  0  0  0  0  0  0  0  0  0
  146.6440  137.0152  159.7924 C   0  0  1  0  0  0  0  0  0  0  0  0
  147.5374  137.3277  158.5978 C   0  0  1  0  0  0  0  0  0  0  0  0
  149.0020  137.5710  158.7826 C   0  0  0  0  0  0  0  0  0  0  0  0
  149.7874  136.6784  159.1021 O   0  0  0  0  0  0  0  0  0  0  0  0
  149.3949  138.8203  158.4921 N   0  0  0  0  0  0  0  0  0  0  0  0
  150.7689  139.3052  158.5625 C   0  0  0  0  0  0  0  0  0  0  0  0
  151.1511  140.1743  157.3461 C   0  0  1  0  0  0  0  0  0  0  0  0
  151.9103  141.4551  157.7354 C   0  0  0  0  0  0  0  0  0  0  0  0
  151.9171  139.3728  156.3309 C   0  0  0  0  0  0  0  0  0  0  0  0
  153.1329  138.8569  156.5581 N   0  0  0  0  0  0  0  0  0  0  0  0
  153.4782  138.1871  155.4018 N   0  0  0  0  0  0  0  0  0  0  0  0
  152.4351  138.3593  154.5915 C   0  0  0  0  0  0  0  0  0  0  0  0
  151.4295  139.0828  155.1058 N   0  0  0  0  0  0  0  0  0  0  0  0
  150.1675  139.4371  154.4871 C   0  0  0  0  0  0  0  0  0  0  0  0
  146.9824  135.9188  158.7965 C   0  0  0  0  0  0  0  0  0  0  0  0
  147.8503  134.7323  159.2115 C   0  0  0  0  0  0  0  0  0  0  0  0
  145.9039  135.4363  157.8422 C   0  0  0  0  0  0  0  0  0  0  0  0
  147.9678  135.2647  163.7760 H   0  0  0  0  0  0  0  0  0  0  0  0
  146.5784  136.2383  164.2734 H   0  0  0  0  0  0  0  0  0  0  0  0
  148.0381  137.0256  163.6695 H   0  0  0  0  0  0  0  0  0  0  0  0
  145.0715  134.9110  162.5881 H   0  0  0  0  0  0  0  0  0  0  0  0
  146.4575  133.9565  162.0517 H   0  0  0  0  0  0  0  0  0  0  0  0
  145.5084  134.8734  160.8826 H   0  0  0  0  0  0  0  0  0  0  0  0
  147.7907  137.7996  161.4831 H   0  0  0  0  0  0  0  0  0  0  0  0
  145.6344  137.4187  159.7398 H   0  0  0  0  0  0  0  0  0  0  0  0
  147.0927  137.8968  157.7837 H   0  0  0  0  0  0  0  0  0  0  0  0
  148.6890  139.4869  158.2134 H   0  0  0  0  0  0  0  0  0  0  0  0
  150.8814  139.8765  159.4845 H   0  0  0  0  0  0  0  0  0  0  0  0
  151.4483  138.4549  158.6462 H   0  0  0  0  0  0  0  0  0  0  0  0
  150.2216  140.5016  156.8814 H   0  0  0  0  0  0  0  0  0  0  0  0
  152.1315  142.0588  156.8547 H   0  0  0  0  0  0  0  0  0  0  0  0
  152.8565  141.2228  158.2254 H   0  0  0  0  0  0  0  0  0  0  0  0
  151.3281  142.0760  158.4163 H   0  0  0  0  0  0  0  0  0  0  0  0
  152.4034  137.9423  153.5956 H   0  0  0  0  0  0  0  0  0  0  0  0
  150.1082  139.0129  153.4845 H   0  0  0  0  0  0  0  0  0  0  0  0
  150.0827  140.5219  154.4176 H   0  0  0  0  0  0  0  0  0  0  0  0
  149.3424  139.0484  155.0849 H   0  0  0  0  0  0  0  0  0  0  0  0
  148.3266  134.2899  158.3361 H   0  0  0  0  0  0  0  0  0  0  0  0
  147.2396  133.9687  159.6938 H   0  0  0  0  0  0  0  0  0  0  0  0
  148.6354  135.0221  159.9095 H   0  0  0  0  0  0  0  0  0  0  0  0
  146.3539  134.9920  156.9539 H   0  0  0  0  0  0  0  0  0  0  0  0
  145.2676  136.2632  157.5258 H   0  0  0  0  0  0  0  0  0  0  0  0
  145.2747  134.6888  158.3262 H   0  0  0  0  0  0  0  0  0  0  0  0
  1  2  1  0  0  0  0
  1 22  1  0  0  0  0
  1 23  1  0  0  0  0
  1 24  1  0  0  0  0
  2  3  1  0  0  0  0
  2  4  2  0  0  0  0
  3 25  1  0  0  0  0
  3 26  1  0  0  0  0
  3 27  1  0  0  0  0
  4  5  1  0  0  0  0
  4 28  1  0  0  0  0
  5 19  1  0  0  0  0
  5  6  1  0  0  0  0
  5 29  1  0  0  0  0
  6  7  1  0  0  0  0
  6 19  1  0  0  0  0
  6 30  1  0  0  0  0
  7  8  2  0  0  0  0
  7  9  1  0  0  0  0
  9 10  1  0  0  0  0
  9 31  1  0  0  0  0
 10 11  1  0  0  0  0
 10 32  1  0  0  0  0
 10 33  1  0  0  0  0
 11 12  1  0  0  0  0
 11 13  1  0  0  0  0
 11 34  1  0  0  0  0
 12 35  1  0  0  0  0
 12 36  1  0  0  0  0
 12 37  1  0  0  0  0
 13 17  1  0  0  0  0
 13 14  2  0  0  0  0
 14 15  1  0  0  0  0
 15 16  2  0  0  0  0
 16 17  1  0  0  0  0
 16 38  1  0  0  0  0
 17 18  1  0  0  0  0
 18 39  1  0  0  0  0
 18 40  1  0  0  0  0
 18 41  1  0  0  0  0
 19 20  1  0  0  0  0
 19 21  1  0  0  0  0
 20 42  1  0  0  0  0
 20 43  1  0  0  0  0
 20 44  1  0  0  0  0
 21 45  1  0  0  0  0
 21 46  1  0  0  0  0
 21 47  1  0  0  0  0
M  END
> <s_m_source_file>
AV-unprocessed.smi

> <i_m_source_file_index>
2718

> <i_lp_mmshare_version>
43012

> <i_f3d_flags>
0

> <s_epik_input>
W0NIM11DKFtDSDNdKT1bQ0hdW0NAQEhdKEMxKFtDSDNdKVtDSDNdKVtDQEhdMUMoPU8pW05IXVtDSDJdW0NASF0oW0NIM10pYzJubltjSF1uMltDSDNd

> <s_epik_cmdline>
J2VwaWtfcHl0aG9uJywgJy1waCcsICc3LjAnLCAnLXRuJywgJzgnLCAnLW1hJywgJzIwMCcsICctbWV0YWxfYmluZGluZycsICctaW1hZScsICc8aW5maWxlLm1hZT4nLCAnLW9tYWUnLCAnPG91dGZpbGUubWFlPic=

> <r_lp_tautomer_probability>
1

> <r_epik_Ionization_Penalty>
0.000449586

> <r_epik_Ionization_Penalty_Charging>
0

> <r_epik_Ionization_Penalty_Neutral>
0.000449586

> <r_epik_State_Penalty>
0.000243372

> <r_epik_Charging_Adjusted_Penalty>
0.000243372

> <i_epik_Tot_Q>
0

> <i_epik_Tot_abs_Q>
0

> <r_epik_Metal_State_Penalty>
-0

> <b_epik_Metal_Only>
0

> <s_lp_Force_Field>
OPLS_2005

> <r_lp_Energy>
17.9129

> <b_lp_Chiralities_Consistent>
1

> <s_lp_Variant>
AV-unprocessed.smi:2718-6

> <Gold.Version>
5.8.1

> <Gold.Id.Protein>
6NUR|6NUR_protein|mol2

> <Gold.PLP.Fitness>
39.4777

> <Gold.PLP.PLP>
-35.0838

> <Gold.PLP.part.hbond>
-3.3013

> <Gold.PLP.part.metal>
0.0000

> <Gold.PLP.part.buried>
-5.3494

> <Gold.PLP.part.nonpolar>
-26.6170

> <Gold.PLP.part.repulsive>
0.1735

> <Gold.PLP.ligand.clash>
0.0735

> <Gold.PLP.ligand.torsion>
0.9204

> <Gold.PLP.Chemscore.Hbond>
2.0000

> <Gold.PLP.Chemscore.CHOScore>
0.0000

> <Gold.PLP.Chemscore.Metal>
0.0000

> <Gold.Chemscore.Hbonds>
donor molecule, donor type, donor heavy atom, donor atom, acceptor molecule, acceptor atom, score
      P1  H  6896  6909       L1     8  0.52
      P1  H  7997  8009       L1    14  1.00

> <Gold.PLP.Chemscore.Internal.Correction>
0.3081

> <Gold.Rescore>
     Score         DG    S(hbond)    S(metal)    S(lipo)     H(rot)  DE(clash)    DE(int)     intcor
     11.48     -13.99       1.72        0.00      66.27       1.95       0.07       2.44       ----

> <Gold.Chemscore.Fitness>
11.4807

> <Gold.Chemscore.DG>
-13.9859

> <Gold.Chemscore.ZeroCoef>
-5.4800

> <Gold.Chemscore.Hbond>
1.7223

> <Gold.Chemscore.Metal>
0.0000

> <Gold.Chemscore.Lipo>
66.2725

> <Gold.Chemscore.Internal_Hbond>
0.0000

> <Gold.Chemscore.DEClash>
0.0650

> <Gold.Chemscore.DEInternal>
2.4402

> <Gold.Chemscore.Rot>
1.9533

> <Gold.Chemscore.Internal.Correction>
   9.000000E+99

> <Gold.Chemscore.Hbonds>
donor molecule, donor type, donor heavy atom, donor atom, acceptor molecule, acceptor atom, score
      P1  H  6896  6909       L1     8  0.51
      P1  H  7997  8009       L1    14  0.35

> <Gold.Chemscore.Hbond.Weighted>
-5.7526

> <Gold.Chemscore.Metal.Weighted>
-0.0000

> <Gold.Chemscore.Lipo.Weighted>
-7.7539

> <Gold.Chemscore.Internal_Hbond.Weighted>
0.0000

> <Gold.Chemscore.DEClash.Weighted>
0.0650

> <Gold.Chemscore.DEInternal.Weighted>
2.4402

> <Gold.Chemscore.Rot.Weighted>
5.0005

> <Gold.Chemscore.Internal.Correction.Weighted>
   9.000000E+99

> <Gold.Protein.RotatedTorsions>
[ 6907 6896 6895 6894 ] final   59.86 input  -60.11 | X-H torsion
[ 7974 7965 7964 7962 ] final -177.04 input  175.53 | X-H torsion
[ 8008 7997 7996 7995 ] final  174.18 input   59.86 | X-H torsion
[ 10167 10162 10161 10158 ] final  154.10 input  -65.29 | X-H torsion
[ 10718 10713 10712 10709 ] final   42.04 input   66.30 | X-H torsion
[ 10763 10752 10751 10750 ] final   90.05 input  -60.55 | X-H torsion
[ 11005 11000 10999 10996 ] final  -33.79 input  -57.11 | X-H torsion

> <Gold.Protein.ActiveResidues>
 VAL166  LYS551  ARG553  GLY616  TRP617  ASP618  TYR619  PRO620  LYS621  CYS622 
 ASP623  PHE694  ASN695  SER759  ASP760  ASP761  ALA762  ILE779  LEU786  VAL792 
 PHE793  MET794  SER795  GLU796  ALA797  LYS798  CYS799  TRP800  GLU811  SER814 

> <Gold.Protein.RotatedAtoms>
  152.3952  134.6377  160.0091 H   0  0  0  0  0  0  0  0  0  0  0  0  # atno 6907 bound_to 6896
  151.6599  133.3312  159.3179 H   0  0  0  0  0  0  0  0  0  0  0  0  # atno 6908 bound_to 6896
  150.7861  134.6889  159.6530 H   0  0  0  0  0  0  0  0  0  0  0  0  # atno 6909 bound_to 6896
  144.7127  140.1080  143.6413 H   0  0  0  0  0  0  0  0  0  0  0  0  # atno 7974 bound_to 7965
  156.1000  140.1441  156.9480 H   0  0  0  0  0  0  0  0  0  0  0  0  # atno 8008 bound_to 7997
  154.4696  140.0914  156.7156 H   0  0  0  0  0  0  0  0  0  0  0  0  # atno 8009 bound_to 7997
  155.4776  140.3444  155.4337 H   0  0  0  0  0  0  0  0  0  0  0  0  # atno 8010 bound_to 7997
  139.4824  144.5216  151.7867 H   0  0  0  0  0  0  0  0  0  0  0  0  # atno 10167 bound_to 10162
  157.4003  130.7856  149.7343 H   0  0  0  0  0  0  0  0  0  0  0  0  # atno 10718 bound_to 10713
  153.1935  135.4448  155.0179 H   0  0  0  0  0  0  0  0  0  0  0  0  # atno 10763 bound_to 10752
  154.8105  135.3292  154.7321 H   0  0  0  0  0  0  0  0  0  0  0  0  # atno 10764 bound_to 10752
  153.7772  135.6980  153.4950 H   0  0  0  0  0  0  0  0  0  0  0  0  # atno 10765 bound_to 10752
  140.9664  133.7135  156.1452 H   0  0  0  0  0  0  0  0  0  0  0  0  # atno 11005 bound_to 11000
  145.9480  139.2714  143.1229 LP  0  0  0  0  0  0  0  0  0  0  0  0  # atno 17320 bound_to 7965
  145.9354  140.9018  143.0335 LP  0  0  0  0  0  0  0  0  0  0  0  0  # atno 17321 bound_to 7965
  140.4731  144.1558  150.5921 LP  0  0  0  0  0  0  0  0  0  0  0  0  # atno 17342 bound_to 10162
  140.4361  143.2547  151.9534 LP  0  0  0  0  0  0  0  0  0  0  0  0  # atno 17343 bound_to 10162
  155.9821  130.4012  150.3433 LP  0  0  0  0  0  0  0  0  0  0  0  0  # atno 17370 bound_to 10713
  157.1560  131.0333  151.2863 LP  0  0  0  0  0  0  0  0  0  0  0  0  # atno 17371 bound_to 10713
  140.7393  134.4167  157.5556 LP  0  0  0  0  0  0  0  0  0  0  0  0  # atno 17394 bound_to 11000
  139.8896  134.8826  156.2413 LP  0  0  0  0  0  0  0  0  0  0  0  0  # atno 17395 bound_to 11000

$$$$
