AV-unprocessed.smi:3031|AV-procd|sdf|11554|dock7
  -GOLD-   2272016513D 1   1.00000     0.00000
 Structure written by MMmdl.
 46 47  0  0  0  0  0  0  0  0  1 V2000
  153.9980  141.6891  161.1696 C   0  0  0  0  0  0  0  0  0  0  0  0
  153.1111  142.1763  160.0603 C   0  0  0  0  0  0  0  0  0  0  0  0
  153.1774  143.4176  159.3660 C   0  0  0  0  0  0  0  0  0  0  0  0
  152.2402  143.5392  158.4402 N   0  0  0  0  0  0  0  0  0  0  0  0
  151.5555  142.3765  158.4953 N   0  0  0  0  0  0  0  0  0  0  0  0
  150.4177  142.1661  157.6145 C   0  0  0  0  0  0  0  0  0  0  0  0
  150.8046  141.9375  156.1317 C   0  0  1  0  0  0  0  0  0  0  0  0
  151.5296  140.5937  155.9709 C   0  0  0  0  0  0  0  0  0  0  0  0
  149.6520  141.9570  155.2221 N   0  0  0  0  0  0  0  0  0  0  0  0
  148.6461  140.9158  155.4287 C   0  0  0  0  0  0  0  0  0  0  0  0
  148.9993  139.6365  154.6534 C   0  0  2  0  0  0  0  0  0  0  0  0
  148.3573  139.7193  153.3977 O   0  0  0  0  0  0  0  0  0  0  0  0
  148.4951  138.3641  155.3691 C   0  0  0  0  0  0  0  0  0  0  0  0
  148.9985  138.1581  156.7283 N   0  0  0  0  0  0  0  0  0  0  0  0
  150.4294  137.8731  156.7129 C   0  0  0  0  0  0  0  0  0  0  0  0
  150.9890  137.6571  158.1292 C   0  0  0  0  0  0  0  0  0  0  0  0
  150.2773  136.6000  158.7636 O   0  0  0  0  0  0  0  0  0  0  0  0
  148.8781  136.8517  158.8420 C   0  0  0  0  0  0  0  0  0  0  0  0
  148.3092  137.0761  157.4295 C   0  0  0  0  0  0  0  0  0  0  0  0
  152.0481  141.5448  159.4796 C   0  0  0  0  0  0  0  0  0  0  0  0
  154.8137  142.3837  161.3723 H   0  0  0  0  0  0  0  0  0  0  0  0
  154.4493  140.7262  160.9292 H   0  0  0  0  0  0  0  0  0  0  0  0
  153.4449  141.5625  162.1003 H   0  0  0  0  0  0  0  0  0  0  0  0
  153.8729  144.2314  159.5098 H   0  0  0  0  0  0  0  0  0  0  0  0
  149.8909  141.2908  157.9966 H   0  0  0  0  0  0  0  0  0  0  0  0
  149.7213  143.0019  157.7039 H   0  0  0  0  0  0  0  0  0  0  0  0
  151.5115  142.7092  155.8247 H   0  0  0  0  0  0  0  0  0  0  0  0
  152.4372  140.5609  156.5743 H   0  0  0  0  0  0  0  0  0  0  0  0
  151.8226  140.4246  154.9341 H   0  0  0  0  0  0  0  0  0  0  0  0
  150.8958  139.7610  156.2781 H   0  0  0  0  0  0  0  0  0  0  0  0
  149.2054  142.8675  155.2664 H   0  0  0  0  0  0  0  0  0  0  0  0
  148.5484  140.6743  156.4856 H   0  0  0  0  0  0  0  0  0  0  0  0
  147.6742  141.2823  155.0954 H   0  0  0  0  0  0  0  0  0  0  0  0
  150.0757  139.6093  154.4879 H   0  0  0  0  0  0  0  0  0  0  0  0
  149.0072  139.9213  152.7421 H   0  0  0  0  0  0  0  0  0  0  0  0
  147.4044  138.3747  155.3980 H   0  0  0  0  0  0  0  0  0  0  0  0
  148.7613  137.5037  154.7531 H   0  0  0  0  0  0  0  0  0  0  0  0
  150.6232  136.9842  156.1105 H   0  0  0  0  0  0  0  0  0  0  0  0
  150.9657  138.6949  156.2370 H   0  0  0  0  0  0  0  0  0  0  0  0
  152.0469  137.3981  158.0840 H   0  0  0  0  0  0  0  0  0  0  0  0
  150.9063  138.5697  158.7217 H   0  0  0  0  0  0  0  0  0  0  0  0
  148.3893  136.0006  159.3163 H   0  0  0  0  0  0  0  0  0  0  0  0
  148.6934  137.7212  159.4747 H   0  0  0  0  0  0  0  0  0  0  0  0
  147.2461  137.2948  157.5183 H   0  0  0  0  0  0  0  0  0  0  0  0
  148.3923  136.1514  156.8565 H   0  0  0  0  0  0  0  0  0  0  0  0
  151.6095  140.5786  159.6812 H   0  0  0  0  0  0  0  0  0  0  0  0
  1  2  1  0  0  0  0
  1 21  1  0  0  0  0
  1 22  1  0  0  0  0
  1 23  1  0  0  0  0
  2 20  2  0  0  0  0
  2  3  1  0  0  0  0
  3  4  2  0  0  0  0
  3 24  1  0  0  0  0
  4  5  1  0  0  0  0
  5  6  1  0  0  0  0
  5 20  1  0  0  0  0
  6  7  1  0  0  0  0
  6 25  1  0  0  0  0
  6 26  1  0  0  0  0
  7  8  1  0  0  0  0
  7  9  1  0  0  0  0
  7 27  1  0  0  0  0
  8 28  1  0  0  0  0
  8 29  1  0  0  0  0
  8 30  1  0  0  0  0
  9 10  1  0  0  0  0
  9 31  1  0  0  0  0
 10 11  1  0  0  0  0
 10 32  1  0  0  0  0
 10 33  1  0  0  0  0
 11 12  1  0  0  0  0
 11 13  1  0  0  0  0
 11 34  1  0  0  0  0
 12 35  1  0  0  0  0
 13 14  1  0  0  0  0
 13 36  1  0  0  0  0
 13 37  1  0  0  0  0
 14 19  1  0  0  0  0
 14 15  1  0  0  0  0
 15 16  1  0  0  0  0
 15 38  1  0  0  0  0
 15 39  1  0  0  0  0
 16 17  1  0  0  0  0
 16 40  1  0  0  0  0
 16 41  1  0  0  0  0
 17 18  1  0  0  0  0
 18 19  1  0  0  0  0
 18 42  1  0  0  0  0
 18 43  1  0  0  0  0
 19 44  1  0  0  0  0
 19 45  1  0  0  0  0
 20 46  1  0  0  0  0
M  END
> <s_m_source_file>
AV-unprocessed.smi

> <i_m_source_file_index>
3031

> <i_lp_mmshare_version>
43012

> <i_f3d_flags>
0

> <s_epik_input>
W0NIM11jMVtjSF1ubihbY0hdMSlbQ0gyXVtDQEhdKFtDSDNdKVtOSF1bQ0gyXVtDQEhdKFtPSF0pW0NIMl1OMltDSDJdW0NIMl1PW0NIMl1bQ0gyXTI=

> <s_epik_cmdline>
J2VwaWtfcHl0aG9uJywgJy1waCcsICc3LjAnLCAnLXRuJywgJzgnLCAnLW1hJywgJzIwMCcsICctbWV0YWxfYmluZGluZycsICctaW1hZScsICc8aW5maWxlLm1hZT4nLCAnLW9tYWUnLCAnPG91dGZpbGUubWFlPic=

> <r_lp_tautomer_probability>
1

> <r_epik_Ionization_Penalty>
2.8101

> <r_epik_Ionization_Penalty_Charging>
0

> <r_epik_Ionization_Penalty_Neutral>
2.8101

> <r_epik_State_Penalty>
2.12351

> <r_epik_Charging_Adjusted_Penalty>
2.12351

> <i_epik_Tot_Q>
0

> <i_epik_Tot_abs_Q>
0

> <r_epik_Metal_State_Penalty>
2.12345

> <b_epik_Metal_Only>
0

> <s_lp_Force_Field>
OPLS_2005

> <r_lp_Energy>
32.7569

> <b_lp_Chiralities_Consistent>
1

> <s_lp_Variant>
AV-unprocessed.smi:3031-14

> <Gold.Version>
5.8.1

> <Gold.Id.Protein>
6NUR|6NUR_protein|mol2

> <Gold.PLP.Fitness>
42.1545

> <Gold.PLP.PLP>
-34.6068

> <Gold.PLP.part.hbond>
-3.0000

> <Gold.PLP.part.metal>
0.0000

> <Gold.PLP.part.buried>
-6.4898

> <Gold.PLP.part.nonpolar>
-25.1341

> <Gold.PLP.part.repulsive>
0.0249

> <Gold.PLP.ligand.clash>
0.0000

> <Gold.PLP.ligand.torsion>
0.7689

> <Gold.PLP.Chemscore.Hbond>
3.0000

> <Gold.PLP.Chemscore.CHOScore>
0.0000

> <Gold.PLP.Chemscore.Metal>
0.0000

> <Gold.Chemscore.Hbonds>
donor molecule, donor type, donor heavy atom, donor atom, acceptor molecule, acceptor atom, score
      L1  H     9    31       P1  8028  1.00
      L1  H    12    35       P1  7957  1.00
      P1  H  6896  6907       L1    17  1.00

> <Gold.PLP.Chemscore.Internal.Correction>
0.0854

> <Gold.Rescore>
     Score         DG    S(hbond)    S(metal)    S(lipo)     H(rot)  DE(clash)    DE(int)     intcor
     18.18     -18.91       2.93        0.00      86.46       2.53       0.00       0.73       ----

> <Gold.Chemscore.Fitness>
18.1783

> <Gold.Chemscore.DG>
-18.9055

> <Gold.Chemscore.ZeroCoef>
-5.4800

> <Gold.Chemscore.Hbond>
2.9326

> <Gold.Chemscore.Metal>
0.0000

> <Gold.Chemscore.Lipo>
86.4603

> <Gold.Chemscore.Internal_Hbond>
0.0000

> <Gold.Chemscore.DEClash>
0.0000

> <Gold.Chemscore.DEInternal>
0.7272

> <Gold.Chemscore.Rot>
2.5333

> <Gold.Chemscore.Internal.Correction>
   9.000000E+99

> <Gold.Chemscore.Hbonds>
donor molecule, donor type, donor heavy atom, donor atom, acceptor molecule, acceptor atom, score
      L1  H     9    31       P1  8028  0.99
      L1  H    12    35       P1  7957  0.98
      P1  H  6896  6907       L1    17  0.86

> <Gold.Chemscore.Hbond.Weighted>
-9.7948

> <Gold.Chemscore.Metal.Weighted>
-0.0000

> <Gold.Chemscore.Lipo.Weighted>
-10.1159

> <Gold.Chemscore.Internal_Hbond.Weighted>
0.0000

> <Gold.Chemscore.DEClash.Weighted>
0.0000

> <Gold.Chemscore.DEInternal.Weighted>
0.7272

> <Gold.Chemscore.Rot.Weighted>
6.4852

> <Gold.Chemscore.Internal.Correction.Weighted>
   9.000000E+99

> <Gold.Protein.RotatedTorsions>
[ 6907 6896 6895 6894 ] final  -42.23 input  -60.11 | X-H torsion
[ 7974 7965 7964 7962 ] final  -95.01 input  175.53 | X-H torsion
[ 8008 7997 7996 7995 ] final   95.39 input   59.86 | X-H torsion
[ 10167 10162 10161 10158 ] final -164.29 input  -65.29 | X-H torsion
[ 10718 10713 10712 10709 ] final  111.52 input   66.30 | X-H torsion
[ 10763 10752 10751 10750 ] final   47.25 input  -60.55 | X-H torsion
[ 11005 11000 10999 10996 ] final  128.71 input  -57.11 | X-H torsion

> <Gold.Protein.ActiveResidues>
 VAL166  LYS551  ARG553  GLY616  TRP617  ASP618  TYR619  PRO620  LYS621  CYS622 
 ASP623  PHE694  ASN695  SER759  ASP760  ASP761  ALA762  ILE779  LEU786  VAL792 
 PHE793  MET794  SER795  GLU796  ALA797  LYS798  CYS799  TRP800  GLU811  SER814 

> <Gold.Protein.RotatedAtoms>
  150.9576  134.8968  159.7710 H   0  0  0  0  0  0  0  0  0  0  0  0  # atno 6907 bound_to 6896
  152.5144  134.3718  159.9331 H   0  0  0  0  0  0  0  0  0  0  0  0  # atno 6908 bound_to 6896
  151.3732  133.3807  159.2736 H   0  0  0  0  0  0  0  0  0  0  0  0  # atno 6909 bound_to 6896
  145.3657  140.9498  143.2475 H   0  0  0  0  0  0  0  0  0  0  0  0  # atno 7974 bound_to 7965
  156.0683  140.3287  155.7545 H   0  0  0  0  0  0  0  0  0  0  0  0  # atno 8008 bound_to 7997
  155.5346  140.0596  157.2899 H   0  0  0  0  0  0  0  0  0  0  0  0  # atno 8009 bound_to 7997
  154.4517  140.1921  156.0518 H   0  0  0  0  0  0  0  0  0  0  0  0  # atno 8010 bound_to 7997
  139.6261  144.0530  152.1975 H   0  0  0  0  0  0  0  0  0  0  0  0  # atno 10167 bound_to 10162
  157.6440  131.0952  150.6761 H   0  0  0  0  0  0  0  0  0  0  0  0  # atno 10718 bound_to 10713
  152.9802  135.5982  154.3732 H   0  0  0  0  0  0  0  0  0  0  0  0  # atno 10763 bound_to 10752
  154.3404  135.2768  155.2427 H   0  0  0  0  0  0  0  0  0  0  0  0  # atno 10764 bound_to 10752
  154.4512  135.5989  153.6248 H   0  0  0  0  0  0  0  0  0  0  0  0  # atno 10765 bound_to 10752
  139.9575  134.9609  156.9042 H   0  0  0  0  0  0  0  0  0  0  0  0  # atno 11005 bound_to 11000
  144.8613  139.5173  143.6811 LP  0  0  0  0  0  0  0  0  0  0  0  0  # atno 17320 bound_to 7965
  146.2907  139.7132  142.9163 LP  0  0  0  0  0  0  0  0  0  0  0  0  # atno 17321 bound_to 7965
  140.0184  144.6171  150.7587 LP  0  0  0  0  0  0  0  0  0  0  0  0  # atno 17342 bound_to 10162
  140.7411  143.2814  151.3588 LP  0  0  0  0  0  0  0  0  0  0  0  0  # atno 17343 bound_to 10162
  156.7081  130.4643  149.5555 LP  0  0  0  0  0  0  0  0  0  0  0  0  # atno 17370 bound_to 10713
  156.1749  130.6461  151.0882 LP  0  0  0  0  0  0  0  0  0  0  0  0  # atno 17371 bound_to 10713
  140.5575  134.0567  155.7388 LP  0  0  0  0  0  0  0  0  0  0  0  0  # atno 17394 bound_to 11000
  141.1249  133.9400  157.2656 LP  0  0  0  0  0  0  0  0  0  0  0  0  # atno 17395 bound_to 11000

$$$$
