AV-unprocessed.smi:876|AV-procd|sdf|4020|dock1
  -GOLD-   22720 1503D 1   1.00000     0.00000
 Structure written by MMmdl.
 41 42  0  0  0  0  0  0  0  0  2 V2000
  152.6149  142.5101  159.1322 C   0  0  0  0  0  0  0  0  0  0  0  0
  151.8271  142.9469  157.9868 N   0  0  0  0  0  0  0  0  0  0  0  0
  151.5903  144.3675  157.7547 C   0  0  0  0  0  0  0  0  0  0  0  0
  151.2385  141.9885  157.1336 C   0  0  0  0  0  0  0  0  0  0  0  0
  151.6633  140.6386  157.0746 C   0  0  0  0  0  0  0  0  0  0  0  0
  151.0247  139.7359  156.1998 C   0  0  0  0  0  0  0  0  0  0  0  0
  149.9532  140.1860  155.3899 C   0  0  0  0  0  0  0  0  0  0  0  0
  149.2487  139.3648  154.4677 N   0  0  0  0  0  0  0  0  0  0  0  0
  147.9776  139.4796  154.0450 C   0  0  0  0  0  0  0  0  0  0  0  0
  147.1881  140.3569  154.3938 O   0  0  0  0  0  0  0  0  0  0  0  0
  147.6671  138.5152  153.1672 N   0  0  0  0  0  0  0  0  0  0  0  0
  146.3669  138.3668  152.5224 C   0  0  1  0  0  0  0  0  0  0  0  0
  146.5083  138.4000  151.0254 C   0  0  0  0  0  0  0  0  0  0  0  0
  146.0329  137.3034  150.4396 C   0  0  0  0  0  0  0  0  0  0  0  0
  145.4977  136.2966  151.4259 C   0  0  2  0  0  0  0  0  0  0  0  0
  144.0289  135.9232  151.1600 C   0  0  0  0  0  0  0  0  0  0  0  0
  143.8929  135.2995  149.9000 O   0  0  0  0  0  0  0  0  0  0  0  0
  145.7119  136.9873  152.7973 C   0  0  0  0  0  0  0  0  0  0  0  0
  149.5809  141.5426  155.4739 C   0  0  0  0  0  0  0  0  0  0  0  0
  150.2200  142.3730  156.3258 N   0  3  0  0  0  0  0  0  0  0  0  0
  145.7018  139.1788  152.8217 H   0  0  0  0  0  0  0  0  0  0  0  0
  146.1205  135.4025  151.3682 H   0  0  0  0  0  0  0  0  0  0  0  0
  153.4746  141.9245  158.8051 H   0  0  0  0  0  0  0  0  0  0  0  0
  152.0105  141.8984  159.8030 H   0  0  0  0  0  0  0  0  0  0  0  0
  152.9896  143.3597  159.7035 H   0  0  0  0  0  0  0  0  0  0  0  0
  150.5241  144.5914  157.8014 H   0  0  0  0  0  0  0  0  0  0  0  0
  151.9652  144.6632  156.7743 H   0  0  0  0  0  0  0  0  0  0  0  0
  152.0926  144.9816  158.5027 H   0  0  0  0  0  0  0  0  0  0  0  0
  152.4761  140.2764  157.6861 H   0  0  0  0  0  0  0  0  0  0  0  0
  151.3815  138.7184  156.1620 H   0  0  0  0  0  0  0  0  0  0  0  0
  149.7945  138.6353  154.0327 H   0  0  0  0  0  0  0  0  0  0  0  0
  148.3737  137.8345  152.9295 H   0  0  0  0  0  0  0  0  0  0  0  0
  146.9392  139.2434  150.5061 H   0  0  0  0  0  0  0  0  0  0  0  0
  146.0309  137.1208  149.3750 H   0  0  0  0  0  0  0  0  0  0  0  0
  143.6699  135.2346  151.9254 H   0  0  0  0  0  0  0  0  0  0  0  0
  143.3902  136.8067  151.1947 H   0  0  0  0  0  0  0  0  0  0  0  0
  142.9737  135.1575  149.7330 H   0  0  0  0  0  0  0  0  0  0  0  0
  146.3365  136.3622  153.4371 H   0  0  0  0  0  0  0  0  0  0  0  0
  144.7673  137.1238  153.3255 H   0  0  0  0  0  0  0  0  0  0  0  0
  148.7875  141.9896  154.8924 H   0  0  0  0  0  0  0  0  0  0  0  0
  149.9173  143.3464  156.3633 H   0  0  0  0  0  0  0  0  0  0  0  0
  1  2  1  0  0  0  0
  1 23  1  0  0  0  0
  1 24  1  0  0  0  0
  1 25  1  0  0  0  0
  2  3  1  0  0  0  0
  2  4  1  0  0  0  0
  3 26  1  0  0  0  0
  3 27  1  0  0  0  0
  3 28  1  0  0  0  0
  4 20  1  0  0  0  0
  4  5  2  0  0  0  0
  5  6  1  0  0  0  0
  5 29  1  0  0  0  0
  6  7  2  0  0  0  0
  6 30  1  0  0  0  0
  7  8  1  0  0  0  0
  7 19  1  0  0  0  0
  8  9  1  0  0  0  0
  8 31  1  0  0  0  0
  9 10  2  0  0  0  0
  9 11  1  0  0  0  0
 11 12  1  0  0  0  0
 11 32  1  0  0  0  0
 12 21  1  0  0  0  0
 12 18  1  0  0  0  0
 12 13  1  0  0  0  0
 13 14  2  0  0  0  0
 13 33  1  0  0  0  0
 14 15  1  0  0  0  0
 14 34  1  0  0  0  0
 15 22  1  0  0  0  0
 15 16  1  0  0  0  0
 15 18  1  0  0  0  0
 16 17  1  0  0  0  0
 16 35  1  0  0  0  0
 16 36  1  0  0  0  0
 17 37  1  0  0  0  0
 18 38  1  0  0  0  0
 18 39  1  0  0  0  0
 19 20  2  0  0  0  0
 19 40  1  0  0  0  0
 20 41  1  0  0  0  0
M  CHG  1  20   1
M  END
> <s_m_source_file>
AV-unprocessed.smi

> <i_m_source_file_index>
876

> <i_lp_mmshare_version>
43012

> <i_f3d_flags>
0

> <s_epik_input>
W0NIM11OKFtDSDNdKWMxW2NIXVtjSF1jKFtjSF1uMSlbTkhdQyg9TylbTkhdW0NAQEhdMltDSF09W0NIXVtDQEBIXShbQ0gyXTIpW0NIMl1bT0hd

> <s_epik_cmdline>
J2VwaWtfcHl0aG9uJywgJy1waCcsICc3LjAnLCAnLXRuJywgJzgnLCAnLW1hJywgJzIwMCcsICctbWV0YWxfYmluZGluZycsICctaW1hZScsICc8aW5maWxlLm1hZT4nLCAnLW9tYWUnLCAnPG91dGZpbGUubWFlPic=

> <r_lp_tautomer_probability>
0.999994

> <r_epik_Ionization_Penalty>
0.257994

> <r_epik_Ionization_Penalty_Charging>
0.257974

> <r_epik_Ionization_Penalty_Neutral>
1.95938e-05

> <r_epik_State_Penalty>
0.249586

> <r_epik_Charging_Adjusted_Penalty>
0.50756

> <i_epik_Tot_Q>
1

> <i_epik_Tot_abs_Q>
1

> <r_epik_Metal_State_Penalty>
0.538508

> <b_epik_Metal_Only>
0

> <s_lp_Force_Field>
OPLS_2005

> <r_lp_Energy>
26.3189

> <b_lp_Chiralities_Consistent>
1

> <s_lp_Variant>
AV-unprocessed.smi:876-2

> <Gold.Version>
5.8.1

> <Gold.Id.Protein>
6NUR|6NUR_protein|mol2

> <Gold.PLP.Fitness>
46.2982

> <Gold.PLP.PLP>
-35.0024

> <Gold.PLP.part.hbond>
-3.0922

> <Gold.PLP.part.metal>
0.0000

> <Gold.PLP.part.buried>
0.9343

> <Gold.PLP.part.nonpolar>
-34.9615

> <Gold.PLP.part.repulsive>
0.2749

> <Gold.PLP.ligand.clash>
0.0000

> <Gold.PLP.ligand.torsion>
0.3142

> <Gold.PLP.Chemscore.Hbond>
3.9673

> <Gold.PLP.Chemscore.CHOScore>
0.0000

> <Gold.PLP.Chemscore.Metal>
0.0000

> <Gold.Chemscore.Hbonds>
donor molecule, donor type, donor heavy atom, donor atom, acceptor molecule, acceptor atom, score
      L1  H    11    32       P1  7948  1.00
      L1  H    17    37       P1 10186  0.86
      L1  H    20    41       P1  8028  1.98

> <Gold.PLP.Chemscore.Internal.Correction>
0.0224

> <Gold.Rescore>
     Score         DG    S(hbond)    S(metal)    S(lipo)     H(rot)  DE(clash)    DE(int)     intcor
     16.47     -20.47       2.81        0.00      87.60       1.82       2.40       1.60       ----

> <Gold.Chemscore.Fitness>
16.4724

> <Gold.Chemscore.DG>
-20.4720

> <Gold.Chemscore.ZeroCoef>
-5.4800

> <Gold.Chemscore.Hbond>
2.8147

> <Gold.Chemscore.Metal>
0.0000

> <Gold.Chemscore.Lipo>
87.6018

> <Gold.Chemscore.Internal_Hbond>
0.0000

> <Gold.Chemscore.DEClash>
2.4022

> <Gold.Chemscore.DEInternal>
1.5974

> <Gold.Chemscore.Rot>
1.8197

> <Gold.Chemscore.Internal.Correction>
   9.000000E+99

> <Gold.Chemscore.Hbonds>
donor molecule, donor type, donor heavy atom, donor atom, acceptor molecule, acceptor atom, score
      L1  H    11    32       P1  7948  0.91
      L1  H    17    37       P1 10186  0.29
      L1  H    20    41       P1  8028  0.94

> <Gold.Chemscore.Hbond.Weighted>
-9.4011

> <Gold.Chemscore.Metal.Weighted>
-0.0000

> <Gold.Chemscore.Lipo.Weighted>
-10.2494

> <Gold.Chemscore.Internal_Hbond.Weighted>
0.0000

> <Gold.Chemscore.DEClash.Weighted>
2.4022

> <Gold.Chemscore.DEInternal.Weighted>
1.5974

> <Gold.Chemscore.Rot.Weighted>
4.6585

> <Gold.Chemscore.Internal.Correction.Weighted>
   9.000000E+99

> <Gold.Protein.RotatedTorsions>
[ 6907 6896 6895 6894 ] final  -52.92 input  -60.11 | X-H torsion
[ 7974 7965 7964 7962 ] final   10.64 input  175.53 | X-H torsion
[ 8008 7997 7996 7995 ] final  -30.90 input   59.86 | X-H torsion
[ 10167 10162 10161 10158 ] final   99.64 input  -65.29 | X-H torsion
[ 10718 10713 10712 10709 ] final -106.57 input   66.30 | X-H torsion
[ 10763 10752 10751 10750 ] final  -58.61 input  -60.55 | X-H torsion
[ 11005 11000 10999 10996 ] final  -51.69 input  -57.11 | X-H torsion

> <Gold.Protein.ActiveResidues>
 VAL166  LYS551  ARG553  GLY616  TRP617  ASP618  TYR619  PRO620  LYS621  CYS622 
 ASP623  PHE694  ASN695  SER759  ASP760  ASP761  ALA762  ILE779  LEU786  VAL792 
 PHE793  MET794  SER795  GLU796  ALA797  LYS798  CYS799  TRP800  GLU811  SER814 

> <Gold.Protein.RotatedAtoms>
  150.8473  134.7787  159.6980 H   0  0  0  0  0  0  0  0  0  0  0  0  # atno 6907 bound_to 6896
  152.4547  134.5314  159.9822 H   0  0  0  0  0  0  0  0  0  0  0  0  # atno 6908 bound_to 6896
  151.5442  133.3390  159.2977 H   0  0  0  0  0  0  0  0  0  0  0  0  # atno 6909 bound_to 6896
  146.2385  139.9604  142.8459 H   0  0  0  0  0  0  0  0  0  0  0  0  # atno 7974 bound_to 7965
  154.4233  140.1779  156.1481 H   0  0  0  0  0  0  0  0  0  0  0  0  # atno 8008 bound_to 7997
  155.9937  140.3366  155.6754 H   0  0  0  0  0  0  0  0  0  0  0  0  # atno 8009 bound_to 7997
  155.6337  140.0672  157.2631 H   0  0  0  0  0  0  0  0  0  0  0  0  # atno 8010 bound_to 7997
  139.7599  144.6958  151.0308 H   0  0  0  0  0  0  0  0  0  0  0  0  # atno 10167 bound_to 10162
  156.0396  130.5619  150.7700 H   0  0  0  0  0  0  0  0  0  0  0  0  # atno 10718 bound_to 10713
  154.2409  135.6343  153.5207 H   0  0  0  0  0  0  0  0  0  0  0  0  # atno 10763 bound_to 10752
  152.9930  135.5542  154.5912 H   0  0  0  0  0  0  0  0  0  0  0  0  # atno 10764 bound_to 10752
  154.5417  135.2895  155.1064 H   0  0  0  0  0  0  0  0  0  0  0  0  # atno 10765 bound_to 10752
  141.0884  133.6637  156.3914 H   0  0  0  0  0  0  0  0  0  0  0  0  # atno 11005 bound_to 11000
  145.1776  140.9751  143.4285 LP  0  0  0  0  0  0  0  0  0  0  0  0  # atno 17320 bound_to 7965
  144.9971  139.3633  143.6186 LP  0  0  0  0  0  0  0  0  0  0  0  0  # atno 17321 bound_to 7965
  140.7806  143.4710  151.0147 LP  0  0  0  0  0  0  0  0  0  0  0  0  # atno 17342 bound_to 10162
  139.8396  143.7582  152.3180 LP  0  0  0  0  0  0  0  0  0  0  0  0  # atno 17343 bound_to 10162
  157.5196  131.0930  151.0095 LP  0  0  0  0  0  0  0  0  0  0  0  0  # atno 17370 bound_to 10713
  157.0429  130.5756  149.5359 LP  0  0  0  0  0  0  0  0  0  0  0  0  # atno 17371 bound_to 10713
  140.5309  134.6214  157.5349 LP  0  0  0  0  0  0  0  0  0  0  0  0  # atno 17394 bound_to 11000
  139.9706  134.7299  156.0049 LP  0  0  0  0  0  0  0  0  0  0  0  0  # atno 17395 bound_to 11000

$$$$
