AV-unprocessed.smi:3110|AV-procd|sdf|11831|dock5
  -GOLD-   2272017203D 1   1.00000     0.00000
 Structure written by MMmdl.
 33 34  0  0  0  0  0  0  0  0  1 V2000
  150.0949  142.4929  158.8537 O   0  0  0  0  0  0  0  0  0  0  0  0
  150.7096  142.8447  157.8468 C   0  0  0  0  0  0  0  0  0  0  0  0
  151.4524  144.1846  157.8213 C   0  0  0  0  0  0  0  0  0  0  0  0
  152.4578  144.3469  158.9802 C   0  0  1  0  0  0  0  0  0  0  0  0
  151.7981  144.8386  160.2426 C   0  0  0  0  0  0  0  0  0  0  0  0
  152.0890  144.0877  161.3024 C   0  0  0  0  0  0  0  0  0  0  0  0
  153.0009  142.9417  160.9626 C   0  0  0  0  0  0  0  0  0  0  0  0
  153.1439  143.0277  159.4270 C   0  0  0  0  0  0  0  0  0  0  0  0
  150.7748  142.1056  156.7289 N   0  0  0  0  0  0  0  0  0  0  0  0
  150.1322  140.8101  156.5443 C   0  0  0  0  0  0  0  0  0  0  0  0
  150.1426  140.3793  155.0681 C   0  0  0  0  0  0  0  0  0  0  0  0
  148.8373  140.5383  154.4604 N   0  0  0  0  0  0  0  0  0  0  0  0
  148.0637  139.5516  153.8635 C   0  0  0  0  0  0  0  0  0  0  0  0
  146.9089  140.1653  153.4332 C   0  0  0  0  0  0  0  0  0  0  0  0
  146.9499  141.5201  153.7540 N   0  0  0  0  0  0  0  0  0  0  0  0
  148.1216  141.6667  154.3592 C   0  0  0  0  0  0  0  0  0  0  0  0
  151.9760  144.2575  156.8674 H   0  0  0  0  0  0  0  0  0  0  0  0
  150.7327  145.0050  157.8410 H   0  0  0  0  0  0  0  0  0  0  0  0
  153.2163  145.0844  158.7129 H   0  0  0  0  0  0  0  0  0  0  0  0
  151.1735  145.7198  160.2591 H   0  0  0  0  0  0  0  0  0  0  0  0
  151.7369  144.2658  162.3079 H   0  0  0  0  0  0  0  0  0  0  0  0
  153.9598  143.0710  161.4654 H   0  0  0  0  0  0  0  0  0  0  0  0
  152.5654  141.9932  161.2780 H   0  0  0  0  0  0  0  0  0  0  0  0
  152.6557  142.1641  158.9733 H   0  0  0  0  0  0  0  0  0  0  0  0
  154.1899  142.9991  159.1198 H   0  0  0  0  0  0  0  0  0  0  0  0
  151.3034  142.4690  155.9490 H   0  0  0  0  0  0  0  0  0  0  0  0
  150.6685  140.0777  157.1486 H   0  0  0  0  0  0  0  0  0  0  0  0
  149.1111  140.8421  156.9285 H   0  0  0  0  0  0  0  0  0  0  0  0
  150.8614  140.9683  154.4965 H   0  0  0  0  0  0  0  0  0  0  0  0
  150.4443  139.3350  154.9773 H   0  0  0  0  0  0  0  0  0  0  0  0
  148.3889  138.5238  153.7969 H   0  0  0  0  0  0  0  0  0  0  0  0
  146.0578  139.7392  152.9224 H   0  0  0  0  0  0  0  0  0  0  0  0
  148.4663  142.6165  154.7415 H   0  0  0  0  0  0  0  0  0  0  0  0
  1  2  2  0  0  0  0
  2  3  1  0  0  0  0
  2  9  1  0  0  0  0
  3  4  1  0  0  0  0
  3 17  1  0  0  0  0
  3 18  1  0  0  0  0
  4  8  1  0  0  0  0
  4  5  1  0  0  0  0
  4 19  1  0  0  0  0
  5  6  2  0  0  0  0
  5 20  1  0  0  0  0
  6  7  1  0  0  0  0
  6 21  1  0  0  0  0
  7  8  1  0  0  0  0
  7 22  1  0  0  0  0
  7 23  1  0  0  0  0
  8 24  1  0  0  0  0
  8 25  1  0  0  0  0
  9 10  1  0  0  0  0
  9 26  1  0  0  0  0
 10 11  1  0  0  0  0
 10 27  1  0  0  0  0
 10 28  1  0  0  0  0
 11 12  1  0  0  0  0
 11 29  1  0  0  0  0
 11 30  1  0  0  0  0
 12 16  1  0  0  0  0
 12 13  1  0  0  0  0
 13 14  2  0  0  0  0
 13 31  1  0  0  0  0
 14 15  1  0  0  0  0
 14 32  1  0  0  0  0
 15 16  2  0  0  0  0
 16 33  1  0  0  0  0
M  END
> <s_m_source_file>
AV-unprocessed.smi

> <i_m_source_file_index>
3110

> <i_lp_mmshare_version>
43012

> <i_f3d_flags>
0

> <s_epik_input>
W0NIMl0xW0NIMl1bQ0hdPVtDSF1bQ0BIXTFbQ0gyXUMoPU8pW05IXVtDSDJdW0NIMl1uMltjSF1bY0hdbltjSF0y

> <s_epik_cmdline>
J2VwaWtfcHl0aG9uJywgJy1waCcsICc3LjAnLCAnLXRuJywgJzgnLCAnLW1hJywgJzIwMCcsICctbWV0YWxfYmluZGluZycsICctaW1hZScsICc8aW5maWxlLm1hZT4nLCAnLW9tYWUnLCAnPG91dGZpbGUubWFlPic=

> <r_lp_tautomer_probability>
1

> <r_epik_Ionization_Penalty>
0.593629

> <r_epik_Ionization_Penalty_Charging>
0.593629

> <r_epik_Ionization_Penalty_Neutral>
1.57355e-08

> <r_epik_State_Penalty>
0.607413

> <r_epik_Charging_Adjusted_Penalty>
1.20104

> <i_epik_Tot_Q>
0

> <i_epik_Tot_abs_Q>
0

> <r_epik_Metal_State_Penalty>
0.299385

> <b_epik_Metal_Only>
0

> <s_lp_Force_Field>
OPLS_2005

> <r_lp_Energy>
16.9466

> <b_lp_Chiralities_Consistent>
1

> <s_lp_Variant>
AV-unprocessed.smi:3110-4

> <Gold.Version>
5.8.1

> <Gold.Id.Protein>
6NUR|6NUR_protein|mol2

> <Gold.PLP.Fitness>
45.9149

> <Gold.PLP.PLP>
-41.2814

> <Gold.PLP.part.hbond>
-0.2961

> <Gold.PLP.part.metal>
0.0000

> <Gold.PLP.part.buried>
-2.5814

> <Gold.PLP.part.nonpolar>
-38.7786

> <Gold.PLP.part.repulsive>
0.3347

> <Gold.PLP.ligand.clash>
0.0000

> <Gold.PLP.ligand.torsion>
0.7029

> <Gold.PLP.Chemscore.Hbond>
0.0000

> <Gold.PLP.Chemscore.CHOScore>
2.0000

> <Gold.PLP.Chemscore.Metal>
0.0000

> <Gold.Chemscore.Hbonds>
donor molecule, donor type, donor heavy atom, donor atom, acceptor molecule, acceptor atom, score
      L1  C    14    32       P1 10175  1.00
      L1  C    16    33       P1  8028  1.00

> <Gold.PLP.Chemscore.Internal.Correction>
0.0393

> <Gold.Rescore>
     Score         DG    S(hbond)    S(metal)    S(lipo)     H(rot)  DE(clash)    DE(int)     intcor
     11.54     -12.23       0.00        0.00     101.72       2.01       0.06       0.63       ----

> <Gold.Chemscore.Fitness>
11.5372

> <Gold.Chemscore.DG>
-12.2340

> <Gold.Chemscore.ZeroCoef>
-5.4800

> <Gold.Chemscore.Hbond>
0.0000

> <Gold.Chemscore.Metal>
0.0000

> <Gold.Chemscore.Lipo>
101.7246

> <Gold.Chemscore.Internal_Hbond>
0.0000

> <Gold.Chemscore.DEClash>
0.0637

> <Gold.Chemscore.DEInternal>
0.6331

> <Gold.Chemscore.Rot>
2.0108

> <Gold.Chemscore.Internal.Correction>
   9.000000E+99

> <Gold.Chemscore.Hbond.Weighted>
-0.0000

> <Gold.Chemscore.Metal.Weighted>
-0.0000

> <Gold.Chemscore.Lipo.Weighted>
-11.9018

> <Gold.Chemscore.Internal_Hbond.Weighted>
0.0000

> <Gold.Chemscore.DEClash.Weighted>
0.0637

> <Gold.Chemscore.DEInternal.Weighted>
0.6331

> <Gold.Chemscore.Rot.Weighted>
5.1477

> <Gold.Chemscore.Internal.Correction.Weighted>
   9.000000E+99

> <Gold.Protein.RotatedTorsions>
[ 6907 6896 6895 6894 ] final -107.56 input  -60.11 | X-H torsion
[ 7974 7965 7964 7962 ] final  -73.55 input  175.53 | X-H torsion
[ 8008 7997 7996 7995 ] final   52.78 input   59.86 | X-H torsion
[ 10167 10162 10161 10158 ] final  131.48 input  -65.29 | X-H torsion
[ 10718 10713 10712 10709 ] final  151.19 input   66.30 | X-H torsion
[ 10763 10752 10751 10750 ] final   65.25 input  -60.55 | X-H torsion
[ 11005 11000 10999 10996 ] final    5.44 input  -57.11 | X-H torsion

> <Gold.Protein.ActiveResidues>
 VAL166  LYS551  ARG553  GLY616  TRP617  ASP618  TYR619  PRO620  LYS621  CYS622 
 ASP623  PHE694  ASN695  SER759  ASP760  ASP761  ALA762  ILE779  LEU786  VAL792 
 PHE793  MET794  SER795  GLU796  ALA797  LYS798  CYS799  TRP800  GLU811  SER814 

> <Gold.Protein.RotatedAtoms>
  150.7451  133.9808  159.3575 H   0  0  0  0  0  0  0  0  0  0  0  0  # atno 6907 bound_to 6896
  151.7749  135.0775  160.0375 H   0  0  0  0  0  0  0  0  0  0  0  0  # atno 6908 bound_to 6896
  152.3313  133.5925  159.5848 H   0  0  0  0  0  0  0  0  0  0  0  0  # atno 6909 bound_to 6896
  145.6507  140.9283  143.0986 H   0  0  0  0  0  0  0  0  0  0  0  0  # atno 7974 bound_to 7965
  155.4574  140.3460  155.4308 H   0  0  0  0  0  0  0  0  0  0  0  0  # atno 8008 bound_to 7997
  156.1182  140.1480  156.9271 H   0  0  0  0  0  0  0  0  0  0  0  0  # atno 8009 bound_to 7997
  154.4804  140.0871  156.7343 H   0  0  0  0  0  0  0  0  0  0  0  0  # atno 8010 bound_to 7997
  139.5382  144.6704  151.4713 H   0  0  0  0  0  0  0  0  0  0  0  0  # atno 10167 bound_to 10162
  157.2739  131.0822  151.1580 H   0  0  0  0  0  0  0  0  0  0  0  0  # atno 10718 bound_to 10713
  153.0089  135.5363  154.6638 H   0  0  0  0  0  0  0  0  0  0  0  0  # atno 10763 bound_to 10752
  154.5840  135.2852  155.0706 H   0  0  0  0  0  0  0  0  0  0  0  0  # atno 10764 bound_to 10752
  154.1824  135.6514  153.5090 H   0  0  0  0  0  0  0  0  0  0  0  0  # atno 10765 bound_to 10752
  140.5707  134.0105  155.8007 H   0  0  0  0  0  0  0  0  0  0  0  0  # atno 11005 bound_to 11000
  144.7123  139.8323  143.7410 LP  0  0  0  0  0  0  0  0  0  0  0  0  # atno 17320 bound_to 7965
  146.1206  139.4223  143.0231 LP  0  0  0  0  0  0  0  0  0  0  0  0  # atno 17321 bound_to 7965
  140.6599  143.8519  150.6877 LP  0  0  0  0  0  0  0  0  0  0  0  0  # atno 17342 bound_to 10162
  140.1911  143.4036  152.1862 LP  0  0  0  0  0  0  0  0  0  0  0  0  # atno 17343 bound_to 10162
  157.3041  130.6857  149.6180 LP  0  0  0  0  0  0  0  0  0  0  0  0  # atno 17370 bound_to 10713
  155.9663  130.4383  150.5212 LP  0  0  0  0  0  0  0  0  0  0  0  0  # atno 17371 bound_to 10713
  141.1058  133.9696  157.2999 LP  0  0  0  0  0  0  0  0  0  0  0  0  # atno 17394 bound_to 11000
  139.9363  135.0196  156.8567 LP  0  0  0  0  0  0  0  0  0  0  0  0  # atno 17395 bound_to 11000

$$$$
