AV-unprocessed.smi:37|AV-procd|sdf|307|dock10
  -GOLD-   2262016123D 1   1.00000     0.00000
 Structure written by MMmdl.
 44 45  0  0  0  0  0  0  0  0  1 V2000
  151.3358  138.5421  154.3197 C   0  0  0  0  0  0  0  0  0  0  0  0
  151.7399  139.7173  155.2227 C   0  0  0  0  0  0  0  0  0  0  0  0
  151.8825  139.3350  156.6977 C   0  0  0  0  0  0  0  0  0  0  0  0
  152.9292  139.5042  157.3260 O   0  0  0  0  0  0  0  0  0  0  0  0
  150.7510  138.8092  157.1921 O   0  0  0  0  0  0  0  0  0  0  0  0
  150.8025  138.0157  158.3661 C   0  0  0  0  0  0  0  0  0  0  0  0
  149.9741  136.7420  158.1609 C   0  0  2  0  0  0  0  0  0  0  0  0
  149.7458  136.5288  156.7669 O   0  0  0  0  0  0  0  0  0  0  0  0
  148.4310  136.1134  156.5454 C   0  0  1  0  0  0  0  0  0  0  0  0
  148.4470  134.8875  155.6586 N   0  0  0  0  0  0  0  0  0  0  0  0
  147.9880  134.9732  154.3514 C   0  0  0  0  0  0  0  0  0  0  0  0
  147.9981  133.9252  153.4937 C   0  0  0  0  0  0  0  0  0  0  0  0
  147.5289  134.0854  152.2446 F   0  0  0  0  0  0  0  0  0  0  0  0
  148.5162  132.6262  153.9118 C   0  0  0  0  0  0  0  0  0  0  0  0
  148.5604  131.6172  153.2111 O   0  0  0  0  0  0  0  0  0  0  0  0
  148.9906  132.5914  155.2263 N   0  0  0  0  0  0  0  0  0  0  0  0
  148.9906  133.6651  156.1188 C   0  0  0  0  0  0  0  0  0  0  0  0
  149.4556  133.5192  157.2480 O   0  0  0  0  0  0  0  0  0  0  0  0
  147.7909  135.8638  157.9130 C   0  0  2  0  0  0  0  0  0  0  0  0
  145.8498  136.3041  157.9081 Br  0  0  0  0  0  0  0  0  0  0  0  0
  148.5761  136.8176  158.7856 C   0  0  1  0  0  0  0  0  0  0  0  0
  148.5526  136.3537  160.1291 O   0  0  0  0  0  0  0  0  0  0  0  0
  147.4939  136.6038  160.9200 C   0  0  0  0  0  0  0  0  0  0  0  0
  146.5686  137.3759  160.6687 O   0  0  0  0  0  0  0  0  0  0  0  0
  147.5399  135.8175  162.2280 C   0  0  0  0  0  0  0  0  0  0  0  0
  147.2725  134.3215  162.0137 C   0  0  0  0  0  0  0  0  0  0  0  0
  149.3711  131.7160  155.5558 H   0  0  0  0  0  0  0  0  0  0  0  0
  151.2384  138.8694  153.2846 H   0  0  0  0  0  0  0  0  0  0  0  0
  150.3772  138.1188  154.6225 H   0  0  0  0  0  0  0  0  0  0  0  0
  152.0809  137.7461  154.3449 H   0  0  0  0  0  0  0  0  0  0  0  0
  152.6871  140.1343  154.8802 H   0  0  0  0  0  0  0  0  0  0  0  0
  150.9982  140.5124  155.1423 H   0  0  0  0  0  0  0  0  0  0  0  0
  151.8424  137.7522  158.5620 H   0  0  0  0  0  0  0  0  0  0  0  0
  150.4382  138.5769  159.2277 H   0  0  0  0  0  0  0  0  0  0  0  0
  150.5014  135.8731  158.5583 H   0  0  0  0  0  0  0  0  0  0  0  0
  147.9251  136.9038  155.9893 H   0  0  0  0  0  0  0  0  0  0  0  0
  147.5945  135.9126  153.9897 H   0  0  0  0  0  0  0  0  0  0  0  0
  147.9148  134.8308  158.2366 H   0  0  0  0  0  0  0  0  0  0  0  0
  148.1667  137.8232  158.6744 H   0  0  0  0  0  0  0  0  0  0  0  0
  148.5162  135.9604  162.6916 H   0  0  0  0  0  0  0  0  0  0  0  0
  146.8000  136.2308  162.9138 H   0  0  0  0  0  0  0  0  0  0  0  0
  147.2710  133.7920  162.9663 H   0  0  0  0  0  0  0  0  0  0  0  0
  148.0366  133.8641  161.3843 H   0  0  0  0  0  0  0  0  0  0  0  0
  146.3034  134.1554  161.5416 H   0  0  0  0  0  0  0  0  0  0  0  0
  1  2  1  0  0  0  0
  1 28  1  0  0  0  0
  1 29  1  0  0  0  0
  1 30  1  0  0  0  0
  2  3  1  0  0  0  0
  2 31  1  0  0  0  0
  2 32  1  0  0  0  0
  3  4  2  0  0  0  0
  3  5  1  0  0  0  0
  5  6  1  0  0  0  0
  6  7  1  0  0  0  0
  6 33  1  0  0  0  0
  6 34  1  0  0  0  0
  7 21  1  0  0  0  0
  7  8  1  0  0  0  0
  7 35  1  0  0  0  0
  8  9  1  0  0  0  0
  9 10  1  0  0  0  0
  9 19  1  0  0  0  0
  9 36  1  0  0  0  0
 10 17  1  0  0  0  0
 10 11  1  0  0  0  0
 11 12  2  0  0  0  0
 11 37  1  0  0  0  0
 12 13  1  0  0  0  0
 12 14  1  0  0  0  0
 14 15  2  0  0  0  0
 14 16  1  0  0  0  0
 16 27  1  0  0  0  0
 16 17  1  0  0  0  0
 17 18  2  0  0  0  0
 19 20  1  0  0  0  0
 19 21  1  0  0  0  0
 19 38  1  0  0  0  0
 21 22  1  0  0  0  0
 21 39  1  0  0  0  0
 22 23  1  0  0  0  0
 23 24  2  0  0  0  0
 23 25  1  0  0  0  0
 25 26  1  0  0  0  0
 25 40  1  0  0  0  0
 25 41  1  0  0  0  0
 26 42  1  0  0  0  0
 26 43  1  0  0  0  0
 26 44  1  0  0  0  0
M  END
> <s_m_source_file>
AV-unprocessed.smi

> <i_m_source_file_index>
37

> <i_lp_mmshare_version>
43012

> <i_f3d_flags>
0

> <s_epik_input>
W0NIM11bQ0gyXUMoPU8pT1tDSDJdW0NAQEhdMU9bQ0BASF0objJbY0hdYyhGKWMoPU8pW25IXWMyPU8pW0NAQEhdKEJyKVtDQEhdMU9DKD1PKVtDSDJdW0NIM10=

> <s_epik_cmdline>
J2VwaWtfcHl0aG9uJywgJy1waCcsICc3LjAnLCAnLXRuJywgJzgnLCAnLW1hJywgJzIwMCcsICctbWV0YWxfYmluZGluZycsICctaW1hZScsICc8aW5maWxlLm1hZT4nLCAnLW9tYWUnLCAnPG91dGZpbGUubWFlPic=

> <r_lp_tautomer_probability>
0.999537

> <r_epik_Ionization_Penalty>
0.104106

> <r_epik_Ionization_Penalty_Charging>
0.104106

> <r_epik_Ionization_Penalty_Neutral>
3.94675e-16

> <r_epik_State_Penalty>
0.0940182

> <r_epik_Charging_Adjusted_Penalty>
0.198124

> <i_epik_Tot_Q>
0

> <i_epik_Tot_abs_Q>
0

> <r_epik_Metal_State_Penalty>
3.05314

> <b_epik_Metal_Only>
0

> <s_epik_Chemistry_Notes>
This compound has an ester and may undergo hydrolysis at high or low pH. This compound contains an acetal/aminal-like group ( X-CH(R)-Y where X, Y are N, S, or O) that may be acid/base labile, releasing an aldehyde.

> <s_lp_Force_Field>
OPLS_2005

> <r_lp_Energy>
20.0289

> <b_lp_Chiralities_Consistent>
1

> <s_lp_Variant>
AV-unprocessed.smi:37-5

> <Gold.Version>
5.8.1

> <Gold.Id.Protein>
6NUR|6NUR_protein|mol2

> <Gold.PLP.Fitness>
45.6842

> <Gold.PLP.PLP>
-37.7431

> <Gold.PLP.part.hbond>
-3.0000

> <Gold.PLP.part.metal>
0.0000

> <Gold.PLP.part.buried>
-2.9891

> <Gold.PLP.part.nonpolar>
-31.8413

> <Gold.PLP.part.repulsive>
0.0994

> <Gold.PLP.ligand.clash>
0.0000

> <Gold.PLP.ligand.torsion>
1.7160

> <Gold.PLP.Chemscore.Hbond>
3.0000

> <Gold.PLP.Chemscore.CHOScore>
0.7308

> <Gold.PLP.Chemscore.Metal>
0.0000

> <Gold.Chemscore.Hbonds>
donor molecule, donor type, donor heavy atom, donor atom, acceptor molecule, acceptor atom, score
      P1  H  6934  6947       L1    24  1.00
      P1  H  7997  8010       L1     4  1.00
      L1  C    11    37       P1  7948  0.40

> <Gold.PLP.Chemscore.Internal.Correction>
0.1807

> <Gold.Rescore>
     Score         DG    S(hbond)    S(metal)    S(lipo)     H(rot)  DE(clash)    DE(int)     intcor
     10.54     -13.84       2.95        0.00      60.28       3.33       0.26       3.04       ----

> <Gold.Chemscore.Fitness>
10.5440

> <Gold.Chemscore.DG>
-13.8446

> <Gold.Chemscore.ZeroCoef>
-5.4800

> <Gold.Chemscore.Hbond>
2.9454

> <Gold.Chemscore.Metal>
0.0000

> <Gold.Chemscore.Lipo>
60.2773

> <Gold.Chemscore.Internal_Hbond>
0.0000

> <Gold.Chemscore.DEClash>
0.2598

> <Gold.Chemscore.DEInternal>
3.0408

> <Gold.Chemscore.Rot>
3.3303

> <Gold.Chemscore.Internal.Correction>
   9.000000E+99

> <Gold.Chemscore.Hbonds>
donor molecule, donor type, donor heavy atom, donor atom, acceptor molecule, acceptor atom, score
      P1  H  6896  6908       L1    18  0.03
      P1  H  6934  6947       L1    24  0.65
      P1  H  7997  8010       L1     4  1.00

> <Gold.Chemscore.Hbond.Weighted>
-9.8378

> <Gold.Chemscore.Metal.Weighted>
-0.0000

> <Gold.Chemscore.Lipo.Weighted>
-7.0524

> <Gold.Chemscore.Internal_Hbond.Weighted>
0.0000

> <Gold.Chemscore.DEClash.Weighted>
0.2598

> <Gold.Chemscore.DEInternal.Weighted>
3.0408

> <Gold.Chemscore.Rot.Weighted>
8.5256

> <Gold.Chemscore.Internal.Correction.Weighted>
   9.000000E+99

> <Gold.Protein.RotatedTorsions>
[ 6907 6896 6895 6894 ] final  105.04 input  -60.11 | X-H torsion
[ 7974 7965 7964 7962 ] final  -50.79 input  175.53 | X-H torsion
[ 8008 7997 7996 7995 ] final   59.38 input   59.86 | X-H torsion
[ 10167 10162 10161 10158 ] final   63.93 input  -65.29 | X-H torsion
[ 10718 10713 10712 10709 ] final -169.66 input   66.30 | X-H torsion
[ 10763 10752 10751 10750 ] final  -28.70 input  -60.55 | X-H torsion
[ 11005 11000 10999 10996 ] final -103.81 input  -57.11 | X-H torsion

> <Gold.Protein.ActiveResidues>
 VAL166  LYS551  ARG553  GLY616  TRP617  ASP618  TYR619  PRO620  LYS621  CYS622 
 ASP623  PHE694  ASN695  SER759  ASP760  ASP761  ALA762  ILE779  LEU786  VAL792 
 PHE793  MET794  SER795  GLU796  ALA797  LYS798  CYS799  TRP800  GLU811  SER814 

> <Gold.Protein.RotatedAtoms>
  152.5244  133.9587  159.7706 H   0  0  0  0  0  0  0  0  0  0  0  0  # atno 6907 bound_to 6896
  150.9882  133.6168  159.2719 H   0  0  0  0  0  0  0  0  0  0  0  0  # atno 6908 bound_to 6896
  151.3320  135.0850  159.9395 H   0  0  0  0  0  0  0  0  0  0  0  0  # atno 6909 bound_to 6896
  145.9260  140.7792  142.9623 H   0  0  0  0  0  0  0  0  0  0  0  0  # atno 7974 bound_to 7965
  155.5652  140.3489  155.4501 H   0  0  0  0  0  0  0  0  0  0  0  0  # atno 8008 bound_to 7997
  156.0485  140.1312  157.0103 H   0  0  0  0  0  0  0  0  0  0  0  0  # atno 8009 bound_to 7997
  154.4423  140.1009  156.6326 H   0  0  0  0  0  0  0  0  0  0  0  0  # atno 8010 bound_to 7997
  140.1277  144.4672  150.6883 H   0  0  0  0  0  0  0  0  0  0  0  0  # atno 10167 bound_to 10162
  156.7149  130.9247  151.3092 H   0  0  0  0  0  0  0  0  0  0  0  0  # atno 10718 bound_to 10713
  153.7526  135.6925  153.4942 H   0  0  0  0  0  0  0  0  0  0  0  0  # atno 10763 bound_to 10752
  153.1993  135.4442  155.0245 H   0  0  0  0  0  0  0  0  0  0  0  0  # atno 10764 bound_to 10752
  154.8182  135.3409  154.7046 H   0  0  0  0  0  0  0  0  0  0  0  0  # atno 10765 bound_to 10752
  141.1129  133.8671  157.1533 H   0  0  0  0  0  0  0  0  0  0  0  0  # atno 11005 bound_to 11000
  144.6758  140.2051  143.7383 LP  0  0  0  0  0  0  0  0  0  0  0  0  # atno 17320 bound_to 7965
  145.8489  139.2165  143.1784 LP  0  0  0  0  0  0  0  0  0  0  0  0  # atno 17321 bound_to 7965
  140.6835  143.2338  151.5322 LP  0  0  0  0  0  0  0  0  0  0  0  0  # atno 17342 bound_to 10162
  139.5535  144.2334  152.1573 LP  0  0  0  0  0  0  0  0  0  0  0  0  # atno 17343 bound_to 10162
  157.6921  130.9244  150.0543 LP  0  0  0  0  0  0  0  0  0  0  0  0  # atno 17370 bound_to 10713
  156.1635  130.3644  149.9265 LP  0  0  0  0  0  0  0  0  0  0  0  0  # atno 17371 bound_to 10713
  140.0033  135.0019  157.0238 LP  0  0  0  0  0  0  0  0  0  0  0  0  # atno 17394 bound_to 11000
  140.4726  134.1371  155.7205 LP  0  0  0  0  0  0  0  0  0  0  0  0  # atno 17395 bound_to 11000

$$$$
