AV-unprocessed.smi:2358|AV-procd|sdf|9404|dock3
  -GOLD-   2272013 33D 1   1.00000     0.00000
 Structure written by MMmdl.
 45 47  0  0  0  0  0  0  0  0  1 V2000
  152.1076  145.1438  158.7397 C   0  0  0  0  0  0  0  0  0  0  0  0
  152.2735  143.6444  158.8782 C   0  0  0  0  0  0  0  0  0  0  0  0
  153.0468  143.1091  159.9274 C   0  0  0  0  0  0  0  0  0  0  0  0
  153.1965  141.7145  160.0536 C   0  0  0  0  0  0  0  0  0  0  0  0
  154.0241  141.1449  161.1869 C   0  0  0  0  0  0  0  0  0  0  0  0
  152.5707  140.8569  159.1259 C   0  0  0  0  0  0  0  0  0  0  0  0
  151.7964  141.3760  158.0682 C   0  0  0  0  0  0  0  0  0  0  0  0
  151.2238  140.4633  157.2083 O   0  0  0  0  0  0  0  0  0  0  0  0
  150.9691  140.8655  155.8687 C   0  0  0  0  0  0  0  0  0  0  0  0
  150.2346  139.7267  155.1394 C   0  0  1  0  0  0  0  0  0  0  0  0
  150.1848  140.0809  153.7711 O   0  0  0  0  0  0  0  0  0  0  0  0
  150.9858  138.3815  155.2594 C   0  0  0  0  0  0  0  0  0  0  0  0
  150.0671  137.2371  155.2160 N   0  0  0  0  0  0  0  0  0  0  0  0
  148.7895  137.5560  154.7871 N   0  0  0  0  0  0  0  0  0  0  0  0
  147.8777  136.6431  154.6893 C   0  0  0  0  0  0  0  0  0  0  0  0
  146.5238  136.9074  154.2455 N   0  0  0  0  0  0  0  0  0  0  0  0
  146.3130  137.5604  153.0329 C   0  0  0  0  0  0  0  0  0  0  0  0
  144.9469  137.6624  152.8914 C   0  0  0  0  0  0  0  0  0  0  0  0
  144.3102  137.0864  153.9905 N   0  0  0  0  0  0  0  0  0  0  0  0
  145.3082  136.6583  154.7537 C   0  0  0  0  0  0  0  0  0  0  0  0
  148.1878  135.2659  155.0330 C   0  0  0  0  0  0  0  0  0  0  0  0
  149.4379  134.9639  155.4457 C   0  0  0  0  0  0  0  0  0  0  0  0
  150.4828  135.9812  155.5554 C   0  0  0  0  0  0  0  0  0  0  0  0
  151.6323  135.7292  155.9149 O   0  0  0  0  0  0  0  0  0  0  0  0
  151.6531  142.7817  157.9515 C   0  0  0  0  0  0  0  0  0  0  0  0
  152.4297  145.6635  159.6426 H   0  0  0  0  0  0  0  0  0  0  0  0
  151.0622  145.3962  158.5595 H   0  0  0  0  0  0  0  0  0  0  0  0
  152.6998  145.5124  157.9021 H   0  0  0  0  0  0  0  0  0  0  0  0
  153.5257  143.7670  160.6383 H   0  0  0  0  0  0  0  0  0  0  0  0
  154.1953  140.0761  161.0555 H   0  0  0  0  0  0  0  0  0  0  0  0
  153.5126  141.2952  162.1378 H   0  0  0  0  0  0  0  0  0  0  0  0
  154.9941  141.6402  161.2359 H   0  0  0  0  0  0  0  0  0  0  0  0
  152.6832  139.7868  159.2226 H   0  0  0  0  0  0  0  0  0  0  0  0
  150.3928  141.7917  155.8257 H   0  0  0  0  0  0  0  0  0  0  0  0
  151.9299  141.0482  155.3854 H   0  0  0  0  0  0  0  0  0  0  0  0
  149.2241  139.6308  155.5396 H   0  0  0  0  0  0  0  0  0  0  0  0
  149.4057  140.5947  153.6216 H   0  0  0  0  0  0  0  0  0  0  0  0
  151.7771  138.3014  154.5112 H   0  0  0  0  0  0  0  0  0  0  0  0
  151.5099  138.3417  156.2160 H   0  0  0  0  0  0  0  0  0  0  0  0
  147.1092  137.8931  152.3823 H   0  0  0  0  0  0  0  0  0  0  0  0
  144.3764  138.1036  152.0874 H   0  0  0  0  0  0  0  0  0  0  0  0
  145.1406  136.1568  155.6953 H   0  0  0  0  0  0  0  0  0  0  0  0
  147.4392  134.4917  154.9620 H   0  0  0  0  0  0  0  0  0  0  0  0
  149.6752  133.9417  155.7020 H   0  0  0  0  0  0  0  0  0  0  0  0
  151.0697  143.2224  157.1575 H   0  0  0  0  0  0  0  0  0  0  0  0
  1  2  1  0  0  0  0
  1 26  1  0  0  0  0
  1 27  1  0  0  0  0
  1 28  1  0  0  0  0
  2 25  1  0  0  0  0
  2  3  2  0  0  0  0
  3  4  1  0  0  0  0
  3 29  1  0  0  0  0
  4  5  1  0  0  0  0
  4  6  2  0  0  0  0
  5 30  1  0  0  0  0
  5 31  1  0  0  0  0
  5 32  1  0  0  0  0
  6  7  1  0  0  0  0
  6 33  1  0  0  0  0
  7  8  1  0  0  0  0
  7 25  2  0  0  0  0
  8  9  1  0  0  0  0
  9 10  1  0  0  0  0
  9 34  1  0  0  0  0
  9 35  1  0  0  0  0
 10 11  1  0  0  0  0
 10 12  1  0  0  0  0
 10 36  1  0  0  0  0
 11 37  1  0  0  0  0
 12 13  1  0  0  0  0
 12 38  1  0  0  0  0
 12 39  1  0  0  0  0
 13 23  1  0  0  0  0
 13 14  1  0  0  0  0
 14 15  2  0  0  0  0
 15 16  1  0  0  0  0
 15 21  1  0  0  0  0
 16 20  1  0  0  0  0
 16 17  1  0  0  0  0
 17 18  2  0  0  0  0
 17 40  1  0  0  0  0
 18 19  1  0  0  0  0
 18 41  1  0  0  0  0
 19 20  2  0  0  0  0
 20 42  1  0  0  0  0
 21 22  2  0  0  0  0
 21 43  1  0  0  0  0
 22 23  1  0  0  0  0
 22 44  1  0  0  0  0
 23 24  2  0  0  0  0
 25 45  1  0  0  0  0
M  END
> <s_m_source_file>
AV-unprocessed.smi

> <i_m_source_file_index>
2358

> <i_lp_mmshare_version>
43012

> <i_f3d_flags>
0

> <s_epik_input>
W0NIM11jMVtjSF1jKFtDSDNdKVtjSF1jKFtjSF0xKU9bQ0gyXVtDQEhdKFtPSF0pW0NIMl1uMm5jKFtjSF1bY0hdYzI9TyktbjNbY0hdW2NIXW5bY0hdMw==

> <s_epik_cmdline>
J2VwaWtfcHl0aG9uJywgJy1waCcsICc3LjAnLCAnLXRuJywgJzgnLCAnLW1hJywgJzIwMCcsICctbWV0YWxfYmluZGluZycsICctaW1hZScsICc8aW5maWxlLm1hZT4nLCAnLW9tYWUnLCAnPG91dGZpbGUubWFlPic=

> <r_lp_tautomer_probability>
1

> <r_epik_Ionization_Penalty>
0.03707

> <r_epik_Ionization_Penalty_Charging>
0.0370699

> <r_epik_Ionization_Penalty_Neutral>
1.17174e-07

> <r_epik_State_Penalty>
0.0310055

> <r_epik_Charging_Adjusted_Penalty>
0.0680754

> <i_epik_Tot_Q>
0

> <i_epik_Tot_abs_Q>
0

> <r_epik_Metal_State_Penalty>
0.0291724

> <b_epik_Metal_Only>
0

> <s_lp_Force_Field>
OPLS_2005

> <r_lp_Energy>
35.3101

> <b_lp_Chiralities_Consistent>
1

> <s_lp_Variant>
AV-unprocessed.smi:2358-2

> <Gold.Version>
5.8.1

> <Gold.Id.Protein>
6NUR|6NUR_protein|mol2

> <Gold.PLP.Fitness>
52.5304

> <Gold.PLP.PLP>
-43.0777

> <Gold.PLP.part.hbond>
-3.0000

> <Gold.PLP.part.metal>
0.0000

> <Gold.PLP.part.buried>
-4.1894

> <Gold.PLP.part.nonpolar>
-36.3906

> <Gold.PLP.part.repulsive>
0.2483

> <Gold.PLP.ligand.clash>
0.0000

> <Gold.PLP.ligand.torsion>
1.9107

> <Gold.PLP.Chemscore.Hbond>
1.8480

> <Gold.PLP.Chemscore.CHOScore>
2.5230

> <Gold.PLP.Chemscore.Metal>
0.0000

> <Gold.Chemscore.Hbonds>
donor molecule, donor type, donor heavy atom, donor atom, acceptor molecule, acceptor atom, score
      P1  H  7989  7998       L1    11  0.83
      P1  H 10752 10763       L1    24  1.00
      L1  C    17    40       P1  7948  0.76
      L1  C    18    41       P1 10171  1.00
      L1  C    18    41       P1 10175  0.72

> <Gold.PLP.Chemscore.Internal.Correction>
0.1612

> <Gold.Rescore>
     Score         DG    S(hbond)    S(metal)    S(lipo)     H(rot)  DE(clash)    DE(int)     intcor
     16.90     -18.73       1.84        0.00     117.60       2.60       0.01       1.83       ----

> <Gold.Chemscore.Fitness>
16.8960

> <Gold.Chemscore.DG>
-18.7288

> <Gold.Chemscore.ZeroCoef>
-5.4800

> <Gold.Chemscore.Hbond>
1.8388

> <Gold.Chemscore.Metal>
0.0000

> <Gold.Chemscore.Lipo>
117.6031

> <Gold.Chemscore.Internal_Hbond>
0.0000

> <Gold.Chemscore.DEClash>
0.0073

> <Gold.Chemscore.DEInternal>
1.8255

> <Gold.Chemscore.Rot>
2.5986

> <Gold.Chemscore.Internal.Correction>
   9.000000E+99

> <Gold.Chemscore.Hbonds>
donor molecule, donor type, donor heavy atom, donor atom, acceptor molecule, acceptor atom, score
      P1  H  7989  7998       L1    11  0.41
      P1  H 10752 10763       L1    24  0.99

> <Gold.Chemscore.Hbond.Weighted>
-6.1416

> <Gold.Chemscore.Metal.Weighted>
-0.0000

> <Gold.Chemscore.Lipo.Weighted>
-13.7596

> <Gold.Chemscore.Internal_Hbond.Weighted>
0.0000

> <Gold.Chemscore.DEClash.Weighted>
0.0073

> <Gold.Chemscore.DEInternal.Weighted>
1.8255

> <Gold.Chemscore.Rot.Weighted>
6.6524

> <Gold.Chemscore.Internal.Correction.Weighted>
   9.000000E+99

> <Gold.Protein.RotatedTorsions>
[ 6907 6896 6895 6894 ] final   35.96 input  -60.11 | X-H torsion
[ 7974 7965 7964 7962 ] final   52.51 input  175.53 | X-H torsion
[ 8008 7997 7996 7995 ] final  163.10 input   59.86 | X-H torsion
[ 10167 10162 10161 10158 ] final -139.59 input  -65.29 | X-H torsion
[ 10718 10713 10712 10709 ] final  140.69 input   66.30 | X-H torsion
[ 10763 10752 10751 10750 ] final   94.54 input  -60.55 | X-H torsion
[ 11005 11000 10999 10996 ] final   -9.77 input  -57.11 | X-H torsion

> <Gold.Protein.ActiveResidues>
 VAL166  LYS551  ARG553  GLY616  TRP617  ASP618  TYR619  PRO620  LYS621  CYS622 
 ASP623  PHE694  ASN695  SER759  ASP760  ASP761  ALA762  ILE779  LEU786  VAL792 
 PHE793  MET794  SER795  GLU796  ALA797  LYS798  CYS799  TRP800  GLU811  SER814 

> <Gold.Protein.RotatedAtoms>
  152.1232  134.9190  160.0561 H   0  0  0  0  0  0  0  0  0  0  0  0  # atno 6907 bound_to 6896
  152.0323  133.3937  159.4310 H   0  0  0  0  0  0  0  0  0  0  0  0  # atno 6908 bound_to 6896
  150.6850  134.3428  159.4919 H   0  0  0  0  0  0  0  0  0  0  0  0  # atno 6909 bound_to 6896
  145.9806  139.4238  143.0134 H   0  0  0  0  0  0  0  0  0  0  0  0  # atno 7974 bound_to 7965
  156.1982  140.1732  156.7954 H   0  0  0  0  0  0  0  0  0  0  0  0  # atno 8008 bound_to 7997
  154.5557  140.0709  156.8770 H   0  0  0  0  0  0  0  0  0  0  0  0  # atno 8009 bound_to 7997
  155.2943  140.3357  155.4253 H   0  0  0  0  0  0  0  0  0  0  0  0  # atno 8010 bound_to 7997
  139.8365  143.7379  152.2664 H   0  0  0  0  0  0  0  0  0  0  0  0  # atno 10167 bound_to 10162
  157.4005  131.1016  151.0557 H   0  0  0  0  0  0  0  0  0  0  0  0  # atno 10718 bound_to 10713
  153.2428  135.4286  155.0716 H   0  0  0  0  0  0  0  0  0  0  0  0  # atno 10763 bound_to 10752
  154.8348  135.3407  154.6624 H   0  0  0  0  0  0  0  0  0  0  0  0  # atno 10764 bound_to 10752
  153.7048  135.7026  153.5110 H   0  0  0  0  0  0  0  0  0  0  0  0  # atno 10765 bound_to 10752
  140.7377  133.8696  155.8943 H   0  0  0  0  0  0  0  0  0  0  0  0  # atno 11005 bound_to 11000
  145.7775  140.9870  143.1117 LP  0  0  0  0  0  0  0  0  0  0  0  0  # atno 17320 bound_to 7965
  144.6860  139.9523  143.7478 LP  0  0  0  0  0  0  0  0  0  0  0  0  # atno 17321 bound_to 7965
  139.7602  144.7509  151.0375 LP  0  0  0  0  0  0  0  0  0  0  0  0  # atno 17342 bound_to 10162
  140.7802  143.4759  151.0083 LP  0  0  0  0  0  0  0  0  0  0  0  0  # atno 17343 bound_to 10162
  157.1558  130.6204  149.5595 LP  0  0  0  0  0  0  0  0  0  0  0  0  # atno 17370 bound_to 10713
  155.9822  130.4834  150.6867 LP  0  0  0  0  0  0  0  0  0  0  0  0  # atno 17371 bound_to 10713
  140.9865  134.1336  157.4447 LP  0  0  0  0  0  0  0  0  0  0  0  0  # atno 17394 bound_to 11000
  139.8812  135.0027  156.6142 LP  0  0  0  0  0  0  0  0  0  0  0  0  # atno 17395 bound_to 11000

$$$$
