AV-unprocessed.smi:2027|AV-procd|sdf|8218|dock3
  -GOLD-   2272010483D 1   1.00000     0.00000
 Structure written by MMmdl.
 51 53  0  0  0  0  0  0  0  0  3 V2000
  145.4122  129.6309  151.3463 C   0  0  0  0  0  0  0  0  0  0  0  0
  145.4667  131.1369  151.5395 C   0  0  0  0  0  0  0  0  0  0  0  0
  144.5201  131.9384  150.8625 C   0  0  0  0  0  0  0  0  0  0  0  0
  144.5970  133.3123  151.0572 C   0  0  0  0  0  0  0  0  0  0  0  0
  143.8230  134.3529  150.5398 N   0  3  0  0  0  0  0  0  0  0  0  0
  144.2819  135.5423  151.0181 C   0  0  0  0  0  0  0  0  0  0  0  0
  145.3371  135.2771  151.8362 N   0  0  0  0  0  0  0  0  0  0  0  0
  146.1952  136.2033  152.5902 C   0  0  0  0  0  0  0  0  0  0  0  0
  145.8961  137.6844  152.2878 C   0  0  1  0  0  0  0  0  0  0  0  0
  144.5862  138.0018  152.7157 O   0  0  0  0  0  0  0  0  0  0  0  0
  146.8874  138.6209  153.0075 C   0  0  0  0  0  0  0  0  0  0  0  0
  146.2171  139.8058  153.6023 N   0  3  1  0  0  0  0  0  0  0  0  0
  145.7752  139.5500  154.9939 C   0  0  0  0  0  0  0  0  0  0  0  0
  147.0184  141.0510  153.4744 C   0  0  0  0  0  0  0  0  0  0  0  0
  148.3374  140.9352  154.1892 C   0  0  0  0  0  0  0  0  0  0  0  0
  149.3995  140.0266  153.9153 C   0  0  0  0  0  0  0  0  0  0  0  0
  150.4308  140.1810  154.7286 N   0  0  0  0  0  0  0  0  0  0  0  0
  150.0639  141.1850  155.5509 N   0  0  0  0  0  0  0  0  0  0  0  0
  150.9697  141.6233  156.5912 C   0  0  0  0  0  0  0  0  0  0  0  0
  148.8047  141.6578  155.2512 C   0  0  0  0  0  0  0  0  0  0  0  0
  145.5705  133.8970  151.8910 C   0  0  0  0  0  0  0  0  0  0  0  0
  146.5081  133.1203  152.5686 C   0  0  0  0  0  0  0  0  0  0  0  0
  146.4471  131.7206  152.3829 C   0  0  0  0  0  0  0  0  0  0  0  0
  147.4581  130.8490  153.1086 C   0  0  0  0  0  0  0  0  0  0  0  0
  144.6346  129.3472  150.6361 H   0  0  0  0  0  0  0  0  0  0  0  0
  145.1990  129.1321  152.2920 H   0  0  0  0  0  0  0  0  0  0  0  0
  146.3625  129.2575  150.9638 H   0  0  0  0  0  0  0  0  0  0  0  0
  143.7699  131.5008  150.2199 H   0  0  0  0  0  0  0  0  0  0  0  0
  143.8828  136.5192  150.7856 H   0  0  0  0  0  0  0  0  0  0  0  0
  146.1096  135.9903  153.6558 H   0  0  0  0  0  0  0  0  0  0  0  0
  147.2262  135.9737  152.3181 H   0  0  0  0  0  0  0  0  0  0  0  0
  145.9421  137.8328  151.2092 H   0  0  0  0  0  0  0  0  0  0  0  0
  144.4814  138.9412  152.6915 H   0  0  0  0  0  0  0  0  0  0  0  0
  147.3977  138.0486  153.7845 H   0  0  0  0  0  0  0  0  0  0  0  0
  147.6678  138.9579  152.3231 H   0  0  0  0  0  0  0  0  0  0  0  0
  146.6296  139.3750  155.6490 H   0  0  0  0  0  0  0  0  0  0  0  0
  145.1267  138.6743  155.0378 H   0  0  0  0  0  0  0  0  0  0  0  0
  145.2049  140.3894  155.3915 H   0  0  0  0  0  0  0  0  0  0  0  0
  147.1584  141.2804  152.4169 H   0  0  0  0  0  0  0  0  0  0  0  0
  146.4613  141.8935  153.8825 H   0  0  0  0  0  0  0  0  0  0  0  0
  149.4512  139.2654  153.1507 H   0  0  0  0  0  0  0  0  0  0  0  0
  150.5845  142.5257  157.0667 H   0  0  0  0  0  0  0  0  0  0  0  0
  151.9496  141.8398  156.1645 H   0  0  0  0  0  0  0  0  0  0  0  0
  151.0708  140.8410  157.3439 H   0  0  0  0  0  0  0  0  0  0  0  0
  148.3507  142.4622  155.8111 H   0  0  0  0  0  0  0  0  0  0  0  0
  147.2542  133.5603  153.2135 H   0  0  0  0  0  0  0  0  0  0  0  0
  148.1256  131.4453  153.7315 H   0  0  0  0  0  0  0  0  0  0  0  0
  148.0719  130.2997  152.3942 H   0  0  0  0  0  0  0  0  0  0  0  0
  146.9521  130.1317  153.7551 H   0  0  0  0  0  0  0  0  0  0  0  0
  145.3741  139.9425  153.0621 H   0  0  0  0  0  0  0  0  0  0  0  0
  143.0419  134.2606  149.9026 H   0  0  0  0  0  0  0  0  0  0  0  0
  1  2  1  0  0  0  0
  1 25  1  0  0  0  0
  1 26  1  0  0  0  0
  1 27  1  0  0  0  0
  2 23  1  0  0  0  0
  2  3  2  0  0  0  0
  3  4  1  0  0  0  0
  3 28  1  0  0  0  0
  4 21  2  0  0  0  0
  4  5  1  0  0  0  0
  5  6  2  0  0  0  0
  5 51  1  0  0  0  0
  6  7  1  0  0  0  0
  6 29  1  0  0  0  0
  7  8  1  0  0  0  0
  7 21  1  0  0  0  0
  8  9  1  0  0  0  0
  8 30  1  0  0  0  0
  8 31  1  0  0  0  0
  9 10  1  0  0  0  0
  9 11  1  0  0  0  0
  9 32  1  0  0  0  0
 10 33  1  0  0  0  0
 11 12  1  0  0  0  0
 11 34  1  0  0  0  0
 11 35  1  0  0  0  0
 12 13  1  0  0  0  0
 12 14  1  0  0  0  0
 12 50  1  0  0  0  0
 13 36  1  0  0  0  0
 13 37  1  0  0  0  0
 13 38  1  0  0  0  0
 14 15  1  0  0  0  0
 14 39  1  0  0  0  0
 14 40  1  0  0  0  0
 15 20  2  0  0  0  0
 15 16  1  0  0  0  0
 16 17  2  0  0  0  0
 16 41  1  0  0  0  0
 17 18  1  0  0  0  0
 18 19  1  0  0  0  0
 18 20  1  0  0  0  0
 19 42  1  0  0  0  0
 19 43  1  0  0  0  0
 19 44  1  0  0  0  0
 20 45  1  0  0  0  0
 21 22  1  0  0  0  0
 22 23  2  0  0  0  0
 22 46  1  0  0  0  0
 23 24  1  0  0  0  0
 24 47  1  0  0  0  0
 24 48  1  0  0  0  0
 24 49  1  0  0  0  0
M  CHG  1   5   1
M  CHG  1  12   1
M  END
> <s_m_source_file>
AV-unprocessed.smi

> <i_m_source_file_index>
2027

> <i_lp_mmshare_version>
43012

> <i_f3d_flags>
0

> <s_epik_input>
W0NIM11jKFtjSF0xKWMoW0NIM10pW2NIXWMoYzEyKW4oW2NIXW4yKVtDSDJdW0NASF0oW09IXSlbQ0gyXU4oW0NIM10pW0NIMl1jM1tjSF1ubihbQ0gzXSlbY0hdMw==

> <s_epik_cmdline>
J2VwaWtfcHl0aG9uJywgJy1waCcsICc3LjAnLCAnLXRuJywgJzgnLCAnLW1hJywgJzIwMCcsICctbWV0YWxfYmluZGluZycsICctaW1hZScsICc8aW5maWxlLm1hZT4nLCAnLW9tYWUnLCAnPG91dGZpbGUubWFlPic=

> <r_lp_tautomer_probability>
1

> <r_epik_Ionization_Penalty>
1.77469

> <r_epik_Ionization_Penalty_Charging>
1.77463

> <r_epik_Ionization_Penalty_Neutral>
6.41153e-05

> <r_epik_State_Penalty>
1.85225

> <r_epik_Charging_Adjusted_Penalty>
3.62688

> <i_epik_Tot_Q>
2

> <i_epik_Tot_abs_Q>
2

> <r_epik_Metal_State_Penalty>
1.92669

> <b_epik_Metal_Only>
0

> <s_lp_Force_Field>
OPLS_2005

> <r_lp_Energy>
18.885

> <b_lp_Chiralities_Consistent>
1

> <s_lp_Variant>
AV-unprocessed.smi:2027-10

> <Gold.Version>
5.8.1

> <Gold.Id.Protein>
6NUR|6NUR_protein|mol2

> <Gold.PLP.Fitness>
67.2618

> <Gold.PLP.PLP>
-43.5035

> <Gold.PLP.part.hbond>
-5.0000

> <Gold.PLP.part.metal>
0.0000

> <Gold.PLP.part.buried>
-0.3036

> <Gold.PLP.part.nonpolar>
-38.6492

> <Gold.PLP.part.repulsive>
0.0887

> <Gold.PLP.ligand.clash>
0.0000

> <Gold.PLP.ligand.torsion>
1.1264

> <Gold.PLP.Chemscore.Hbond>
6.0000

> <Gold.PLP.Chemscore.CHOScore>
2.6484

> <Gold.PLP.Chemscore.Metal>
0.0000

> <Gold.Chemscore.Hbonds>
donor molecule, donor type, donor heavy atom, donor atom, acceptor molecule, acceptor atom, score
      L1  H     5    51       P1 10186  1.78
      L1  H    10    33       P1 10175  1.00
      L1  H    12    50       P1 10175  2.00
      P1  H  7989  7998       L1    17  0.90
      L1  C     6    29       P1 10171  1.00
      L1  C    16    41       P1  7957  0.69
      L1  C    20    45       P1  8028  0.94

> <Gold.PLP.Chemscore.Internal.Correction>
0.0659

> <Gold.Rescore>
     Score         DG    S(hbond)    S(metal)    S(lipo)     H(rot)  DE(clash)    DE(int)     intcor
     18.69     -23.86       3.66        0.00     109.18       2.58       2.02       3.16       ----

> <Gold.Chemscore.Fitness>
18.6854

> <Gold.Chemscore.DG>
-23.8624

> <Gold.Chemscore.ZeroCoef>
-5.4800

> <Gold.Chemscore.Hbond>
3.6594

> <Gold.Chemscore.Metal>
0.0000

> <Gold.Chemscore.Lipo>
109.1778

> <Gold.Chemscore.Internal_Hbond>
0.0000

> <Gold.Chemscore.DEClash>
2.0202

> <Gold.Chemscore.DEInternal>
3.1568

> <Gold.Chemscore.Rot>
2.5836

> <Gold.Chemscore.Internal.Correction>
   9.000000E+99

> <Gold.Chemscore.Hbonds>
donor molecule, donor type, donor heavy atom, donor atom, acceptor molecule, acceptor atom, score
      L1  H     5    51       P1 10186  0.80
      L1  H    10    33       P1 10175  0.99
      L1  H    12    50       P1 10175  1.00
      P1  H  7989  7998       L1    17  0.12

> <Gold.Chemscore.Hbond.Weighted>
-12.2225

> <Gold.Chemscore.Metal.Weighted>
-0.0000

> <Gold.Chemscore.Lipo.Weighted>
-12.7738

> <Gold.Chemscore.Internal_Hbond.Weighted>
0.0000

> <Gold.Chemscore.DEClash.Weighted>
2.0202

> <Gold.Chemscore.DEInternal.Weighted>
3.1568

> <Gold.Chemscore.Rot.Weighted>
6.6139

> <Gold.Chemscore.Internal.Correction.Weighted>
   9.000000E+99

> <Gold.Protein.RotatedTorsions>
[ 6907 6896 6895 6894 ] final   12.35 input  -60.11 | X-H torsion
[ 7974 7965 7964 7962 ] final  135.85 input  175.53 | X-H torsion
[ 8008 7997 7996 7995 ] final   87.48 input   59.86 | X-H torsion
[ 10167 10162 10161 10158 ] final   59.24 input  -65.29 | X-H torsion
[ 10718 10713 10712 10709 ] final   40.63 input   66.30 | X-H torsion
[ 10763 10752 10751 10750 ] final  -73.50 input  -60.55 | X-H torsion
[ 11005 11000 10999 10996 ] final  -91.12 input  -57.11 | X-H torsion

> <Gold.Protein.ActiveResidues>
 VAL166  LYS551  ARG553  GLY616  TRP617  ASP618  TYR619  PRO620  LYS621  CYS622 
 ASP623  PHE694  ASN695  SER759  ASP760  ASP761  ALA762  ILE779  LEU786  VAL792 
 PHE793  MET794  SER795  GLU796  ALA797  LYS798  CYS799  TRP800  GLU811  SER814 

> <Gold.Protein.RotatedAtoms>
  151.7690  135.0791  160.0356 H   0  0  0  0  0  0  0  0  0  0  0  0  # atno 6907 bound_to 6896
  152.3301  133.5945  159.5812 H   0  0  0  0  0  0  0  0  0  0  0  0  # atno 6908 bound_to 6896
  150.7418  133.9796  159.3614 H   0  0  0  0  0  0  0  0  0  0  0  0  # atno 6909 bound_to 6896
  144.9622  139.4697  143.5474 H   0  0  0  0  0  0  0  0  0  0  0  0  # atno 7974 bound_to 7965
  155.9759  140.3381  155.6618 H   0  0  0  0  0  0  0  0  0  0  0  0  # atno 8008 bound_to 7997
  155.6613  140.0716  157.2571 H   0  0  0  0  0  0  0  0  0  0  0  0  # atno 8009 bound_to 7997
  154.4178  140.1708  156.1767 H   0  0  0  0  0  0  0  0  0  0  0  0  # atno 8010 bound_to 7997
  140.1786  144.4205  150.6626 H   0  0  0  0  0  0  0  0  0  0  0  0  # atno 10167 bound_to 10162
  157.3844  130.7771  149.7218 H   0  0  0  0  0  0  0  0  0  0  0  0  # atno 10718 bound_to 10713
  154.4603  135.5895  153.6251 H   0  0  0  0  0  0  0  0  0  0  0  0  # atno 10763 bound_to 10752
  152.9822  135.6042  154.3495 H   0  0  0  0  0  0  0  0  0  0  0  0  # atno 10764 bound_to 10752
  154.3366  135.2842  155.2423 H   0  0  0  0  0  0  0  0  0  0  0  0  # atno 10765 bound_to 10752
  141.1551  133.7735  156.9834 H   0  0  0  0  0  0  0  0  0  0  0  0  # atno 11005 bound_to 11000
  146.3357  139.8780  142.8829 LP  0  0  0  0  0  0  0  0  0  0  0  0  # atno 17320 bound_to 7965
  145.2682  141.0100  143.3787 LP  0  0  0  0  0  0  0  0  0  0  0  0  # atno 17321 bound_to 7965
  140.6535  143.2231  151.6023 LP  0  0  0  0  0  0  0  0  0  0  0  0  # atno 17342 bound_to 10162
  139.5306  144.2927  152.1139 LP  0  0  0  0  0  0  0  0  0  0  0  0  # atno 17343 bound_to 10162
  155.9783  130.4053  150.3656 LP  0  0  0  0  0  0  0  0  0  0  0  0  # atno 17370 bound_to 10713
  157.1764  131.0381  151.2770 LP  0  0  0  0  0  0  0  0  0  0  0  0  # atno 17371 bound_to 10713
  140.1051  134.9511  157.1982 LP  0  0  0  0  0  0  0  0  0  0  0  0  # atno 17394 bound_to 11000
  140.3267  134.2855  155.7235 LP  0  0  0  0  0  0  0  0  0  0  0  0  # atno 17395 bound_to 11000

$$$$
