AV-unprocessed.smi:1047|AV-procd|sdf|4583|dock8
  -GOLD-   22720 3 53D 1   1.00000     0.00000
 Structure written by MMmdl.
 58 60  0  0  0  0  0  0  0  0  4 V2000
  146.7293  133.6294  151.1860 C   0  0  0  0  0  0  0  0  0  0  0  0
  146.8067  132.5981  152.3210 C   0  0  0  0  0  0  0  0  0  0  0  0
  148.0864  132.6671  153.0706 N   0  3  2  0  0  0  0  0  0  0  0  0
  148.3008  131.5169  153.9828 C   0  0  0  0  0  0  0  0  0  0  0  0
  149.6522  131.6473  154.7027 C   0  0  0  0  0  0  0  0  0  0  0  0
  149.6991  132.8837  155.4033 O   0  0  0  0  0  0  0  0  0  0  0  0
  149.6000  134.0059  154.5343 C   0  0  2  0  0  0  0  0  0  0  0  0
  149.7618  135.2673  155.3994 C   0  0  0  0  0  0  0  0  0  0  0  0
  149.7901  136.5004  154.5853 N   0  3  0  0  0  0  0  0  0  0  0  0
  150.9960  137.3264  154.7981 C   0  0  0  0  0  0  0  0  0  0  0  0
  150.6411  138.8035  155.0452 C   0  0  2  0  0  0  0  0  0  0  0  0
  150.4607  139.4174  153.7856 O   0  0  0  0  0  0  0  0  0  0  0  0
  151.7272  139.5566  155.8424 C   0  0  0  0  0  0  0  0  0  0  0  0
  151.2776  140.8703  156.3282 N   0  0  0  0  0  0  0  0  0  0  0  0
  150.4679  141.7880  155.7320 C   0  0  0  0  0  0  0  0  0  0  0  0
  150.3389  142.8403  156.5862 N   0  3  0  0  0  0  0  0  0  0  0  0
  151.0760  142.5927  157.7461 C   0  0  0  0  0  0  0  0  0  0  0  0
  151.2525  143.3588  158.8921 C   0  0  0  0  0  0  0  0  0  0  0  0
  152.0764  142.8215  159.9066 C   0  0  0  0  0  0  0  0  0  0  0  0
  152.2908  143.6332  161.1729 C   0  0  0  0  0  0  0  0  0  0  0  0
  152.6935  141.5534  159.7503 C   0  0  0  0  0  0  0  0  0  0  0  0
  153.5810  140.9868  160.8456 C   0  0  0  0  0  0  0  0  0  0  0  0
  152.5006  140.7894  158.5772 C   0  0  0  0  0  0  0  0  0  0  0  0
  151.6831  141.3316  157.5877 C   0  0  0  0  0  0  0  0  0  0  0  0
  148.2391  133.9465  153.8064 C   0  0  0  0  0  0  0  0  0  0  0  0
  145.7432  133.6130  150.7213 H   0  0  0  0  0  0  0  0  0  0  0  0
  147.4569  133.4287  150.3998 H   0  0  0  0  0  0  0  0  0  0  0  0
  146.9014  134.6405  151.5568 H   0  0  0  0  0  0  0  0  0  0  0  0
  145.9820  132.7952  153.0073 H   0  0  0  0  0  0  0  0  0  0  0  0
  146.6524  131.5898  151.9337 H   0  0  0  0  0  0  0  0  0  0  0  0
  147.4924  131.4723  154.7145 H   0  0  0  0  0  0  0  0  0  0  0  0
  148.2817  130.5794  153.4279 H   0  0  0  0  0  0  0  0  0  0  0  0
  149.7778  130.8325  155.4159 H   0  0  0  0  0  0  0  0  0  0  0  0
  150.4807  131.5818  153.9954 H   0  0  0  0  0  0  0  0  0  0  0  0
  150.4161  133.9630  153.8102 H   0  0  0  0  0  0  0  0  0  0  0  0
  148.9606  135.3275  156.1373 H   0  0  0  0  0  0  0  0  0  0  0  0
  150.6989  135.2057  155.9546 H   0  0  0  0  0  0  0  0  0  0  0  0
  149.7481  136.2451  153.6089 H   0  0  0  0  0  0  0  0  0  0  0  0
  151.5729  136.9290  155.6347 H   0  0  0  0  0  0  0  0  0  0  0  0
  151.6252  137.2429  153.9104 H   0  0  0  0  0  0  0  0  0  0  0  0
  149.6893  138.8655  155.5746 H   0  0  0  0  0  0  0  0  0  0  0  0
  149.5614  139.7000  153.7127 H   0  0  0  0  0  0  0  0  0  0  0  0
  152.0164  138.9766  156.7195 H   0  0  0  0  0  0  0  0  0  0  0  0
  152.6350  139.6833  155.2521 H   0  0  0  0  0  0  0  0  0  0  0  0
  150.0071  141.6990  154.7585 H   0  0  0  0  0  0  0  0  0  0  0  0
  150.7805  144.3244  159.0037 H   0  0  0  0  0  0  0  0  0  0  0  0
  151.9317  143.0855  162.0445 H   0  0  0  0  0  0  0  0  0  0  0  0
  151.7569  144.5832  161.1337 H   0  0  0  0  0  0  0  0  0  0  0  0
  153.3496  143.8527  161.3129 H   0  0  0  0  0  0  0  0  0  0  0  0
  153.9642  140.0013  160.5794 H   0  0  0  0  0  0  0  0  0  0  0  0
  153.0239  140.8860  161.7772 H   0  0  0  0  0  0  0  0  0  0  0  0
  154.4361  141.6400  161.0217 H   0  0  0  0  0  0  0  0  0  0  0  0
  152.9762  139.8269  158.4604 H   0  0  0  0  0  0  0  0  0  0  0  0
  148.1566  134.7797  153.1073 H   0  0  0  0  0  0  0  0  0  0  0  0
  147.4230  134.0490  154.5237 H   0  0  0  0  0  0  0  0  0  0  0  0
  148.9790  137.0576  154.8124 H   0  0  0  0  0  0  0  0  0  0  0  0
  148.8256  132.6399  152.3825 H   0  0  0  0  0  0  0  0  0  0  0  0
  149.7857  143.6652  156.3910 H   0  0  0  0  0  0  0  0  0  0  0  0
  1  2  1  0  0  0  0
  1 26  1  0  0  0  0
  1 27  1  0  0  0  0
  1 28  1  0  0  0  0
  2  3  1  0  0  0  0
  2 29  1  0  0  0  0
  2 30  1  0  0  0  0
  3 25  1  0  0  0  0
  3  4  1  0  0  0  0
  3 57  1  0  0  0  0
  4  5  1  0  0  0  0
  4 31  1  0  0  0  0
  4 32  1  0  0  0  0
  5  6  1  0  0  0  0
  5 33  1  0  0  0  0
  5 34  1  0  0  0  0
  6  7  1  0  0  0  0
  7  8  1  0  0  0  0
  7 25  1  0  0  0  0
  7 35  1  0  0  0  0
  8  9  1  0  0  0  0
  8 36  1  0  0  0  0
  8 37  1  0  0  0  0
  9 10  1  0  0  0  0
  9 38  1  0  0  0  0
  9 56  1  0  0  0  0
 10 11  1  0  0  0  0
 10 39  1  0  0  0  0
 10 40  1  0  0  0  0
 11 12  1  0  0  0  0
 11 13  1  0  0  0  0
 11 41  1  0  0  0  0
 12 42  1  0  0  0  0
 13 14  1  0  0  0  0
 13 43  1  0  0  0  0
 13 44  1  0  0  0  0
 14 24  1  0  0  0  0
 14 15  1  0  0  0  0
 15 16  2  0  0  0  0
 15 45  1  0  0  0  0
 16 17  1  0  0  0  0
 16 58  1  0  0  0  0
 17 24  2  0  0  0  0
 17 18  1  0  0  0  0
 18 19  2  0  0  0  0
 18 46  1  0  0  0  0
 19 20  1  0  0  0  0
 19 21  1  0  0  0  0
 20 47  1  0  0  0  0
 20 48  1  0  0  0  0
 20 49  1  0  0  0  0
 21 22  1  0  0  0  0
 21 23  2  0  0  0  0
 22 50  1  0  0  0  0
 22 51  1  0  0  0  0
 22 52  1  0  0  0  0
 23 24  1  0  0  0  0
 23 53  1  0  0  0  0
 25 54  1  0  0  0  0
 25 55  1  0  0  0  0
M  CHG  1   3   1
M  CHG  1   9   1
M  CHG  1  16   1
M  END
> <s_m_source_file>
AV-unprocessed.smi

> <i_m_source_file_index>
1047

> <i_lp_mmshare_version>
43012

> <i_f3d_flags>
0

> <s_epik_input>
W0NIM11bQ0gyXU4xW0NIMl1bQ0gyXU9bQ0BIXShbQ0gyXTEpW0NIMl1bTkhdW0NIMl1bQ0BIXShbT0hdKVtDSDJdbihbY0hdbjIpYyhjMjMpW2NIXWMoW0NIM10pYyhbY0hdMylbQ0gzXQ==

> <s_epik_cmdline>
J2VwaWtfcHl0aG9uJywgJy1waCcsICc3LjAnLCAnLXRuJywgJzgnLCAnLW1hJywgJzIwMCcsICctbWV0YWxfYmluZGluZycsICctaW1hZScsICc8aW5maWxlLm1hZT4nLCAnLW9tYWUnLCAnPG91dGZpbGUubWFlPic=

> <r_epik_Ionization_Penalty>
1.6114

> <r_epik_Ionization_Penalty_Charging>
1.61139

> <r_epik_Ionization_Penalty_Neutral>
5.04732e-06

> <r_epik_State_Penalty>
1.63724

> <r_epik_Charging_Adjusted_Penalty>
3.24864

> <i_epik_Tot_Q>
3

> <i_epik_Tot_abs_Q>
3

> <r_epik_Metal_State_Penalty>
5.64594

> <b_epik_Metal_Only>
0

> <s_lp_Force_Field>
OPLS_2005

> <r_lp_Energy>
40.251

> <b_lp_Chiralities_Consistent>
1

> <s_lp_Variant>
AV-unprocessed.smi:1047-24

> <Gold.Version>
5.8.1

> <Gold.Id.Protein>
6NUR|6NUR_protein|mol2

> <Gold.PLP.Fitness>
66.4659

> <Gold.PLP.PLP>
-54.2104

> <Gold.PLP.part.hbond>
-4.0000

> <Gold.PLP.part.metal>
0.0000

> <Gold.PLP.part.buried>
-6.2510

> <Gold.PLP.part.nonpolar>
-43.8933

> <Gold.PLP.part.repulsive>
0.0847

> <Gold.PLP.ligand.clash>
0.0000

> <Gold.PLP.ligand.torsion>
1.4284

> <Gold.PLP.Chemscore.Hbond>
5.0000

> <Gold.PLP.Chemscore.CHOScore>
0.0000

> <Gold.PLP.Chemscore.Metal>
0.0000

> <Gold.Chemscore.Hbonds>
donor molecule, donor type, donor heavy atom, donor atom, acceptor molecule, acceptor atom, score
      L1  H     9    38       P1  7948  2.00
      L1  H    16    58       P1  8028  2.00
      P1  H  7989  7998       L1    12  1.00

> <Gold.PLP.Chemscore.Internal.Correction>
0.1123

> <Gold.Rescore>
     Score         DG    S(hbond)    S(metal)    S(lipo)     H(rot)  DE(clash)    DE(int)     intcor
     19.38     -21.67       2.53        0.00     127.20       2.78       0.04       2.26       ----

> <Gold.Chemscore.Fitness>
19.3810

> <Gold.Chemscore.DG>
-21.6728

> <Gold.Chemscore.ZeroCoef>
-5.4800

> <Gold.Chemscore.Hbond>
2.5266

> <Gold.Chemscore.Metal>
0.0000

> <Gold.Chemscore.Lipo>
127.2039

> <Gold.Chemscore.Internal_Hbond>
0.0000

> <Gold.Chemscore.DEClash>
0.0356

> <Gold.Chemscore.DEInternal>
2.2562

> <Gold.Chemscore.Rot>
2.7848

> <Gold.Chemscore.Internal.Correction>
   9.000000E+99

> <Gold.Chemscore.Hbonds>
donor molecule, donor type, donor heavy atom, donor atom, acceptor molecule, acceptor atom, score
      L1  H     9    38       P1  7948  0.30
      L1  H    16    58       P1  8028  0.96
      P1  H  7989  7998       L1    12  0.62

> <Gold.Chemscore.Hbond.Weighted>
-8.4390

> <Gold.Chemscore.Metal.Weighted>
-0.0000

> <Gold.Chemscore.Lipo.Weighted>
-14.8829

> <Gold.Chemscore.Internal_Hbond.Weighted>
0.0000

> <Gold.Chemscore.DEClash.Weighted>
0.0356

> <Gold.Chemscore.DEInternal.Weighted>
2.2562

> <Gold.Chemscore.Rot.Weighted>
7.1291

> <Gold.Chemscore.Internal.Correction.Weighted>
   9.000000E+99

> <Gold.Protein.RotatedTorsions>
[ 6907 6896 6895 6894 ] final  -11.40 input  -60.11 | X-H torsion
[ 7974 7965 7964 7962 ] final  177.84 input  175.53 | X-H torsion
[ 8008 7997 7996 7995 ] final -138.95 input   59.86 | X-H torsion
[ 10167 10162 10161 10158 ] final   19.03 input  -65.29 | X-H torsion
[ 10718 10713 10712 10709 ] final   48.17 input   66.30 | X-H torsion
[ 10763 10752 10751 10750 ] final -109.72 input  -60.55 | X-H torsion
[ 11005 11000 10999 10996 ] final -135.36 input  -57.11 | X-H torsion

> <Gold.Protein.ActiveResidues>
 VAL166  LYS551  ARG553  GLY616  TRP617  ASP618  TYR619  PRO620  LYS621  CYS622 
 ASP623  PHE694  ASN695  SER759  ASP760  ASP761  ALA762  ILE779  LEU786  VAL792 
 PHE793  MET794  SER795  GLU796  ALA797  LYS798  CYS799  TRP800  GLU811  SER814 

> <Gold.Protein.RotatedAtoms>
  151.3867  135.0949  159.9513 H   0  0  0  0  0  0  0  0  0  0  0  0  # atno 6907 bound_to 6896
  152.5092  133.9019  159.7455 H   0  0  0  0  0  0  0  0  0  0  0  0  # atno 6908 bound_to 6896
  150.9464  133.6543  159.2809 H   0  0  0  0  0  0  0  0  0  0  0  0  # atno 6909 bound_to 6896
  144.7163  140.0308  143.6439 H   0  0  0  0  0  0  0  0  0  0  0  0  # atno 7974 bound_to 7965
  155.4367  140.0529  157.3014 H   0  0  0  0  0  0  0  0  0  0  0  0  # atno 8008 bound_to 7997
  154.4836  140.2091  155.9664 H   0  0  0  0  0  0  0  0  0  0  0  0  # atno 8009 bound_to 7997
  156.1242  140.3183  155.8257 H   0  0  0  0  0  0  0  0  0  0  0  0  # atno 8010 bound_to 7997
  140.5609  143.9339  150.6642 H   0  0  0  0  0  0  0  0  0  0  0  0  # atno 10167 bound_to 10162
  157.4659  130.8225  149.7936 H   0  0  0  0  0  0  0  0  0  0  0  0  # atno 10718 bound_to 10713
  154.8209  135.4590  154.0775 H   0  0  0  0  0  0  0  0  0  0  0  0  # atno 10763 bound_to 10752
  153.2130  135.6884  153.8098 H   0  0  0  0  0  0  0  0  0  0  0  0  # atno 10764 bound_to 10752
  153.7542  135.3293  155.3303 H   0  0  0  0  0  0  0  0  0  0  0  0  # atno 10765 bound_to 10752
  140.8905  134.1817  157.4530 H   0  0  0  0  0  0  0  0  0  0  0  0  # atno 11005 bound_to 11000
  146.0104  139.3165  143.0874 LP  0  0  0  0  0  0  0  0  0  0  0  0  # atno 17320 bound_to 7965
  145.8688  140.9432  143.0661 LP  0  0  0  0  0  0  0  0  0  0  0  0  # atno 17321 bound_to 7965
  140.2789  143.3403  152.1169 LP  0  0  0  0  0  0  0  0  0  0  0  0  # atno 17342 bound_to 10162
  139.5070  144.6823  151.5976 LP  0  0  0  0  0  0  0  0  0  0  0  0  # atno 17343 bound_to 10162
  156.0050  130.3860  150.2464 LP  0  0  0  0  0  0  0  0  0  0  0  0  # atno 17370 bound_to 10713
  157.0644  131.0099  151.3211 LP  0  0  0  0  0  0  0  0  0  0  0  0  # atno 17371 bound_to 10713
  139.8729  134.9856  156.5291 LP  0  0  0  0  0  0  0  0  0  0  0  0  # atno 17394 bound_to 11000
  140.8352  133.8248  155.9022 LP  0  0  0  0  0  0  0  0  0  0  0  0  # atno 17395 bound_to 11000

$$$$
