AV-unprocessed.smi:1543|AV-procd|sdf|6208|dock7
  -GOLD-   22720 6383D 1   1.00000     0.00000
 Structure written by MMmdl.
 49 50  0  0  0  0  0  0  0  0  2 V2000
  145.0897  144.8327  152.9397 C   0  0  0  0  0  0  0  0  0  0  0  0
  145.4428  143.8857  154.0922 C   0  0  2  0  0  0  0  0  0  0  0  0
  146.1522  142.6133  153.5950 C   0  0  0  0  0  0  0  0  0  0  0  0
  146.4108  141.6830  154.7284 N   0  3  2  0  0  0  0  0  0  0  0  0
  147.3051  140.5076  154.4258 C   0  0  0  0  0  0  0  0  0  0  0  0
  147.2287  139.4764  155.5799 C   0  0  0  0  0  0  0  0  0  0  0  0
  146.7812  139.7757  153.1643 C   0  0  0  0  0  0  0  0  0  0  0  0
  148.7827  140.9597  154.2236 C   0  0  0  0  0  0  0  0  0  0  0  0
  149.2162  141.9838  155.1738 N   0  0  0  0  0  0  0  0  0  0  0  0
  150.1152  141.8081  156.1529 C   0  0  0  0  0  0  0  0  0  0  0  0
  150.6820  140.7373  156.3689 O   0  0  0  0  0  0  0  0  0  0  0  0
  150.3128  142.9460  156.8400 N   0  0  0  0  0  0  0  0  0  0  0  0
  151.1607  143.1699  157.9583 C   0  0  0  0  0  0  0  0  0  0  0  0
  151.5775  144.4490  158.4009 C   0  0  0  0  0  0  0  0  0  0  0  0
  152.4369  144.5362  159.5130 C   0  0  0  0  0  0  0  0  0  0  0  0
  152.8539  143.3445  160.1367 C   0  0  0  0  0  0  0  0  0  0  0  0
  152.4753  142.1187  159.7176 N   0  0  0  0  0  0  0  0  0  0  0  0
  151.6517  142.0426  158.6508 C   0  0  0  0  0  0  0  0  0  0  0  0
  145.1211  141.3608  155.4026 C   0  0  0  0  0  0  0  0  0  0  0  0
  144.3929  142.6414  155.8542 C   0  0  1  0  0  0  0  0  0  0  0  0
  145.0465  143.3250  157.0686 C   0  0  0  0  0  0  0  0  0  0  0  0
  144.2317  143.5311  154.7514 O   0  0  0  0  0  0  0  0  0  0  0  0
  145.9842  145.1496  152.4029 H   0  0  0  0  0  0  0  0  0  0  0  0
  144.5914  145.7286  153.3107 H   0  0  0  0  0  0  0  0  0  0  0  0
  144.4218  144.3528  152.2237 H   0  0  0  0  0  0  0  0  0  0  0  0
  146.0947  144.4233  154.7809 H   0  0  0  0  0  0  0  0  0  0  0  0
  145.5388  142.1215  152.8393 H   0  0  0  0  0  0  0  0  0  0  0  0
  147.0761  142.9198  153.1086 H   0  0  0  0  0  0  0  0  0  0  0  0
  147.6903  138.5273  155.3048 H   0  0  0  0  0  0  0  0  0  0  0  0
  146.1950  139.2606  155.8525 H   0  0  0  0  0  0  0  0  0  0  0  0
  147.7506  139.8143  156.4748 H   0  0  0  0  0  0  0  0  0  0  0  0
  147.2569  138.8034  153.0328 H   0  0  0  0  0  0  0  0  0  0  0  0
  146.9779  140.3327  152.2487 H   0  0  0  0  0  0  0  0  0  0  0  0
  145.7070  139.5970  153.2256 H   0  0  0  0  0  0  0  0  0  0  0  0
  149.4630  140.1090  154.2687 H   0  0  0  0  0  0  0  0  0  0  0  0
  148.9141  141.3906  153.2317 H   0  0  0  0  0  0  0  0  0  0  0  0
  148.8055  142.9003  155.0694 H   0  0  0  0  0  0  0  0  0  0  0  0
  149.8358  143.7646  156.4910 H   0  0  0  0  0  0  0  0  0  0  0  0
  151.2704  145.3575  157.9068 H   0  0  0  0  0  0  0  0  0  0  0  0
  152.7727  145.4959  159.8770 H   0  0  0  0  0  0  0  0  0  0  0  0
  153.5132  143.3763  160.9913 H   0  0  0  0  0  0  0  0  0  0  0  0
  151.3723  141.0457  158.3419 H   0  0  0  0  0  0  0  0  0  0  0  0
  144.4748  140.8144  154.7154 H   0  0  0  0  0  0  0  0  0  0  0  0
  145.2608  140.7255  156.2748 H   0  0  0  0  0  0  0  0  0  0  0  0
  143.3851  142.3578  156.1593 H   0  0  0  0  0  0  0  0  0  0  0  0
  145.0323  142.6654  157.9367 H   0  0  0  0  0  0  0  0  0  0  0  0
  144.5093  144.2346  157.3386 H   0  0  0  0  0  0  0  0  0  0  0  0
  146.0864  143.5928  156.8841 H   0  0  0  0  0  0  0  0  0  0  0  0
  146.9303  142.2279  155.4019 H   0  0  0  0  0  0  0  0  0  0  0  0
  1  2  1  0  0  0  0
  1 23  1  0  0  0  0
  1 24  1  0  0  0  0
  1 25  1  0  0  0  0
  2 22  1  0  0  0  0
  2  3  1  0  0  0  0
  2 26  1  0  0  0  0
  3  4  1  0  0  0  0
  3 27  1  0  0  0  0
  3 28  1  0  0  0  0
  4  5  1  0  0  0  0
  4 19  1  0  0  0  0
  4 49  1  0  0  0  0
  5  6  1  0  0  0  0
  5  7  1  0  0  0  0
  5  8  1  0  0  0  0
  6 29  1  0  0  0  0
  6 30  1  0  0  0  0
  6 31  1  0  0  0  0
  7 32  1  0  0  0  0
  7 33  1  0  0  0  0
  7 34  1  0  0  0  0
  8  9  1  0  0  0  0
  8 35  1  0  0  0  0
  8 36  1  0  0  0  0
  9 10  1  0  0  0  0
  9 37  1  0  0  0  0
 10 11  2  0  0  0  0
 10 12  1  0  0  0  0
 12 13  1  0  0  0  0
 12 38  1  0  0  0  0
 13 18  1  0  0  0  0
 13 14  2  0  0  0  0
 14 15  1  0  0  0  0
 14 39  1  0  0  0  0
 15 16  2  0  0  0  0
 15 40  1  0  0  0  0
 16 17  1  0  0  0  0
 16 41  1  0  0  0  0
 17 18  2  0  0  0  0
 18 42  1  0  0  0  0
 19 20  1  0  0  0  0
 19 43  1  0  0  0  0
 19 44  1  0  0  0  0
 20 21  1  0  0  0  0
 20 22  1  0  0  0  0
 20 45  1  0  0  0  0
 21 46  1  0  0  0  0
 21 47  1  0  0  0  0
 21 48  1  0  0  0  0
M  CHG  1   4   1
M  END
> <s_m_source_file>
AV-unprocessed.smi

> <i_m_source_file_index>
1543

> <i_lp_mmshare_version>
43012

> <i_f3d_flags>
0

> <s_epik_input>
W0NIM11bQ0BASF0xW0NIMl1OKFtDSDJdW0NASF0oTzEpW0NIM10pQyhbQ0gzXSkoW0NIM10pW0NIMl1bTkhdQyg9TylbTkhdYzJbY0hdW2NIXVtjSF1uW2NIXTI=

> <s_epik_cmdline>
J2VwaWtfcHl0aG9uJywgJy1waCcsICc3LjAnLCAnLXRuJywgJzgnLCAnLW1hJywgJzIwMCcsICctbWV0YWxfYmluZGluZycsICctaW1hZScsICc8aW5maWxlLm1hZT4nLCAnLW9tYWUnLCAnPG91dGZpbGUubWFlPic=

> <r_epik_Ionization_Penalty>
0.60676

> <r_epik_Ionization_Penalty_Charging>
0.602531

> <r_epik_Ionization_Penalty_Neutral>
0.00422967

> <r_epik_State_Penalty>
0.607492

> <r_epik_Charging_Adjusted_Penalty>
1.21002

> <i_epik_Tot_Q>
1

> <i_epik_Tot_abs_Q>
1

> <r_epik_Metal_State_Penalty>
0.604589

> <b_epik_Metal_Only>
0

> <s_lp_Force_Field>
OPLS_2005

> <r_lp_Energy>
30.3839

> <b_lp_Chiralities_Consistent>
1

> <s_lp_Variant>
AV-unprocessed.smi:1543-4

> <Gold.Version>
5.8.1

> <Gold.Id.Protein>
6NUR|6NUR_protein|mol2

> <Gold.PLP.Fitness>
46.9487

> <Gold.PLP.PLP>
-42.4436

> <Gold.PLP.part.hbond>
-2.0000

> <Gold.PLP.part.metal>
0.0000

> <Gold.PLP.part.buried>
-7.2128

> <Gold.PLP.part.nonpolar>
-34.3929

> <Gold.PLP.part.repulsive>
0.4530

> <Gold.PLP.ligand.clash>
0.0000

> <Gold.PLP.ligand.torsion>
0.7439

> <Gold.PLP.Chemscore.Hbond>
1.9600

> <Gold.PLP.Chemscore.CHOScore>
0.0000

> <Gold.PLP.Chemscore.Metal>
0.0000

> <Gold.Chemscore.Hbonds>
donor molecule, donor type, donor heavy atom, donor atom, acceptor molecule, acceptor atom, score
      L1  H     9    37       P1  8028  0.91
      L1  H    12    38       P1  8028  1.00

> <Gold.PLP.Chemscore.Internal.Correction>
0.1130

> <Gold.Rescore>
     Score         DG    S(hbond)    S(metal)    S(lipo)     H(rot)  DE(clash)    DE(int)     intcor
     18.86     -20.91       1.94        0.00     108.56       1.46       0.03       2.02       ----

> <Gold.Chemscore.Fitness>
18.8615

> <Gold.Chemscore.DG>
-20.9078

> <Gold.Chemscore.ZeroCoef>
-5.4800

> <Gold.Chemscore.Hbond>
1.9377

> <Gold.Chemscore.Metal>
0.0000

> <Gold.Chemscore.Lipo>
108.5614

> <Gold.Chemscore.Internal_Hbond>
0.0000

> <Gold.Chemscore.DEClash>
0.0252

> <Gold.Chemscore.DEInternal>
2.0211

> <Gold.Chemscore.Rot>
1.4632

> <Gold.Chemscore.Internal.Correction>
   9.000000E+99

> <Gold.Chemscore.Hbonds>
donor molecule, donor type, donor heavy atom, donor atom, acceptor molecule, acceptor atom, score
      L1  H     9    37       P1  8028  0.89
      L1  H    12    38       P1  8028  0.97

> <Gold.Chemscore.Hbond.Weighted>
-6.4720

> <Gold.Chemscore.Metal.Weighted>
-0.0000

> <Gold.Chemscore.Lipo.Weighted>
-12.7017

> <Gold.Chemscore.Internal_Hbond.Weighted>
0.0000

> <Gold.Chemscore.DEClash.Weighted>
0.0252

> <Gold.Chemscore.DEInternal.Weighted>
2.0211

> <Gold.Chemscore.Rot.Weighted>
3.7459

> <Gold.Chemscore.Internal.Correction.Weighted>
   9.000000E+99

> <Gold.Protein.RotatedTorsions>
[ 6907 6896 6895 6894 ] final  144.53 input  -60.11 | X-H torsion
[ 7974 7965 7964 7962 ] final -154.60 input  175.53 | X-H torsion
[ 8008 7997 7996 7995 ] final -175.48 input   59.86 | X-H torsion
[ 10167 10162 10161 10158 ] final  134.86 input  -65.29 | X-H torsion
[ 10718 10713 10712 10709 ] final   45.35 input   66.30 | X-H torsion
[ 10763 10752 10751 10750 ] final   48.84 input  -60.55 | X-H torsion
[ 11005 11000 10999 10996 ] final  119.40 input  -57.11 | X-H torsion

> <Gold.Protein.ActiveResidues>
 VAL166  LYS551  ARG553  GLY616  TRP617  ASP618  TYR619  PRO620  LYS621  CYS622 
 ASP623  PHE694  ASN695  SER759  ASP760  ASP761  ALA762  ILE779  LEU786  VAL792 
 PHE793  MET794  SER795  GLU796  ALA797  LYS798  CYS799  TRP800  GLU811  SER814 

> <Gold.Protein.RotatedAtoms>
  152.1925  133.4783  159.5015 H   0  0  0  0  0  0  0  0  0  0  0  0  # atno 6907 bound_to 6896
  150.6954  134.1694  159.4215 H   0  0  0  0  0  0  0  0  0  0  0  0  # atno 6908 bound_to 6896
  151.9609  135.0124  160.0598 H   0  0  0  0  0  0  0  0  0  0  0  0  # atno 6909 bound_to 6896
  144.7681  140.4365  143.5927 H   0  0  0  0  0  0  0  0  0  0  0  0  # atno 7974 bound_to 7965
  155.9831  140.1186  157.0708 H   0  0  0  0  0  0  0  0  0  0  0  0  # atno 8008 bound_to 7997
  154.4189  140.1140  156.5531 H   0  0  0  0  0  0  0  0  0  0  0  0  # atno 8009 bound_to 7997
  155.6444  140.3473  155.4728 H   0  0  0  0  0  0  0  0  0  0  0  0  # atno 8010 bound_to 7997
  139.5239  144.6546  151.5200 H   0  0  0  0  0  0  0  0  0  0  0  0  # atno 10167 bound_to 10162
  157.4366  130.8056  149.7654 H   0  0  0  0  0  0  0  0  0  0  0  0  # atno 10718 bound_to 10713
  152.9789  135.5931  154.3992 H   0  0  0  0  0  0  0  0  0  0  0  0  # atno 10763 bound_to 10752
  154.3639  135.2767  155.2306 H   0  0  0  0  0  0  0  0  0  0  0  0  # atno 10764 bound_to 10752
  154.4291  135.6040  153.6112 H   0  0  0  0  0  0  0  0  0  0  0  0  # atno 10765 bound_to 10752
  139.9145  134.9628  156.7649 H   0  0  0  0  0  0  0  0  0  0  0  0  # atno 11005 bound_to 11000
  145.6408  139.1549  143.2917 LP  0  0  0  0  0  0  0  0  0  0  0  0  # atno 17320 bound_to 7965
  146.1805  140.6504  142.9191 LP  0  0  0  0  0  0  0  0  0  0  0  0  # atno 17321 bound_to 7965
  140.6366  143.8972  150.6653 LP  0  0  0  0  0  0  0  0  0  0  0  0  # atno 17342 bound_to 10162
  140.2293  143.3748  152.1579 LP  0  0  0  0  0  0  0  0  0  0  0  0  # atno 17343 bound_to 10162
  155.9933  130.3925  150.2907 LP  0  0  0  0  0  0  0  0  0  0  0  0  # atno 17370 bound_to 10713
  157.1068  131.0210  151.3064 LP  0  0  0  0  0  0  0  0  0  0  0  0  # atno 17371 bound_to 10713
  140.6667  133.9596  155.7834 LP  0  0  0  0  0  0  0  0  0  0  0  0  # atno 17394 bound_to 11000
  141.0606  134.0352  157.3664 LP  0  0  0  0  0  0  0  0  0  0  0  0  # atno 17395 bound_to 11000

$$$$
