#       Name:                AV-unprocessed.smi:1986
#       Creating user name   scv26
#       Creation time:       Fri Mar 27 10:24:49 2020


#       File generated by GOLD software.
#

@<TRIPOS>MOLECULE
AV-unprocessed.smi:1986
    56    57     1
SMALL
NO_CHARGES


@<TRIPOS>ATOM
      1 ****        -0.2089  -0.3630   4.3132 C.3            1 S1                 0.0000
      2 ****        -0.5613  -0.9949   2.9548 C.3            1 S1                 0.0000
      3 ****        -0.1504  -0.1788   1.6918 C.3            1 S1                 0.0000
      4 ****        -0.7610   1.2456   1.7711 C.3            1 S1                 0.0000
      5 ****         1.3972  -0.0042   1.6530 C.3            1 S1                 0.0000
      6 ****         1.8355   0.5388   0.3716 N.am           1 S1                 0.0000
      7 ****         2.5355   1.6646   0.1694 C.2            1 S1                 0.0000
      8 ****         3.0128   2.3404   1.0800 O.2            1 S1                 0.0000
      9 ****         2.6785   2.1275  -1.2887 C.3            1 S1                 0.0000
     10 ****         1.5265   1.7615  -2.1317 N.am           1 S1                 0.0000
     11 ****         1.7089   0.5292  -2.8945 N.pl3          1 S1                -1.0000
     12 ****         0.7206   0.1166  -3.7318 C.2            1 S1                 0.0000
     13 ****         0.8083  -0.8999  -4.4156 O.2            1 S1                 0.0000
     14 ****        -0.4964   0.9081  -3.7966 C.2            1 S1                 0.0000
     15 ****        -0.6558   2.0156  -3.0461 C.2            1 S1                 0.0000
     16 ****         0.3793   2.4989  -2.1412 C.2            1 S1                 0.0000
     17 ****         0.2305   3.4964  -1.4361 O.2            1 S1                 0.0000
     18 ****        -0.6187  -0.8612   0.4268 N.4            1 S1                 1.0000
     19 ****        -0.0823  -2.2333   0.1993 C.3            1 S1                 0.0000
     20 ****        -0.4549  -2.7344  -1.2046 C.3            1 S1                 0.0000
     21 ****        -1.8675  -2.7243  -1.3509 O.3            1 S1                 0.0000
     22 ****        -2.3968  -1.4124  -1.2262 C.3            1 S1                 0.0000
     23 ****        -2.0873  -0.8513   0.1725 C.3            1 S1                 0.0000
     24 ****        -0.5271  -1.0146   5.1272 H              1 S1                 0.0000
     25 ****        -0.7069   0.5952   4.4592 H              1 S1                 0.0000
     26 ****         0.8638  -0.2098   4.4264 H              1 S1                 0.0000
     27 ****        -0.0948  -1.9794   2.9288 H              1 S1                 0.0000
     28 ****        -1.6360  -1.1740   2.9467 H              1 S1                 0.0000
     29 ****        -0.2689   1.8550   2.5297 H              1 S1                 0.0000
     30 ****        -1.8194   1.2266   2.0310 H              1 S1                 0.0000
     31 ****        -0.6590   1.7805   0.8262 H              1 S1                 0.0000
     32 ****         1.7324   0.6324   2.4727 H              1 S1                 0.0000
     33 ****         1.9054  -0.9555   1.8083 H              1 S1                 0.0000
     34 ****         1.5189   0.0556  -0.4575 H              1 S1                 0.0000
     35 ****         2.8315   3.2080  -1.3109 H              1 S1                 0.0000
     36 ****         3.5946   1.6947  -1.6942 H              1 S1                 0.0000
     37 ****        -1.2938   0.5968  -4.4552 H              1 S1                 0.0000
     38 ****        -1.5791   2.5704  -3.1219 H              1 S1                 0.0000
     39 ****         1.0020  -2.2590   0.2901 H              1 S1                 0.0000
     40 ****        -0.4849  -2.9247   0.9398 H              1 S1                 0.0000
     41 ****         0.0127  -2.1220  -1.9753 H              1 S1                 0.0000
     42 ****        -0.0941  -3.7529  -1.3475 H              1 S1                 0.0000
     43 ****        -1.9877  -0.7671  -2.0042 H              1 S1                 0.0000
     44 ****        -3.4746  -1.4530  -1.3839 H              1 S1                 0.0000
     45 ****        -2.6052  -1.4453   0.9255 H              1 S1                 0.0000
     46 ****        -2.4970   0.1560   0.2165 H              1 S1                 0.0000
     47 ****        -0.2270  -0.2998  -0.3168 H              1 S1                 0.0000
     48 ****         2.8871   2.0580   2.0310 LP             1 S1                 0.0000
     49 ****         3.5265   3.1721   0.8691 LP             1 S1                 0.0000
     50 ****         2.5499  -0.0040  -2.8020 LP             1 S1                 0.0000
     51 ****         1.6332  -1.4634  -4.3703 LP             1 S1                 0.0000
     52 ****         0.0549  -1.1640  -5.0177 LP             1 S1                 0.0000
     53 ****         0.9665   3.7928  -0.8274 LP             1 S1                 0.0000
     54 ****        -0.6264   4.0107  -1.4718 LP             1 S1                 0.0000
     55 ****        -2.2710  -3.3055  -0.6443 LP             1 S1                 0.0000
     56 ****        -2.1028  -3.0847  -2.2535 LP             1 S1                 0.0000
@<TRIPOS>BOND
    1    1    2 1     
    2    1   24 1     
    3    1   25 1     
    4    1   26 1     
    5    2    3 1     
    6    2   27 1     
    7    2   28 1     
    8    3    4 1     
    9    3    5 1     
   10    3   18 1     
   11    4   29 1     
   12    4   30 1     
   13    4   31 1     
   14    5    6 1     
   15    5   32 1     
   16    5   33 1     
   17    6    7 am    
   18    6   34 1     
   19    7    8 2     
   20    7    9 1     
   21    9   35 1     
   22    9   36 1     
   23    9   10 1     
   24   10   11 1     
   25   10   16 am    
   26   11   12 1     
   27   12   13 2     
   28   12   14 1     
   29   14   37 1     
   30   14   15 2     
   31   15   38 1     
   32   15   16 1     
   33   16   17 2     
   34   18   23 1     
   35   18   19 1     
   36   18   47 1     
   37   19   20 1     
   38   19   39 1     
   39   19   40 1     
   40   20   21 1     
   41   20   41 1     
   42   20   42 1     
   43   21   22 1     
   44   22   23 1     
   45   22   43 1     
   46   22   44 1     
   47   23   45 1     
   48   23   46 1     
   49    8   48 1     
   50    8   49 1     
   51   11   50 1     
   52   13   51 1     
   53   13   52 1     
   54   17   53 1     
   55   17   54 1     
   56   21   55 1     
   57   21   56 1     
@<TRIPOS>SUBSTRUCTURE
      1 S1             1
@<TRIPOS>SET
LONE_PAIRS      STATIC     ATOMS    <user>   **** ""
9 48 49 50 51 52 53 54 55 56
DONOR_HYDROGENS      STATIC     ATOMS    <user>   **** ""
2 34 47
ATOM$BLUE        STATIC     ATOMS    COLORGROUP SYSTEM
9 48 49 50 51 52 53 54 55 56
ATOM$RED        STATIC     ATOMS    COLORGROUP SYSTEM
2 34 47
