AV-unprocessed.smi:167|AV-procd|sdf|1395|dock9
  -GOLD-   2262019143D 1   1.00000     0.00000
 Structure written by MMmdl.
 51 55  0  0  0  0  0  0  0  0  1 V2000
  151.8540  137.0816  154.3253 O   0  0  0  0  0  0  0  0  0  0  0  0
  150.8847  137.2698  155.3340 C   0  0  0  0  0  0  0  0  0  0  0  0
  150.3759  138.7242  155.3160 C   0  0  1  0  0  0  0  0  0  0  0  0
  149.8950  139.2091  153.9327 C   0  0  0  0  0  0  0  0  0  0  0  0
  148.4690  139.7026  154.2545 C   0  0  2  0  0  0  0  0  0  0  0  0
  148.5572  141.0052  155.0687 C   0  0  0  0  0  0  0  0  0  0  0  0
  148.9801  140.4704  156.4471 C   0  0  0  0  0  0  0  0  0  0  0  0
  149.1004  138.9619  156.1636 C   0  0  1  0  0  0  0  0  0  0  0  0
  147.9892  138.7524  155.2460 N   0  0  0  0  0  0  0  0  0  0  0  0
  147.5935  137.4997  154.8916 C   0  0  0  0  0  0  0  0  0  0  0  0
  148.0856  136.4351  155.5792 N   0  0  0  0  0  0  0  0  0  0  0  0
  147.7079  135.1926  155.2678 C   0  0  0  0  0  0  0  0  0  0  0  0
  146.8687  134.7914  154.3125 N   0  0  0  0  0  0  0  0  0  0  0  0
  146.3862  135.8499  153.6010 C   0  0  0  0  0  0  0  0  0  0  0  0
  146.6952  137.2238  153.8190 C   0  0  0  0  0  0  0  0  0  0  0  0
  146.0133  138.0065  152.8949 N   0  0  0  0  0  0  0  0  0  0  0  0
  145.3291  137.1507  152.1871 C   0  0  0  0  0  0  0  0  0  0  0  0
  145.5045  135.8299  152.5333 N   0  0  0  0  0  0  0  0  0  0  0  0
  144.8640  134.6886  151.9429 C   0  0  0  0  0  0  0  0  0  0  0  0
  145.4147  133.2691  152.1206 C   0  0  0  0  0  0  0  0  0  0  0  0
  144.9273  132.9174  150.6952 C   0  0  0  0  0  0  0  0  0  0  0  0
  145.8668  132.0410  149.8436 C   0  0  0  0  0  0  0  0  0  0  0  0
  145.4427  131.9379  148.4986 O   0  0  0  0  0  0  0  0  0  0  0  0
  143.5328  132.2645  150.6535 C   0  0  0  0  0  0  0  0  0  0  0  0
  143.0683  132.1110  149.3275 O   0  0  0  0  0  0  0  0  0  0  0  0
  144.9542  134.4425  150.4363 C   0  0  0  0  0  0  0  0  0  0  0  0
  151.4168  136.7883  153.5402 H   0  0  0  0  0  0  0  0  0  0  0  0
  150.0774  136.5545  155.1819 H   0  0  0  0  0  0  0  0  0  0  0  0
  151.3408  137.0412  156.2975 H   0  0  0  0  0  0  0  0  0  0  0  0
  151.1796  139.3639  155.6841 H   0  0  0  0  0  0  0  0  0  0  0  0
  150.5285  139.9942  153.5186 H   0  0  0  0  0  0  0  0  0  0  0  0
  149.8673  138.3915  153.2109 H   0  0  0  0  0  0  0  0  0  0  0  0
  147.8363  139.8055  153.3721 H   0  0  0  0  0  0  0  0  0  0  0  0
  149.2719  141.7147  154.6502 H   0  0  0  0  0  0  0  0  0  0  0  0
  147.5852  141.4962  155.1298 H   0  0  0  0  0  0  0  0  0  0  0  0
  149.9069  140.9143  156.8118 H   0  0  0  0  0  0  0  0  0  0  0  0
  148.2014  140.6635  157.1859 H   0  0  0  0  0  0  0  0  0  0  0  0
  149.0754  138.3790  157.0826 H   0  0  0  0  0  0  0  0  0  0  0  0
  148.1390  134.4080  155.8718 H   0  0  0  0  0  0  0  0  0  0  0  0
  144.6727  137.4674  151.3899 H   0  0  0  0  0  0  0  0  0  0  0  0
  143.8198  134.7179  152.2587 H   0  0  0  0  0  0  0  0  0  0  0  0
  146.4989  133.2411  152.2310 H   0  0  0  0  0  0  0  0  0  0  0  0
  144.9352  132.7015  152.9185 H   0  0  0  0  0  0  0  0  0  0  0  0
  146.8800  132.4440  149.8455 H   0  0  0  0  0  0  0  0  0  0  0  0
  145.9306  131.0289  150.2439 H   0  0  0  0  0  0  0  0  0  0  0  0
  145.5039  132.7922  148.0990 H   0  0  0  0  0  0  0  0  0  0  0  0
  143.5436  131.2865  151.1359 H   0  0  0  0  0  0  0  0  0  0  0  0
  142.7993  132.8622  151.1950 H   0  0  0  0  0  0  0  0  0  0  0  0
  142.5800  132.8841  149.0887 H   0  0  0  0  0  0  0  0  0  0  0  0
  144.1073  134.8306  149.8694 H   0  0  0  0  0  0  0  0  0  0  0  0
  145.8957  134.7984  150.0151 H   0  0  0  0  0  0  0  0  0  0  0  0
  1  2  1  0  0  0  0
  1 27  1  0  0  0  0
  2  3  1  0  0  0  0
  2 28  1  0  0  0  0
  2 29  1  0  0  0  0
  3  8  1  0  0  0  0
  3  4  1  0  0  0  0
  3 30  1  0  0  0  0
  4  5  1  0  0  0  0
  4 31  1  0  0  0  0
  4 32  1  0  0  0  0
  5  9  1  0  0  0  0
  5  6  1  0  0  0  0
  5 33  1  0  0  0  0
  6  7  1  0  0  0  0
  6 34  1  0  0  0  0
  6 35  1  0  0  0  0
  7  8  1  0  0  0  0
  7 36  1  0  0  0  0
  7 37  1  0  0  0  0
  8  9  1  0  0  0  0
  8 38  1  0  0  0  0
  9 10  1  0  0  0  0
 10 15  1  0  0  0  0
 10 11  2  0  0  0  0
 11 12  1  0  0  0  0
 12 13  2  0  0  0  0
 12 39  1  0  0  0  0
 13 14  1  0  0  0  0
 14 18  1  0  0  0  0
 14 15  2  0  0  0  0
 15 16  1  0  0  0  0
 16 17  2  0  0  0  0
 17 18  1  0  0  0  0
 17 40  1  0  0  0  0
 18 19  1  0  0  0  0
 19 26  1  0  0  0  0
 19 20  1  0  0  0  0
 19 41  1  0  0  0  0
 20 21  1  0  0  0  0
 20 42  1  0  0  0  0
 20 43  1  0  0  0  0
 21 22  1  0  0  0  0
 21 24  1  0  0  0  0
 21 26  1  0  0  0  0
 22 23  1  0  0  0  0
 22 44  1  0  0  0  0
 22 45  1  0  0  0  0
 23 46  1  0  0  0  0
 24 25  1  0  0  0  0
 24 47  1  0  0  0  0
 24 48  1  0  0  0  0
 25 49  1  0  0  0  0
 26 50  1  0  0  0  0
 26 51  1  0  0  0  0
M  END
> <s_m_source_file>
AV-unprocessed.smi

> <i_m_source_file_index>
167

> <i_lp_mmshare_version>
43012

> <i_f3d_flags>
0

> <s_epik_input>
W09IXVtDSDJdW0NASF0oW0NIMl1bQ0BASF0xMilbQ0BIXShbQ0gyXVtDSDJdMSlOMmMobltjSF1uMyljKGMzNCluW2NIXW40W0NIXShbQ0gyXTUpW0NIMl1DNShbQ0gyXVtPSF0pW0NIMl1bT0hd

> <s_epik_cmdline>
J2VwaWtfcHl0aG9uJywgJy1waCcsICc3LjAnLCAnLXRuJywgJzgnLCAnLW1hJywgJzIwMCcsICctbWV0YWxfYmluZGluZycsICctaW1hZScsICc8aW5maWxlLm1hZT4nLCAnLW9tYWUnLCAnPG91dGZpbGUubWFlPic=

> <r_lp_tautomer_probability>
1

> <r_epik_Ionization_Penalty>
0.0047903

> <r_epik_Ionization_Penalty_Charging>
0

> <r_epik_Ionization_Penalty_Neutral>
0.0047903

> <r_epik_State_Penalty>
0.00341021

> <r_epik_Charging_Adjusted_Penalty>
0.00341021

> <i_epik_Tot_Q>
0

> <i_epik_Tot_abs_Q>
0

> <r_epik_Metal_State_Penalty>
-0

> <b_epik_Metal_Only>
0

> <s_lp_Force_Field>
OPLS_2005

> <r_lp_Energy>
89.2094

> <b_lp_Chiralities_Consistent>
1

> <s_lp_Variant>
AV-unprocessed.smi:167-4

> <Gold.Version>
5.8.1

> <Gold.Id.Protein>
6NUR|6NUR_protein|mol2

> <Gold.PLP.Fitness>
51.0435

> <Gold.PLP.PLP>
-35.6574

> <Gold.PLP.part.hbond>
-6.9783

> <Gold.PLP.part.metal>
0.0000

> <Gold.PLP.part.buried>
-0.8971

> <Gold.PLP.part.nonpolar>
-27.1117

> <Gold.PLP.part.repulsive>
0.4388

> <Gold.PLP.ligand.clash>
0.0000

> <Gold.PLP.ligand.torsion>
0.7304

> <Gold.PLP.Chemscore.Hbond>
4.4635

> <Gold.PLP.Chemscore.CHOScore>
1.0000

> <Gold.PLP.Chemscore.Metal>
0.0000

> <Gold.Chemscore.Hbonds>
donor molecule, donor type, donor heavy atom, donor atom, acceptor molecule, acceptor atom, score
      L1  H     1    27       P1  7949  0.54
      L1  H    23    46       P1  7921  0.22
      L1  H    25    49       P1 10186  0.49
      P1  H 10752 10763       L1     1  0.50
      P1  H 10785 10796       L1    25  0.93
      L1  C    17    40       P1 10171  1.00

> <Gold.PLP.Chemscore.Internal.Correction>
0.4565

> <Gold.Rescore>
     Score         DG    S(hbond)    S(metal)    S(lipo)     H(rot)  DE(clash)    DE(int)     intcor
      9.26     -13.52       2.72        0.00      83.07       4.20       1.46       2.80       ----

> <Gold.Chemscore.Fitness>
9.2572

> <Gold.Chemscore.DG>
-13.5199

> <Gold.Chemscore.ZeroCoef>
-5.4800

> <Gold.Chemscore.Hbond>
2.7193

> <Gold.Chemscore.Metal>
0.0000

> <Gold.Chemscore.Lipo>
83.0705

> <Gold.Chemscore.Internal_Hbond>
0.0000

> <Gold.Chemscore.DEClash>
1.4615

> <Gold.Chemscore.DEInternal>
2.8012

> <Gold.Chemscore.Rot>
4.2038

> <Gold.Chemscore.Internal.Correction>
   9.000000E+99

> <Gold.Chemscore.Hbonds>
donor molecule, donor type, donor heavy atom, donor atom, acceptor molecule, acceptor atom, score
      L1  H     1    27       P1  7949  0.42
      L1  H    25    49       P1 10186  0.46
      P1  H 10752 10763       L1     1  0.02
      P1  H 10785 10796       L1    25  0.69

> <Gold.Chemscore.Hbond.Weighted>
-9.0824

> <Gold.Chemscore.Metal.Weighted>
-0.0000

> <Gold.Chemscore.Lipo.Weighted>
-9.7193

> <Gold.Chemscore.Internal_Hbond.Weighted>
0.0000

> <Gold.Chemscore.DEClash.Weighted>
1.4615

> <Gold.Chemscore.DEInternal.Weighted>
2.8012

> <Gold.Chemscore.Rot.Weighted>
10.7617

> <Gold.Chemscore.Internal.Correction.Weighted>
   9.000000E+99

> <Gold.Protein.RotatedTorsions>
[ 6907 6896 6895 6894 ] final -143.01 input  -60.11 | X-H torsion
[ 7974 7965 7964 7962 ] final -177.50 input  175.53 | X-H torsion
[ 8008 7997 7996 7995 ] final  -90.25 input   59.86 | X-H torsion
[ 10167 10162 10161 10158 ] final  151.12 input  -65.29 | X-H torsion
[ 10718 10713 10712 10709 ] final   31.17 input   66.30 | X-H torsion
[ 10763 10752 10751 10750 ] final   38.09 input  -60.55 | X-H torsion
[ 11005 11000 10999 10996 ] final  103.55 input  -57.11 | X-H torsion

> <Gold.Protein.ActiveResidues>
 VAL166  LYS551  ARG553  GLY616  TRP617  ASP618  TYR619  PRO620  LYS621  CYS622 
 ASP623  PHE694  ASN695  SER759  ASP760  ASP761  ALA762  ILE779  LEU786  VAL792 
 PHE793  MET794  SER795  GLU796  ALA797  LYS798  CYS799  TRP800  GLU811  SER814 

> <Gold.Protein.RotatedAtoms>
  151.0947  133.5288  159.2612 H   0  0  0  0  0  0  0  0  0  0  0  0  # atno 6907 bound_to 6896
  151.2142  135.0493  159.8933 H   0  0  0  0  0  0  0  0  0  0  0  0  # atno 6908 bound_to 6896
  152.5437  134.0759  159.8268 H   0  0  0  0  0  0  0  0  0  0  0  0  # atno 6909 bound_to 6896
  144.7128  140.1009  143.6416 H   0  0  0  0  0  0  0  0  0  0  0  0  # atno 7974 bound_to 7965
  154.6963  140.0532  157.0414 H   0  0  0  0  0  0  0  0  0  0  0  0  # atno 8008 bound_to 7997
  155.0747  140.3203  155.4601 H   0  0  0  0  0  0  0  0  0  0  0  0  # atno 8009 bound_to 7997
  156.2745  140.2075  156.5874 H   0  0  0  0  0  0  0  0  0  0  0  0  # atno 8010 bound_to 7997
  139.4843  144.5467  151.7472 H   0  0  0  0  0  0  0  0  0  0  0  0  # atno 10167 bound_to 10162
  157.2691  130.7199  149.6494 H   0  0  0  0  0  0  0  0  0  0  0  0  # atno 10718 bound_to 10713
  153.0013  135.6259  154.2249 H   0  0  0  0  0  0  0  0  0  0  0  0  # atno 10763 bound_to 10752
  154.1992  135.2805  155.2998 H   0  0  0  0  0  0  0  0  0  0  0  0  # atno 10764 bound_to 10752
  154.5697  135.5680  153.7143 H   0  0  0  0  0  0  0  0  0  0  0  0  # atno 10765 bound_to 10752
  139.8784  134.9267  156.5227 H   0  0  0  0  0  0  0  0  0  0  0  0  # atno 11005 bound_to 11000
  145.9538  139.2752  143.1196 LP  0  0  0  0  0  0  0  0  0  0  0  0  # atno 17320 bound_to 7965
  145.9294  140.9059  143.0364 LP  0  0  0  0  0  0  0  0  0  0  0  0  # atno 17321 bound_to 7965
  140.5014  144.1163  150.5972 LP  0  0  0  0  0  0  0  0  0  0  0  0  # atno 17342 bound_to 10162
  140.4057  143.2681  151.9894 LP  0  0  0  0  0  0  0  0  0  0  0  0  # atno 17343 bound_to 10162
  155.9663  130.4373  150.5171 LP  0  0  0  0  0  0  0  0  0  0  0  0  # atno 17370 bound_to 10713
  157.3092  131.0660  151.2013 LP  0  0  0  0  0  0  0  0  0  0  0  0  # atno 17371 bound_to 10713
  140.8439  133.8184  155.9101 LP  0  0  0  0  0  0  0  0  0  0  0  0  # atno 17394 bound_to 11000
  140.9211  134.2141  157.4926 LP  0  0  0  0  0  0  0  0  0  0  0  0  # atno 17395 bound_to 11000

$$$$
