AV-unprocessed.smi:1732|AV-procd|sdf|6976|dock10
  -GOLD-   22720 8193D 1   1.00000     0.00000
 Structure written by MMmdl.
 36 37  0  0  0  0  0  0  0  0  1 V2000
  153.0575  139.5699  155.7159 O   0  0  0  0  0  0  0  0  0  0  0  0
  151.8799  139.4218  156.0399 C   0  0  0  0  0  0  0  0  0  0  0  0
  150.9505  138.6202  155.1306 C   0  0  0  0  0  0  0  0  0  0  0  0
  150.2990  139.5149  154.2402 O   0  0  0  0  0  0  0  0  0  0  0  0
  149.1473  140.1359  154.7901 C   0  0  0  0  0  0  0  0  0  0  0  0
  147.8972  139.7029  154.0277 C   0  0  0  0  0  0  0  0  0  0  0  0
  146.8683  140.7879  154.3490 C   0  0  0  0  0  0  0  0  0  0  0  0
  147.6749  142.0760  154.5741 C   0  0  0  0  0  0  0  0  0  0  0  0
  149.1523  141.6607  154.6299 C   0  0  0  0  0  0  0  0  0  0  0  0
  151.3164  139.8891  157.1718 N   0  0  0  0  0  0  0  0  0  0  0  0
  151.8749  140.6814  158.1884 C   0  0  0  0  0  0  0  0  0  0  0  0
  151.7042  142.0239  158.3095 C   0  0  0  0  0  0  0  0  0  0  0  0
  152.2941  142.7810  159.4009 C   0  0  0  0  0  0  0  0  0  0  0  0
  152.1629  144.2940  159.4813 C   0  0  0  0  0  0  0  0  0  0  0  0
  152.6055  144.7575  160.6510 F   0  0  0  0  0  0  0  0  0  0  0  0
  152.8550  144.8860  158.5078 F   0  0  0  0  0  0  0  0  0  0  0  0
  150.8840  144.6448  159.3530 F   0  0  0  0  0  0  0  0  0  0  0  0
  153.0280  142.0835  160.2875 C   0  0  0  0  0  0  0  0  0  0  0  0
  153.1901  140.7004  160.1824 N   0  0  0  0  0  0  0  0  0  0  0  0
  152.6627  139.9465  159.1920 C   0  0  0  0  0  0  0  0  0  0  0  0
  152.8533  138.7309  159.1685 O   0  0  0  0  0  0  0  0  0  0  0  0
  153.7421  140.2473  160.8963 H   0  0  0  0  0  0  0  0  0  0  0  0
  151.5251  137.8805  154.5705 H   0  0  0  0  0  0  0  0  0  0  0  0
  150.2285  138.0854  155.7486 H   0  0  0  0  0  0  0  0  0  0  0  0
  149.0279  139.8679  155.8417 H   0  0  0  0  0  0  0  0  0  0  0  0
  148.0995  139.6987  152.9556 H   0  0  0  0  0  0  0  0  0  0  0  0
  147.5588  138.7043  154.3063 H   0  0  0  0  0  0  0  0  0  0  0  0
  146.1249  140.8948  153.5584 H   0  0  0  0  0  0  0  0  0  0  0  0
  146.3370  140.5267  155.2651 H   0  0  0  0  0  0  0  0  0  0  0  0
  147.5098  142.7920  153.7683 H   0  0  0  0  0  0  0  0  0  0  0  0
  147.3678  142.5563  155.5037 H   0  0  0  0  0  0  0  0  0  0  0  0
  149.6953  142.1623  155.4312 H   0  0  0  0  0  0  0  0  0  0  0  0
  149.6356  141.9280  153.6890 H   0  0  0  0  0  0  0  0  0  0  0  0
  150.3559  139.6193  157.3309 H   0  0  0  0  0  0  0  0  0  0  0  0
  151.0986  142.5726  157.6068 H   0  0  0  0  0  0  0  0  0  0  0  0
  153.5436  142.5221  161.1292 H   0  0  0  0  0  0  0  0  0  0  0  0
  1  2  2  0  0  0  0
  2  3  1  0  0  0  0
  2 10  1  0  0  0  0
  3  4  1  0  0  0  0
  3 23  1  0  0  0  0
  3 24  1  0  0  0  0
  4  5  1  0  0  0  0
  5  9  1  0  0  0  0
  5  6  1  0  0  0  0
  5 25  1  0  0  0  0
  6  7  1  0  0  0  0
  6 26  1  0  0  0  0
  6 27  1  0  0  0  0
  7  8  1  0  0  0  0
  7 28  1  0  0  0  0
  7 29  1  0  0  0  0
  8  9  1  0  0  0  0
  8 30  1  0  0  0  0
  8 31  1  0  0  0  0
  9 32  1  0  0  0  0
  9 33  1  0  0  0  0
 10 11  1  0  0  0  0
 10 34  1  0  0  0  0
 11 20  1  0  0  0  0
 11 12  2  0  0  0  0
 12 13  1  0  0  0  0
 12 35  1  0  0  0  0
 13 14  1  0  0  0  0
 13 18  2  0  0  0  0
 14 15  1  0  0  0  0
 14 16  1  0  0  0  0
 14 17  1  0  0  0  0
 18 19  1  0  0  0  0
 18 36  1  0  0  0  0
 19 22  1  0  0  0  0
 19 20  1  0  0  0  0
 20 21  2  0  0  0  0
M  END
> <s_m_source_file>
AV-unprocessed.smi

> <i_m_source_file_index>
1732

> <i_lp_mmshare_version>
43012

> <i_f3d_flags>
0

> <s_epik_input>
W0NIMl0xW0NIMl1bQ0gyXVtDSDJdW0NIXTFPW0NIMl1DKD1PKVtOSF1jMltjSF1jKEMoRikoRilGKVtjSF1bbkhdYzI9Tw==

> <s_epik_cmdline>
J2VwaWtfcHl0aG9uJywgJy1waCcsICc3LjAnLCAnLXRuJywgJzgnLCAnLW1hJywgJzIwMCcsICctbWV0YWxfYmluZGluZycsICctaW1hZScsICc8aW5maWxlLm1hZT4nLCAnLW9tYWUnLCAnPG91dGZpbGUubWFlPic=

> <r_lp_tautomer_probability>
0.999

> <r_epik_Ionization_Penalty>
0.0109735

> <r_epik_Ionization_Penalty_Charging>
0.0109734

> <r_epik_Ionization_Penalty_Neutral>
9.17026e-08

> <r_epik_State_Penalty>
0.0084206

> <r_epik_Charging_Adjusted_Penalty>
0.019394

> <i_epik_Tot_Q>
0

> <i_epik_Tot_abs_Q>
0

> <r_epik_Metal_State_Penalty>
0.328349

> <b_epik_Metal_Only>
0

> <s_lp_Force_Field>
OPLS_2005

> <r_lp_Energy>
36.3652

> <b_lp_Chiralities_Consistent>
1

> <s_lp_Variant>
AV-unprocessed.smi:1732-1

> <Gold.Version>
5.8.1

> <Gold.Id.Protein>
6NUR|6NUR_protein|mol2

> <Gold.PLP.Fitness>
48.4483

> <Gold.PLP.PLP>
-47.6394

> <Gold.PLP.part.hbond>
-1.8379

> <Gold.PLP.part.metal>
0.0000

> <Gold.PLP.part.buried>
-5.3234

> <Gold.PLP.part.nonpolar>
-40.2869

> <Gold.PLP.part.repulsive>
0.6297

> <Gold.PLP.ligand.clash>
0.6720

> <Gold.PLP.ligand.torsion>
2.2809

> <Gold.PLP.Chemscore.Hbond>
1.9913

> <Gold.PLP.Chemscore.CHOScore>
0.0000

> <Gold.PLP.Chemscore.Metal>
0.0000

> <Gold.Chemscore.Hbonds>
donor molecule, donor type, donor heavy atom, donor atom, acceptor molecule, acceptor atom, score
      P1  H  7989  7998       L1     4  0.99
      P1  H  7997  8008       L1     1  1.00

> <Gold.PLP.Chemscore.Internal.Correction>
0.0690

> <Gold.Rescore>
     Score         DG    S(hbond)    S(metal)    S(lipo)     H(rot)  DE(clash)    DE(int)     intcor
     13.68     -15.87       1.35        0.00      85.21       1.60       0.13       2.06       ----

> <Gold.Chemscore.Fitness>
13.6820

> <Gold.Chemscore.DG>
-15.8664

> <Gold.Chemscore.ZeroCoef>
-5.4800

> <Gold.Chemscore.Hbond>
1.3517

> <Gold.Chemscore.Metal>
0.0000

> <Gold.Chemscore.Lipo>
85.2126

> <Gold.Chemscore.Internal_Hbond>
0.0000

> <Gold.Chemscore.DEClash>
0.1272

> <Gold.Chemscore.DEInternal>
2.0572

> <Gold.Chemscore.Rot>
1.6009

> <Gold.Chemscore.Internal.Correction>
   9.000000E+99

> <Gold.Chemscore.Hbonds>
donor molecule, donor type, donor heavy atom, donor atom, acceptor molecule, acceptor atom, score
      P1  H  7989  7998       L1     4  0.62
      P1  H  7997  8008       L1     1  0.92

> <Gold.Chemscore.Hbond.Weighted>
-4.5148

> <Gold.Chemscore.Metal.Weighted>
-0.0000

> <Gold.Chemscore.Lipo.Weighted>
-9.9699

> <Gold.Chemscore.Internal_Hbond.Weighted>
0.0000

> <Gold.Chemscore.DEClash.Weighted>
0.1272

> <Gold.Chemscore.DEInternal.Weighted>
2.0572

> <Gold.Chemscore.Rot.Weighted>
4.0982

> <Gold.Chemscore.Internal.Correction.Weighted>
   9.000000E+99

> <Gold.Protein.RotatedTorsions>
[ 6907 6896 6895 6894 ] final  -37.20 input  -60.11 | X-H torsion
[ 7974 7965 7964 7962 ] final   53.42 input  175.53 | X-H torsion
[ 8008 7997 7996 7995 ] final  -12.97 input   59.86 | X-H torsion
[ 10167 10162 10161 10158 ] final  113.08 input  -65.29 | X-H torsion
[ 10718 10713 10712 10709 ] final  -90.16 input   66.30 | X-H torsion
[ 10763 10752 10751 10750 ] final  -34.55 input  -60.55 | X-H torsion
[ 11005 11000 10999 10996 ] final   54.34 input  -57.11 | X-H torsion

> <Gold.Protein.ActiveResidues>
 VAL166  LYS551  ARG553  GLY616  TRP617  ASP618  TYR619  PRO620  LYS621  CYS622 
 ASP623  PHE694  ASN695  SER759  ASP760  ASP761  ALA762  ILE779  LEU786  VAL792 
 PHE793  MET794  SER795  GLU796  ALA797  LYS798  CYS799  TRP800  GLU811  SER814 

> <Gold.Protein.RotatedAtoms>
  151.0176  134.9445  159.8041 H   0  0  0  0  0  0  0  0  0  0  0  0  # atno 6907 bound_to 6896
  152.5317  134.2946  159.9066 H   0  0  0  0  0  0  0  0  0  0  0  0  # atno 6908 bound_to 6896
  151.2953  133.4105  159.2670 H   0  0  0  0  0  0  0  0  0  0  0  0  # atno 6909 bound_to 6896
  145.9713  139.4152  143.0188 H   0  0  0  0  0  0  0  0  0  0  0  0  # atno 7974 bound_to 7965
  154.5332  140.2262  155.8768 H   0  0  0  0  0  0  0  0  0  0  0  0  # atno 8008 bound_to 7997
  156.1785  140.3105  155.9067 H   0  0  0  0  0  0  0  0  0  0  0  0  # atno 8009 bound_to 7997
  155.3408  140.0450  157.3035 H   0  0  0  0  0  0  0  0  0  0  0  0  # atno 8010 bound_to 7997
  139.6488  144.7127  151.2089 H   0  0  0  0  0  0  0  0  0  0  0  0  # atno 10167 bound_to 10162
  155.9986  130.4899  150.5280 H   0  0  0  0  0  0  0  0  0  0  0  0  # atno 10718 bound_to 10713
  153.8485  135.6851  153.4795 H   0  0  0  0  0  0  0  0  0  0  0  0  # atno 10763 bound_to 10752
  153.1411  135.4657  154.9495 H   0  0  0  0  0  0  0  0  0  0  0  0  # atno 10764 bound_to 10752
  154.7813  135.3270  154.7931 H   0  0  0  0  0  0  0  0  0  0  0  0  # atno 10765 bound_to 10752
  140.0694  134.5490  155.9063 H   0  0  0  0  0  0  0  0  0  0  0  0  # atno 11005 bound_to 11000
  145.7902  140.9818  143.1053 LP  0  0  0  0  0  0  0  0  0  0  0  0  # atno 17320 bound_to 7965
  144.6837  139.9673  143.7481 LP  0  0  0  0  0  0  0  0  0  0  0  0  # atno 17321 bound_to 7965
  140.7527  143.6185  150.8536 LP  0  0  0  0  0  0  0  0  0  0  0  0  # atno 17342 bound_to 10162
  139.9831  143.5929  152.2936 LP  0  0  0  0  0  0  0  0  0  0  0  0  # atno 17343 bound_to 10162
  157.3233  131.0686  151.1915 LP  0  0  0  0  0  0  0  0  0  0  0  0  # atno 17370 bound_to 10713
  157.2821  130.6755  149.6071 LP  0  0  0  0  0  0  0  0  0  0  0  0  # atno 17371 bound_to 10713
  141.2006  133.6613  156.5905 LP  0  0  0  0  0  0  0  0  0  0  0  0  # atno 17394 bound_to 11000
  140.3649  134.7655  157.4559 LP  0  0  0  0  0  0  0  0  0  0  0  0  # atno 17395 bound_to 11000

$$$$
