AV-unprocessed.smi:768|AV-procd|sdf|3673|dock3
  -GOLD-   22720 1 83D 1   1.00000     0.00000
 Structure written by MMmdl.
 48 49  0  0  0  0  0  0  0  0  1 V2000
  150.5602  130.4585  155.7185 C   0  0  0  0  0  0  0  0  0  0  0  0
  150.1192  131.8168  155.2023 C   0  0  0  0  0  0  0  0  0  0  0  0
  149.5926  131.9639  153.9671 C   0  0  0  0  0  0  0  0  0  0  0  0
  149.1710  133.2567  153.4850 C   0  0  0  0  0  0  0  0  0  0  0  0
  149.3173  134.3138  154.2963 C   0  0  0  0  0  0  0  0  0  0  0  0
  149.8646  134.1886  155.5866 N   0  0  0  0  0  0  0  0  0  0  0  0
  149.9695  135.4215  156.3897 C   0  0  0  0  0  0  0  0  0  0  0  0
  150.6863  136.5903  155.6909 C   0  0  0  0  0  0  0  0  0  0  0  0
  151.3350  136.3669  154.6699 O   0  0  0  0  0  0  0  0  0  0  0  0
  150.5848  137.8119  156.2411 N   0  0  0  0  0  0  0  0  0  0  0  0
  151.2767  139.0155  155.7934 C   0  0  0  0  0  0  0  0  0  0  0  0
  150.7500  140.2529  156.5381 C   0  0  0  0  0  0  0  0  0  0  0  0
  151.8574  141.0832  157.2043 C   0  0  0  0  0  0  0  0  0  0  0  0
  151.3223  142.3424  157.5830 O   0  0  0  0  0  0  0  0  0  0  0  0
  152.0290  142.9884  158.6348 C   0  0  0  0  0  0  0  0  0  0  0  0
  152.2324  142.0341  159.8313 C   0  0  0  0  0  0  0  0  0  0  0  0
  152.8703  142.7585  161.0276 C   0  0  0  0  0  0  0  0  0  0  0  0
  152.0486  143.9900  161.4392 C   0  0  0  0  0  0  0  0  0  0  0  0
  151.8446  144.9429  160.2510 C   0  0  0  0  0  0  0  0  0  0  0  0
  151.2017  144.2146  159.0595 C   0  0  0  0  0  0  0  0  0  0  0  0
  150.2756  132.9832  156.0913 C   0  0  0  0  0  0  0  0  0  0  0  0
  150.7429  132.8879  157.2276 O   0  0  0  0  0  0  0  0  0  0  0  0
  150.4387  129.6853  154.9593 H   0  0  0  0  0  0  0  0  0  0  0  0
  149.9678  130.1715  156.5869 H   0  0  0  0  0  0  0  0  0  0  0  0
  151.6108  130.4811  156.0100 H   0  0  0  0  0  0  0  0  0  0  0  0
  149.4800  131.1034  153.3240 H   0  0  0  0  0  0  0  0  0  0  0  0
  148.7462  133.3689  152.4984 H   0  0  0  0  0  0  0  0  0  0  0  0
  149.0216  135.3142  154.0150 H   0  0  0  0  0  0  0  0  0  0  0  0
  148.9754  135.7553  156.6933 H   0  0  0  0  0  0  0  0  0  0  0  0
  150.4933  135.2201  157.3251 H   0  0  0  0  0  0  0  0  0  0  0  0
  150.0203  137.9027  157.0734 H   0  0  0  0  0  0  0  0  0  0  0  0
  152.3558  138.9367  155.9336 H   0  0  0  0  0  0  0  0  0  0  0  0
  151.1085  139.1292  154.7224 H   0  0  0  0  0  0  0  0  0  0  0  0
  150.2014  140.8839  155.8379 H   0  0  0  0  0  0  0  0  0  0  0  0
  150.0292  139.9401  157.2945 H   0  0  0  0  0  0  0  0  0  0  0  0
  152.2425  140.5578  158.0774 H   0  0  0  0  0  0  0  0  0  0  0  0
  152.6887  141.2224  156.5119 H   0  0  0  0  0  0  0  0  0  0  0  0
  152.9976  143.3379  158.2717 H   0  0  0  0  0  0  0  0  0  0  0  0
  151.2709  141.6151  160.1310 H   0  0  0  0  0  0  0  0  0  0  0  0
  152.8639  141.1915  159.5524 H   0  0  0  0  0  0  0  0  0  0  0  0
  152.9606  142.0728  161.8706 H   0  0  0  0  0  0  0  0  0  0  0  0
  153.8844  143.0654  160.7686 H   0  0  0  0  0  0  0  0  0  0  0  0
  151.0783  143.6707  161.8222 H   0  0  0  0  0  0  0  0  0  0  0  0
  152.5463  144.5136  162.2558 H   0  0  0  0  0  0  0  0  0  0  0  0
  151.2205  145.7848  160.5523 H   0  0  0  0  0  0  0  0  0  0  0  0
  152.8051  145.3624  159.9485 H   0  0  0  0  0  0  0  0  0  0  0  0
  151.0983  144.9017  158.2192 H   0  0  0  0  0  0  0  0  0  0  0  0
  150.1919  143.9013  159.3280 H   0  0  0  0  0  0  0  0  0  0  0  0
  1  2  1  0  0  0  0
  1 23  1  0  0  0  0
  1 24  1  0  0  0  0
  1 25  1  0  0  0  0
  2 21  1  0  0  0  0
  2  3  2  0  0  0  0
  3  4  1  0  0  0  0
  3 26  1  0  0  0  0
  4  5  2  0  0  0  0
  4 27  1  0  0  0  0
  5  6  1  0  0  0  0
  5 28  1  0  0  0  0
  6  7  1  0  0  0  0
  6 21  1  0  0  0  0
  7  8  1  0  0  0  0
  7 29  1  0  0  0  0
  7 30  1  0  0  0  0
  8  9  2  0  0  0  0
  8 10  1  0  0  0  0
 10 11  1  0  0  0  0
 10 31  1  0  0  0  0
 11 12  1  0  0  0  0
 11 32  1  0  0  0  0
 11 33  1  0  0  0  0
 12 13  1  0  0  0  0
 12 34  1  0  0  0  0
 12 35  1  0  0  0  0
 13 14  1  0  0  0  0
 13 36  1  0  0  0  0
 13 37  1  0  0  0  0
 14 15  1  0  0  0  0
 15 20  1  0  0  0  0
 15 16  1  0  0  0  0
 15 38  1  0  0  0  0
 16 17  1  0  0  0  0
 16 39  1  0  0  0  0
 16 40  1  0  0  0  0
 17 18  1  0  0  0  0
 17 41  1  0  0  0  0
 17 42  1  0  0  0  0
 18 19  1  0  0  0  0
 18 43  1  0  0  0  0
 18 44  1  0  0  0  0
 19 20  1  0  0  0  0
 19 45  1  0  0  0  0
 19 46  1  0  0  0  0
 20 47  1  0  0  0  0
 20 48  1  0  0  0  0
 21 22  2  0  0  0  0
M  END
> <s_m_source_file>
AV-unprocessed.smi

> <i_m_source_file_index>
768

> <i_lp_mmshare_version>
43012

> <i_f3d_flags>
0

> <s_epik_input>
W0NIM11jMVtjSF1bY0hdW2NIXW4oYzE9TylbQ0gyXUMoPU8pW05IXVtDSDJdW0NIMl1bQ0gyXU9bQ0hdMltDSDJdW0NIMl1bQ0gyXVtDSDJdW0NIMl0y

> <s_epik_cmdline>
J2VwaWtfcHl0aG9uJywgJy1waCcsICc3LjAnLCAnLXRuJywgJzgnLCAnLW1hJywgJzIwMCcsICctbWV0YWxfYmluZGluZycsICctaW1hZScsICc8aW5maWxlLm1hZT4nLCAnLW9tYWUnLCAnPG91dGZpbGUubWFlPic=

> <r_lp_tautomer_probability>
1

> <r_epik_Ionization_Penalty>
7.81262e-07

> <r_epik_Ionization_Penalty_Charging>
7.6198e-07

> <r_epik_Ionization_Penalty_Neutral>
1.92812e-08

> <r_epik_State_Penalty>
-0

> <r_epik_Charging_Adjusted_Penalty>
7.6198e-07

> <i_epik_Tot_Q>
0

> <i_epik_Tot_abs_Q>
0

> <r_epik_Metal_State_Penalty>
-0

> <b_epik_Metal_Only>
0

> <s_lp_Force_Field>
OPLS_2005

> <r_lp_Energy>
20.2971

> <b_lp_Chiralities_Consistent>
1

> <s_lp_Variant>
AV-unprocessed.smi:768-1

> <Gold.Version>
5.8.1

> <Gold.Id.Protein>
6NUR|6NUR_protein|mol2

> <Gold.PLP.Fitness>
52.8052

> <Gold.PLP.PLP>
-45.5979

> <Gold.PLP.part.hbond>
-2.0000

> <Gold.PLP.part.metal>
0.0000

> <Gold.PLP.part.buried>
-6.1737

> <Gold.PLP.part.nonpolar>
-37.4767

> <Gold.PLP.part.repulsive>
0.2450

> <Gold.PLP.ligand.clash>
0.0000

> <Gold.PLP.ligand.torsion>
0.8249

> <Gold.PLP.Chemscore.Hbond>
2.0000

> <Gold.PLP.Chemscore.CHOScore>
0.9191

> <Gold.PLP.Chemscore.Metal>
0.0000

> <Gold.Chemscore.Hbonds>
donor molecule, donor type, donor heavy atom, donor atom, acceptor molecule, acceptor atom, score
      P1  H  6896  6908       L1    22  0.84
      P1  H 10752 10763       L1     9  1.00
      L1  C     5    28       P1  7948  0.93

> <Gold.PLP.Chemscore.Internal.Correction>
0.0999

> <Gold.Rescore>
     Score         DG    S(hbond)    S(metal)    S(lipo)     H(rot)  DE(clash)    DE(int)     intcor
     18.59     -20.54       1.96        0.00     115.87       1.97       0.02       1.93       ----

> <Gold.Chemscore.Fitness>
18.5917

> <Gold.Chemscore.DG>
-20.5390

> <Gold.Chemscore.ZeroCoef>
-5.4800

> <Gold.Chemscore.Hbond>
1.9576

> <Gold.Chemscore.Metal>
0.0000

> <Gold.Chemscore.Lipo>
115.8684

> <Gold.Chemscore.Internal_Hbond>
0.0000

> <Gold.Chemscore.DEClash>
0.0174

> <Gold.Chemscore.DEInternal>
1.9300

> <Gold.Chemscore.Rot>
1.9671

> <Gold.Chemscore.Internal.Correction>
   9.000000E+99

> <Gold.Chemscore.Hbonds>
donor molecule, donor type, donor heavy atom, donor atom, acceptor molecule, acceptor atom, score
      P1  H  6896  6908       L1    22  0.82
      P1  H 10752 10763       L1     9  1.00

> <Gold.Chemscore.Hbond.Weighted>
-6.5383

> <Gold.Chemscore.Metal.Weighted>
-0.0000

> <Gold.Chemscore.Lipo.Weighted>
-13.5566

> <Gold.Chemscore.Internal_Hbond.Weighted>
0.0000

> <Gold.Chemscore.DEClash.Weighted>
0.0174

> <Gold.Chemscore.DEInternal.Weighted>
1.9300

> <Gold.Chemscore.Rot.Weighted>
5.0359

> <Gold.Chemscore.Internal.Correction.Weighted>
   9.000000E+99

> <Gold.Protein.RotatedTorsions>
[ 6907 6896 6895 6894 ] final   94.94 input  -60.11 | X-H torsion
[ 7974 7965 7964 7962 ] final   92.54 input  175.53 | X-H torsion
[ 8008 7997 7996 7995 ] final   63.10 input   59.86 | X-H torsion
[ 10167 10162 10161 10158 ] final  -16.82 input  -65.29 | X-H torsion
[ 10718 10713 10712 10709 ] final -139.33 input   66.30 | X-H torsion
[ 10763 10752 10751 10750 ] final   56.87 input  -60.55 | X-H torsion
[ 11005 11000 10999 10996 ] final -130.76 input  -57.11 | X-H torsion

> <Gold.Protein.ActiveResidues>
 VAL166  LYS551  ARG553  GLY616  TRP617  ASP618  TYR619  PRO620  LYS621  CYS622 
 ASP623  PHE694  ASN695  SER759  ASP760  ASP761  ALA762  ILE779  LEU786  VAL792 
 PHE793  MET794  SER795  GLU796  ALA797  LYS798  CYS799  TRP800  GLU811  SER814 

> <Gold.Protein.RotatedAtoms>
  152.5447  134.1117  159.8360 H   0  0  0  0  0  0  0  0  0  0  0  0  # atno 6907 bound_to 6896
  151.1182  133.5116  159.2610 H   0  0  0  0  0  0  0  0  0  0  0  0  # atno 6908 bound_to 6896
  151.1808  135.0369  159.8846 H   0  0  0  0  0  0  0  0  0  0  0  0  # atno 6909 bound_to 6896
  145.4909  139.2276  143.2830 H   0  0  0  0  0  0  0  0  0  0  0  0  # atno 7974 bound_to 7965
  155.6249  140.3496  155.4664 H   0  0  0  0  0  0  0  0  0  0  0  0  # atno 8008 bound_to 7997
  156.0049  140.1221  157.0534 H   0  0  0  0  0  0  0  0  0  0  0  0  # atno 8009 bound_to 7997
  154.4261  140.1093  156.5735 H   0  0  0  0  0  0  0  0  0  0  0  0  # atno 8010 bound_to 7997
  140.7239  143.5078  150.9788 H   0  0  0  0  0  0  0  0  0  0  0  0  # atno 10167 bound_to 10162
  156.3096  130.7474  151.1546 H   0  0  0  0  0  0  0  0  0  0  0  0  # atno 10718 bound_to 10713
  152.9839  135.5661  154.5298 H   0  0  0  0  0  0  0  0  0  0  0  0  # atno 10763 bound_to 10752
  154.4772  135.2787  155.1600 H   0  0  0  0  0  0  0  0  0  0  0  0  # atno 10764 bound_to 10752
  154.3124  135.6285  153.5524 H   0  0  0  0  0  0  0  0  0  0  0  0  # atno 10765 bound_to 10752
  140.9318  134.1309  157.4228 H   0  0  0  0  0  0  0  0  0  0  0  0  # atno 11005 bound_to 11000
  146.2284  140.5703  142.8986 LP  0  0  0  0  0  0  0  0  0  0  0  0  # atno 17320 bound_to 7965
  144.7834  140.5887  143.6590 LP  0  0  0  0  0  0  0  0  0  0  0  0  # atno 17321 bound_to 7965
  139.8790  143.7096  152.3159 LP  0  0  0  0  0  0  0  0  0  0  0  0  # atno 17342 bound_to 10162
  139.7372  144.7568  151.0710 LP  0  0  0  0  0  0  0  0  0  0  0  0  # atno 17343 bound_to 10162
  157.7388  131.0537  150.5274 LP  0  0  0  0  0  0  0  0  0  0  0  0  # atno 17370 bound_to 10713
  156.5412  130.4208  149.6153 LP  0  0  0  0  0  0  0  0  0  0  0  0  # atno 17371 bound_to 10713
  139.8798  135.0007  156.6028 LP  0  0  0  0  0  0  0  0  0  0  0  0  # atno 17394 bound_to 11000
  140.7852  133.8627  155.8600 LP  0  0  0  0  0  0  0  0  0  0  0  0  # atno 17395 bound_to 11000

$$$$
