AV-unprocessed.smi:793|AV-procd|sdf|3754|dock8
  -GOLD-   22720 1183D 1   1.00000     0.00000
 Structure written by MMmdl.
 38 39  0  0  0  0  0  0  0  0  2 V2000
  148.0813  141.6092  154.1287 C   0  0  0  0  0  0  0  0  0  0  0  0
  148.3801  141.7300  155.6282 C   0  0  0  0  0  0  0  0  0  0  0  0
  149.8363  141.3666  155.9755 C   0  0  2  0  0  0  0  0  0  0  0  0
  149.9796  139.9523  155.8295 O   0  0  0  0  0  0  0  0  0  0  0  0
  150.9983  139.4887  154.9446 C   0  0  0  0  0  0  0  0  0  0  0  0
  150.9719  137.9746  154.7151 C   0  0  0  0  0  0  0  0  0  0  0  0
  152.4045  137.6113  154.3097 C   0  0  0  0  0  0  0  0  0  0  0  0
  153.3031  138.7382  154.8439 C   0  0  0  0  0  0  0  0  0  0  0  0
  152.3744  139.7207  155.5655 C   0  0  0  0  0  0  0  0  0  0  0  0
  150.2039  141.7995  157.4050 C   0  0  0  0  0  0  0  0  0  0  0  0
  149.3409  142.2734  158.1445 O   0  0  0  0  0  0  0  0  0  0  0  0
  151.4851  141.5921  157.7581 N   0  0  0  0  0  0  0  0  0  0  0  0
  152.1160  141.8352  159.0085 C   0  0  0  0  0  0  0  0  0  0  0  0
  151.7856  142.9246  159.8526 C   0  0  0  0  0  0  0  0  0  0  0  0
  152.3982  143.1677  161.0314 N   0  0  0  0  0  0  0  0  0  0  0  0
  153.3808  142.3269  161.4175 C   0  0  0  0  0  0  0  0  0  0  0  0
  153.8011  141.2230  160.6507 C   0  0  0  0  0  0  0  0  0  0  0  0
  153.1607  140.9750  159.4212 C   0  0  0  0  0  0  0  0  0  0  0  0
  153.5544  139.9109  158.6567 O   0  5  0  0  0  0  0  0  0  0  0  0
  147.0468  141.8789  153.9163 H   0  0  0  0  0  0  0  0  0  0  0  0
  148.2388  140.5898  153.7753 H   0  0  0  0  0  0  0  0  0  0  0  0
  148.7237  142.2690  153.5449 H   0  0  0  0  0  0  0  0  0  0  0  0
  148.1700  142.7533  155.9429 H   0  0  0  0  0  0  0  0  0  0  0  0
  147.6932  141.0907  156.1843 H   0  0  0  0  0  0  0  0  0  0  0  0
  150.4890  141.8820  155.2691 H   0  0  0  0  0  0  0  0  0  0  0  0
  150.9652  140.0086  153.9862 H   0  0  0  0  0  0  0  0  0  0  0  0
  150.7182  137.4672  155.6469 H   0  0  0  0  0  0  0  0  0  0  0  0
  150.2408  137.6756  153.9634 H   0  0  0  0  0  0  0  0  0  0  0  0
  152.6933  136.6368  154.7046 H   0  0  0  0  0  0  0  0  0  0  0  0
  152.4850  137.5598  153.2231 H   0  0  0  0  0  0  0  0  0  0  0  0
  154.0796  138.3612  155.5101 H   0  0  0  0  0  0  0  0  0  0  0  0
  153.8010  139.2366  154.0113 H   0  0  0  0  0  0  0  0  0  0  0  0
  152.7053  140.7557  155.4761 H   0  0  0  0  0  0  0  0  0  0  0  0
  152.3435  139.4746  156.6278 H   0  0  0  0  0  0  0  0  0  0  0  0
  152.0589  141.1089  157.0818 H   0  0  0  0  0  0  0  0  0  0  0  0
  151.0284  143.6438  159.5819 H   0  0  0  0  0  0  0  0  0  0  0  0
  153.8514  142.5440  162.3649 H   0  0  0  0  0  0  0  0  0  0  0  0
  154.5980  140.5831  161.0006 H   0  0  0  0  0  0  0  0  0  0  0  0
  1  2  1  0  0  0  0
  1 20  1  0  0  0  0
  1 21  1  0  0  0  0
  1 22  1  0  0  0  0
  2  3  1  0  0  0  0
  2 23  1  0  0  0  0
  2 24  1  0  0  0  0
  3  4  1  0  0  0  0
  3 10  1  0  0  0  0
  3 25  1  0  0  0  0
  4  5  1  0  0  0  0
  5  9  1  0  0  0  0
  5  6  1  0  0  0  0
  5 26  1  0  0  0  0
  6  7  1  0  0  0  0
  6 27  1  0  0  0  0
  6 28  1  0  0  0  0
  7  8  1  0  0  0  0
  7 29  1  0  0  0  0
  7 30  1  0  0  0  0
  8  9  1  0  0  0  0
  8 31  1  0  0  0  0
  8 32  1  0  0  0  0
  9 33  1  0  0  0  0
  9 34  1  0  0  0  0
 10 11  2  0  0  0  0
 10 12  1  0  0  0  0
 12 35  1  0  0  0  0
 12 13  1  0  0  0  0
 13 18  1  0  0  0  0
 13 14  2  0  0  0  0
 14 36  1  0  0  0  0
 14 15  1  0  0  0  0
 15 16  2  0  0  0  0
 16 37  1  0  0  0  0
 16 17  1  0  0  0  0
 17 18  2  0  0  0  0
 17 38  1  0  0  0  0
 18 19  1  0  0  0  0
M  CHG  1  19  -1
M  END
> <s_m_source_file>
AV-unprocessed.smi

> <i_m_source_file_index>
793

> <i_lp_mmshare_version>
43012

> <i_f3d_flags>
0

> <s_epik_input>
W0NIMl0xW0NIMl1bQ0gyXVtDSDJdW0NIXTFPW0NAQEhdKFtDSDJdW0NIM10pQyg9TylbTkhdYzJbY0hdbltjSF1bY0hdYzJbT0hd

> <s_epik_cmdline>
J2VwaWtfcHl0aG9uJywgJy1waCcsICc3LjAnLCAnLXRuJywgJzgnLCAnLW1hJywgJzIwMCcsICctbWV0YWxfYmluZGluZycsICctaW1hZScsICc8aW5maWxlLm1hZT4nLCAnLW9tYWUnLCAnPG91dGZpbGUubWFlPic=

> <r_lp_tautomer_probability>
1

> <r_epik_Ionization_Penalty>
5.91611

> <r_epik_Ionization_Penalty_Charging>
1.01889

> <r_epik_Ionization_Penalty_Neutral>
4.89722

> <r_epik_State_Penalty>
4.89706

> <r_epik_Charging_Adjusted_Penalty>
5.91595

> <i_epik_Tot_Q>
-1

> <i_epik_Tot_abs_Q>
1

> <r_epik_Metal_State_Penalty>
1.05012

> <b_epik_Metal_Only>
1

> <s_lp_Force_Field>
OPLS_2005

> <r_lp_Energy>
28.2146

> <b_lp_Chiralities_Consistent>
1

> <s_lp_Variant>
AV-unprocessed.smi:793-3

> <Gold.Version>
5.8.1

> <Gold.Id.Protein>
6NUR|6NUR_protein|mol2

> <Gold.PLP.Fitness>
40.5844

> <Gold.PLP.PLP>
-36.8169

> <Gold.PLP.part.hbond>
-1.0000

> <Gold.PLP.part.metal>
0.0000

> <Gold.PLP.part.buried>
0.9914

> <Gold.PLP.part.nonpolar>
-36.5630

> <Gold.PLP.part.repulsive>
0.2901

> <Gold.PLP.ligand.clash>
0.0000

> <Gold.PLP.ligand.torsion>
1.1419

> <Gold.PLP.Chemscore.Hbond>
2.0000

> <Gold.PLP.Chemscore.CHOScore>
0.0000

> <Gold.PLP.Chemscore.Metal>
0.0000

> <Gold.Chemscore.Hbonds>
donor molecule, donor type, donor heavy atom, donor atom, acceptor molecule, acceptor atom, score
      P1  H  7997  8008       L1    19  1.89

> <Gold.PLP.Chemscore.Internal.Correction>
0.0513

> <Gold.Rescore>
     Score         DG    S(hbond)    S(metal)    S(lipo)     H(rot)  DE(clash)    DE(int)     intcor
     14.56     -17.43       0.96        0.00     107.31       1.49       0.86       2.00       ----

> <Gold.Chemscore.Fitness>
14.5602

> <Gold.Chemscore.DG>
-17.4276

> <Gold.Chemscore.ZeroCoef>
-5.4800

> <Gold.Chemscore.Hbond>
0.9626

> <Gold.Chemscore.Metal>
0.0000

> <Gold.Chemscore.Lipo>
107.3091

> <Gold.Chemscore.Internal_Hbond>
0.0000

> <Gold.Chemscore.DEClash>
0.8644

> <Gold.Chemscore.DEInternal>
2.0030

> <Gold.Chemscore.Rot>
1.4932

> <Gold.Chemscore.Internal.Correction>
   9.000000E+99

> <Gold.Chemscore.Hbonds>
donor molecule, donor type, donor heavy atom, donor atom, acceptor molecule, acceptor atom, score
      P1  H  7997  8008       L1    19  0.89

> <Gold.Chemscore.Hbond.Weighted>
-3.2150

> <Gold.Chemscore.Metal.Weighted>
-0.0000

> <Gold.Chemscore.Lipo.Weighted>
-12.5552

> <Gold.Chemscore.Internal_Hbond.Weighted>
0.0000

> <Gold.Chemscore.DEClash.Weighted>
0.8644

> <Gold.Chemscore.DEInternal.Weighted>
2.0030

> <Gold.Chemscore.Rot.Weighted>
3.8226

> <Gold.Chemscore.Internal.Correction.Weighted>
   9.000000E+99

> <Gold.Protein.RotatedTorsions>
[ 6907 6896 6895 6894 ] final  -10.01 input  -60.11 | X-H torsion
[ 7974 7965 7964 7962 ] final  103.91 input  175.53 | X-H torsion
[ 8008 7997 7996 7995 ] final  -80.53 input   59.86 | X-H torsion
[ 10167 10162 10161 10158 ] final   12.90 input  -65.29 | X-H torsion
[ 10718 10713 10712 10709 ] final  177.44 input   66.30 | X-H torsion
[ 10763 10752 10751 10750 ] final -134.28 input  -60.55 | X-H torsion
[ 11005 11000 10999 10996 ] final -102.40 input  -57.11 | X-H torsion

> <Gold.Protein.ActiveResidues>
 VAL166  LYS551  ARG553  GLY616  TRP617  ASP618  TYR619  PRO620  LYS621  CYS622 
 ASP623  PHE694  ASN695  SER759  ASP760  ASP761  ALA762  ILE779  LEU786  VAL792 
 PHE793  MET794  SER795  GLU796  ALA797  LYS798  CYS799  TRP800  GLU811  SER814 

> <Gold.Protein.RotatedAtoms>
  151.4088  135.0982  159.9578 H   0  0  0  0  0  0  0  0  0  0  0  0  # atno 6907 bound_to 6896
  152.5027  133.8818  159.7360 H   0  0  0  0  0  0  0  0  0  0  0  0  # atno 6908 bound_to 6896
  150.9308  133.6712  159.2839 H   0  0  0  0  0  0  0  0  0  0  0  0  # atno 6909 bound_to 6896
  145.3397  139.2465  143.3616 H   0  0  0  0  0  0  0  0  0  0  0  0  # atno 7974 bound_to 7965
  154.5892  140.0661  156.9215 H   0  0  0  0  0  0  0  0  0  0  0  0  # atno 8008 bound_to 7997
  155.2325  140.3338  155.4283 H   0  0  0  0  0  0  0  0  0  0  0  0  # atno 8009 bound_to 7997
  156.2244  140.1813  156.7383 H   0  0  0  0  0  0  0  0  0  0  0  0  # atno 8010 bound_to 7997
  140.6037  143.8551  150.6992 H   0  0  0  0  0  0  0  0  0  0  0  0  # atno 10167 bound_to 10162
  156.9054  130.9892  151.3029 H   0  0  0  0  0  0  0  0  0  0  0  0  # atno 10718 bound_to 10713
  154.8721  135.3739  154.4709 H   0  0  0  0  0  0  0  0  0  0  0  0  # atno 10763 bound_to 10752
  153.5370  135.7027  153.5660 H   0  0  0  0  0  0  0  0  0  0  0  0  # atno 10764 bound_to 10752
  153.3839  135.3989  155.1841 H   0  0  0  0  0  0  0  0  0  0  0  0  # atno 10765 bound_to 10752
  141.1191  133.8555  157.1355 H   0  0  0  0  0  0  0  0  0  0  0  0  # atno 11005 bound_to 11000
  146.3012  140.3992  142.8703 LP  0  0  0  0  0  0  0  0  0  0  0  0  # atno 17320 bound_to 7965
  144.8800  140.7387  143.5993 LP  0  0  0  0  0  0  0  0  0  0  0  0  # atno 17321 bound_to 7965
  140.2103  143.3889  152.1723 LP  0  0  0  0  0  0  0  0  0  0  0  0  # atno 17342 bound_to 10162
  139.5310  144.7158  151.5058 LP  0  0  0  0  0  0  0  0  0  0  0  0  # atno 17343 bound_to 10162
  157.6000  130.8506  149.8788 LP  0  0  0  0  0  0  0  0  0  0  0  0  # atno 17370 bound_to 10713
  156.0562  130.3708  150.1087 LP  0  0  0  0  0  0  0  0  0  0  0  0  # atno 17371 bound_to 10713
  140.0134  134.9978  157.0442 LP  0  0  0  0  0  0  0  0  0  0  0  0  # atno 17394 bound_to 11000
  140.4561  134.1532  155.7186 LP  0  0  0  0  0  0  0  0  0  0  0  0  # atno 17395 bound_to 11000

$$$$
