AV-unprocessed.smi:2558|AV-procd|sdf|10032|dock3
  -GOLD-   2272014 73D 1   1.00000     0.00000
 Structure written by MMmdl.
 43 44  0  0  0  0  0  0  0  0  1 V2000
  150.2319  138.6907  154.0221 C   0  0  0  0  0  0  0  0  0  0  0  0
  151.6841  138.5038  155.1372 S   0  0  0  0  0  0  0  0  0  0  0  0
  152.3580  137.2370  154.8101 O   0  0  0  0  0  0  0  0  0  0  0  0
  152.4573  139.7551  155.1035 O   0  0  0  0  0  0  0  0  0  0  0  0
  150.9310  138.3648  156.7146 N   0  0  0  0  0  0  0  0  0  0  0  0
  150.4045  137.1507  157.2243 C   0  0  0  0  0  0  0  0  0  0  0  0
  150.8229  136.0602  156.8288 O   0  0  0  0  0  0  0  0  0  0  0  0
  149.5174  137.2930  158.2320 N   0  0  0  0  0  0  0  0  0  0  0  0
  148.9044  136.3280  158.9444 C   0  0  0  0  0  0  0  0  0  0  0  0
  149.0882  135.1177  158.8040 O   0  0  0  0  0  0  0  0  0  0  0  0
  148.0737  136.8774  159.8483 N   0  0  0  0  0  0  0  0  0  0  0  0
  147.2446  136.2343  160.8074 C   0  0  0  0  0  0  0  0  0  0  0  0
  147.6243  134.9485  161.2448 C   0  0  0  0  0  0  0  0  0  0  0  0
  146.8341  134.2873  162.2036 C   0  0  0  0  0  0  0  0  0  0  0  0
  145.6914  134.9451  162.6976 C   0  0  0  0  0  0  0  0  0  0  0  0
  145.3211  136.1812  162.3026 N   0  0  0  0  0  0  0  0  0  0  0  0
  146.0833  136.8097  161.3816 C   0  0  0  0  0  0  0  0  0  0  0  0
  150.7243  139.6408  157.4571 C   0  0  0  0  0  0  0  0  0  0  0  0
  149.8892  140.6616  156.6549 C   0  0  0  0  0  0  0  0  0  0  0  0
  149.6149  141.9204  157.4943 C   0  0  0  0  0  0  0  0  0  0  0  0
  150.9209  142.5364  158.0252 C   0  0  0  0  0  0  0  0  0  0  0  0
  151.7383  141.5141  158.8338 C   0  0  0  0  0  0  0  0  0  0  0  0
  152.0348  140.2551  158.0030 C   0  0  0  0  0  0  0  0  0  0  0  0
  150.5766  138.7947  152.9936 H   0  0  0  0  0  0  0  0  0  0  0  0
  149.6676  139.5793  154.3043 H   0  0  0  0  0  0  0  0  0  0  0  0
  149.5901  137.8139  154.1013 H   0  0  0  0  0  0  0  0  0  0  0  0
  149.2727  138.2423  158.4712 H   0  0  0  0  0  0  0  0  0  0  0  0
  148.0729  137.8859  159.8898 H   0  0  0  0  0  0  0  0  0  0  0  0
  148.5085  134.4702  160.8488 H   0  0  0  0  0  0  0  0  0  0  0  0
  147.0975  133.2996  162.5521 H   0  0  0  0  0  0  0  0  0  0  0  0
  145.0613  134.4678  163.4334 H   0  0  0  0  0  0  0  0  0  0  0  0
  145.7477  137.8024  161.1272 H   0  0  0  0  0  0  0  0  0  0  0  0
  150.1373  139.4105  158.3459 H   0  0  0  0  0  0  0  0  0  0  0  0
  150.4035  140.9557  155.7408 H   0  0  0  0  0  0  0  0  0  0  0  0
  148.9445  140.2119  156.3476 H   0  0  0  0  0  0  0  0  0  0  0  0
  149.0741  142.6542  156.8962 H   0  0  0  0  0  0  0  0  0  0  0  0
  148.9645  141.6663  158.3321 H   0  0  0  0  0  0  0  0  0  0  0  0
  151.5181  142.9018  157.1888 H   0  0  0  0  0  0  0  0  0  0  0  0
  150.6954  143.4041  158.6459 H   0  0  0  0  0  0  0  0  0  0  0  0
  152.6724  141.9658  159.1687 H   0  0  0  0  0  0  0  0  0  0  0  0
  151.1889  141.2380  159.7349 H   0  0  0  0  0  0  0  0  0  0  0  0
  152.5647  139.5252  158.6160 H   0  0  0  0  0  0  0  0  0  0  0  0
  152.7099  140.5294  157.1927 H   0  0  0  0  0  0  0  0  0  0  0  0
  1  2  1  0  0  0  0
  1 24  1  0  0  0  0
  1 25  1  0  0  0  0
  1 26  1  0  0  0  0
  2  3  2  0  0  0  0
  2  4  2  0  0  0  0
  2  5  1  0  0  0  0
  5  6  1  0  0  0  0
  5 18  1  0  0  0  0
  6  7  2  0  0  0  0
  6  8  1  0  0  0  0
  8  9  1  0  0  0  0
  8 27  1  0  0  0  0
  9 10  2  0  0  0  0
  9 11  1  0  0  0  0
 11 12  1  0  0  0  0
 11 28  1  0  0  0  0
 12 17  1  0  0  0  0
 12 13  2  0  0  0  0
 13 14  1  0  0  0  0
 13 29  1  0  0  0  0
 14 15  2  0  0  0  0
 14 30  1  0  0  0  0
 15 16  1  0  0  0  0
 15 31  1  0  0  0  0
 16 17  2  0  0  0  0
 17 32  1  0  0  0  0
 18 23  1  0  0  0  0
 18 19  1  0  0  0  0
 18 33  1  0  0  0  0
 19 20  1  0  0  0  0
 19 34  1  0  0  0  0
 19 35  1  0  0  0  0
 20 21  1  0  0  0  0
 20 36  1  0  0  0  0
 20 37  1  0  0  0  0
 21 22  1  0  0  0  0
 21 38  1  0  0  0  0
 21 39  1  0  0  0  0
 22 23  1  0  0  0  0
 22 40  1  0  0  0  0
 22 41  1  0  0  0  0
 23 42  1  0  0  0  0
 23 43  1  0  0  0  0
M  END
> <s_m_source_file>
AV-unprocessed.smi

> <i_m_source_file_index>
2558

> <i_lp_mmshare_version>
43012

> <i_f3d_flags>
0

> <s_epik_input>
W0NIMl0xW0NIMl1bQ0gyXVtDSDJdW0NIMl1bQ0hdMU4oUyg9TykoPU8pW0NIM10pQyg9TylbTkhdQyg9TylbTkhdYzJbY0hdW2NIXVtjSF1uW2NIXTI=

> <s_epik_cmdline>
J2VwaWtfcHl0aG9uJywgJy1waCcsICc3LjAnLCAnLXRuJywgJzgnLCAnLW1hJywgJzIwMCcsICctbWV0YWxfYmluZGluZycsICctaW1hZScsICc8aW5maWxlLm1hZT4nLCAnLW9tYWUnLCAnPG91dGZpbGUubWFlPic=

> <r_epik_Ionization_Penalty>
0.00647128

> <r_epik_Ionization_Penalty_Charging>
0

> <r_epik_Ionization_Penalty_Neutral>
0.00647128

> <r_epik_State_Penalty>
0.00476147

> <r_epik_Charging_Adjusted_Penalty>
0.00476147

> <i_epik_Tot_Q>
0

> <i_epik_Tot_abs_Q>
0

> <r_epik_Metal_State_Penalty>
0.0176635

> <b_epik_Metal_Only>
0

> <s_lp_Force_Field>
OPLS_2005

> <r_lp_Energy>
21.3267

> <b_lp_Chiralities_Consistent>
1

> <s_lp_Variant>
AV-unprocessed.smi:2558-1

> <Gold.Version>
5.8.1

> <Gold.Id.Protein>
6NUR|6NUR_protein|mol2

> <Gold.PLP.Fitness>
43.0022

> <Gold.PLP.PLP>
-34.5865

> <Gold.PLP.part.hbond>
-3.8463

> <Gold.PLP.part.metal>
0.0000

> <Gold.PLP.part.buried>
-6.3514

> <Gold.PLP.part.nonpolar>
-25.4938

> <Gold.PLP.part.repulsive>
0.4252

> <Gold.PLP.ligand.clash>
0.0000

> <Gold.PLP.ligand.torsion>
1.3907

> <Gold.PLP.Chemscore.Hbond>
3.0144

> <Gold.PLP.Chemscore.CHOScore>
0.0000

> <Gold.PLP.Chemscore.Metal>
0.0000

> <Gold.Chemscore.Hbonds>
donor molecule, donor type, donor heavy atom, donor atom, acceptor molecule, acceptor atom, score
      P1  H  6896  6909       L1    10  1.00
      P1  H  7989  7998       L1     4  0.54
      P1  H  7997  8010       L1     4  0.63
      P1  H 10752 10763       L1     3  0.70

> <Gold.PLP.Chemscore.Internal.Correction>
2.1540

> <Gold.Rescore>
     Score         DG    S(hbond)    S(metal)    S(lipo)     H(rot)  DE(clash)    DE(int)     intcor
     16.47     -21.75       2.74        0.00      82.62       1.00       0.01       5.27       ----

> <Gold.Chemscore.Fitness>
16.4708

> <Gold.Chemscore.DG>
-21.7531

> <Gold.Chemscore.ZeroCoef>
-5.4800

> <Gold.Chemscore.Hbond>
2.7446

> <Gold.Chemscore.Metal>
0.0000

> <Gold.Chemscore.Lipo>
82.6164

> <Gold.Chemscore.Internal_Hbond>
0.0000

> <Gold.Chemscore.DEClash>
0.0082

> <Gold.Chemscore.DEInternal>
5.2741

> <Gold.Chemscore.Rot>
1.0000

> <Gold.Chemscore.Internal.Correction>
   9.000000E+99

> <Gold.Chemscore.Hbonds>
donor molecule, donor type, donor heavy atom, donor atom, acceptor molecule, acceptor atom, score
      P1  H  6896  6909       L1    10  0.97
      P1  H  7989  7998       L1     4  0.30
      P1  H  7997  8010       L1     4  0.63
      P1  H 10752 10763       L1     3  0.70

> <Gold.Chemscore.Hbond.Weighted>
-9.1670

> <Gold.Chemscore.Metal.Weighted>
-0.0000

> <Gold.Chemscore.Lipo.Weighted>
-9.6661

> <Gold.Chemscore.Internal_Hbond.Weighted>
0.0000

> <Gold.Chemscore.DEClash.Weighted>
0.0082

> <Gold.Chemscore.DEInternal.Weighted>
5.2741

> <Gold.Chemscore.Rot.Weighted>
2.5600

> <Gold.Chemscore.Internal.Correction.Weighted>
   9.000000E+99

> <Gold.Protein.RotatedTorsions>
[ 6907 6896 6895 6894 ] final   36.11 input  -60.11 | X-H torsion
[ 7974 7965 7964 7962 ] final  -83.83 input  175.53 | X-H torsion
[ 8008 7997 7996 7995 ] final   97.03 input   59.86 | X-H torsion
[ 10167 10162 10161 10158 ] final   67.54 input  -65.29 | X-H torsion
[ 10718 10713 10712 10709 ] final -146.81 input   66.30 | X-H torsion
[ 10763 10752 10751 10750 ] final   55.78 input  -60.55 | X-H torsion
[ 11005 11000 10999 10996 ] final  -66.08 input  -57.11 | X-H torsion

> <Gold.Protein.ActiveResidues>
 VAL166  LYS551  ARG553  GLY616  TRP617  ASP618  TYR619  PRO620  LYS621  CYS622 
 ASP623  PHE694  ASN695  SER759  ASP760  ASP761  ALA762  ILE779  LEU786  VAL792 
 PHE793  MET794  SER795  GLU796  ALA797  LYS798  CYS799  TRP800  GLU811  SER814 

> <Gold.Protein.RotatedAtoms>
  152.1252  134.9176  160.0561 H   0  0  0  0  0  0  0  0  0  0  0  0  # atno 6907 bound_to 6896
  152.0301  133.3929  159.4302 H   0  0  0  0  0  0  0  0  0  0  0  0  # atno 6908 bound_to 6896
  150.6852  134.3451  159.4928 H   0  0  0  0  0  0  0  0  0  0  0  0  # atno 6909 bound_to 6896
  145.5147  140.9537  143.1688 H   0  0  0  0  0  0  0  0  0  0  0  0  # atno 7974 bound_to 7965
  156.0858  140.3264  155.7752 H   0  0  0  0  0  0  0  0  0  0  0  0  # atno 8008 bound_to 7997
  155.5078  140.0574  157.2946 H   0  0  0  0  0  0  0  0  0  0  0  0  # atno 8009 bound_to 7997
  154.4608  140.1966  156.0265 H   0  0  0  0  0  0  0  0  0  0  0  0  # atno 8010 bound_to 7997
  140.0885  144.5009  150.7115 H   0  0  0  0  0  0  0  0  0  0  0  0  # atno 10167 bound_to 10162
  156.3996  130.7927  151.2137 H   0  0  0  0  0  0  0  0  0  0  0  0  # atno 10718 bound_to 10713
  152.9822  135.5699  154.5122 H   0  0  0  0  0  0  0  0  0  0  0  0  # atno 10763 bound_to 10752
  154.4624  135.2782  155.1705 H   0  0  0  0  0  0  0  0  0  0  0  0  # atno 10764 bound_to 10752
  154.3287  135.6254  153.5594 H   0  0  0  0  0  0  0  0  0  0  0  0  # atno 10765 bound_to 10752
  141.1472  133.6693  156.6084 H   0  0  0  0  0  0  0  0  0  0  0  0  # atno 11005 bound_to 11000
  144.7708  139.6739  143.7195 LP  0  0  0  0  0  0  0  0  0  0  0  0  # atno 17320 bound_to 7965
  146.2144  139.5523  142.9660 LP  0  0  0  0  0  0  0  0  0  0  0  0  # atno 17321 bound_to 7965
  140.7041  143.2455  151.4778 LP  0  0  0  0  0  0  0  0  0  0  0  0  # atno 17342 bound_to 10162
  139.5738  144.1866  152.1875 LP  0  0  0  0  0  0  0  0  0  0  0  0  # atno 17343 bound_to 10162
  157.7503  131.0290  150.4076 LP  0  0  0  0  0  0  0  0  0  0  0  0  # atno 17370 bound_to 10713
  156.4353  130.3980  149.6733 LP  0  0  0  0  0  0  0  0  0  0  0  0  # atno 17371 bound_to 10713
  140.3634  134.7668  157.4549 LP  0  0  0  0  0  0  0  0  0  0  0  0  # atno 17394 bound_to 11000
  140.0767  134.5787  155.8583 LP  0  0  0  0  0  0  0  0  0  0  0  0  # atno 17395 bound_to 11000

$$$$
