#       Name:                AV-unprocessed.smi:3287
#       Creating user name   scv26
#       Creation time:       Fri Mar 27 18:51:28 2020


#       File generated by GOLD software.
#

@<TRIPOS>MOLECULE
AV-unprocessed.smi:3287
    46    47     1
SMALL
NO_CHARGES


@<TRIPOS>ATOM
      1 ****        -3.8354   1.9538  -1.6353 C.3            1 S1                 0.0000
      2 ****        -2.9638   2.5343  -0.5033 C.3            1 S1                 0.0000
      3 ****        -3.1835   1.7835   0.8259 C.3            1 S1                 0.0000
      4 ****        -2.5425   0.3853   0.8202 C.3            1 S1                 0.0000
      5 ****        -1.0397   0.4535   0.4948 C.3            1 S1                 0.0000
      6 ****        -0.4704  -0.9117   0.4665 N.4            1 S1                 1.0000
      7 ****         1.0001  -0.9858   0.6074 C.3            1 S1                 0.0000
      8 ****         1.4877  -2.4440   0.6593 C.3            1 S1                 0.0000
      9 ****         0.9156  -3.0762   1.7883 O.3            1 S1                 0.0000
     10 ****         3.0068  -2.5122   0.6821 C.ar           1 S1                 0.0000
     11 ****         3.7271  -2.8030  -0.4955 C.ar           1 S1                 0.0000
     12 ****         5.1344  -2.8481  -0.4311 C.ar           1 S1                 0.0000
     13 ****         5.8323  -2.6251   0.7028 N.ar           1 S1                 0.0000
     14 ****         5.1389  -2.3446   1.8267 C.ar           1 S1                 0.0000
     15 ****         3.7322  -2.2743   1.8701 C.ar           1 S1                 0.0000
     16 ****        -0.8083   1.1929  -0.8402 C.3            1 S1                 0.0000
     17 ****        -1.4506   2.5954  -0.8343 C.3            1 S1                 0.0000
     18 ****        -1.1413   3.3709  -2.1255 C.3            1 S1                 0.0000
     19 ****        -3.5298   0.9466  -1.9164 H              1 S1                 0.0000
     20 ****        -3.7933   2.5748  -2.5301 H              1 S1                 0.0000
     21 ****        -4.8822   1.9063  -1.3336 H              1 S1                 0.0000
     22 ****        -3.3065   3.5587  -0.3486 H              1 S1                 0.0000
     23 ****        -2.7538   2.3666   1.6416 H              1 S1                 0.0000
     24 ****        -4.2492   1.7042   1.0437 H              1 S1                 0.0000
     25 ****        -2.6895  -0.0825   1.7945 H              1 S1                 0.0000
     26 ****        -3.0536  -0.2518   0.0973 H              1 S1                 0.0000
     27 ****        -0.5519   1.0087   1.2976 H              1 S1                 0.0000
     28 ****        -0.8637  -1.4233   1.2438 H              1 S1                 0.0000
     29 ****         1.4661  -0.4799  -0.2385 H              1 S1                 0.0000
     30 ****         1.3091  -0.4539   1.5085 H              1 S1                 0.0000
     31 ****         1.1327  -2.9755  -0.2250 H              1 S1                 0.0000
     32 ****         1.1882  -3.9816   1.7945 H              1 S1                 0.0000
     33 ****         3.2184  -2.9878  -1.4301 H              1 S1                 0.0000
     34 ****         5.7150  -3.0680  -1.3148 H              1 S1                 0.0000
     35 ****         5.7218  -2.1688   2.7187 H              1 S1                 0.0000
     36 ****         3.2273  -2.0421   2.7964 H              1 S1                 0.0000
     37 ****         0.2602   1.2965  -1.0291 H              1 S1                 0.0000
     38 ****        -1.2064   0.6029  -1.6668 H              1 S1                 0.0000
     39 ****        -0.9771   3.1549  -0.0258 H              1 S1                 0.0000
     40 ****        -1.5014   2.8454  -3.0100 H              1 S1                 0.0000
     41 ****        -0.0670   3.5123  -2.2469 H              1 S1                 0.0000
     42 ****        -1.6015   4.3592  -2.1107 H              1 S1                 0.0000
     43 ****        -0.7500  -1.3684  -0.3897 H              1 S1                 0.0000
     44 ****        -0.0817  -3.0243   1.7350 LP             1 S1                 0.0000
     45 ****         1.2287  -2.6237   2.6233 LP             1 S1                 0.0000
     46 ****         6.8314  -2.6663   0.7100 LP             1 S1                 0.0000
@<TRIPOS>BOND
    1    1    2 1     
    2    1   19 1     
    3    1   20 1     
    4    1   21 1     
    5    2   17 1     
    6    2    3 1     
    7    2   22 1     
    8    3    4 1     
    9    3   23 1     
   10    3   24 1     
   11    4    5 1     
   12    4   25 1     
   13    4   26 1     
   14    5    6 1     
   15    5   16 1     
   16    5   27 1     
   17    6    7 1     
   18    6   28 1     
   19    6   43 1     
   20    7    8 1     
   21    7   29 1     
   22    7   30 1     
   23    8    9 1     
   24    8   10 1     
   25    8   31 1     
   26    9   32 1     
   27   10   15 ar    
   28   10   11 ar    
   29   11   12 ar    
   30   11   33 1     
   31   12   13 ar    
   32   12   34 1     
   33   13   14 ar    
   34   14   15 ar    
   35   14   35 1     
   36   15   36 1     
   37   16   17 1     
   38   16   37 1     
   39   16   38 1     
   40   17   18 1     
   41   17   39 1     
   42   18   40 1     
   43   18   41 1     
   44   18   42 1     
   45    9   44 1     
   46    9   45 1     
   47   13   46 1     
@<TRIPOS>SUBSTRUCTURE
      1 S1             1
@<TRIPOS>SET
LONE_PAIRS      STATIC     ATOMS    <user>   **** ""
3 44 45 46
DONOR_HYDROGENS      STATIC     ATOMS    <user>   **** ""
3 28 43 32
ATOM$BLUE        STATIC     ATOMS    COLORGROUP SYSTEM
3 44 45 46
ATOM$RED        STATIC     ATOMS    COLORGROUP SYSTEM
3 28 43 32
