AV-unprocessed.smi:2592|AV-procd|sdf|10159|dock10
  -GOLD-   2272014173D 1   1.00000     0.00000
 Structure written by MMmdl.
 43 44  0  0  0  0  0  0  0  0  2 V2000
  147.7217  141.7154  154.6062 C   0  0  0  0  0  0  0  0  0  0  0  0
  148.6475  140.5772  154.9085 C   0  0  0  0  0  0  0  0  0  0  0  0
  148.3619  139.3049  154.4049 N   0  0  0  0  0  0  0  0  0  0  0  0
  149.2779  138.4002  154.7643 C   0  0  0  0  0  0  0  0  0  0  0  0
  149.2369  137.0294  154.3973 N   0  0  0  0  0  0  0  0  0  0  0  0
  149.3637  135.9535  155.1939 C   0  0  0  0  0  0  0  0  0  0  0  0
  149.5345  135.9854  156.4131 O   0  0  0  0  0  0  0  0  0  0  0  0
  149.2777  134.8137  154.4923 N   0  0  0  0  0  0  0  0  0  0  0  0
  149.3890  133.4746  155.0602 C   0  0  0  0  0  0  0  0  0  0  0  0
  148.7753  132.4090  154.1362 C   0  0  0  0  0  0  0  0  0  0  0  0
  147.6017  132.9618  153.3100 C   0  0  0  0  0  0  0  0  0  0  0  0
  146.9581  131.9224  152.4678 N   0  3  0  0  0  0  0  0  0  0  0  0
  146.5500  130.7332  153.2540 C   0  0  0  0  0  0  0  0  0  0  0  0
  145.9314  129.6639  152.3375 C   0  0  0  0  0  0  0  0  0  0  0  0
  144.8293  130.2197  151.6316 O   0  0  0  0  0  0  0  0  0  0  0  0
  145.2238  131.3047  150.8016 C   0  0  0  0  0  0  0  0  0  0  0  0
  145.8150  132.4294  151.6680 C   0  0  0  0  0  0  0  0  0  0  0  0
  150.5680  139.0601  155.7543 S   0  0  0  0  0  0  0  0  0  0  0  0
  149.8027  140.6266  155.6545 C   0  0  0  0  0  0  0  0  0  0  0  0
  150.4002  141.8143  156.3329 C   0  0  0  0  0  0  0  0  0  0  0  0
  148.1668  142.4013  153.8855 H   0  0  0  0  0  0  0  0  0  0  0  0
  147.4904  142.2852  155.5065 H   0  0  0  0  0  0  0  0  0  0  0  0
  146.7767  141.3664  154.1889 H   0  0  0  0  0  0  0  0  0  0  0  0
  149.0985  136.8487  153.4139 H   0  0  0  0  0  0  0  0  0  0  0  0
  149.1401  134.8767  153.4940 H   0  0  0  0  0  0  0  0  0  0  0  0
  150.4463  133.2634  155.2220 H   0  0  0  0  0  0  0  0  0  0  0  0
  148.9139  133.4487  156.0424 H   0  0  0  0  0  0  0  0  0  0  0  0
  149.5499  132.0252  153.4728 H   0  0  0  0  0  0  0  0  0  0  0  0
  148.4336  131.5638  154.7350 H   0  0  0  0  0  0  0  0  0  0  0  0
  146.8612  133.3644  154.0028 H   0  0  0  0  0  0  0  0  0  0  0  0
  147.9263  133.7962  152.6863 H   0  0  0  0  0  0  0  0  0  0  0  0
  147.4151  130.3147  153.7697 H   0  0  0  0  0  0  0  0  0  0  0  0
  145.8315  131.0296  154.0200 H   0  0  0  0  0  0  0  0  0  0  0  0
  146.6707  129.2756  151.6351 H   0  0  0  0  0  0  0  0  0  0  0  0
  145.5806  128.8190  152.9302 H   0  0  0  0  0  0  0  0  0  0  0  0
  145.9458  130.9659  150.0566 H   0  0  0  0  0  0  0  0  0  0  0  0
  144.3521  131.6685  150.2575 H   0  0  0  0  0  0  0  0  0  0  0  0
  145.0478  132.8260  152.3350 H   0  0  0  0  0  0  0  0  0  0  0  0
  146.1308  133.2478  151.0222 H   0  0  0  0  0  0  0  0  0  0  0  0
  149.8494  142.0554  157.2421 H   0  0  0  0  0  0  0  0  0  0  0  0
  150.3763  142.6877  155.6810 H   0  0  0  0  0  0  0  0  0  0  0  0
  151.4395  141.6311  156.6061 H   0  0  0  0  0  0  0  0  0  0  0  0
  147.6593  131.6028  151.8148 H   0  0  0  0  0  0  0  0  0  0  0  0
  1  2  1  0  0  0  0
  1 21  1  0  0  0  0
  1 22  1  0  0  0  0
  1 23  1  0  0  0  0
  2 19  2  0  0  0  0
  2  3  1  0  0  0  0
  3  4  2  0  0  0  0
  4  5  1  0  0  0  0
  4 18  1  0  0  0  0
  5  6  1  0  0  0  0
  5 24  1  0  0  0  0
  6  7  2  0  0  0  0
  6  8  1  0  0  0  0
  8  9  1  0  0  0  0
  8 25  1  0  0  0  0
  9 10  1  0  0  0  0
  9 26  1  0  0  0  0
  9 27  1  0  0  0  0
 10 11  1  0  0  0  0
 10 28  1  0  0  0  0
 10 29  1  0  0  0  0
 11 12  1  0  0  0  0
 11 30  1  0  0  0  0
 11 31  1  0  0  0  0
 12 17  1  0  0  0  0
 12 13  1  0  0  0  0
 12 43  1  0  0  0  0
 13 14  1  0  0  0  0
 13 32  1  0  0  0  0
 13 33  1  0  0  0  0
 14 15  1  0  0  0  0
 14 34  1  0  0  0  0
 14 35  1  0  0  0  0
 15 16  1  0  0  0  0
 16 17  1  0  0  0  0
 16 36  1  0  0  0  0
 16 37  1  0  0  0  0
 17 38  1  0  0  0  0
 17 39  1  0  0  0  0
 18 19  1  0  0  0  0
 19 20  1  0  0  0  0
 20 40  1  0  0  0  0
 20 41  1  0  0  0  0
 20 42  1  0  0  0  0
M  CHG  1  12   1
M  END
> <s_m_source_file>
AV-unprocessed.smi

> <i_m_source_file_index>
2592

> <i_lp_mmshare_version>
43012

> <i_f3d_flags>
0

> <s_epik_input>
W0NIM11jMW5jKHNjMVtDSDNdKVtOSF1DKD1PKVtOSF1bQ0gyXVtDSDJdW0NIMl1OMltDSDJdW0NIMl1PW0NIMl1bQ0gyXTI=

> <s_epik_cmdline>
J2VwaWtfcHl0aG9uJywgJy1waCcsICc3LjAnLCAnLXRuJywgJzgnLCAnLW1hJywgJzIwMCcsICctbWV0YWxfYmluZGluZycsICctaW1hZScsICc8aW5maWxlLm1hZT4nLCAnLW9tYWUnLCAnPG91dGZpbGUubWFlPic=

> <r_lp_tautomer_probability>
0.999

> <r_epik_Ionization_Penalty>
0.281876

> <r_epik_Ionization_Penalty_Charging>
0.281705

> <r_epik_Ionization_Penalty_Neutral>
0.000171168

> <r_epik_State_Penalty>
0.274317

> <r_epik_Charging_Adjusted_Penalty>
0.556022

> <i_epik_Tot_Q>
1

> <i_epik_Tot_abs_Q>
1

> <r_epik_Metal_State_Penalty>
0.293174

> <b_epik_Metal_Only>
0

> <s_lp_Force_Field>
OPLS_2005

> <r_lp_Energy>
13.2764

> <b_lp_Chiralities_Consistent>
1

> <s_lp_Variant>
AV-unprocessed.smi:2592-1

> <Gold.Version>
5.8.1

> <Gold.Id.Protein>
6NUR|6NUR_protein|mol2

> <Gold.PLP.Fitness>
43.1580

> <Gold.PLP.PLP>
-37.3952

> <Gold.PLP.part.hbond>
-3.0000

> <Gold.PLP.part.metal>
0.0000

> <Gold.PLP.part.buried>
-3.9790

> <Gold.PLP.part.nonpolar>
-31.4248

> <Gold.PLP.part.repulsive>
0.3787

> <Gold.PLP.ligand.clash>
0.0000

> <Gold.PLP.ligand.torsion>
0.7712

> <Gold.PLP.Chemscore.Hbond>
2.4248

> <Gold.PLP.Chemscore.CHOScore>
0.0000

> <Gold.PLP.Chemscore.Metal>
0.0000

> <Gold.Chemscore.Hbonds>
donor molecule, donor type, donor heavy atom, donor atom, acceptor molecule, acceptor atom, score
      L1  H     5    24       P1  7948  1.00
      L1  H     8    25       P1  7948  0.66
      L1  H    12    43       P1 10747  0.68

> <Gold.PLP.Chemscore.Internal.Correction>
0.0309

> <Gold.Rescore>
     Score         DG    S(hbond)    S(metal)    S(lipo)     H(rot)  DE(clash)    DE(int)     intcor
     16.50     -17.29       1.89        0.00      85.36       1.76       0.04       0.75       ----

> <Gold.Chemscore.Fitness>
16.5042

> <Gold.Chemscore.DG>
-17.2891

> <Gold.Chemscore.ZeroCoef>
-5.4800

> <Gold.Chemscore.Hbond>
1.8941

> <Gold.Chemscore.Metal>
0.0000

> <Gold.Chemscore.Lipo>
85.3584

> <Gold.Chemscore.Internal_Hbond>
0.0000

> <Gold.Chemscore.DEClash>
0.0392

> <Gold.Chemscore.DEInternal>
0.7457

> <Gold.Chemscore.Rot>
1.7593

> <Gold.Chemscore.Internal.Correction>
   9.000000E+99

> <Gold.Chemscore.Hbonds>
donor molecule, donor type, donor heavy atom, donor atom, acceptor molecule, acceptor atom, score
      L1  H     5    24       P1  7948  1.00
      L1  H     8    25       P1  7948  0.11
      L1  H    12    43       P1 10747  0.69

> <Gold.Chemscore.Hbond.Weighted>
-6.3261

> <Gold.Chemscore.Metal.Weighted>
-0.0000

> <Gold.Chemscore.Lipo.Weighted>
-9.9869

> <Gold.Chemscore.Internal_Hbond.Weighted>
0.0000

> <Gold.Chemscore.DEClash.Weighted>
0.0392

> <Gold.Chemscore.DEInternal.Weighted>
0.7457

> <Gold.Chemscore.Rot.Weighted>
4.5039

> <Gold.Chemscore.Internal.Correction.Weighted>
   9.000000E+99

> <Gold.Protein.RotatedTorsions>
[ 6907 6896 6895 6894 ] final   89.27 input  -60.11 | X-H torsion
[ 7974 7965 7964 7962 ] final  127.93 input  175.53 | X-H torsion
[ 8008 7997 7996 7995 ] final   47.78 input   59.86 | X-H torsion
[ 10167 10162 10161 10158 ] final  163.88 input  -65.29 | X-H torsion
[ 10718 10713 10712 10709 ] final   59.01 input   66.30 | X-H torsion
[ 10763 10752 10751 10750 ] final   40.48 input  -60.55 | X-H torsion
[ 11005 11000 10999 10996 ] final  -60.24 input  -57.11 | X-H torsion

> <Gold.Protein.ActiveResidues>
 VAL166  LYS551  ARG553  GLY616  TRP617  ASP618  TYR619  PRO620  LYS621  CYS622 
 ASP623  PHE694  ASN695  SER759  ASP760  ASP761  ALA762  ILE779  LEU786  VAL792 
 PHE793  MET794  SER795  GLU796  ALA797  LYS798  CYS799  TRP800  GLU811  SER814 

> <Gold.Protein.RotatedAtoms>
  152.5434  134.1992  159.8704 H   0  0  0  0  0  0  0  0  0  0  0  0  # atno 6907 bound_to 6896
  151.1982  133.4620  159.2603 H   0  0  0  0  0  0  0  0  0  0  0  0  # atno 6908 bound_to 6896
  151.1016  134.9987  159.8507 H   0  0  0  0  0  0  0  0  0  0  0  0  # atno 6909 bound_to 6896
  145.0451  139.3930  143.5082 H   0  0  0  0  0  0  0  0  0  0  0  0  # atno 7974 bound_to 7965
  155.3747  140.3425  155.4244 H   0  0  0  0  0  0  0  0  0  0  0  0  # atno 8008 bound_to 7997
  156.1643  140.1611  156.8592 H   0  0  0  0  0  0  0  0  0  0  0  0  # atno 8009 bound_to 7997
  154.5170  140.0776  156.8082 H   0  0  0  0  0  0  0  0  0  0  0  0  # atno 8010 bound_to 7997
  139.4880  144.4292  151.9091 H   0  0  0  0  0  0  0  0  0  0  0  0  # atno 10167 bound_to 10162
  157.5642  130.8858  149.9160 H   0  0  0  0  0  0  0  0  0  0  0  0  # atno 10718 bound_to 10713
  152.9935  135.6190  154.2632 H   0  0  0  0  0  0  0  0  0  0  0  0  # atno 10763 bound_to 10752
  154.2368  135.2790  155.2871 H   0  0  0  0  0  0  0  0  0  0  0  0  # atno 10764 bound_to 10752
  154.5403  135.5763  153.6892 H   0  0  0  0  0  0  0  0  0  0  0  0  # atno 10765 bound_to 10752
  141.1279  133.6621  156.5193 H   0  0  0  0  0  0  0  0  0  0  0  0  # atno 11005 bound_to 11000
  146.3513  140.0072  142.8670 LP  0  0  0  0  0  0  0  0  0  0  0  0  # atno 17320 bound_to 7965
  145.1598  140.9667  143.4384 LP  0  0  0  0  0  0  0  0  0  0  0  0  # atno 17321 bound_to 7965
  140.3739  144.2820  150.5916 LP  0  0  0  0  0  0  0  0  0  0  0  0  # atno 17342 bound_to 10162
  140.5294  143.2247  151.8263 LP  0  0  0  0  0  0  0  0  0  0  0  0  # atno 17343 bound_to 10162
  156.0692  130.3687  150.0813 LP  0  0  0  0  0  0  0  0  0  0  0  0  # atno 17370 bound_to 10713
  156.8974  130.9609  151.3581 LP  0  0  0  0  0  0  0  0  0  0  0  0  # atno 17371 bound_to 10713
  140.4305  134.7106  157.4939 LP  0  0  0  0  0  0  0  0  0  0  0  0  # atno 17394 bound_to 11000
  140.0297  134.6425  155.9124 LP  0  0  0  0  0  0  0  0  0  0  0  0  # atno 17395 bound_to 11000

$$$$
