#       Name:                AV-unprocessed.smi:213
#       Creating user name   scv26
#       Creation time:       Thu Mar 26 20:02:42 2020


#       File generated by GOLD software.
#

@<TRIPOS>MOLECULE
AV-unprocessed.smi:213
    68    71     1
SMALL
NO_CHARGES


@<TRIPOS>ATOM
      1 ****        -3.6172   2.0048   2.9770 C.3            1 S1                 0.0000
      2 ****        -2.6982   1.5676   1.8183 C.3            1 S1                 0.0000
      3 ****        -3.4732   1.3385   0.4977 C.3            1 S1                 0.0000
      4 ****        -3.8205  -0.0515   0.1970 N.3            1 S1                 0.0000
      5 ****        -4.3726  -0.1702  -1.1481 C.3            1 S1                 0.0000
      6 ****        -4.7197  -1.6257  -1.5017 C.3            1 S1                 0.0000
      7 ****        -5.6332  -2.1403  -0.5390 O.3            1 S1                 0.0000
      8 ****        -5.1153  -2.0907   0.7861 C.3            1 S1                 0.0000
      9 ****        -4.7531  -0.6406   1.1530 C.3            1 S1                 0.0000
     10 ****        -1.6280   2.5522   1.6337 N.pl3          1 S1                 0.0000
     11 ****        -1.9383   3.9557   1.3689 C.3            1 S1                 0.0000
     12 ****        -0.3310   2.1599   1.5095 C.ar           1 S1                 0.0000
     13 ****         0.6323   3.0251   1.9251 N.ar           1 S1                 0.0000
     14 ****         1.9245   2.6980   1.8411 C.ar           1 S1                 0.0000
     15 ****         2.4711   1.5744   1.3766 N.ar           1 S1                 0.0000
     16 ****         1.5162   0.7039   0.9428 C.ar           1 S1                 0.0000
     17 ****         0.1060   0.9116   0.9697 C.ar           1 S1                 0.0000
     18 ****        -0.5331  -0.1967   0.4224 N.2            1 S1                 0.0000
     19 ****         0.4343  -1.0116   0.1067 C.2            1 S1                 0.0000
     20 ****         1.6985  -0.5494   0.3852 N.pl3          1 S1                 0.0000
     21 ****         2.9479  -1.2451   0.1335 C.3            1 S1                 0.0000
     22 ****         3.4221  -1.0909  -1.3244 C.3            1 S1                 0.0000
     23 ****         3.6381   0.2718  -1.6389 O.3            1 S1                 0.0000
     24 ****         4.6781  -1.9307  -1.6347 C.3            1 S1                 0.0000
     25 ****         5.2709  -1.7827  -3.0383 C.3            1 S1                 0.0000
     26 ****         6.6879  -2.2583  -2.8066 C.3            1 S1                 0.0000
     27 ****         6.9882  -1.6880  -1.4219 C.3            1 S1                 0.0000
     28 ****         5.7438  -1.6633  -0.7269 O.3            1 S1                 0.0000
     29 ****        -4.3757   1.2581   3.2035 H              1 S1                 0.0000
     30 ****        -4.1409   2.9341   2.7525 H              1 S1                 0.0000
     31 ****        -3.0409   2.1628   3.8891 H              1 S1                 0.0000
     32 ****        -2.2447   0.6279   2.1318 H              1 S1                 0.0000
     33 ****        -4.3666   1.9642   0.4737 H              1 S1                 0.0000
     34 ****        -2.8492   1.7013  -0.3206 H              1 S1                 0.0000
     35 ****        -5.2694   0.4454  -1.2354 H              1 S1                 0.0000
     36 ****        -3.6579   0.2142  -1.8768 H              1 S1                 0.0000
     37 ****        -5.1749  -1.6784  -2.4908 H              1 S1                 0.0000
     38 ****        -3.8199  -2.2426  -1.5283 H              1 S1                 0.0000
     39 ****        -5.8630  -2.4807   1.4769 H              1 S1                 0.0000
     40 ****        -4.2393  -2.7366   0.8640 H              1 S1                 0.0000
     41 ****        -4.3135  -0.6464   2.1492 H              1 S1                 0.0000
     42 ****        -5.6612  -0.0386   1.2066 H              1 S1                 0.0000
     43 ****        -1.3134   4.3528   0.5681 H              1 S1                 0.0000
     44 ****        -1.7734   4.5542   2.2652 H              1 S1                 0.0000
     45 ****        -2.9772   4.0803   1.0638 H              1 S1                 0.0000
     46 ****         2.6201   3.4428   2.1982 H              1 S1                 0.0000
     47 ****         0.2506  -1.9758  -0.3445 H              1 S1                 0.0000
     48 ****         3.7029  -0.8716   0.8264 H              1 S1                 0.0000
     49 ****         2.8020  -2.2993   0.3713 H              1 S1                 0.0000
     50 ****         2.6244  -1.4352  -1.9838 H              1 S1                 0.0000
     51 ****         3.9090   0.3328  -2.5420 H              1 S1                 0.0000
     52 ****         4.4263  -2.9831  -1.4919 H              1 S1                 0.0000
     53 ****         4.7394  -2.3685  -3.7888 H              1 S1                 0.0000
     54 ****         5.2853  -0.7420  -3.3636 H              1 S1                 0.0000
     55 ****         6.7170  -3.3486  -2.7792 H              1 S1                 0.0000
     56 ****         7.3872  -1.9162  -3.5700 H              1 S1                 0.0000
     57 ****         7.7347  -2.2728  -0.8840 H              1 S1                 0.0000
     58 ****         7.3561  -0.6646  -1.5048 H              1 S1                 0.0000
     59 ****        -2.9633  -0.5619   0.2648 LP             1 S1                 0.0000
     60 ****        -5.8377  -3.0920  -0.7678 LP             1 S1                 0.0000
     61 ****        -6.4744  -1.6007  -0.5748 LP             1 S1                 0.0000
     62 ****         0.3705   3.9155   2.2975 LP             1 S1                 0.0000
     63 ****         3.4543   1.3937   1.3499 LP             1 S1                 0.0000
     64 ****        -1.5155  -0.3368   0.2988 LP             1 S1                 0.0000
     65 ****         4.3522   0.6453  -1.0468 LP             1 S1                 0.0000
     66 ****         2.7914   0.7869  -1.5055 LP             1 S1                 0.0000
     67 ****         5.7507  -2.3593  -0.0089 LP             1 S1                 0.0000
     68 ****         5.6111  -0.7614  -0.3156 LP             1 S1                 0.0000
@<TRIPOS>BOND
    1    1    2 1     
    2    1   29 1     
    3    1   30 1     
    4    1   31 1     
    5    2    3 1     
    6    2   10 1     
    7    2   32 1     
    8    3    4 1     
    9    3   33 1     
   10    3   34 1     
   11    4    9 1     
   12    4    5 1     
   13    5    6 1     
   14    5   35 1     
   15    5   36 1     
   16    6    7 1     
   17    6   37 1     
   18    6   38 1     
   19    7    8 1     
   20    8    9 1     
   21    8   39 1     
   22    8   40 1     
   23    9   41 1     
   24    9   42 1     
   25   10   11 1     
   26   10   12 1     
   27   11   43 1     
   28   11   44 1     
   29   11   45 1     
   30   12   17 ar    
   31   12   13 ar    
   32   13   14 ar    
   33   14   15 ar    
   34   14   46 1     
   35   15   16 ar    
   36   16   20 1     
   37   16   17 ar    
   38   17   18 1     
   39   18   19 2     
   40   19   20 1     
   41   19   47 1     
   42   20   21 1     
   43   21   22 1     
   44   21   48 1     
   45   21   49 1     
   46   22   23 1     
   47   22   24 1     
   48   22   50 1     
   49   23   51 1     
   50   24   28 1     
   51   24   25 1     
   52   24   52 1     
   53   25   26 1     
   54   25   53 1     
   55   25   54 1     
   56   26   27 1     
   57   26   55 1     
   58   26   56 1     
   59   27   28 1     
   60   27   57 1     
   61   27   58 1     
   62    4   59 1     
   63    7   60 1     
   64    7   61 1     
   65   13   62 1     
   66   15   63 1     
   67   18   64 1     
   68   23   65 1     
   69   23   66 1     
   70   28   67 1     
   71   28   68 1     
@<TRIPOS>SUBSTRUCTURE
      1 S1             1
@<TRIPOS>SET
LONE_PAIRS      STATIC     ATOMS    <user>   **** ""
10 59 60 61 62 63 64 65 66 67 68
DONOR_HYDROGENS      STATIC     ATOMS    <user>   **** ""
1 51
ATOM$BLUE        STATIC     ATOMS    COLORGROUP SYSTEM
10 59 60 61 62 63 64 65 66 67 68
ATOM$RED        STATIC     ATOMS    COLORGROUP SYSTEM
1 51
