AV-unprocessed.smi:2787|AV-procd|sdf|10759|dock2
  -GOLD-   2272015193D 1   1.00000     0.00000
 Structure written by MMmdl.
 36 37  0  0  0  0  0  0  0  0  2 V2000
  147.7677  139.9060  153.0195 O   0  0  0  0  0  0  0  0  0  0  0  0
  147.4746  141.1744  153.5655 C   0  0  0  0  0  0  0  0  0  0  0  0
  148.6563  141.6822  154.4046 C   0  0  0  0  0  0  0  0  0  0  0  0
  148.7855  140.9629  155.7597 C   0  0  0  0  0  0  0  0  0  0  0  0
  149.8621  141.5291  156.6351 C   0  0  0  0  0  0  0  0  0  0  0  0
  150.1682  142.8474  156.8133 N   0  3  0  0  0  0  0  0  0  0  0  0
  151.2398  142.9714  157.6985 C   0  0  0  0  0  0  0  0  0  0  0  0
  151.8954  144.0978  158.1863 C   0  0  0  0  0  0  0  0  0  0  0  0
  152.9611  143.8712  159.0823 C   0  0  0  0  0  0  0  0  0  0  0  0
  153.3398  142.5659  159.4580 C   0  0  0  0  0  0  0  0  0  0  0  0
  152.6682  141.4317  158.9557 C   0  0  0  0  0  0  0  0  0  0  0  0
  151.6135  141.6655  158.0740 C   0  0  0  0  0  0  0  0  0  0  0  0
  150.7372  140.8108  157.3971 N   0  0  0  0  0  0  0  0  0  0  0  0
  150.8700  139.3570  157.5799 C   0  0  0  0  0  0  0  0  0  0  0  0
  152.1449  138.7818  156.9278 C   0  0  1  0  0  0  0  0  0  0  0  0
  152.3754  137.4723  157.4112 O   0  0  0  0  0  0  0  0  0  0  0  0
  152.0699  138.7537  155.3893 C   0  0  0  0  0  0  0  0  0  0  0  0
  151.1785  137.8464  154.9902 F   0  0  0  0  0  0  0  0  0  0  0  0
  151.7389  139.9505  154.9035 F   0  0  0  0  0  0  0  0  0  0  0  0
  153.2592  138.4075  154.8968 F   0  0  0  0  0  0  0  0  0  0  0  0
  148.3264  140.0237  152.2663 H   0  0  0  0  0  0  0  0  0  0  0  0
  147.2386  141.8726  152.7619 H   0  0  0  0  0  0  0  0  0  0  0  0
  146.5837  141.0846  154.1873 H   0  0  0  0  0  0  0  0  0  0  0  0
  149.5739  141.5350  153.8340 H   0  0  0  0  0  0  0  0  0  0  0  0
  148.5570  142.7578  154.5576 H   0  0  0  0  0  0  0  0  0  0  0  0
  147.8402  141.0176  156.3002 H   0  0  0  0  0  0  0  0  0  0  0  0
  148.9922  139.9044  155.5989 H   0  0  0  0  0  0  0  0  0  0  0  0
  151.6080  145.0986  157.8988 H   0  0  0  0  0  0  0  0  0  0  0  0
  153.4990  144.7155  159.4889 H   0  0  0  0  0  0  0  0  0  0  0  0
  154.1623  142.4313  160.1457 H   0  0  0  0  0  0  0  0  0  0  0  0
  152.9656  140.4355  159.2486 H   0  0  0  0  0  0  0  0  0  0  0  0
  150.8705  139.1571  158.6518 H   0  0  0  0  0  0  0  0  0  0  0  0
  149.9751  138.8780  157.1815 H   0  0  0  0  0  0  0  0  0  0  0  0
  153.0021  139.3887  157.2212 H   0  0  0  0  0  0  0  0  0  0  0  0
  153.0756  137.0859  156.9082 H   0  0  0  0  0  0  0  0  0  0  0  0
  149.6751  143.6063  156.3606 H   0  0  0  0  0  0  0  0  0  0  0  0
  1  2  1  0  0  0  0
  1 21  1  0  0  0  0
  2  3  1  0  0  0  0
  2 22  1  0  0  0  0
  2 23  1  0  0  0  0
  3  4  1  0  0  0  0
  3 24  1  0  0  0  0
  3 25  1  0  0  0  0
  4  5  1  0  0  0  0
  4 26  1  0  0  0  0
  4 27  1  0  0  0  0
  5 13  1  0  0  0  0
  5  6  2  0  0  0  0
  6  7  1  0  0  0  0
  6 36  1  0  0  0  0
  7 12  2  0  0  0  0
  7  8  1  0  0  0  0
  8  9  2  0  0  0  0
  8 28  1  0  0  0  0
  9 10  1  0  0  0  0
  9 29  1  0  0  0  0
 10 11  2  0  0  0  0
 10 30  1  0  0  0  0
 11 12  1  0  0  0  0
 11 31  1  0  0  0  0
 12 13  1  0  0  0  0
 13 14  1  0  0  0  0
 14 15  1  0  0  0  0
 14 32  1  0  0  0  0
 14 33  1  0  0  0  0
 15 16  1  0  0  0  0
 15 17  1  0  0  0  0
 15 34  1  0  0  0  0
 16 35  1  0  0  0  0
 17 18  1  0  0  0  0
 17 19  1  0  0  0  0
 17 20  1  0  0  0  0
M  CHG  1   6   1
M  END
> <s_m_source_file>
AV-unprocessed.smi

> <i_m_source_file_index>
2787

> <i_lp_mmshare_version>
43012

> <i_f3d_flags>
0

> <s_epik_input>
W09IXVtDSDJdW0NIMl1bQ0gyXWMobjEpbihbQ0gyXVtDQEhdKFtPSF0pQyhGKShGKUYpYyhjMTIpW2NIXVtjSF1bY0hdW2NIXTI=

> <s_epik_cmdline>
J2VwaWtfcHl0aG9uJywgJy1waCcsICc3LjAnLCAnLXRuJywgJzgnLCAnLW1hJywgJzIwMCcsICctbWV0YWxfYmluZGluZycsICctaW1hZScsICc8aW5maWxlLm1hZT4nLCAnLW9tYWUnLCAnPG91dGZpbGUubWFlPic=

> <r_epik_Ionization_Penalty>
0.964009

> <r_epik_Ionization_Penalty_Charging>
0.952215

> <r_epik_Ionization_Penalty_Neutral>
0.0117938

> <r_epik_State_Penalty>
1.09527

> <r_epik_Charging_Adjusted_Penalty>
2.04749

> <i_epik_Tot_Q>
1

> <i_epik_Tot_abs_Q>
1

> <r_epik_Metal_State_Penalty>
5.08046

> <b_epik_Metal_Only>
0

> <s_lp_Force_Field>
OPLS_2005

> <r_lp_Energy>
16.8731

> <b_lp_Chiralities_Consistent>
1

> <s_lp_Variant>
AV-unprocessed.smi:2787-4

> <Gold.Version>
5.8.1

> <Gold.Id.Protein>
6NUR|6NUR_protein|mol2

> <Gold.PLP.Fitness>
50.8271

> <Gold.PLP.PLP>
-42.9096

> <Gold.PLP.part.hbond>
-2.0000

> <Gold.PLP.part.metal>
0.0000

> <Gold.PLP.part.buried>
-0.9583

> <Gold.PLP.part.nonpolar>
-40.3605

> <Gold.PLP.part.repulsive>
0.0327

> <Gold.PLP.ligand.clash>
0.0000

> <Gold.PLP.ligand.torsion>
0.5835

> <Gold.PLP.Chemscore.Hbond>
3.0000

> <Gold.PLP.Chemscore.CHOScore>
0.0000

> <Gold.PLP.Chemscore.Metal>
0.0000

> <Gold.Chemscore.Hbonds>
donor molecule, donor type, donor heavy atom, donor atom, acceptor molecule, acceptor atom, score
      L1  H     1    21       P1  7957  1.00
      L1  H     6    36       P1  8028  2.00

> <Gold.PLP.Chemscore.Internal.Correction>
0.0844

> <Gold.Rescore>
     Score         DG    S(hbond)    S(metal)    S(lipo)     H(rot)  DE(clash)    DE(int)     intcor
     13.32     -15.18       2.00        0.00     102.71       3.51       0.05       1.80       ----

> <Gold.Chemscore.Fitness>
13.3242

> <Gold.Chemscore.DG>
-15.1775

> <Gold.Chemscore.ZeroCoef>
-5.4800

> <Gold.Chemscore.Hbond>
1.9991

> <Gold.Chemscore.Metal>
0.0000

> <Gold.Chemscore.Lipo>
102.7124

> <Gold.Chemscore.Internal_Hbond>
0.0000

> <Gold.Chemscore.DEClash>
0.0505

> <Gold.Chemscore.DEInternal>
1.8028

> <Gold.Chemscore.Rot>
3.5143

> <Gold.Chemscore.Internal.Correction>
   9.000000E+99

> <Gold.Chemscore.Hbonds>
donor molecule, donor type, donor heavy atom, donor atom, acceptor molecule, acceptor atom, score
      L1  H     1    21       P1  7957  1.00
      L1  H     6    36       P1  8028  0.93

> <Gold.Chemscore.Hbond.Weighted>
-6.6769

> <Gold.Chemscore.Metal.Weighted>
-0.0000

> <Gold.Chemscore.Lipo.Weighted>
-12.0173

> <Gold.Chemscore.Internal_Hbond.Weighted>
0.0000

> <Gold.Chemscore.DEClash.Weighted>
0.0505

> <Gold.Chemscore.DEInternal.Weighted>
1.8028

> <Gold.Chemscore.Rot.Weighted>
8.9967

> <Gold.Chemscore.Internal.Correction.Weighted>
   9.000000E+99

> <Gold.Protein.RotatedTorsions>
[ 6907 6896 6895 6894 ] final   85.52 input  -60.11 | X-H torsion
[ 7974 7965 7964 7962 ] final  -73.94 input  175.53 | X-H torsion
[ 8008 7997 7996 7995 ] final  154.77 input   59.86 | X-H torsion
[ 10167 10162 10161 10158 ] final -170.37 input  -65.29 | X-H torsion
[ 10718 10713 10712 10709 ] final  125.97 input   66.30 | X-H torsion
[ 10763 10752 10751 10750 ] final   82.20 input  -60.55 | X-H torsion
[ 11005 11000 10999 10996 ] final   60.58 input  -57.11 | X-H torsion

> <Gold.Protein.ActiveResidues>
 VAL166  LYS551  ARG553  GLY616  TRP617  ASP618  TYR619  PRO620  LYS621  CYS622 
 ASP623  PHE694  ASN695  SER759  ASP760  ASP761  ALA762  ILE779  LEU786  VAL792 
 PHE793  MET794  SER795  GLU796  ALA797  LYS798  CYS799  TRP800  GLU811  SER814 

> <Gold.Protein.RotatedAtoms>
  152.5376  134.2573  159.8921 H   0  0  0  0  0  0  0  0  0  0  0  0  # atno 6907 bound_to 6896
  151.2534  133.4332  159.2620 H   0  0  0  0  0  0  0  0  0  0  0  0  # atno 6908 bound_to 6896
  151.0518  134.9692  159.8272 H   0  0  0  0  0  0  0  0  0  0  0  0  # atno 6909 bound_to 6896
  145.6456  140.9298  143.1012 H   0  0  0  0  0  0  0  0  0  0  0  0  # atno 7974 bound_to 7965
  156.2514  140.1958  156.6697 H   0  0  0  0  0  0  0  0  0  0  0  0  # atno 8008 bound_to 7997
  154.6402  140.0584  156.9862 H   0  0  0  0  0  0  0  0  0  0  0  0  # atno 8009 bound_to 7997
  155.1574  140.3257  155.4421 H   0  0  0  0  0  0  0  0  0  0  0  0  # atno 8010 bound_to 7997
  139.5866  144.1306  152.1582 H   0  0  0  0  0  0  0  0  0  0  0  0  # atno 10167 bound_to 10162
  157.5459  131.1095  150.8783 H   0  0  0  0  0  0  0  0  0  0  0  0  # atno 10718 bound_to 10713
  153.1182  135.4737  154.9152 H   0  0  0  0  0  0  0  0  0  0  0  0  # atno 10763 bound_to 10752
  154.7550  135.3116  154.8490 H   0  0  0  0  0  0  0  0  0  0  0  0  # atno 10764 bound_to 10752
  153.9061  135.6870  153.4806 H   0  0  0  0  0  0  0  0  0  0  0  0  # atno 10765 bound_to 10752
  140.0221  134.6137  155.9624 H   0  0  0  0  0  0  0  0  0  0  0  0  # atno 11005 bound_to 11000
  144.7141  139.8261  143.7404 LP  0  0  0  0  0  0  0  0  0  0  0  0  # atno 17320 bound_to 7965
  146.1245  139.4269  143.0207 LP  0  0  0  0  0  0  0  0  0  0  0  0  # atno 17321 bound_to 7965
  140.0870  144.5652  150.7081 LP  0  0  0  0  0  0  0  0  0  0  0  0  # atno 17342 bound_to 10162
  140.7136  143.2526  151.4503 LP  0  0  0  0  0  0  0  0  0  0  0  0  # atno 17343 bound_to 10162
  156.9322  130.5354  149.5279 LP  0  0  0  0  0  0  0  0  0  0  0  0  # atno 17370 bound_to 10713
  156.0535  130.5600  150.9040 LP  0  0  0  0  0  0  0  0  0  0  0  0  # atno 17371 bound_to 10713
  141.1780  133.6542  156.4906 LP  0  0  0  0  0  0  0  0  0  0  0  0  # atno 17394 bound_to 11000
  140.4369  134.7051  157.4971 LP  0  0  0  0  0  0  0  0  0  0  0  0  # atno 17395 bound_to 11000

$$$$
