AV-unprocessed.smi:157|AV-procd|sdf|1307|dock6
  -GOLD-   2262018593D 1   1.00000     0.00000
 Structure written by MMmdl.
 36 38  0  0  0  0  0  0  0  0  2 V2000
  155.1679  137.3768  154.4911 O   0  0  0  0  0  0  0  0  0  0  0  0
  154.4952  138.5785  154.8015 C   0  0  0  0  0  0  0  0  0  0  0  0
  153.1487  138.2694  155.4742 C   0  0  1  0  0  0  0  0  0  0  0  0
  152.7626  139.3802  156.2768 O   0  0  0  0  0  0  0  0  0  0  0  0
  151.3800  139.3883  156.3433 C   0  0  1  0  0  0  0  0  0  0  0  0
  150.9304  140.7506  156.7609 N   0  0  0  0  0  0  0  0  0  0  0  0
  150.0619  141.5278  156.0823 C   0  0  0  0  0  0  0  0  0  0  0  0
  149.8056  142.6909  156.6568 N   0  3  0  0  0  0  0  0  0  0  0  0
  150.5432  142.7230  157.8213 C   0  0  0  0  0  0  0  0  0  0  0  0
  151.2411  141.5130  157.8667 C   0  0  0  0  0  0  0  0  0  0  0  0
  152.1369  141.0321  158.8352 N   0  0  0  0  0  0  0  0  0  0  0  0
  152.6962  141.7937  159.7181 C   0  0  0  0  0  0  0  0  0  0  0  0
  152.4871  143.1399  159.9665 N   0  0  0  0  0  0  0  0  0  0  0  0
  151.1628  143.7248  160.0779 C   0  0  0  0  0  0  0  0  0  0  0  0
  150.4550  143.9104  158.7290 C   0  0  1  0  0  0  0  0  0  0  0  0
  150.9380  145.0922  158.1243 O   0  0  0  0  0  0  0  0  0  0  0  0
  150.9040  139.0450  154.9383 C   0  0  0  0  0  0  0  0  0  0  0  0
  151.9891  138.0851  154.4687 C   0  0  2  0  0  0  0  0  0  0  0  0
  151.5103  136.7551  154.5011 O   0  0  0  0  0  0  0  0  0  0  0  0
  153.2306  137.3890  156.1153 H   0  0  0  0  0  0  0  0  0  0  0  0
  151.0220  138.6969  157.1083 H   0  0  0  0  0  0  0  0  0  0  0  0
  149.3992  144.0906  158.9343 H   0  0  0  0  0  0  0  0  0  0  0  0
  152.2873  138.3278  153.4477 H   0  0  0  0  0  0  0  0  0  0  0  0
  154.5678  136.6564  154.6087 H   0  0  0  0  0  0  0  0  0  0  0  0
  155.1183  139.2131  155.4327 H   0  0  0  0  0  0  0  0  0  0  0  0
  154.3331  139.1109  153.8638 H   0  0  0  0  0  0  0  0  0  0  0  0
  149.6163  141.2222  155.1526 H   0  0  0  0  0  0  0  0  0  0  0  0
  153.4389  141.3635  160.3915 H   0  0  0  0  0  0  0  0  0  0  0  0
  153.1593  143.6370  160.5338 H   0  0  0  0  0  0  0  0  0  0  0  0
  150.5643  143.0585  160.7012 H   0  0  0  0  0  0  0  0  0  0  0  0
  151.2224  144.6701  160.6186 H   0  0  0  0  0  0  0  0  0  0  0  0
  150.5612  145.1682  157.2612 H   0  0  0  0  0  0  0  0  0  0  0  0
  149.8964  138.6272  154.9547 H   0  0  0  0  0  0  0  0  0  0  0  0
  150.9037  139.9403  154.3159 H   0  0  0  0  0  0  0  0  0  0  0  0
  151.2017  136.5232  153.6385 H   0  0  0  0  0  0  0  0  0  0  0  0
  149.1810  143.4078  156.3101 H   0  0  0  0  0  0  0  0  0  0  0  0
  1  2  1  0  0  0  0
  1 24  1  0  0  0  0
  2  3  1  0  0  0  0
  2 25  1  0  0  0  0
  2 26  1  0  0  0  0
  3 20  1  0  0  0  0
  3 18  1  0  0  0  0
  3  4  1  0  0  0  0
  4  5  1  0  0  0  0
  5 21  1  0  0  0  0
  5  6  1  0  0  0  0
  5 17  1  0  0  0  0
  6 10  1  0  0  0  0
  6  7  1  0  0  0  0
  7  8  2  0  0  0  0
  7 27  1  0  0  0  0
  8  9  1  0  0  0  0
  8 36  1  0  0  0  0
  9 15  1  0  0  0  0
  9 10  2  0  0  0  0
 10 11  1  0  0  0  0
 11 12  2  0  0  0  0
 12 13  1  0  0  0  0
 12 28  1  0  0  0  0
 13 14  1  0  0  0  0
 13 29  1  0  0  0  0
 14 15  1  0  0  0  0
 14 30  1  0  0  0  0
 14 31  1  0  0  0  0
 15 22  1  0  0  0  0
 15 16  1  0  0  0  0
 16 32  1  0  0  0  0
 17 18  1  0  0  0  0
 17 33  1  0  0  0  0
 17 34  1  0  0  0  0
 18 23  1  0  0  0  0
 18 19  1  0  0  0  0
 19 35  1  0  0  0  0
M  CHG  1   8   1
M  END
> <s_m_source_file>
AV-unprocessed.smi

> <i_m_source_file_index>
157

> <i_lp_mmshare_version>
43012

> <i_f3d_flags>
0

> <s_epik_input>
W09IXVtDSDJdW0NASF0xT1tDQEhdKFtDSDJdW0NAQEhdMVtPSF0pbihbY0hdbjIpYyhjMjMpTj1bQ0hdW05IXVtDSDJdW0NASF0zW09IXQ==

> <s_epik_cmdline>
J2VwaWtfcHl0aG9uJywgJy1waCcsICc3LjAnLCAnLXRuJywgJzgnLCAnLW1hJywgJzIwMCcsICctbWV0YWxfYmluZGluZycsICctaW1hZScsICc8aW5maWxlLm1hZT4nLCAnLW9tYWUnLCAnPG91dGZpbGUubWFlPic=

> <r_epik_Ionization_Penalty>
1.68594

> <r_epik_Ionization_Penalty_Charging>
0

> <r_epik_Ionization_Penalty_Neutral>
1.68594

> <r_epik_State_Penalty>
1.79006

> <r_epik_Charging_Adjusted_Penalty>
1.79006

> <i_epik_Tot_Q>
1

> <i_epik_Tot_abs_Q>
1

> <r_epik_Metal_State_Penalty>
5.85324

> <b_epik_Metal_Only>
0

> <s_epik_Chemistry_Notes>
This compound has an imine and may undergo hydrolysis. This compound contains an acetal/aminal-like group ( X-CH(R)-Y where X, Y are N, S, or O) that may be acid/base labile, releasing an aldehyde.

> <s_lp_Force_Field>
OPLS_2005

> <r_lp_Energy>
53.8219

> <b_lp_Chiralities_Consistent>
1

> <s_lp_Variant>
AV-unprocessed.smi:157-17

> <Gold.Version>
5.8.1

> <Gold.Id.Protein>
6NUR|6NUR_protein|mol2

> <Gold.PLP.Fitness>
51.2881

> <Gold.PLP.PLP>
-34.9470

> <Gold.PLP.part.hbond>
-6.1413

> <Gold.PLP.part.metal>
0.0000

> <Gold.PLP.part.buried>
-1.6884

> <Gold.PLP.part.nonpolar>
-27.8537

> <Gold.PLP.part.repulsive>
0.0952

> <Gold.PLP.ligand.clash>
0.0000

> <Gold.PLP.ligand.torsion>
0.3901

> <Gold.PLP.Chemscore.Hbond>
5.7000

> <Gold.PLP.Chemscore.CHOScore>
0.0000

> <Gold.PLP.Chemscore.Metal>
0.0000

> <Gold.Chemscore.Hbonds>
donor molecule, donor type, donor heavy atom, donor atom, acceptor molecule, acceptor atom, score
      L1  H     8    36       P1  8028  1.82
      L1  H    16    32       P1  8028  0.28
      L1  H    19    35       P1  7949  0.55
      P1  H  7997  8008       L1     4  0.90
      P1  H 10752 10764       L1    19  0.75

> <Gold.PLP.Chemscore.Internal.Correction>
0.0212

> <Gold.Rescore>
     Score         DG    S(hbond)    S(metal)    S(lipo)     H(rot)  DE(clash)    DE(int)     intcor
      9.50     -11.02       2.27        0.00      62.82       3.67       1.30       0.22       ----

> <Gold.Chemscore.Fitness>
9.4996

> <Gold.Chemscore.DG>
-11.0158

> <Gold.Chemscore.ZeroCoef>
-5.4800

> <Gold.Chemscore.Hbond>
2.2668

> <Gold.Chemscore.Metal>
0.0000

> <Gold.Chemscore.Lipo>
62.8154

> <Gold.Chemscore.Internal_Hbond>
0.0000

> <Gold.Chemscore.DEClash>
1.2959

> <Gold.Chemscore.DEInternal>
0.2203

> <Gold.Chemscore.Rot>
3.6659

> <Gold.Chemscore.Internal.Correction>
   9.000000E+99

> <Gold.Chemscore.Hbonds>
donor molecule, donor type, donor heavy atom, donor atom, acceptor molecule, acceptor atom, score
      L1  H     8    36       P1  8028  0.85
      L1  H    16    32       P1  8028  0.05
      L1  H    19    35       P1  7949  0.27
      P1  H  7997  8008       L1     4  0.18
      P1  H 10752 10764       L1    19  0.07

> <Gold.Chemscore.Hbond.Weighted>
-7.5712

> <Gold.Chemscore.Metal.Weighted>
-0.0000

> <Gold.Chemscore.Lipo.Weighted>
-7.3494

> <Gold.Chemscore.Internal_Hbond.Weighted>
0.0000

> <Gold.Chemscore.DEClash.Weighted>
1.2959

> <Gold.Chemscore.DEInternal.Weighted>
0.2203

> <Gold.Chemscore.Rot.Weighted>
9.3848

> <Gold.Chemscore.Internal.Correction.Weighted>
   9.000000E+99

> <Gold.Protein.RotatedTorsions>
[ 6907 6896 6895 6894 ] final   43.52 input  -60.11 | X-H torsion
[ 7974 7965 7964 7962 ] final  117.92 input  175.53 | X-H torsion
[ 8008 7997 7996 7995 ] final  -53.36 input   59.86 | X-H torsion
[ 10167 10162 10161 10158 ] final  127.95 input  -65.29 | X-H torsion
[ 10718 10713 10712 10709 ] final   81.75 input   66.30 | X-H torsion
[ 10763 10752 10751 10750 ] final  -65.10 input  -60.55 | X-H torsion
[ 11005 11000 10999 10996 ] final  126.79 input  -57.11 | X-H torsion

> <Gold.Protein.ActiveResidues>
 VAL166  LYS551  ARG553  GLY616  TRP617  ASP618  TYR619  PRO620  LYS621  CYS622 
 ASP623  PHE694  ASN695  SER759  ASP760  ASP761  ALA762  ILE779  LEU786  VAL792 
 PHE793  MET794  SER795  GLU796  ALA797  LYS798  CYS799  TRP800  GLU811  SER814 

> <Gold.Protein.RotatedAtoms>
  152.2213  134.8410  160.0485 H   0  0  0  0  0  0  0  0  0  0  0  0  # atno 6907 bound_to 6896
  151.9193  133.3576  159.3899 H   0  0  0  0  0  0  0  0  0  0  0  0  # atno 6908 bound_to 6896
  150.7000  134.4577  159.5410 H   0  0  0  0  0  0  0  0  0  0  0  0  # atno 6909 bound_to 6896
  145.1615  139.3152  143.4514 H   0  0  0  0  0  0  0  0  0  0  0  0  # atno 7974 bound_to 7965
  154.4131  140.1202  156.5141 H   0  0  0  0  0  0  0  0  0  0  0  0  # atno 8008 bound_to 7997
  155.6769  140.3496  155.4820 H   0  0  0  0  0  0  0  0  0  0  0  0  # atno 8009 bound_to 7997
  155.9585  140.1118  157.0906 H   0  0  0  0  0  0  0  0  0  0  0  0  # atno 8010 bound_to 7997
  139.5552  144.6843  151.4205 H   0  0  0  0  0  0  0  0  0  0  0  0  # atno 10167 bound_to 10162
  157.6840  131.0018  150.2273 H   0  0  0  0  0  0  0  0  0  0  0  0  # atno 10718 bound_to 10713
  154.3400  135.6159  153.5592 H   0  0  0  0  0  0  0  0  0  0  0  0  # atno 10763 bound_to 10752
  152.9805  135.5767  154.4864 H   0  0  0  0  0  0  0  0  0  0  0  0  # atno 10764 bound_to 10752
  154.4566  135.2854  155.1720 H   0  0  0  0  0  0  0  0  0  0  0  0  # atno 10765 bound_to 10752
  139.9474  134.9627  156.8759 H   0  0  0  0  0  0  0  0  0  0  0  0  # atno 11005 bound_to 11000
  146.3481  140.1727  142.8589 LP  0  0  0  0  0  0  0  0  0  0  0  0  # atno 17320 bound_to 7965
  145.0326  140.8882  143.5100 LP  0  0  0  0  0  0  0  0  0  0  0  0  # atno 17321 bound_to 7965
  140.6823  143.8054  150.7138 LP  0  0  0  0  0  0  0  0  0  0  0  0  # atno 17342 bound_to 10162
  140.1511  143.4357  152.2130 LP  0  0  0  0  0  0  0  0  0  0  0  0  # atno 17343 bound_to 10162
  156.2912  130.3746  149.7839 LP  0  0  0  0  0  0  0  0  0  0  0  0  # atno 17370 bound_to 10713
  156.5498  130.8337  151.3296 LP  0  0  0  0  0  0  0  0  0  0  0  0  # atno 17371 bound_to 10713
  140.5801  134.0360  155.7461 LP  0  0  0  0  0  0  0  0  0  0  0  0  # atno 17394 bound_to 11000
  141.1128  133.9588  157.2878 LP  0  0  0  0  0  0  0  0  0  0  0  0  # atno 17395 bound_to 11000

$$$$
