AV-unprocessed.smi:1487|AV-procd|sdf|6007|dock5
  -GOLD-   22720 6103D 1   1.00000     0.00000
 Structure written by MMmdl.
 48 50  0  0  0  0  0  0  0  0  2 V2000
  153.1360  143.0854  161.4341 C   0  0  0  0  0  0  0  0  0  0  0  0
  152.7798  142.3335  160.1634 C   0  0  0  0  0  0  0  0  0  0  0  0
  153.0550  140.9497  160.0842 C   0  0  0  0  0  0  0  0  0  0  0  0
  152.7417  140.2144  158.9203 C   0  0  0  0  0  0  0  0  0  0  0  0
  152.9169  138.8721  158.6308 N   0  0  0  0  0  0  0  0  0  0  0  0
  152.4282  138.7975  157.3966 C   0  0  0  0  0  0  0  0  0  0  0  0
  151.9488  139.9330  156.8541 N   0  0  0  0  0  0  0  0  0  0  0  0
  151.3589  140.0885  155.5374 C   0  0  0  0  0  0  0  0  0  0  0  0
  150.2618  139.0432  155.2553 C   0  0  2  0  0  0  0  0  0  0  0  0
  150.9087  137.8404  154.8902 O   0  0  0  0  0  0  0  0  0  0  0  0
  149.2935  139.4631  154.1253 C   0  0  0  0  0  0  0  0  0  0  0  0
  148.2514  138.4438  153.8397 N   0  3  1  0  0  0  0  0  0  0  0  0
  147.7400  137.7647  155.0619 C   0  0  0  0  0  0  0  0  0  0  0  0
  146.7511  136.6422  154.7043 C   0  0  0  0  0  0  0  0  0  0  0  0
  145.5909  137.1809  153.8579 C   0  0  0  0  0  0  0  0  0  0  0  0
  146.1427  137.8998  152.6184 C   0  0  1  0  0  0  0  0  0  0  0  0
  145.0776  138.4798  151.8968 O   0  0  0  0  0  0  0  0  0  0  0  0
  147.1425  138.9991  153.0206 C   0  0  0  0  0  0  0  0  0  0  0  0
  152.1402  140.9066  157.8291 C   0  0  0  0  0  0  0  0  0  0  0  0
  151.8592  142.2828  157.8965 C   0  0  0  0  0  0  0  0  0  0  0  0
  152.1786  143.0023  159.0670 C   0  0  0  0  0  0  0  0  0  0  0  0
  151.8709  144.4878  159.1305 C   0  0  0  0  0  0  0  0  0  0  0  0
  153.6328  142.4357  162.1552 H   0  0  0  0  0  0  0  0  0  0  0  0
  152.2376  143.4840  161.9059 H   0  0  0  0  0  0  0  0  0  0  0  0
  153.8089  143.9143  161.2141 H   0  0  0  0  0  0  0  0  0  0  0  0
  153.5114  140.4396  160.9198 H   0  0  0  0  0  0  0  0  0  0  0  0
  152.4109  137.8616  156.8569 H   0  0  0  0  0  0  0  0  0  0  0  0
  150.9566  141.0990  155.4534 H   0  0  0  0  0  0  0  0  0  0  0  0
  152.1558  140.0097  154.7964 H   0  0  0  0  0  0  0  0  0  0  0  0
  149.7188  138.8661  156.1827 H   0  0  0  0  0  0  0  0  0  0  0  0
  151.6255  138.0404  154.3083 H   0  0  0  0  0  0  0  0  0  0  0  0
  148.7943  140.4031  154.3624 H   0  0  0  0  0  0  0  0  0  0  0  0
  149.8818  139.6534  153.2259 H   0  0  0  0  0  0  0  0  0  0  0  0
  148.5618  137.3362  155.6341 H   0  0  0  0  0  0  0  0  0  0  0  0
  147.2549  138.4966  155.7099 H   0  0  0  0  0  0  0  0  0  0  0  0
  147.2713  135.8546  154.1573 H   0  0  0  0  0  0  0  0  0  0  0  0
  146.3641  136.1831  155.6146 H   0  0  0  0  0  0  0  0  0  0  0  0
  144.9294  136.3648  153.5639 H   0  0  0  0  0  0  0  0  0  0  0  0
  144.9929  137.8701  154.4564 H   0  0  0  0  0  0  0  0  0  0  0  0
  146.6383  137.1780  151.9677 H   0  0  0  0  0  0  0  0  0  0  0  0
  144.8880  139.3294  152.2658 H   0  0  0  0  0  0  0  0  0  0  0  0
  146.6386  139.7873  153.5831 H   0  0  0  0  0  0  0  0  0  0  0  0
  147.5484  139.4615  152.1198 H   0  0  0  0  0  0  0  0  0  0  0  0
  151.4011  142.7813  157.0552 H   0  0  0  0  0  0  0  0  0  0  0  0
  151.3664  144.8291  158.2261 H   0  0  0  0  0  0  0  0  0  0  0  0
  152.7907  145.0634  159.2385 H   0  0  0  0  0  0  0  0  0  0  0  0
  151.2216  144.7089  159.9780 H   0  0  0  0  0  0  0  0  0  0  0  0
  148.6921  137.7372  153.2687 H   0  0  0  0  0  0  0  0  0  0  0  0
  1  2  1  0  0  0  0
  1 23  1  0  0  0  0
  1 24  1  0  0  0  0
  1 25  1  0  0  0  0
  2 21  1  0  0  0  0
  2  3  2  0  0  0  0
  3  4  1  0  0  0  0
  3 26  1  0  0  0  0
  4 19  2  0  0  0  0
  4  5  1  0  0  0  0
  5  6  2  0  0  0  0
  6  7  1  0  0  0  0
  6 27  1  0  0  0  0
  7  8  1  0  0  0  0
  7 19  1  0  0  0  0
  8  9  1  0  0  0  0
  8 28  1  0  0  0  0
  8 29  1  0  0  0  0
  9 10  1  0  0  0  0
  9 11  1  0  0  0  0
  9 30  1  0  0  0  0
 10 31  1  0  0  0  0
 11 12  1  0  0  0  0
 11 32  1  0  0  0  0
 11 33  1  0  0  0  0
 12 18  1  0  0  0  0
 12 13  1  0  0  0  0
 12 48  1  0  0  0  0
 13 14  1  0  0  0  0
 13 34  1  0  0  0  0
 13 35  1  0  0  0  0
 14 15  1  0  0  0  0
 14 36  1  0  0  0  0
 14 37  1  0  0  0  0
 15 16  1  0  0  0  0
 15 38  1  0  0  0  0
 15 39  1  0  0  0  0
 16 17  1  0  0  0  0
 16 18  1  0  0  0  0
 16 40  1  0  0  0  0
 17 41  1  0  0  0  0
 18 42  1  0  0  0  0
 18 43  1  0  0  0  0
 19 20  1  0  0  0  0
 20 21  2  0  0  0  0
 20 44  1  0  0  0  0
 21 22  1  0  0  0  0
 22 45  1  0  0  0  0
 22 46  1  0  0  0  0
 22 47  1  0  0  0  0
M  CHG  1  12   1
M  END
> <s_m_source_file>
AV-unprocessed.smi

> <i_m_source_file_index>
1487

> <i_lp_mmshare_version>
43012

> <i_f3d_flags>
0

> <s_epik_input>
W0NIM11jKFtjSF0xKWMoW0NIM10pW2NIXWMoYzEyKW4oW2NIXW4yKVtDSDJdW0NASF0oW09IXSlbQ0gyXU4zW0NIMl1bQ0gyXVtDSDJdW0NAQEhdKFtPSF0pW0NIMl0z

> <s_epik_cmdline>
J2VwaWtfcHl0aG9uJywgJy1waCcsICc3LjAnLCAnLXRuJywgJzgnLCAnLW1hJywgJzIwMCcsICctbWV0YWxfYmluZGluZycsICctaW1hZScsICc8aW5maWxlLm1hZT4nLCAnLW9tYWUnLCAnPG91dGZpbGUubWFlPic=

> <r_epik_Ionization_Penalty>
0.0940186

> <r_epik_Ionization_Penalty_Charging>
0.00679686

> <r_epik_Ionization_Penalty_Neutral>
0.0872218

> <r_epik_State_Penalty>
0.0799311

> <r_epik_Charging_Adjusted_Penalty>
0.086728

> <i_epik_Tot_Q>
1

> <i_epik_Tot_abs_Q>
1

> <r_epik_Metal_State_Penalty>
7.95545e-05

> <b_epik_Metal_Only>
0

> <s_lp_Force_Field>
OPLS_2005

> <r_lp_Energy>
20.897

> <b_lp_Chiralities_Consistent>
1

> <s_lp_Variant>
AV-unprocessed.smi:1487-1

> <Gold.Version>
5.8.1

> <Gold.Id.Protein>
6NUR|6NUR_protein|mol2

> <Gold.PLP.Fitness>
49.0709

> <Gold.PLP.PLP>
-40.9208

> <Gold.PLP.part.hbond>
-2.4338

> <Gold.PLP.part.metal>
0.0000

> <Gold.PLP.part.buried>
-2.5202

> <Gold.PLP.part.nonpolar>
-35.5351

> <Gold.PLP.part.repulsive>
0.0114

> <Gold.PLP.ligand.clash>
0.0000

> <Gold.PLP.ligand.torsion>
0.4428

> <Gold.PLP.Chemscore.Hbond>
3.0000

> <Gold.PLP.Chemscore.CHOScore>
0.0000

> <Gold.PLP.Chemscore.Metal>
0.0000

> <Gold.Chemscore.Hbonds>
donor molecule, donor type, donor heavy atom, donor atom, acceptor molecule, acceptor atom, score
      L1  H    12    48       P1  7948  1.85
      L1  H    17    41       P1 10175  0.85

> <Gold.PLP.Chemscore.Internal.Correction>
0.0358

> <Gold.Rescore>
     Score         DG    S(hbond)    S(metal)    S(lipo)     H(rot)  DE(clash)    DE(int)     intcor
     17.89     -18.45       1.89        0.00     115.36       2.67       0.10       0.45       ----

> <Gold.Chemscore.Fitness>
17.8947

> <Gold.Chemscore.DG>
-18.4479

> <Gold.Chemscore.ZeroCoef>
-5.4800

> <Gold.Chemscore.Hbond>
1.8888

> <Gold.Chemscore.Metal>
0.0000

> <Gold.Chemscore.Lipo>
115.3641

> <Gold.Chemscore.Internal_Hbond>
0.0000

> <Gold.Chemscore.DEClash>
0.0997

> <Gold.Chemscore.DEInternal>
0.4535

> <Gold.Chemscore.Rot>
2.6712

> <Gold.Chemscore.Internal.Correction>
   9.000000E+99

> <Gold.Chemscore.Hbonds>
donor molecule, donor type, donor heavy atom, donor atom, acceptor molecule, acceptor atom, score
      L1  H    12    48       P1  7948  0.88
      L1  H    17    41       P1 10175  0.85

> <Gold.Chemscore.Hbond.Weighted>
-6.3087

> <Gold.Chemscore.Metal.Weighted>
-0.0000

> <Gold.Chemscore.Lipo.Weighted>
-13.4976

> <Gold.Chemscore.Internal_Hbond.Weighted>
0.0000

> <Gold.Chemscore.DEClash.Weighted>
0.0997

> <Gold.Chemscore.DEInternal.Weighted>
0.4535

> <Gold.Chemscore.Rot.Weighted>
6.8383

> <Gold.Chemscore.Internal.Correction.Weighted>
   9.000000E+99

> <Gold.Protein.RotatedTorsions>
[ 6907 6896 6895 6894 ] final   57.22 input  -60.11 | X-H torsion
[ 7974 7965 7964 7962 ] final  -84.64 input  175.53 | X-H torsion
[ 8008 7997 7996 7995 ] final  129.44 input   59.86 | X-H torsion
[ 10167 10162 10161 10158 ] final  170.90 input  -65.29 | X-H torsion
[ 10718 10713 10712 10709 ] final  173.90 input   66.30 | X-H torsion
[ 10763 10752 10751 10750 ] final   94.30 input  -60.55 | X-H torsion
[ 11005 11000 10999 10996 ] final  177.82 input  -57.11 | X-H torsion

> <Gold.Protein.ActiveResidues>
 VAL166  LYS551  ARG553  GLY616  TRP617  ASP618  TYR619  PRO620  LYS621  CYS622 
 ASP623  PHE694  ASN695  SER759  ASP760  ASP761  ALA762  ILE779  LEU786  VAL792 
 PHE793  MET794  SER795  GLU796  ALA797  LYS798  CYS799  TRP800  GLU811  SER814 

> <Gold.Protein.RotatedAtoms>
  152.3711  134.6733  160.0175 H   0  0  0  0  0  0  0  0  0  0  0  0  # atno 6907 bound_to 6896
  151.7025  133.3306  159.3278 H   0  0  0  0  0  0  0  0  0  0  0  0  # atno 6908 bound_to 6896
  150.7674  134.6538  159.6347 H   0  0  0  0  0  0  0  0  0  0  0  0  # atno 6909 bound_to 6896
  145.5039  140.9545  143.1745 H   0  0  0  0  0  0  0  0  0  0  0  0  # atno 7974 bound_to 7965
  156.2936  140.2620  156.2599 H   0  0  0  0  0  0  0  0  0  0  0  0  # atno 8008 bound_to 7997
  154.9799  140.0390  157.2291 H   0  0  0  0  0  0  0  0  0  0  0  0  # atno 8009 bound_to 7997
  154.7781  140.2790  155.6090 H   0  0  0  0  0  0  0  0  0  0  0  0  # atno 8010 bound_to 7997
  139.5031  144.3545  151.9889 H   0  0  0  0  0  0  0  0  0  0  0  0  # atno 10167 bound_to 10162
  156.9575  131.0050  151.2935 H   0  0  0  0  0  0  0  0  0  0  0  0  # atno 10718 bound_to 10713
  153.2400  135.4295  155.0688 H   0  0  0  0  0  0  0  0  0  0  0  0  # atno 10763 bound_to 10752
  154.8336  135.3400  154.6663 H   0  0  0  0  0  0  0  0  0  0  0  0  # atno 10764 bound_to 10752
  153.7087  135.7024  153.5100 H   0  0  0  0  0  0  0  0  0  0  0  0  # atno 10765 bound_to 10752
  140.3883  134.6885  157.4492 H   0  0  0  0  0  0  0  0  0  0  0  0  # atno 11005 bound_to 11000
  144.7765  139.6619  143.7173 LP  0  0  0  0  0  0  0  0  0  0  0  0  # atno 17320 bound_to 7965
  146.2209  139.5634  142.9619 LP  0  0  0  0  0  0  0  0  0  0  0  0  # atno 17321 bound_to 7965
  140.2981  144.3677  150.6068 LP  0  0  0  0  0  0  0  0  0  0  0  0  # atno 17342 bound_to 10162
  140.5894  143.2168  151.7281 LP  0  0  0  0  0  0  0  0  0  0  0  0  # atno 17343 bound_to 10162
  157.5680  130.8291  149.8353 LP  0  0  0  0  0  0  0  0  0  0  0  0  # atno 17370 bound_to 10713
  156.0336  130.3757  150.1620 LP  0  0  0  0  0  0  0  0  0  0  0  0  # atno 17371 bound_to 10713
  140.0426  134.6246  155.8962 LP  0  0  0  0  0  0  0  0  0  0  0  0  # atno 17394 bound_to 11000
  141.1900  133.6567  156.5391 LP  0  0  0  0  0  0  0  0  0  0  0  0  # atno 17395 bound_to 11000

$$$$
