AV-unprocessed.smi:2562|AV-procd|sdf|10047|dock8
  -GOLD-   2272014 93D 1   1.00000     0.00000
 Structure written by MMmdl.
 30 31  0  0  0  0  0  0  0  0  1 V2000
  152.9486  142.6518  160.3926 C   0  0  0  0  0  0  0  0  0  0  0  0
  151.9624  143.7745  160.0512 C   0  0  0  0  0  0  0  0  0  0  0  0
  151.9989  144.1587  158.5651 C   0  0  0  0  0  0  0  0  0  0  0  0
  151.5425  143.0518  157.6717 C   0  0  0  0  0  0  0  0  0  0  0  0
  150.5340  143.1996  156.8106 N   0  0  0  0  0  0  0  0  0  0  0  0
  150.3541  142.0475  156.1311 N   0  0  0  0  0  0  0  0  0  0  0  0
  151.2916  141.2617  156.6603 C   0  0  0  0  0  0  0  0  0  0  0  0
  151.4840  139.8605  156.1680 C   0  0  1  0  0  0  0  0  0  0  0  0
  150.2081  139.2914  155.5170 C   0  0  0  0  0  0  0  0  0  0  0  0
  150.4705  137.9614  154.9687 N   0  0  0  0  0  0  0  0  0  0  0  0
  151.5984  137.9867  154.0380 C   0  0  0  0  0  0  0  0  0  0  0  0
  152.8396  138.5969  154.7143 C   0  0  0  0  0  0  0  0  0  0  0  0
  152.5302  139.8989  155.1997 O   0  0  0  0  0  0  0  0  0  0  0  0
  152.0855  141.8408  157.6141 N   0  0  0  0  0  0  0  0  0  0  0  0
  149.9727  144.0250  156.6563 H   0  0  0  0  0  0  0  0  0  0  0  0
  152.8971  142.3978  161.4515 H   0  0  0  0  0  0  0  0  0  0  0  0
  153.9744  142.9483  160.1717 H   0  0  0  0  0  0  0  0  0  0  0  0
  152.7297  141.7486  159.8226 H   0  0  0  0  0  0  0  0  0  0  0  0
  150.9538  143.4614  160.3233 H   0  0  0  0  0  0  0  0  0  0  0  0
  152.1900  144.6491  160.6617 H   0  0  0  0  0  0  0  0  0  0  0  0
  151.3640  145.0280  158.3889 H   0  0  0  0  0  0  0  0  0  0  0  0
  153.0102  144.4501  158.2781 H   0  0  0  0  0  0  0  0  0  0  0  0
  151.7911  139.2333  157.0076 H   0  0  0  0  0  0  0  0  0  0  0  0
  149.4015  139.2426  156.2488 H   0  0  0  0  0  0  0  0  0  0  0  0
  149.8709  139.9580  154.7222 H   0  0  0  0  0  0  0  0  0  0  0  0
  149.6425  137.6219  154.4899 H   0  0  0  0  0  0  0  0  0  0  0  0
  151.8194  136.9775  153.6899 H   0  0  0  0  0  0  0  0  0  0  0  0
  151.3378  138.5729  153.1561 H   0  0  0  0  0  0  0  0  0  0  0  0
  153.1916  137.9636  155.5302 H   0  0  0  0  0  0  0  0  0  0  0  0
  153.6565  138.6749  153.9968 H   0  0  0  0  0  0  0  0  0  0  0  0
  1  2  1  0  0  0  0
  1 16  1  0  0  0  0
  1 17  1  0  0  0  0
  1 18  1  0  0  0  0
  2  3  1  0  0  0  0
  2 19  1  0  0  0  0
  2 20  1  0  0  0  0
  3 21  1  0  0  0  0
  3 22  1  0  0  0  0
  3  4  1  0  0  0  0
  4 14  2  0  0  0  0
  4  5  1  0  0  0  0
  5  6  1  0  0  0  0
  5 15  1  0  0  0  0
  6  7  2  0  0  0  0
  7 14  1  0  0  0  0
  7  8  1  0  0  0  0
  8 13  1  0  0  0  0
  8  9  1  0  0  0  0
  8 23  1  0  0  0  0
  9 10  1  0  0  0  0
  9 24  1  0  0  0  0
  9 25  1  0  0  0  0
 10 11  1  0  0  0  0
 10 26  1  0  0  0  0
 11 12  1  0  0  0  0
 11 27  1  0  0  0  0
 11 28  1  0  0  0  0
 12 13  1  0  0  0  0
 12 29  1  0  0  0  0
 12 30  1  0  0  0  0
M  END
> <s_m_source_file>
AV-unprocessed.smi

> <i_m_source_file_index>
2562

> <i_lp_mmshare_version>
43012

> <i_f3d_flags>
0

> <s_epik_input>
W0NIM11bQ0gyXVtDSDJdYzFuW25IXWMobjEpW0NAQEhdMltDSDJdW05IXVtDSDJdW0NIMl1PMg==

> <s_epik_cmdline>
J2VwaWtfcHl0aG9uJywgJy1waCcsICc3LjAnLCAnLXRuJywgJzgnLCAnLW1hJywgJzIwMCcsICctbWV0YWxfYmluZGluZycsICctaW1hZScsICc8aW5maWxlLm1hZT4nLCAnLW9tYWUnLCAnPG91dGZpbGUubWFlPic=

> <r_epik_Ionization_Penalty>
1.10136

> <r_epik_Ionization_Penalty_Charging>
0

> <r_epik_Ionization_Penalty_Neutral>
1.10136

> <r_epik_State_Penalty>
1.43987

> <r_epik_Charging_Adjusted_Penalty>
1.43987

> <i_epik_Tot_Q>
0

> <i_epik_Tot_abs_Q>
0

> <r_epik_Metal_State_Penalty>
1.55976

> <b_epik_Metal_Only>
0

> <s_lp_Force_Field>
OPLS_2005

> <r_lp_Energy>
12.0534

> <b_lp_Chiralities_Consistent>
1

> <s_lp_Variant>
AV-unprocessed.smi:2562-6

> <Gold.Version>
5.8.1

> <Gold.Id.Protein>
6NUR|6NUR_protein|mol2

> <Gold.PLP.Fitness>
33.8652

> <Gold.PLP.PLP>
-29.1458

> <Gold.PLP.part.hbond>
-2.9077

> <Gold.PLP.part.metal>
0.0000

> <Gold.PLP.part.buried>
-1.9165

> <Gold.PLP.part.nonpolar>
-23.8551

> <Gold.PLP.part.repulsive>
0.3722

> <Gold.PLP.ligand.clash>
0.0000

> <Gold.PLP.ligand.torsion>
0.6536

> <Gold.PLP.Chemscore.Hbond>
2.0047

> <Gold.PLP.Chemscore.CHOScore>
0.0000

> <Gold.PLP.Chemscore.Metal>
0.0000

> <Gold.Chemscore.Hbonds>
donor molecule, donor type, donor heavy atom, donor atom, acceptor molecule, acceptor atom, score
      L1  H     5    15       P1  8028  0.91
      P1  H  7989  7998       L1    13  0.45
      P1  H  7997  8009       L1    13  0.61

> <Gold.PLP.Chemscore.Internal.Correction>
0.0124

> <Gold.Rescore>
     Score         DG    S(hbond)    S(metal)    S(lipo)     H(rot)  DE(clash)    DE(int)     intcor
     12.69     -13.80       1.31        0.00      65.98       1.48       0.90       0.22       ----

> <Gold.Chemscore.Fitness>
12.6871

> <Gold.Chemscore.DG>
-13.7987

> <Gold.Chemscore.ZeroCoef>
-5.4800

> <Gold.Chemscore.Hbond>
1.3113

> <Gold.Chemscore.Metal>
0.0000

> <Gold.Chemscore.Lipo>
65.9805

> <Gold.Chemscore.Internal_Hbond>
0.0000

> <Gold.Chemscore.DEClash>
0.8960

> <Gold.Chemscore.DEInternal>
0.2156

> <Gold.Chemscore.Rot>
1.4769

> <Gold.Chemscore.Internal.Correction>
   9.000000E+99

> <Gold.Chemscore.Hbonds>
donor molecule, donor type, donor heavy atom, donor atom, acceptor molecule, acceptor atom, score
      L1  H     5    15       P1  8028  0.88
      P1  H  7989  7998       L1    13  0.09
      P1  H  7997  8009       L1    13  0.05

> <Gold.Chemscore.Hbond.Weighted>
-4.3798

> <Gold.Chemscore.Metal.Weighted>
-0.0000

> <Gold.Chemscore.Lipo.Weighted>
-7.7197

> <Gold.Chemscore.Internal_Hbond.Weighted>
0.0000

> <Gold.Chemscore.DEClash.Weighted>
0.8960

> <Gold.Chemscore.DEInternal.Weighted>
0.2156

> <Gold.Chemscore.Rot.Weighted>
3.7808

> <Gold.Chemscore.Internal.Correction.Weighted>
   9.000000E+99

> <Gold.Protein.RotatedTorsions>
[ 6907 6896 6895 6894 ] final  177.19 input  -60.11 | X-H torsion
[ 7974 7965 7964 7962 ] final   77.50 input  175.53 | X-H torsion
[ 8008 7997 7996 7995 ] final -139.99 input   59.86 | X-H torsion
[ 10167 10162 10161 10158 ] final  102.04 input  -65.29 | X-H torsion
[ 10718 10713 10712 10709 ] final -161.41 input   66.30 | X-H torsion
[ 10763 10752 10751 10750 ] final  164.47 input  -60.55 | X-H torsion
[ 11005 11000 10999 10996 ] final -128.45 input  -57.11 | X-H torsion

> <Gold.Protein.ActiveResidues>
 VAL166  LYS551  ARG553  GLY616  TRP617  ASP618  TYR619  PRO620  LYS621  CYS622 
 ASP623  PHE694  ASN695  SER759  ASP760  ASP761  ALA762  ILE779  LEU786  VAL792 
 PHE793  MET794  SER795  GLU796  ALA797  LYS798  CYS799  TRP800  GLU811  SER814 

> <Gold.Protein.RotatedAtoms>
  151.7079  133.3312  159.3283 H   0  0  0  0  0  0  0  0  0  0  0  0  # atno 6907 bound_to 6896
  150.7707  134.6558  159.6322 H   0  0  0  0  0  0  0  0  0  0  0  0  # atno 6908 bound_to 6896
  152.3729  134.6709  160.0221 H   0  0  0  0  0  0  0  0  0  0  0  0  # atno 6909 bound_to 6896
  145.6892  139.2547  143.1770 H   0  0  0  0  0  0  0  0  0  0  0  0  # atno 7974 bound_to 7965
  155.4540  140.0541  157.2998 H   0  0  0  0  0  0  0  0  0  0  0  0  # atno 8008 bound_to 7997
  154.4765  140.2063  155.9821 H   0  0  0  0  0  0  0  0  0  0  0  0  # atno 8009 bound_to 7997
  156.1140  140.3199  155.8117 H   0  0  0  0  0  0  0  0  0  0  0  0  # atno 8010 bound_to 7997
  139.7385  144.7017  151.0612 H   0  0  0  0  0  0  0  0  0  0  0  0  # atno 10167 bound_to 10162
  156.5958  130.8789  151.2901 H   0  0  0  0  0  0  0  0  0  0  0  0  # atno 10718 bound_to 10713
  154.3094  135.2757  155.2573 H   0  0  0  0  0  0  0  0  0  0  0  0  # atno 10763 bound_to 10752
  154.4975  135.5817  153.6509 H   0  0  0  0  0  0  0  0  0  0  0  0  # atno 10764 bound_to 10752
  152.9890  135.6150  154.3270 H   0  0  0  0  0  0  0  0  0  0  0  0  # atno 10765 bound_to 10752
  140.9515  134.1059  157.4058 H   0  0  0  0  0  0  0  0  0  0  0  0  # atno 11005 bound_to 11000
  146.0897  140.7670  142.9601 LP  0  0  0  0  0  0  0  0  0  0  0  0  # atno 17320 bound_to 7965
  144.7002  140.3618  143.7162 LP  0  0  0  0  0  0  0  0  0  0  0  0  # atno 17321 bound_to 7965
  140.7782  143.4954  150.9839 LP  0  0  0  0  0  0  0  0  0  0  0  0  # atno 17342 bound_to 10162
  139.8642  143.7275  152.3171 LP  0  0  0  0  0  0  0  0  0  0  0  0  # atno 17343 bound_to 10162
  157.7292  130.9668  150.1777 LP  0  0  0  0  0  0  0  0  0  0  0  0  # atno 17370 bound_to 10713
  156.2511  130.3700  149.8231 LP  0  0  0  0  0  0  0  0  0  0  0  0  # atno 17371 bound_to 10713
  139.8849  135.0067  156.6398 LP  0  0  0  0  0  0  0  0  0  0  0  0  # atno 17394 bound_to 11000
  140.7596  133.8828  155.8408 LP  0  0  0  0  0  0  0  0  0  0  0  0  # atno 17395 bound_to 11000

$$$$
