AV-unprocessed.smi:3314|AV-procd|sdf|12745|dock8
  -GOLD-   2272019 83D 1   1.00000     0.00000
 Structure written by MMmdl.
 37 38  0  0  0  0  0  0  0  0  3 V2000
  151.8092  144.4508  159.2990 C   0  0  0  0  0  0  0  0  0  0  0  0
  152.3934  143.0690  159.5020 C   0  0  0  0  0  0  0  0  0  0  0  0
  153.1061  142.7496  160.6734 C   0  0  0  0  0  0  0  0  0  0  0  0
  153.6265  141.4468  160.7981 C   0  0  0  0  0  0  0  0  0  0  0  0
  154.4003  141.0398  162.0344 C   0  0  0  0  0  0  0  0  0  0  0  0
  153.4689  140.4951  159.8526 N   0  0  0  0  0  0  0  0  0  0  0  0
  152.7803  140.7882  158.7237 C   0  0  0  0  0  0  0  0  0  0  0  0
  152.6410  139.8370  157.7895 N   0  5  0  0  0  0  0  0  0  0  0  0
  151.4589  139.6903  157.1435 C   0  0  0  0  0  0  0  0  0  0  0  0
  150.5030  138.9732  157.4468 O   0  0  0  0  0  0  0  0  0  0  0  0
  151.3939  140.5683  155.8733 C   0  0  2  0  0  0  0  0  0  0  0  0
  150.1705  141.5140  155.8136 C   0  0  0  0  0  0  0  0  0  0  0  0
  148.9170  140.7496  155.6087 N   0  3  1  0  0  0  0  0  0  0  0  0
  147.7148  141.6089  155.6195 C   0  0  0  0  0  0  0  0  0  0  0  0
  149.0070  139.9052  154.3965 C   0  0  0  0  0  0  0  0  0  0  0  0
  150.2352  138.9841  154.4771 C   0  0  0  0  0  0  0  0  0  0  0  0
  151.4093  139.7688  154.6836 O   0  0  0  0  0  0  0  0  0  0  0  0
  152.2332  142.0756  158.5154 C   0  0  0  0  0  0  0  0  0  0  0  0
  151.8935  145.0538  160.2036 H   0  0  0  0  0  0  0  0  0  0  0  0
  150.7540  144.3803  159.0341 H   0  0  0  0  0  0  0  0  0  0  0  0
  152.3326  144.9661  158.4935 H   0  0  0  0  0  0  0  0  0  0  0  0
  153.2513  143.4816  161.4542 H   0  0  0  0  0  0  0  0  0  0  0  0
  154.9341  141.8929  162.4542 H   0  0  0  0  0  0  0  0  0  0  0  0
  155.1318  140.2648  161.8018 H   0  0  0  0  0  0  0  0  0  0  0  0
  153.7191  140.6531  162.7924 H   0  0  0  0  0  0  0  0  0  0  0  0
  152.2965  141.1811  155.8641 H   0  0  0  0  0  0  0  0  0  0  0  0
  150.1005  142.1046  156.7283 H   0  0  0  0  0  0  0  0  0  0  0  0
  150.2969  142.2250  154.9956 H   0  0  0  0  0  0  0  0  0  0  0  0
  147.7383  142.3257  154.7978 H   0  0  0  0  0  0  0  0  0  0  0  0
  147.6471  142.1622  156.5567 H   0  0  0  0  0  0  0  0  0  0  0  0
  146.8115  141.0058  155.5230 H   0  0  0  0  0  0  0  0  0  0  0  0
  148.1016  139.3059  154.2948 H   0  0  0  0  0  0  0  0  0  0  0  0
  149.0737  140.5406  153.5120 H   0  0  0  0  0  0  0  0  0  0  0  0
  150.1129  138.2395  155.2647 H   0  0  0  0  0  0  0  0  0  0  0  0
  150.3467  138.4303  153.5449 H   0  0  0  0  0  0  0  0  0  0  0  0
  151.6921  142.2977  157.6069 H   0  0  0  0  0  0  0  0  0  0  0  0
  148.8345  140.1212  156.3962 H   0  0  0  0  0  0  0  0  0  0  0  0
  1  2  1  0  0  0  0
  1 19  1  0  0  0  0
  1 20  1  0  0  0  0
  1 21  1  0  0  0  0
  2 18  2  0  0  0  0
  2  3  1  0  0  0  0
  3  4  2  0  0  0  0
  3 22  1  0  0  0  0
  4  5  1  0  0  0  0
  4  6  1  0  0  0  0
  5 23  1  0  0  0  0
  5 24  1  0  0  0  0
  5 25  1  0  0  0  0
  6  7  2  0  0  0  0
  7  8  1  0  0  0  0
  7 18  1  0  0  0  0
  8  9  1  0  0  0  0
  9 10  2  0  0  0  0
  9 11  1  0  0  0  0
 11 17  1  0  0  0  0
 11 12  1  0  0  0  0
 11 26  1  0  0  0  0
 12 13  1  0  0  0  0
 12 27  1  0  0  0  0
 12 28  1  0  0  0  0
 13 14  1  0  0  0  0
 13 15  1  0  0  0  0
 13 37  1  0  0  0  0
 14 29  1  0  0  0  0
 14 30  1  0  0  0  0
 14 31  1  0  0  0  0
 15 16  1  0  0  0  0
 15 32  1  0  0  0  0
 15 33  1  0  0  0  0
 16 17  1  0  0  0  0
 16 34  1  0  0  0  0
 16 35  1  0  0  0  0
 18 36  1  0  0  0  0
M  CHG  1   8  -1
M  CHG  1  13   1
M  END
> <s_m_source_file>
AV-unprocessed.smi

> <i_m_source_file_index>
3314

> <i_lp_mmshare_version>
43012

> <i_f3d_flags>
0

> <s_epik_input>
W0NIM11jMVtjSF1jKFtDSDNdKW5jKFtjSF0xKVtOSF1DKD1PKVtDQEBIXTJbQ0gyXU4oW0NIM10pW0NIMl1bQ0gyXU8y

> <s_epik_cmdline>
J2VwaWtfcHl0aG9uJywgJy1waCcsICc3LjAnLCAnLXRuJywgJzgnLCAnLW1hJywgJzIwMCcsICctbWV0YWxfYmluZGluZycsICctaW1hZScsICc8aW5maWxlLm1hZT4nLCAnLW9tYWUnLCAnPG91dGZpbGUubWFlPic=

> <r_epik_Ionization_Penalty>
13.8964

> <r_epik_Ionization_Penalty_Charging>
7.88995

> <r_epik_Ionization_Penalty_Neutral>
6.00641

> <r_epik_State_Penalty>
8.39989

> <r_epik_Charging_Adjusted_Penalty>
16.2898

> <i_epik_Tot_Q>
0

> <i_epik_Tot_abs_Q>
2

> <r_epik_Metal_State_Penalty>
4.31145

> <b_epik_Metal_Only>
1

> <s_lp_Force_Field>
OPLS_2005

> <r_lp_Energy>
7.08272

> <b_lp_Chiralities_Consistent>
1

> <s_lp_Variant>
AV-unprocessed.smi:3314-15

> <Gold.Version>
5.8.1

> <Gold.Id.Protein>
6NUR|6NUR_protein|mol2

> <Gold.PLP.Fitness>
45.9523

> <Gold.PLP.PLP>
-39.2583

> <Gold.PLP.part.hbond>
-2.0000

> <Gold.PLP.part.metal>
0.0000

> <Gold.PLP.part.buried>
-3.4111

> <Gold.PLP.part.nonpolar>
-33.3269

> <Gold.PLP.part.repulsive>
0.1387

> <Gold.PLP.ligand.clash>
0.0000

> <Gold.PLP.ligand.torsion>
1.1738

> <Gold.PLP.Chemscore.Hbond>
3.0000

> <Gold.PLP.Chemscore.CHOScore>
0.0000

> <Gold.PLP.Chemscore.Metal>
0.0000

> <Gold.Chemscore.Hbonds>
donor molecule, donor type, donor heavy atom, donor atom, acceptor molecule, acceptor atom, score
      P1  H  7989  7998       L1    17  1.00
      P1  H  7997  8008       L1     8  1.55

> <Gold.PLP.Chemscore.Internal.Correction>
0.0415

> <Gold.Rescore>
     Score         DG    S(hbond)    S(metal)    S(lipo)     H(rot)  DE(clash)    DE(int)     intcor
     15.93     -18.26       1.37        0.00      91.88       1.00       0.00       2.33       ----

> <Gold.Chemscore.Fitness>
15.9304

> <Gold.Chemscore.DG>
-18.2620

> <Gold.Chemscore.ZeroCoef>
-5.4800

> <Gold.Chemscore.Hbond>
1.3748

> <Gold.Chemscore.Metal>
0.0000

> <Gold.Chemscore.Lipo>
91.8820

> <Gold.Chemscore.Internal_Hbond>
0.0000

> <Gold.Chemscore.DEClash>
0.0000

> <Gold.Chemscore.DEInternal>
2.3316

> <Gold.Chemscore.Rot>
1.0000

> <Gold.Chemscore.Internal.Correction>
   9.000000E+99

> <Gold.Chemscore.Hbonds>
donor molecule, donor type, donor heavy atom, donor atom, acceptor molecule, acceptor atom, score
      P1  H  7989  7998       L1    17  0.34
      P1  H  7997  8008       L1     8  0.13

> <Gold.Chemscore.Hbond.Weighted>
-4.5918

> <Gold.Chemscore.Metal.Weighted>
-0.0000

> <Gold.Chemscore.Lipo.Weighted>
-10.7502

> <Gold.Chemscore.Internal_Hbond.Weighted>
0.0000

> <Gold.Chemscore.DEClash.Weighted>
0.0000

> <Gold.Chemscore.DEInternal.Weighted>
2.3316

> <Gold.Chemscore.Rot.Weighted>
2.5600

> <Gold.Chemscore.Internal.Correction.Weighted>
   9.000000E+99

> <Gold.Protein.RotatedTorsions>
[ 6907 6896 6895 6894 ] final  -42.47 input  -60.11 | X-H torsion
[ 7974 7965 7964 7962 ] final  104.11 input  175.53 | X-H torsion
[ 8008 7997 7996 7995 ] final  -78.36 input   59.86 | X-H torsion
[ 10167 10162 10161 10158 ] final -142.13 input  -65.29 | X-H torsion
[ 10718 10713 10712 10709 ] final  147.87 input   66.30 | X-H torsion
[ 10763 10752 10751 10750 ] final  -30.06 input  -60.55 | X-H torsion
[ 11005 11000 10999 10996 ] final  -85.65 input  -57.11 | X-H torsion

> <Gold.Protein.ActiveResidues>
 VAL166  LYS551  ARG553  GLY616  TRP617  ASP618  TYR619  PRO620  LYS621  CYS622 
 ASP623  PHE694  ASN695  SER759  ASP760  ASP761  ALA762  ILE779  LEU786  VAL792 
 PHE793  MET794  SER795  GLU796  ALA797  LYS798  CYS799  TRP800  GLU811  SER814 

> <Gold.Protein.RotatedAtoms>
  150.9549  134.8944  159.7694 H   0  0  0  0  0  0  0  0  0  0  0  0  # atno 6907 bound_to 6896
  152.5134  134.3754  159.9342 H   0  0  0  0  0  0  0  0  0  0  0  0  # atno 6908 bound_to 6896
  151.3768  133.3795  159.2740 H   0  0  0  0  0  0  0  0  0  0  0  0  # atno 6909 bound_to 6896
  145.3371  139.2472  143.3630 H   0  0  0  0  0  0  0  0  0  0  0  0  # atno 7974 bound_to 7965
  154.5682  140.0695  156.8924 H   0  0  0  0  0  0  0  0  0  0  0  0  # atno 8008 bound_to 7997
  155.2683  140.3363  155.4249 H   0  0  0  0  0  0  0  0  0  0  0  0  # atno 8009 bound_to 7997
  156.2097  140.1754  156.7707 H   0  0  0  0  0  0  0  0  0  0  0  0  # atno 8010 bound_to 7997
  139.8118  143.7692  152.2663 H   0  0  0  0  0  0  0  0  0  0  0  0  # atno 10167 bound_to 10162
  157.3156  131.0895  151.1281 H   0  0  0  0  0  0  0  0  0  0  0  0  # atno 10718 bound_to 10713
  153.7748  135.6909  153.4899 H   0  0  0  0  0  0  0  0  0  0  0  0  # atno 10763 bound_to 10752
  153.1850  135.4492  155.0076 H   0  0  0  0  0  0  0  0  0  0  0  0  # atno 10764 bound_to 10752
  154.8104  135.3375  154.7255 H   0  0  0  0  0  0  0  0  0  0  0  0  # atno 10765 bound_to 10752
  141.1639  133.7411  156.9046 H   0  0  0  0  0  0  0  0  0  0  0  0  # atno 11005 bound_to 11000
  146.3022  140.3960  142.8700 LP  0  0  0  0  0  0  0  0  0  0  0  0  # atno 17320 bound_to 7965
  144.8819  140.7412  143.5981 LP  0  0  0  0  0  0  0  0  0  0  0  0  # atno 17321 bound_to 7965
  139.7844  144.7433  151.0043 LP  0  0  0  0  0  0  0  0  0  0  0  0  # atno 17342 bound_to 10162
  140.7817  143.4508  151.0415 LP  0  0  0  0  0  0  0  0  0  0  0  0  # atno 17343 bound_to 10162
  157.2586  130.6648  149.5964 LP  0  0  0  0  0  0  0  0  0  0  0  0  # atno 17370 bound_to 10713
  155.9681  130.4516  150.5741 LP  0  0  0  0  0  0  0  0  0  0  0  0  # atno 17371 bound_to 10713
  140.1559  134.9198  157.2653 LP  0  0  0  0  0  0  0  0  0  0  0  0  # atno 17394 bound_to 11000
  140.2668  134.3507  155.7387 LP  0  0  0  0  0  0  0  0  0  0  0  0  # atno 17395 bound_to 11000

$$$$
