AV-unprocessed.smi:2069|AV-procd|sdf|8434|dock6
  -GOLD-   2272011133D 1   1.00000     0.00000
 Structure written by MMmdl.
 39 40  0  0  0  0  0  0  0  0  2 V2000
  153.4162  142.4104  161.0212 C   0  0  0  0  0  0  0  0  0  0  0  0
  152.6539  142.8090  159.8042 C   0  0  0  0  0  0  0  0  0  0  0  0
  152.7111  144.0422  159.2868 N   0  0  0  0  0  0  0  0  0  0  0  0
  151.9220  144.1741  158.1528 N   0  0  0  0  0  0  0  0  0  0  0  0
  151.2920  143.0317  157.8468 C   0  0  0  0  0  0  0  0  0  0  0  0
  150.4257  142.8829  156.7316 N   0  0  0  0  0  0  0  0  0  0  0  0
  150.0871  141.7534  156.0856 C   0  0  0  0  0  0  0  0  0  0  0  0
  150.5040  140.6257  156.3517 O   0  0  0  0  0  0  0  0  0  0  0  0
  149.2184  142.0006  155.0948 N   0  0  0  0  0  0  0  0  0  0  0  0
  148.6481  140.9830  154.2168 C   0  0  0  0  0  0  0  0  0  0  0  0
  147.0980  140.9284  154.2752 C   0  0  1  0  0  0  0  0  0  0  0  0
  146.5130  142.3607  154.2188 C   0  0  0  0  0  0  0  0  0  0  0  0
  146.5710  140.0233  153.2021 N   0  3  0  0  0  0  0  0  0  0  0  0
  147.1290  140.3467  151.8602 C   0  0  0  0  0  0  0  0  0  0  0  0
  146.4943  139.4679  150.7706 C   0  0  0  0  0  0  0  0  0  0  0  0
  146.7166  138.1000  151.0789 O   0  0  0  0  0  0  0  0  0  0  0  0
  146.1096  137.7380  152.3104 C   0  0  0  0  0  0  0  0  0  0  0  0
  146.7160  138.5636  153.4585 C   0  0  0  0  0  0  0  0  0  0  0  0
  151.6150  141.6895  158.9307 S   0  0  0  0  0  0  0  0  0  0  0  0
  153.5343  143.2617  161.6923 H   0  0  0  0  0  0  0  0  0  0  0  0
  154.4039  142.0459  160.7382 H   0  0  0  0  0  0  0  0  0  0  0  0
  152.8891  141.6187  161.5536 H   0  0  0  0  0  0  0  0  0  0  0  0
  150.0082  143.7369  156.3923 H   0  0  0  0  0  0  0  0  0  0  0  0
  148.9276  142.9548  154.9397 H   0  0  0  0  0  0  0  0  0  0  0  0
  148.9692  141.2041  153.1984 H   0  0  0  0  0  0  0  0  0  0  0  0
  149.1021  140.0263  154.4722 H   0  0  0  0  0  0  0  0  0  0  0  0
  146.7945  140.5053  155.2342 H   0  0  0  0  0  0  0  0  0  0  0  0
  146.9360  143.0006  154.9929 H   0  0  0  0  0  0  0  0  0  0  0  0
  145.4362  142.3699  154.3877 H   0  0  0  0  0  0  0  0  0  0  0  0
  146.7134  142.8362  153.2581 H   0  0  0  0  0  0  0  0  0  0  0  0
  146.9621  141.3908  151.6026 H   0  0  0  0  0  0  0  0  0  0  0  0
  148.2096  140.1957  151.8694 H   0  0  0  0  0  0  0  0  0  0  0  0
  145.4255  139.6680  150.6780 H   0  0  0  0  0  0  0  0  0  0  0  0
  146.9444  139.6880  149.8023 H   0  0  0  0  0  0  0  0  0  0  0  0
  145.0296  137.8853  152.2544 H   0  0  0  0  0  0  0  0  0  0  0  0
  146.2756  136.6749  152.4853 H   0  0  0  0  0  0  0  0  0  0  0  0
  147.7712  138.3151  153.5830 H   0  0  0  0  0  0  0  0  0  0  0  0
  146.2002  138.2756  154.3739 H   0  0  0  0  0  0  0  0  0  0  0  0
  145.5766  140.1934  153.1556 H   0  0  0  0  0  0  0  0  0  0  0  0
  1  2  1  0  0  0  0
  1 20  1  0  0  0  0
  1 21  1  0  0  0  0
  1 22  1  0  0  0  0
  2 19  1  0  0  0  0
  2  3  2  0  0  0  0
  3  4  1  0  0  0  0
  4  5  2  0  0  0  0
  5  6  1  0  0  0  0
  5 19  1  0  0  0  0
  6  7  1  0  0  0  0
  6 23  1  0  0  0  0
  7  8  2  0  0  0  0
  7  9  1  0  0  0  0
  9 10  1  0  0  0  0
  9 24  1  0  0  0  0
 10 11  1  0  0  0  0
 10 25  1  0  0  0  0
 10 26  1  0  0  0  0
 11 12  1  0  0  0  0
 11 13  1  0  0  0  0
 11 27  1  0  0  0  0
 12 28  1  0  0  0  0
 12 29  1  0  0  0  0
 12 30  1  0  0  0  0
 13 18  1  0  0  0  0
 13 14  1  0  0  0  0
 13 39  1  0  0  0  0
 14 15  1  0  0  0  0
 14 31  1  0  0  0  0
 14 32  1  0  0  0  0
 15 16  1  0  0  0  0
 15 33  1  0  0  0  0
 15 34  1  0  0  0  0
 16 17  1  0  0  0  0
 17 18  1  0  0  0  0
 17 35  1  0  0  0  0
 17 36  1  0  0  0  0
 18 37  1  0  0  0  0
 18 38  1  0  0  0  0
M  CHG  1  13   1
M  END
> <s_m_source_file>
AV-unprocessed.smi

> <i_m_source_file_index>
2069

> <i_lp_mmshare_version>
43012

> <i_f3d_flags>
0

> <s_epik_input>
W0NIM11jMW5uYyhzMSlbTkhdQyg9TylbTkhdW0NIMl1bQ0BIXShbQ0gzXSlOMltDSDJdW0NIMl1PW0NIMl1bQ0gyXTI=

> <s_epik_cmdline>
J2VwaWtfcHl0aG9uJywgJy1waCcsICc3LjAnLCAnLXRuJywgJzgnLCAnLW1hJywgJzIwMCcsICctbWV0YWxfYmluZGluZycsICctaW1hZScsICc8aW5maWxlLm1hZT4nLCAnLW9tYWUnLCAnPG91dGZpbGUubWFlPic=

> <r_lp_tautomer_probability>
1

> <r_epik_Ionization_Penalty>
0.70016

> <r_epik_Ionization_Penalty_Charging>
0.695697

> <r_epik_Ionization_Penalty_Neutral>
0.00446266

> <r_epik_State_Penalty>
0.717972

> <r_epik_Charging_Adjusted_Penalty>
1.41367

> <i_epik_Tot_Q>
1

> <i_epik_Tot_abs_Q>
1

> <r_epik_Metal_State_Penalty>
1.06969

> <b_epik_Metal_Only>
0

> <s_lp_Force_Field>
OPLS_2005

> <r_lp_Energy>
18.8851

> <b_lp_Chiralities_Consistent>
1

> <s_lp_Variant>
AV-unprocessed.smi:2069-4

> <Gold.Version>
5.8.1

> <Gold.Id.Protein>
6NUR|6NUR_protein|mol2

> <Gold.PLP.Fitness>
45.8907

> <Gold.PLP.PLP>
-31.6789

> <Gold.PLP.part.hbond>
-4.0000

> <Gold.PLP.part.metal>
0.0000

> <Gold.PLP.part.buried>
-0.7884

> <Gold.PLP.part.nonpolar>
-28.7535

> <Gold.PLP.part.repulsive>
1.4349

> <Gold.PLP.ligand.clash>
0.0000

> <Gold.PLP.ligand.torsion>
0.4048

> <Gold.PLP.Chemscore.Hbond>
4.9920

> <Gold.PLP.Chemscore.CHOScore>
0.0000

> <Gold.PLP.Chemscore.Metal>
0.0000

> <Gold.Chemscore.Hbonds>
donor molecule, donor type, donor heavy atom, donor atom, acceptor molecule, acceptor atom, score
      L1  H     6    23       P1  8028  1.00
      L1  H     9    24       P1  8028  0.93
      L1  H    13    39       P1 10175  1.98
      P1  H  7954  7966       L1    16  0.80

> <Gold.PLP.Chemscore.Internal.Correction>
0.0453

> <Gold.Rescore>
     Score         DG    S(hbond)    S(metal)    S(lipo)     H(rot)  DE(clash)    DE(int)     intcor
     18.01     -23.43       3.62        0.00      86.17       1.65       5.01       0.41       ----

> <Gold.Chemscore.Fitness>
18.0102

> <Gold.Chemscore.DG>
-23.4320

> <Gold.Chemscore.ZeroCoef>
-5.4800

> <Gold.Chemscore.Hbond>
3.6192

> <Gold.Chemscore.Metal>
0.0000

> <Gold.Chemscore.Lipo>
86.1679

> <Gold.Chemscore.Internal_Hbond>
0.0000

> <Gold.Chemscore.DEClash>
5.0120

> <Gold.Chemscore.DEInternal>
0.4098

> <Gold.Chemscore.Rot>
1.6476

> <Gold.Chemscore.Internal.Correction>
   9.000000E+99

> <Gold.Chemscore.Hbonds>
donor molecule, donor type, donor heavy atom, donor atom, acceptor molecule, acceptor atom, score
      L1  H     6    23       P1  8028  0.99
      L1  H     9    24       P1  8028  0.91
      L1  H    13    39       P1 10175  0.92
      P1  H  7954  7966       L1    16  0.12

> <Gold.Chemscore.Hbond.Weighted>
-12.0882

> <Gold.Chemscore.Metal.Weighted>
-0.0000

> <Gold.Chemscore.Lipo.Weighted>
-10.0816

> <Gold.Chemscore.Internal_Hbond.Weighted>
0.0000

> <Gold.Chemscore.DEClash.Weighted>
5.0120

> <Gold.Chemscore.DEInternal.Weighted>
0.4098

> <Gold.Chemscore.Rot.Weighted>
4.2179

> <Gold.Chemscore.Internal.Correction.Weighted>
   9.000000E+99

> <Gold.Protein.RotatedTorsions>
[ 6907 6896 6895 6894 ] final  -42.19 input  -60.11 | X-H torsion
[ 7974 7965 7964 7962 ] final -124.65 input  175.53 | X-H torsion
[ 8008 7997 7996 7995 ] final  143.99 input   59.86 | X-H torsion
[ 10167 10162 10161 10158 ] final  -65.70 input  -65.29 | X-H torsion
[ 10718 10713 10712 10709 ] final  179.55 input   66.30 | X-H torsion
[ 10763 10752 10751 10750 ] final  -40.51 input  -60.55 | X-H torsion
[ 11005 11000 10999 10996 ] final    5.83 input  -57.11 | X-H torsion

> <Gold.Protein.ActiveResidues>
 VAL166  LYS551  ARG553  GLY616  TRP617  ASP618  TYR619  PRO620  LYS621  CYS622 
 ASP623  PHE694  ASN695  SER759  ASP760  ASP761  ALA762  ILE779  LEU786  VAL792 
 PHE793  MET794  SER795  GLU796  ALA797  LYS798  CYS799  TRP800  GLU811  SER814 

> <Gold.Protein.RotatedAtoms>
  150.9580  134.8972  159.7712 H   0  0  0  0  0  0  0  0  0  0  0  0  # atno 6907 bound_to 6896
  152.5145  134.3712  159.9329 H   0  0  0  0  0  0  0  0  0  0  0  0  # atno 6908 bound_to 6896
  151.3725  133.3809  159.2736 H   0  0  0  0  0  0  0  0  0  0  0  0  # atno 6909 bound_to 6896
  145.0058  140.7862  143.4468 H   0  0  0  0  0  0  0  0  0  0  0  0  # atno 7974 bound_to 7965
  156.2918  140.2248  156.4980 H   0  0  0  0  0  0  0  0  0  0  0  0  # atno 8008 bound_to 7997
  154.7714  140.0466  157.1076 H   0  0  0  0  0  0  0  0  0  0  0  0  # atno 8009 bound_to 7997
  154.9869  140.3085  155.4926 H   0  0  0  0  0  0  0  0  0  0  0  0  # atno 8010 bound_to 7997
  140.5711  143.2318  151.6536 H   0  0  0  0  0  0  0  0  0  0  0  0  # atno 10167 bound_to 10162
  156.8741  130.9793  151.3070 H   0  0  0  0  0  0  0  0  0  0  0  0  # atno 10718 bound_to 10713
  153.9471  135.6755  153.4744 H   0  0  0  0  0  0  0  0  0  0  0  0  # atno 10763 bound_to 10752
  153.0902  135.4878  154.8673 H   0  0  0  0  0  0  0  0  0  0  0  0  # atno 10764 bound_to 10752
  154.7345  135.3146  154.8793 H   0  0  0  0  0  0  0  0  0  0  0  0  # atno 10765 bound_to 10752
  140.5663  134.0144  155.7991 H   0  0  0  0  0  0  0  0  0  0  0  0  # atno 11005 bound_to 11000
  145.2090  139.2214  143.5153 LP  0  0  0  0  0  0  0  0  0  0  0  0  # atno 17320 bound_to 7965
  146.3461  140.1924  142.8589 LP  0  0  0  0  0  0  0  0  0  0  0  0  # atno 17321 bound_to 7965
  139.5118  144.3497  152.0663 LP  0  0  0  0  0  0  0  0  0  0  0  0  # atno 17342 bound_to 10162
  140.2635  144.4041  150.6177 LP  0  0  0  0  0  0  0  0  0  0  0  0  # atno 17343 bound_to 10162
  157.6179  130.8632  149.9059 LP  0  0  0  0  0  0  0  0  0  0  0  0  # atno 17370 bound_to 10713
  156.0711  130.3685  150.0773 LP  0  0  0  0  0  0  0  0  0  0  0  0  # atno 17371 bound_to 10713
  141.1083  133.9657  157.2956 LP  0  0  0  0  0  0  0  0  0  0  0  0  # atno 17394 bound_to 11000
  139.9383  135.0194  156.8627 LP  0  0  0  0  0  0  0  0  0  0  0  0  # atno 17395 bound_to 11000

$$$$
