AV-unprocessed.smi:1703|AV-procd|sdf|6869|dock7
  -GOLD-   22720 8 63D 1   1.00000     0.00000
 Structure written by MMmdl.
 49 51  0  0  0  0  0  0  0  0  2 V2000
  147.7631  128.4984  152.0907 C   0  0  0  0  0  0  0  0  0  0  0  0
  147.7582  128.5516  153.6265 C   0  0  2  0  0  0  0  0  0  0  0  0
  146.9897  129.7603  154.1997 C   0  0  0  0  0  0  0  0  0  0  0  0
  147.7255  131.0177  154.0797 N   0  0  0  0  0  0  0  0  0  0  0  0
  147.0075  132.1438  154.6787 C   0  0  0  0  0  0  0  0  0  0  0  0
  146.0511  132.9135  153.7400 C   0  0  1  0  0  0  0  0  0  0  0  0
  145.0173  133.4524  154.5359 O   0  0  0  0  0  0  0  0  0  0  0  0
  146.6995  134.0993  152.9917 C   0  0  0  0  0  0  0  0  0  0  0  0
  145.8419  134.6892  151.9523 N   0  0  0  0  0  0  0  0  0  0  0  0
  145.4772  135.9858  151.7267 C   0  0  0  0  0  0  0  0  0  0  0  0
  145.8953  137.1916  152.5056 C   0  0  0  0  0  0  0  0  0  0  0  0
  145.3795  138.3930  151.9735 O   0  0  0  0  0  0  0  0  0  0  0  0
  144.6485  135.9867  150.6439 N   0  3  0  0  0  0  0  0  0  0  0  0
  144.4910  134.6861  150.1659 C   0  0  0  0  0  0  0  0  0  0  0  0
  143.7592  134.1932  149.0902 C   0  0  0  0  0  0  0  0  0  0  0  0
  143.8218  132.8019  148.8677 C   0  0  0  0  0  0  0  0  0  0  0  0
  144.5867  131.9587  149.7001 C   0  0  0  0  0  0  0  0  0  0  0  0
  145.3210  132.4705  150.7903 C   0  0  0  0  0  0  0  0  0  0  0  0
  145.2571  133.8474  151.0000 C   0  0  0  0  0  0  0  0  0  0  0  0
  149.0402  130.8572  154.6864 C   0  0  0  0  0  0  0  0  0  0  0  0
  149.8325  129.7079  154.0405 C   0  0  1  0  0  0  0  0  0  0  0  0
  151.1914  129.4938  154.7145 C   0  0  0  0  0  0  0  0  0  0  0  0
  149.0833  128.4999  154.1573 O   0  0  0  0  0  0  0  0  0  0  0  0
  146.7466  128.4652  151.6981 H   0  0  0  0  0  0  0  0  0  0  0  0
  148.2850  127.6104  151.7346 H   0  0  0  0  0  0  0  0  0  0  0  0
  148.2544  129.3671  151.6567 H   0  0  0  0  0  0  0  0  0  0  0  0
  147.2556  127.6473  153.9703 H   0  0  0  0  0  0  0  0  0  0  0  0
  146.0235  129.8306  153.7019 H   0  0  0  0  0  0  0  0  0  0  0  0
  146.7779  129.5679  155.2528 H   0  0  0  0  0  0  0  0  0  0  0  0
  146.4468  131.7778  155.5406 H   0  0  0  0  0  0  0  0  0  0  0  0
  147.7244  132.8591  155.0840 H   0  0  0  0  0  0  0  0  0  0  0  0
  145.5743  132.2386  153.0309 H   0  0  0  0  0  0  0  0  0  0  0  0
  144.2765  132.8663  154.5046 H   0  0  0  0  0  0  0  0  0  0  0  0
  146.9731  134.8916  153.6900 H   0  0  0  0  0  0  0  0  0  0  0  0
  147.6295  133.7853  152.5169 H   0  0  0  0  0  0  0  0  0  0  0  0
  145.5602  137.0836  153.5372 H   0  0  0  0  0  0  0  0  0  0  0  0
  146.9821  137.2637  152.5229 H   0  0  0  0  0  0  0  0  0  0  0  0
  144.9559  138.1993  151.1508 H   0  0  0  0  0  0  0  0  0  0  0  0
  143.1742  134.8379  148.4508 H   0  0  0  0  0  0  0  0  0  0  0  0
  143.2723  132.3731  148.0421 H   0  0  0  0  0  0  0  0  0  0  0  0
  144.6100  130.8973  149.4994 H   0  0  0  0  0  0  0  0  0  0  0  0
  145.9035  131.8171  151.4229 H   0  0  0  0  0  0  0  0  0  0  0  0
  149.6080  131.7828  154.5842 H   0  0  0  0  0  0  0  0  0  0  0  0
  148.9341  130.6737  155.7570 H   0  0  0  0  0  0  0  0  0  0  0  0
  150.0047  129.9316  152.9873 H   0  0  0  0  0  0  0  0  0  0  0  0
  151.8104  130.3881  154.6424 H   0  0  0  0  0  0  0  0  0  0  0  0
  151.7348  128.6742  154.2435 H   0  0  0  0  0  0  0  0  0  0  0  0
  151.0743  129.2520  155.7714 H   0  0  0  0  0  0  0  0  0  0  0  0
  144.2322  136.8244  150.2579 H   0  0  0  0  0  0  0  0  0  0  0  0
  1  2  1  0  0  0  0
  1 24  1  0  0  0  0
  1 25  1  0  0  0  0
  1 26  1  0  0  0  0
  2 23  1  0  0  0  0
  2  3  1  0  0  0  0
  2 27  1  0  0  0  0
  3  4  1  0  0  0  0
  3 28  1  0  0  0  0
  3 29  1  0  0  0  0
  4  5  1  0  0  0  0
  4 20  1  0  0  0  0
  5  6  1  0  0  0  0
  5 30  1  0  0  0  0
  5 31  1  0  0  0  0
  6  7  1  0  0  0  0
  6  8  1  0  0  0  0
  6 32  1  0  0  0  0
  7 33  1  0  0  0  0
  8  9  1  0  0  0  0
  8 34  1  0  0  0  0
  8 35  1  0  0  0  0
  9 19  1  0  0  0  0
  9 10  1  0  0  0  0
 10 11  1  0  0  0  0
 10 13  2  0  0  0  0
 11 12  1  0  0  0  0
 11 36  1  0  0  0  0
 11 37  1  0  0  0  0
 12 38  1  0  0  0  0
 13 14  1  0  0  0  0
 13 49  1  0  0  0  0
 14 19  2  0  0  0  0
 14 15  1  0  0  0  0
 15 16  2  0  0  0  0
 15 39  1  0  0  0  0
 16 17  1  0  0  0  0
 16 40  1  0  0  0  0
 17 18  2  0  0  0  0
 17 41  1  0  0  0  0
 18 19  1  0  0  0  0
 18 42  1  0  0  0  0
 20 21  1  0  0  0  0
 20 43  1  0  0  0  0
 20 44  1  0  0  0  0
 21 22  1  0  0  0  0
 21 23  1  0  0  0  0
 21 45  1  0  0  0  0
 22 46  1  0  0  0  0
 22 47  1  0  0  0  0
 22 48  1  0  0  0  0
M  CHG  1  13   1
M  END
> <s_m_source_file>
AV-unprocessed.smi

> <i_m_source_file_index>
1703

> <i_lp_mmshare_version>
43012

> <i_f3d_flags>
0

> <s_epik_input>
W0NIM11bQ0BASF0xW0NIMl1OKFtDSDJdW0NASF0oTzEpW0NIM10pW0NIMl1bQ0BIXShbT0hdKVtDSDJdbihjKG4yKVtDSDJdW09IXSljKGMyMylbY0hdW2NIXVtjSF1bY0hdMw==

> <s_epik_cmdline>
J2VwaWtfcHl0aG9uJywgJy1waCcsICc3LjAnLCAnLXRuJywgJzgnLCAnLW1hJywgJzIwMCcsICctbWV0YWxfYmluZGluZycsICctaW1hZScsICc8aW5maWxlLm1hZT4nLCAnLW9tYWUnLCAnPG91dGZpbGUubWFlPic=

> <r_epik_Ionization_Penalty>
1.7682

> <r_epik_Ionization_Penalty_Charging>
1.55298

> <r_epik_Ionization_Penalty_Neutral>
0.215215

> <r_epik_State_Penalty>
1.83821

> <r_epik_Charging_Adjusted_Penalty>
3.39119

> <i_epik_Tot_Q>
1

> <i_epik_Tot_abs_Q>
1

> <r_epik_Metal_State_Penalty>
5.89206

> <b_epik_Metal_Only>
0

> <s_lp_Force_Field>
OPLS_2005

> <r_lp_Energy>
30.0096

> <b_lp_Chiralities_Consistent>
1

> <s_lp_Variant>
AV-unprocessed.smi:1703-17

> <Gold.Version>
5.8.1

> <Gold.Id.Protein>
6NUR|6NUR_protein|mol2

> <Gold.PLP.Fitness>
43.1421

> <Gold.PLP.PLP>
-35.9024

> <Gold.PLP.part.hbond>
-4.0000

> <Gold.PLP.part.metal>
0.0000

> <Gold.PLP.part.buried>
1.8086

> <Gold.PLP.part.nonpolar>
-33.6469

> <Gold.PLP.part.repulsive>
0.1981

> <Gold.PLP.ligand.clash>
0.0000

> <Gold.PLP.ligand.torsion>
0.8854

> <Gold.PLP.Chemscore.Hbond>
3.0000

> <Gold.PLP.Chemscore.CHOScore>
0.0000

> <Gold.PLP.Chemscore.Metal>
0.0000

> <Gold.Chemscore.Hbonds>
donor molecule, donor type, donor heavy atom, donor atom, acceptor molecule, acceptor atom, score
      L1  H     7    33       P1 10957  1.00
      L1  H    12    38       P1 10171  1.00
      L1  H    13    49       P1 10171  1.00

> <Gold.PLP.Chemscore.Internal.Correction>
0.0105

> <Gold.Rescore>
     Score         DG    S(hbond)    S(metal)    S(lipo)     H(rot)  DE(clash)    DE(int)     intcor
     16.16     -19.79       2.95        0.00     102.85       2.96       2.77       0.86       ----

> <Gold.Chemscore.Fitness>
16.1597

> <Gold.Chemscore.DG>
-19.7852

> <Gold.Chemscore.ZeroCoef>
-5.4800

> <Gold.Chemscore.Hbond>
2.9456

> <Gold.Chemscore.Metal>
0.0000

> <Gold.Chemscore.Lipo>
102.8469

> <Gold.Chemscore.Internal_Hbond>
0.0000

> <Gold.Chemscore.DEClash>
2.7657

> <Gold.Chemscore.DEInternal>
0.8598

> <Gold.Chemscore.Rot>
2.9555

> <Gold.Chemscore.Internal.Correction>
   9.000000E+99

> <Gold.Chemscore.Hbonds>
donor molecule, donor type, donor heavy atom, donor atom, acceptor molecule, acceptor atom, score
      L1  H     7    33       P1 10957  0.97
      L1  H    12    38       P1 10171  0.96
      L1  H    13    49       P1 10171  1.00

> <Gold.Chemscore.Hbond.Weighted>
-9.8381

> <Gold.Chemscore.Metal.Weighted>
-0.0000

> <Gold.Chemscore.Lipo.Weighted>
-12.0331

> <Gold.Chemscore.Internal_Hbond.Weighted>
0.0000

> <Gold.Chemscore.DEClash.Weighted>
2.7657

> <Gold.Chemscore.DEInternal.Weighted>
0.8598

> <Gold.Chemscore.Rot.Weighted>
7.5660

> <Gold.Chemscore.Internal.Correction.Weighted>
   9.000000E+99

> <Gold.Protein.RotatedTorsions>
[ 6907 6896 6895 6894 ] final  -94.86 input  -60.11 | X-H torsion
[ 7974 7965 7964 7962 ] final  -30.43 input  175.53 | X-H torsion
[ 8008 7997 7996 7995 ] final  -99.92 input   59.86 | X-H torsion
[ 10167 10162 10161 10158 ] final  158.24 input  -65.29 | X-H torsion
[ 10718 10713 10712 10709 ] final  141.99 input   66.30 | X-H torsion
[ 10763 10752 10751 10750 ] final -148.95 input  -60.55 | X-H torsion
[ 11005 11000 10999 10996 ] final   71.50 input  -57.11 | X-H torsion

> <Gold.Protein.ActiveResidues>
 VAL166  LYS551  ARG553  GLY616  TRP617  ASP618  TYR619  PRO620  LYS621  CYS622 
 ASP623  PHE694  ASN695  SER759  ASP760  ASP761  ALA762  ILE779  LEU786  VAL792 
 PHE793  MET794  SER795  GLU796  ALA797  LYS798  CYS799  TRP800  GLU811  SER814 

> <Gold.Protein.RotatedAtoms>
  150.6951  134.1746  159.4225 H   0  0  0  0  0  0  0  0  0  0  0  0  # atno 6907 bound_to 6896
  151.9723  135.0068  160.0562 H   0  0  0  0  0  0  0  0  0  0  0  0  # atno 6908 bound_to 6896
  152.1830  133.4685  159.5005 H   0  0  0  0  0  0  0  0  0  0  0  0  # atno 6909 bound_to 6896
  146.1143  140.5540  142.8764 H   0  0  0  0  0  0  0  0  0  0  0  0  # atno 7974 bound_to 7965
  154.8215  140.0444  157.1414 H   0  0  0  0  0  0  0  0  0  0  0  0  # atno 8008 bound_to 7997
  154.9255  140.3032  155.5174 H   0  0  0  0  0  0  0  0  0  0  0  0  # atno 8009 bound_to 7997
  156.2980  140.2333  156.4309 H   0  0  0  0  0  0  0  0  0  0  0  0  # atno 8010 bound_to 7997
  139.4826  144.4842  151.8400 H   0  0  0  0  0  0  0  0  0  0  0  0  # atno 10167 bound_to 10162
  157.3857  131.0998  151.0695 H   0  0  0  0  0  0  0  0  0  0  0  0  # atno 10718 bound_to 10713
  154.8205  135.3321  154.7053 H   0  0  0  0  0  0  0  0  0  0  0  0  # atno 10763 bound_to 10752
  153.7687  135.6927  153.4915 H   0  0  0  0  0  0  0  0  0  0  0  0  # atno 10764 bound_to 10752
  153.2060  135.4499  155.0272 H   0  0  0  0  0  0  0  0  0  0  0  0  # atno 10765 bound_to 10752
  139.9540  134.7176  156.0796 H   0  0  0  0  0  0  0  0  0  0  0  0  # atno 11005 bound_to 11000
  144.7539  140.5259  143.6782 LP  0  0  0  0  0  0  0  0  0  0  0  0  # atno 17320 bound_to 7965
  145.5599  139.1479  143.3347 LP  0  0  0  0  0  0  0  0  0  0  0  0  # atno 17321 bound_to 7965
  140.4321  144.2101  150.5888 LP  0  0  0  0  0  0  0  0  0  0  0  0  # atno 17342 bound_to 10162
  140.4769  143.2393  151.9011 LP  0  0  0  0  0  0  0  0  0  0  0  0  # atno 17343 bound_to 10162
  157.1747  130.6283  149.5652 LP  0  0  0  0  0  0  0  0  0  0  0  0  # atno 17370 bound_to 10713
  155.9786  130.4773  150.6666 LP  0  0  0  0  0  0  0  0  0  0  0  0  # atno 17371 bound_to 10713
  141.1208  133.6613  156.3211 LP  0  0  0  0  0  0  0  0  0  0  0  0  # atno 17394 bound_to 11000
  140.5652  134.5895  157.5444 LP  0  0  0  0  0  0  0  0  0  0  0  0  # atno 17395 bound_to 11000

$$$$
