AV-unprocessed.smi:2124|AV-procd|sdf|8657|dock5
  -GOLD-   2272011403D 1   1.00000     0.00000
 Structure written by MMmdl.
 47 49  0  0  0  0  0  0  0  0  1 V2000
  143.2366  135.1111  163.2851 C   0  0  0  0  0  0  0  0  0  0  0  0
  144.5913  135.3423  162.6491 C   0  0  0  0  0  0  0  0  0  0  0  0
  145.5511  134.4766  162.6609 N   0  0  0  0  0  0  0  0  0  0  0  0
  146.7635  134.8064  162.0393 C   0  0  0  0  0  0  0  0  0  0  0  0
  147.8440  133.7402  162.1006 C   0  0  0  0  0  0  0  0  0  0  0  0
  146.9489  136.0121  161.4259 C   0  0  0  0  0  0  0  0  0  0  0  0
  148.2617  136.4013  160.7477 C   0  0  0  0  0  0  0  0  0  0  0  0
  148.2079  136.5131  159.2221 C   0  0  0  0  0  0  0  0  0  0  0  0
  147.7851  135.5735  158.5484 O   0  0  0  0  0  0  0  0  0  0  0  0
  148.6328  137.6732  158.6963 N   0  0  0  0  0  0  0  0  0  0  0  0
  148.6352  138.0286  157.2777 C   0  0  1  0  0  0  0  0  0  0  0  0
  147.1964  137.9309  156.7474 C   0  0  0  0  0  0  0  0  0  0  0  0
  149.2409  139.4411  157.0887 C   0  0  1  0  0  0  0  0  0  0  0  0
  150.7553  139.5494  157.3841 C   0  0  0  0  0  0  0  0  0  0  0  0
  151.3007  140.2820  156.1446 C   0  0  1  0  0  0  0  0  0  0  0  0
  151.3153  139.3072  154.9530 C   0  0  0  0  0  0  0  0  0  0  0  0
  149.8214  139.1769  154.6059 C   0  0  0  0  0  0  0  0  0  0  0  0
  149.1431  140.0620  155.6722 C   0  0  2  0  0  0  0  0  0  0  0  0
  150.1449  141.2071  155.7825 C   0  0  0  0  0  0  0  0  0  0  0  0
  145.8456  136.9923  161.4170 C   0  0  0  0  0  0  0  0  0  0  0  0
  145.9046  138.1061  160.8987 O   0  0  0  0  0  0  0  0  0  0  0  0
  144.7152  136.5896  162.0393 N   0  0  0  0  0  0  0  0  0  0  0  0
  143.9315  137.2255  162.0618 H   0  0  0  0  0  0  0  0  0  0  0  0
  143.3483  134.9510  164.3576 H   0  0  0  0  0  0  0  0  0  0  0  0
  142.7651  134.2281  162.8535 H   0  0  0  0  0  0  0  0  0  0  0  0
  142.5703  135.9615  163.1347 H   0  0  0  0  0  0  0  0  0  0  0  0
  148.1163  133.4119  161.0974 H   0  0  0  0  0  0  0  0  0  0  0  0
  147.5062  132.8653  162.6576 H   0  0  0  0  0  0  0  0  0  0  0  0
  148.7362  134.1248  162.5951 H   0  0  0  0  0  0  0  0  0  0  0  0
  148.5927  137.3540  161.1631 H   0  0  0  0  0  0  0  0  0  0  0  0
  149.0529  135.6973  161.0068 H   0  0  0  0  0  0  0  0  0  0  0  0
  148.9679  138.3794  159.3354 H   0  0  0  0  0  0  0  0  0  0  0  0
  149.2365  137.3039  156.7286 H   0  0  0  0  0  0  0  0  0  0  0  0
  147.1546  138.1171  155.6742 H   0  0  0  0  0  0  0  0  0  0  0  0
  146.5421  138.6531  157.2367 H   0  0  0  0  0  0  0  0  0  0  0  0
  146.7827  136.9364  156.9187 H   0  0  0  0  0  0  0  0  0  0  0  0
  148.7191  140.1147  157.7715 H   0  0  0  0  0  0  0  0  0  0  0  0
  150.9264  140.1300  158.2913 H   0  0  0  0  0  0  0  0  0  0  0  0
  151.2382  138.5809  157.5175 H   0  0  0  0  0  0  0  0  0  0  0  0
  152.2566  140.7781  156.3147 H   0  0  0  0  0  0  0  0  0  0  0  0
  151.8701  139.7246  154.1118 H   0  0  0  0  0  0  0  0  0  0  0  0
  151.7677  138.3483  155.2092 H   0  0  0  0  0  0  0  0  0  0  0  0
  149.6317  139.5750  153.6080 H   0  0  0  0  0  0  0  0  0  0  0  0
  149.4739  138.1448  154.6104 H   0  0  0  0  0  0  0  0  0  0  0  0
  148.1343  140.3751  155.4012 H   0  0  0  0  0  0  0  0  0  0  0  0
  149.9027  141.9247  156.5685 H   0  0  0  0  0  0  0  0  0  0  0  0
  150.2974  141.7432  154.8439 H   0  0  0  0  0  0  0  0  0  0  0  0
  1  2  1  0  0  0  0
  1 24  1  0  0  0  0
  1 25  1  0  0  0  0
  1 26  1  0  0  0  0
  2 22  1  0  0  0  0
  2  3  2  0  0  0  0
  3  4  1  0  0  0  0
  4  5  1  0  0  0  0
  4  6  2  0  0  0  0
  5 27  1  0  0  0  0
  5 28  1  0  0  0  0
  5 29  1  0  0  0  0
  6  7  1  0  0  0  0
  6 20  1  0  0  0  0
  7  8  1  0  0  0  0
  7 30  1  0  0  0  0
  7 31  1  0  0  0  0
  8  9  2  0  0  0  0
  8 10  1  0  0  0  0
 10 11  1  0  0  0  0
 10 32  1  0  0  0  0
 11 12  1  0  0  0  0
 11 13  1  0  0  0  0
 11 33  1  0  0  0  0
 12 34  1  0  0  0  0
 12 35  1  0  0  0  0
 12 36  1  0  0  0  0
 13 18  1  0  0  0  0
 13 14  1  0  0  0  0
 13 37  1  0  0  0  0
 14 15  1  0  0  0  0
 14 38  1  0  0  0  0
 14 39  1  0  0  0  0
 15 19  1  0  0  0  0
 15 16  1  0  0  0  0
 15 40  1  0  0  0  0
 16 17  1  0  0  0  0
 16 41  1  0  0  0  0
 16 42  1  0  0  0  0
 17 18  1  0  0  0  0
 17 43  1  0  0  0  0
 17 44  1  0  0  0  0
 18 19  1  0  0  0  0
 18 45  1  0  0  0  0
 19 46  1  0  0  0  0
 19 47  1  0  0  0  0
 20 21  2  0  0  0  0
 20 22  1  0  0  0  0
 22 23  1  0  0  0  0
M  END
> <s_m_source_file>
AV-unprocessed.smi

> <i_m_source_file_index>
2124

> <i_lp_mmshare_version>
43012

> <i_f3d_flags>
0

> <s_epik_input>
W0NIM11jMW5jKFtDSDNdKWMoYyg9TylbbkhdMSlbQ0gyXUMoPU8pW05IXVtDQEhdKFtDSDNdKVtDQEhdKFtDSDJdW0NASF0yMylbQ0BIXShbQ0gyXTMpW0NIMl1bQ0gyXTI=

> <s_epik_cmdline>
J2VwaWtfcHl0aG9uJywgJy1waCcsICc3LjAnLCAnLXRuJywgJzgnLCAnLW1hJywgJzIwMCcsICctbWV0YWxfYmluZGluZycsICctaW1hZScsICc8aW5maWxlLm1hZT4nLCAnLW9tYWUnLCAnPG91dGZpbGUubWFlPic=

> <r_lp_tautomer_probability>
0.839158

> <r_epik_Ionization_Penalty>
0.000383628

> <r_epik_Ionization_Penalty_Charging>
0.00035045

> <r_epik_Ionization_Penalty_Neutral>
3.31781e-05

> <r_epik_State_Penalty>
0.09125

> <r_epik_Charging_Adjusted_Penalty>
0.0916005

> <i_epik_Tot_Q>
0

> <i_epik_Tot_abs_Q>
0

> <r_epik_Metal_State_Penalty>
0.255229

> <b_epik_Metal_Only>
0

> <s_lp_Force_Field>
OPLS_2005

> <r_lp_Energy>
52.5586

> <b_lp_Chiralities_Consistent>
1

> <s_lp_Variant>
AV-unprocessed.smi:2124-8

> <Gold.Version>
5.8.1

> <Gold.Id.Protein>
6NUR|6NUR_protein|mol2

> <Gold.PLP.Fitness>
37.4866

> <Gold.PLP.PLP>
-34.9379

> <Gold.PLP.part.hbond>
-0.7274

> <Gold.PLP.part.metal>
0.0000

> <Gold.PLP.part.buried>
-6.4062

> <Gold.PLP.part.nonpolar>
-28.5657

> <Gold.PLP.part.repulsive>
0.2793

> <Gold.PLP.ligand.clash>
0.0000

> <Gold.PLP.ligand.torsion>
0.1987

> <Gold.PLP.Chemscore.Hbond>
0.9760

> <Gold.PLP.Chemscore.CHOScore>
0.0000

> <Gold.PLP.Chemscore.Metal>
0.0000

> <Gold.Chemscore.Hbonds>
donor molecule, donor type, donor heavy atom, donor atom, acceptor molecule, acceptor atom, score
      P1  H  6934  6947       L1    21  0.93

> <Gold.PLP.Chemscore.Internal.Correction>
0.0182

> <Gold.Rescore>
     Score         DG    S(hbond)    S(metal)    S(lipo)     H(rot)  DE(clash)    DE(int)     intcor
     13.63     -13.98       0.98        0.00      80.89       1.65       0.03       0.31       ----

> <Gold.Chemscore.Fitness>
13.6337

> <Gold.Chemscore.DG>
-13.9761

> <Gold.Chemscore.ZeroCoef>
-5.4800

> <Gold.Chemscore.Hbond>
0.9775

> <Gold.Chemscore.Metal>
0.0000

> <Gold.Chemscore.Lipo>
80.8880

> <Gold.Chemscore.Internal_Hbond>
0.0000

> <Gold.Chemscore.DEClash>
0.0319

> <Gold.Chemscore.DEInternal>
0.3105

> <Gold.Chemscore.Rot>
1.6534

> <Gold.Chemscore.Internal.Correction>
   9.000000E+99

> <Gold.Chemscore.Hbonds>
donor molecule, donor type, donor heavy atom, donor atom, acceptor molecule, acceptor atom, score
      P1  H  6934  6947       L1    21  0.84

> <Gold.Chemscore.Hbond.Weighted>
-3.2648

> <Gold.Chemscore.Metal.Weighted>
-0.0000

> <Gold.Chemscore.Lipo.Weighted>
-9.4639

> <Gold.Chemscore.Internal_Hbond.Weighted>
0.0000

> <Gold.Chemscore.DEClash.Weighted>
0.0319

> <Gold.Chemscore.DEInternal.Weighted>
0.3105

> <Gold.Chemscore.Rot.Weighted>
4.2326

> <Gold.Chemscore.Internal.Correction.Weighted>
   9.000000E+99

> <Gold.Protein.RotatedTorsions>
[ 6907 6896 6895 6894 ] final  -87.33 input  -60.11 | X-H torsion
[ 7974 7965 7964 7962 ] final  171.85 input  175.53 | X-H torsion
[ 8008 7997 7996 7995 ] final  -17.61 input   59.86 | X-H torsion
[ 10167 10162 10161 10158 ] final -146.85 input  -65.29 | X-H torsion
[ 10718 10713 10712 10709 ] final   10.09 input   66.30 | X-H torsion
[ 10763 10752 10751 10750 ] final  -79.17 input  -60.55 | X-H torsion
[ 11005 11000 10999 10996 ] final  165.11 input  -57.11 | X-H torsion

> <Gold.Protein.ActiveResidues>
 VAL166  LYS551  ARG553  GLY616  TRP617  ASP618  TYR619  PRO620  LYS621  CYS622 
 ASP623  PHE694  ASN695  SER759  ASP760  ASP761  ALA762  ILE779  LEU786  VAL792 
 PHE793  MET794  SER795  GLU796  ALA797  LYS798  CYS799  TRP800  GLU811  SER814 

> <Gold.Protein.RotatedAtoms>
  150.6866  134.2913  159.4667 H   0  0  0  0  0  0  0  0  0  0  0  0  # atno 6907 bound_to 6896
  152.0818  134.9464  160.0582 H   0  0  0  0  0  0  0  0  0  0  0  0  # atno 6908 bound_to 6896
  152.0814  133.4120  159.4539 H   0  0  0  0  0  0  0  0  0  0  0  0  # atno 6909 bound_to 6896
  144.7284  139.9411  143.6428 H   0  0  0  0  0  0  0  0  0  0  0  0  # atno 7974 bound_to 7965
  154.4965  140.2138  155.9435 H   0  0  0  0  0  0  0  0  0  0  0  0  # atno 8008 bound_to 7997
  156.1377  140.3185  155.8415 H   0  0  0  0  0  0  0  0  0  0  0  0  # atno 8009 bound_to 7997
  155.4178  140.0495  157.3018 H   0  0  0  0  0  0  0  0  0  0  0  0  # atno 8010 bound_to 7997
  139.7675  143.8286  152.2618 H   0  0  0  0  0  0  0  0  0  0  0  0  # atno 10167 bound_to 10162
  156.9758  130.5987  149.5672 H   0  0  0  0  0  0  0  0  0  0  0  0  # atno 10718 bound_to 10713
  154.5352  135.5705  153.6792 H   0  0  0  0  0  0  0  0  0  0  0  0  # atno 10763 bound_to 10752
  152.9949  135.6214  154.2576 H   0  0  0  0  0  0  0  0  0  0  0  0  # atno 10764 bound_to 10752
  154.2504  135.2859  155.2798 H   0  0  0  0  0  0  0  0  0  0  0  0  # atno 10765 bound_to 10752
  140.2527  134.7964  157.3517 H   0  0  0  0  0  0  0  0  0  0  0  0  # atno 11005 bound_to 11000
  146.0784  139.3772  143.0479 LP  0  0  0  0  0  0  0  0  0  0  0  0  # atno 17320 bound_to 7965
  145.7874  140.9830  143.1067 LP  0  0  0  0  0  0  0  0  0  0  0  0  # atno 17321 bound_to 7965
  139.8311  144.7253  150.9450 LP  0  0  0  0  0  0  0  0  0  0  0  0  # atno 17342 bound_to 10162
  140.7812  143.4069  151.1056 LP  0  0  0  0  0  0  0  0  0  0  0  0  # atno 17343 bound_to 10162
  156.0264  130.5357  150.8418 LP  0  0  0  0  0  0  0  0  0  0  0  0  # atno 17370 bound_to 10713
  157.5560  131.0945  150.9627 LP  0  0  0  0  0  0  0  0  0  0  0  0  # atno 17371 bound_to 10713
  140.1542  134.4811  155.7940 LP  0  0  0  0  0  0  0  0  0  0  0  0  # atno 17394 bound_to 11000
  141.2199  133.6874  156.7431 LP  0  0  0  0  0  0  0  0  0  0  0  0  # atno 17395 bound_to 11000

$$$$
