#       Name:                AV-unprocessed.smi:751
#       Creating user name   scv26
#       Creation time:       Fri Mar 27 00:58:43 2020


#       File generated by GOLD software.
#

@<TRIPOS>MOLECULE
AV-unprocessed.smi:751
    39    40     1
SMALL
NO_CHARGES


@<TRIPOS>ATOM
      1 ****        -0.6031  -5.0377   0.2968 N.1            1 S1                 0.0000
      2 ****        -1.1084  -3.9978   0.2532 C.1            1 S1                 0.0000
      3 ****        -1.7449  -2.6881   0.1981 C.ar           1 S1                 0.0000
      4 ****        -3.1503  -2.6174   0.2872 C.ar           1 S1                 0.0000
      5 ****        -3.7793  -1.3630   0.2346 C.ar           1 S1                 0.0000
      6 ****        -2.9678  -0.2213   0.0929 C.ar           1 S1                 0.0000
      7 ****        -3.5607   1.1792   0.0283 C.3            1 S1                 0.0000
      8 ****        -4.8916   1.1566   0.1103 F              1 S1                 0.0000
      9 ****        -3.0881   1.9129   1.0364 F              1 S1                 0.0000
     10 ****        -3.2188   1.7593  -1.1224 F              1 S1                 0.0000
     11 ****        -1.6217  -0.2949   0.0075 N.ar           1 S1                 0.0000
     12 ****        -0.9847  -1.4945   0.0568 C.ar           1 S1                 0.0000
     13 ****         0.4390  -1.5166  -0.0420 N.3            1 S1                 0.0000
     14 ****         0.9783  -0.8965  -1.2480 C.3            1 S1                 0.0000
     15 ****         2.0973  -0.3595  -0.3588 C.3            1 S1                 0.0000
     16 ****         2.3815   1.0034  -0.6246 O.3            1 S1                 0.0000
     17 ****         3.3601   1.5425   0.2505 C.3            1 S1                 0.0000
     18 ****         3.5451   3.0271  -0.0605 C.2            1 S1                 0.0000
     19 ****         2.4412   3.7475  -0.2775 N.am           1 S1                 0.0000
     20 ****         4.6696   3.5222  -0.0894 O.2            1 S1                 0.0000
     21 ****         1.1505  -0.5785   0.8219 C.3            1 S1                 0.0000
     22 ****        -3.7450  -3.5134   0.3950 H              1 S1                 0.0000
     23 ****        -4.8546  -1.2890   0.3016 H              1 S1                 0.0000
     24 ****         1.3090  -1.6141  -1.9990 H              1 S1                 0.0000
     25 ****         0.3503  -0.1117  -1.6725 H              1 S1                 0.0000
     26 ****         2.9758  -1.0087  -0.3476 H              1 S1                 0.0000
     27 ****         3.0522   1.4357   1.2917 H              1 S1                 0.0000
     28 ****         4.3078   1.0163   0.1254 H              1 S1                 0.0000
     29 ****         2.5183   4.7340  -0.4800 H              1 S1                 0.0000
     30 ****         1.5350   3.3049  -0.2319 H              1 S1                 0.0000
     31 ****         0.5888   0.3167   1.0927 H              1 S1                 0.0000
     32 ****         1.6189  -1.0492   1.6865 H              1 S1                 0.0000
     33 ****        -0.1663  -5.9365   0.3345 LP             1 S1                 0.0000
     34 ****        -1.0869   0.5440  -0.0933 LP             1 S1                 0.0000
     35 ****         0.5665  -2.4971   0.1079 LP             1 S1                 0.0000
     36 ****         1.5380   1.5310  -0.5244 LP             1 S1                 0.0000
     37 ****         2.7147   1.0828  -1.5641 LP             1 S1                 0.0000
     38 ****         5.4715   2.9526   0.0913 LP             1 S1                 0.0000
     39 ****         4.7827   4.4945  -0.2937 LP             1 S1                 0.0000
@<TRIPOS>BOND
    1    1    2 3     
    2    2    3 1     
    3    3   12 ar    
    4    3    4 ar    
    5    4    5 ar    
    6    4   22 1     
    7    5    6 ar    
    8    5   23 1     
    9    6    7 1     
   10    6   11 ar    
   11    7    8 1     
   12    7    9 1     
   13    7   10 1     
   14   11   12 ar    
   15   12   13 1     
   16   13   21 1     
   17   13   14 1     
   18   14   15 1     
   19   14   24 1     
   20   14   25 1     
   21   15   16 1     
   22   15   21 1     
   23   15   26 1     
   24   16   17 1     
   25   17   18 1     
   26   17   27 1     
   27   17   28 1     
   28   18   19 am    
   29   18   20 2     
   30   19   29 1     
   31   19   30 1     
   32   21   31 1     
   33   21   32 1     
   34    1   33 1     
   35   11   34 1     
   36   13   35 1     
   37   16   36 1     
   38   16   37 1     
   39   20   38 1     
   40   20   39 1     
@<TRIPOS>SUBSTRUCTURE
      1 S1             1
@<TRIPOS>SET
LONE_PAIRS      STATIC     ATOMS    <user>   **** ""
7 33 34 35 36 37 38 39
DONOR_HYDROGENS      STATIC     ATOMS    <user>   **** ""
2 29 30
ATOM$BLUE        STATIC     ATOMS    COLORGROUP SYSTEM
7 33 34 35 36 37 38 39
ATOM$RED        STATIC     ATOMS    COLORGROUP SYSTEM
2 29 30
