AV-unprocessed.smi:2504|AV-procd|sdf|9852|dock7
  -GOLD-   2272013483D 1   1.00000     0.00000
 Structure written by MMmdl.
 46 48  0  0  0  0  0  0  0  0  3 V2000
  150.9471  141.7133  158.7491 O   0  0  0  0  0  0  0  0  0  0  0  0
  152.1219  141.4679  159.0248 C   0  0  0  0  0  0  0  0  0  0  0  0
  153.0658  142.5847  159.5178 C   0  0  0  0  0  0  0  0  0  0  0  0
  153.3685  142.4602  161.0181 C   0  0  0  0  0  0  0  0  0  0  0  0
  152.2487  143.2294  161.7214 C   0  0  0  0  0  0  0  0  0  0  0  0
  151.8552  144.3547  160.7578 C   0  0  0  0  0  0  0  0  0  0  0  0
  152.4432  143.9876  159.3854 C   0  0  0  0  0  0  0  0  0  0  0  0
  152.6212  140.1637  158.9817 N   0  0  0  0  0  0  0  0  0  0  0  0
  151.7488  139.0015  159.0887 C   0  0  0  0  0  0  0  0  0  0  0  0
  152.9333  138.3026  159.7727 C   0  0  0  0  0  0  0  0  0  0  0  0
  153.8703  137.0833  158.7255 S   0  0  0  0  0  0  0  0  0  0  0  0
  152.8822  136.5521  157.7717 O   0  0  0  0  0  0  0  0  0  0  0  0
  155.0148  137.8213  158.1686 O   0  0  0  0  0  0  0  0  0  0  0  0
  154.3381  135.9756  159.8137 N   0  5  0  0  0  0  0  0  0  0  0  0
  155.3381  136.3042  160.8127 C   0  0  0  0  0  0  0  0  0  0  0  0
  154.6379  136.7388  162.1190 C   0  0  0  0  0  0  0  0  0  0  0  0
  154.5465  135.6428  163.1778 C   0  0  0  0  0  0  0  0  0  0  0  0
  154.9633  134.3229  162.8837 C   0  0  0  0  0  0  0  0  0  0  0  0
  154.8824  133.3301  163.8813 C   0  0  0  0  0  0  0  0  0  0  0  0
  154.3849  133.6755  165.1537 C   0  0  0  0  0  0  0  0  0  0  0  0
  153.9885  134.9434  165.3991 N   0  3  0  0  0  0  0  0  0  0  0  0
  154.0465  135.9225  164.4700 C   0  0  0  0  0  0  0  0  0  0  0  0
  153.6220  139.6664  159.9158 C   0  0  0  0  0  0  0  0  0  0  0  0
  153.9890  142.5458  158.9383 H   0  0  0  0  0  0  0  0  0  0  0  0
  153.4280  141.4274  161.3645 H   0  0  0  0  0  0  0  0  0  0  0  0
  154.3293  142.9291  161.2340 H   0  0  0  0  0  0  0  0  0  0  0  0
  151.3951  142.5689  161.8793 H   0  0  0  0  0  0  0  0  0  0  0  0
  152.5542  143.6049  162.6984 H   0  0  0  0  0  0  0  0  0  0  0  0
  150.7712  144.4624  160.7114 H   0  0  0  0  0  0  0  0  0  0  0  0
  152.2617  145.3087  161.0953 H   0  0  0  0  0  0  0  0  0  0  0  0
  153.2199  144.7056  159.1193 H   0  0  0  0  0  0  0  0  0  0  0  0
  151.6877  144.0426  158.6000 H   0  0  0  0  0  0  0  0  0  0  0  0
  150.9027  139.1549  159.7608 H   0  0  0  0  0  0  0  0  0  0  0  0
  151.4447  138.5830  158.1290 H   0  0  0  0  0  0  0  0  0  0  0  0
  152.6775  137.8530  160.7322 H   0  0  0  0  0  0  0  0  0  0  0  0
  155.9858  135.4553  161.0338 H   0  0  0  0  0  0  0  0  0  0  0  0
  155.9961  137.1052  160.4756 H   0  0  0  0  0  0  0  0  0  0  0  0
  155.1713  137.5881  162.5468 H   0  0  0  0  0  0  0  0  0  0  0  0
  153.6333  137.1013  161.8954 H   0  0  0  0  0  0  0  0  0  0  0  0
  155.3549  134.0771  161.9070 H   0  0  0  0  0  0  0  0  0  0  0  0
  155.2012  132.3199  163.6727 H   0  0  0  0  0  0  0  0  0  0  0  0
  154.2928  132.9810  165.9759 H   0  0  0  0  0  0  0  0  0  0  0  0
  153.7063  136.8969  164.7887 H   0  0  0  0  0  0  0  0  0  0  0  0
  154.6413  139.7138  159.5306 H   0  0  0  0  0  0  0  0  0  0  0  0
  153.5333  140.0802  160.9211 H   0  0  0  0  0  0  0  0  0  0  0  0
  153.6323  135.1729  166.3270 H   0  0  0  0  0  0  0  0  0  0  0  0
  1  2  2  0  0  0  0
  2  3  1  0  0  0  0
  2  8  1  0  0  0  0
  3  7  1  0  0  0  0
  3  4  1  0  0  0  0
  3 24  1  0  0  0  0
  4  5  1  0  0  0  0
  4 25  1  0  0  0  0
  4 26  1  0  0  0  0
  5  6  1  0  0  0  0
  5 27  1  0  0  0  0
  5 28  1  0  0  0  0
  6  7  1  0  0  0  0
  6 29  1  0  0  0  0
  6 30  1  0  0  0  0
  7 31  1  0  0  0  0
  7 32  1  0  0  0  0
  8 23  1  0  0  0  0
  8  9  1  0  0  0  0
  9 10  1  0  0  0  0
  9 33  1  0  0  0  0
  9 34  1  0  0  0  0
 10 11  1  0  0  0  0
 10 23  1  0  0  0  0
 10 35  1  0  0  0  0
 11 12  2  0  0  0  0
 11 13  2  0  0  0  0
 11 14  1  0  0  0  0
 14 15  1  0  0  0  0
 15 16  1  0  0  0  0
 15 36  1  0  0  0  0
 15 37  1  0  0  0  0
 16 17  1  0  0  0  0
 16 38  1  0  0  0  0
 16 39  1  0  0  0  0
 17 22  1  0  0  0  0
 17 18  2  0  0  0  0
 18 19  1  0  0  0  0
 18 40  1  0  0  0  0
 19 20  2  0  0  0  0
 19 41  1  0  0  0  0
 20 21  1  0  0  0  0
 20 42  1  0  0  0  0
 21 22  2  0  0  0  0
 21 46  1  0  0  0  0
 22 43  1  0  0  0  0
 23 44  1  0  0  0  0
 23 45  1  0  0  0  0
M  CHG  1  14  -1
M  CHG  1  21   1
M  END
> <s_m_source_file>
AV-unprocessed.smi

> <i_m_source_file_index>
2504

> <i_lp_mmshare_version>
43012

> <i_f3d_flags>
0

> <s_epik_input>
W0NIMl0xW0NIMl1bQ0gyXVtDSDJdW0NIXTFDKD1PKU4yW0NIMl1bQ0hdKFtDSDJdMilTKD1PKSg9TylbTkhdW0NIMl1bQ0gyXWMzW2NIXVtjSF1bY0hdbltjSF0z

> <s_epik_cmdline>
J2VwaWtfcHl0aG9uJywgJy1waCcsICc3LjAnLCAnLXRuJywgJzgnLCAnLW1hJywgJzIwMCcsICctbWV0YWxfYmluZGluZycsICctaW1hZScsICc8aW5maWxlLm1hZT4nLCAnLW9tYWUnLCAnPG91dGZpbGUubWFlPic=

> <r_epik_Ionization_Penalty>
7.23206

> <r_epik_Ionization_Penalty_Charging>
7.23206

> <r_epik_Ionization_Penalty_Neutral>
2.37876e-07

> <r_epik_State_Penalty>
7.91796

> <r_epik_Charging_Adjusted_Penalty>
15.15

> <i_epik_Tot_Q>
0

> <i_epik_Tot_abs_Q>
2

> <r_epik_Metal_State_Penalty>
3.92928

> <b_epik_Metal_Only>
1

> <s_lp_Force_Field>
OPLS_2005

> <r_lp_Energy>
37.1942

> <b_lp_Chiralities_Consistent>
1

> <s_lp_Variant>
AV-unprocessed.smi:2504-4

> <Gold.Version>
5.8.1

> <Gold.Id.Protein>
6NUR|6NUR_protein|mol2

> <Gold.PLP.Fitness>
53.3278

> <Gold.PLP.PLP>
-48.7443

> <Gold.PLP.part.hbond>
-2.8007

> <Gold.PLP.part.metal>
0.0000

> <Gold.PLP.part.buried>
-6.5578

> <Gold.PLP.part.nonpolar>
-40.2624

> <Gold.PLP.part.repulsive>
0.1112

> <Gold.PLP.ligand.clash>
0.0000

> <Gold.PLP.ligand.torsion>
2.1740

> <Gold.PLP.Chemscore.Hbond>
2.2038

> <Gold.PLP.Chemscore.CHOScore>
0.0000

> <Gold.PLP.Chemscore.Metal>
0.0000

> <Gold.Chemscore.Hbonds>
donor molecule, donor type, donor heavy atom, donor atom, acceptor molecule, acceptor atom, score
      P1  H  6896  6909       L1    14  0.65
      P1  H  7997  8008       L1    13  0.15

> <Gold.PLP.Chemscore.Internal.Correction>
2.3199

> <Gold.Rescore>
     Score         DG    S(hbond)    S(metal)    S(lipo)     H(rot)  DE(clash)    DE(int)     intcor
     17.35     -20.29       1.52        0.00     120.86       1.72       0.05       2.88       ----

> <Gold.Chemscore.Fitness>
17.3534

> <Gold.Chemscore.DG>
-20.2894

> <Gold.Chemscore.ZeroCoef>
-5.4800

> <Gold.Chemscore.Hbond>
1.5154

> <Gold.Chemscore.Metal>
0.0000

> <Gold.Chemscore.Lipo>
120.8568

> <Gold.Chemscore.Internal_Hbond>
0.0000

> <Gold.Chemscore.DEClash>
0.0513

> <Gold.Chemscore.DEInternal>
2.8847

> <Gold.Chemscore.Rot>
1.7158

> <Gold.Chemscore.Internal.Correction>
   9.000000E+99

> <Gold.Chemscore.Hbonds>
donor molecule, donor type, donor heavy atom, donor atom, acceptor molecule, acceptor atom, score
      P1  H  6896  6909       L1    14  0.10
      P1  H  7997  8008       L1    13  0.16

> <Gold.Chemscore.Hbond.Weighted>
-5.0615

> <Gold.Chemscore.Metal.Weighted>
-0.0000

> <Gold.Chemscore.Lipo.Weighted>
-14.1402

> <Gold.Chemscore.Internal_Hbond.Weighted>
0.0000

> <Gold.Chemscore.DEClash.Weighted>
0.0513

> <Gold.Chemscore.DEInternal.Weighted>
2.8847

> <Gold.Chemscore.Rot.Weighted>
4.3924

> <Gold.Chemscore.Internal.Correction.Weighted>
   9.000000E+99

> <Gold.Protein.RotatedTorsions>
[ 6907 6896 6895 6894 ] final  177.12 input  -60.11 | X-H torsion
[ 7974 7965 7964 7962 ] final   94.69 input  175.53 | X-H torsion
[ 8008 7997 7996 7995 ] final -107.65 input   59.86 | X-H torsion
[ 10167 10162 10161 10158 ] final  -55.62 input  -65.29 | X-H torsion
[ 10718 10713 10712 10709 ] final   50.50 input   66.30 | X-H torsion
[ 10763 10752 10751 10750 ] final  132.76 input  -60.55 | X-H torsion
[ 11005 11000 10999 10996 ] final  -21.72 input  -57.11 | X-H torsion

> <Gold.Protein.ActiveResidues>
 VAL166  LYS551  ARG553  GLY616  TRP617  ASP618  TYR619  PRO620  LYS621  CYS622 
 ASP623  PHE694  ASN695  SER759  ASP760  ASP761  ALA762  ILE779  LEU786  VAL792 
 PHE793  MET794  SER795  GLU796  ALA797  LYS798  CYS799  TRP800  GLU811  SER814 

> <Gold.Protein.RotatedAtoms>
  151.7091  133.3312  159.3285 H   0  0  0  0  0  0  0  0  0  0  0  0  # atno 6907 bound_to 6896
  150.7702  134.6548  159.6317 H   0  0  0  0  0  0  0  0  0  0  0  0  # atno 6908 bound_to 6896
  152.3722  134.6719  160.0224 H   0  0  0  0  0  0  0  0  0  0  0  0  # atno 6909 bound_to 6896
  145.4622  139.2286  143.2981 H   0  0  0  0  0  0  0  0  0  0  0  0  # atno 7974 bound_to 7965
  154.9325  140.0404  157.2055 H   0  0  0  0  0  0  0  0  0  0  0  0  # atno 8008 bound_to 7997
  154.8147  140.2873  155.5807 H   0  0  0  0  0  0  0  0  0  0  0  0  # atno 8009 bound_to 7997
  156.2975  140.2530  156.3042 H   0  0  0  0  0  0  0  0  0  0  0  0  # atno 8010 bound_to 7997
  140.6364  143.2484  151.5107 H   0  0  0  0  0  0  0  0  0  0  0  0  # atno 10167 bound_to 10162
  157.4890  130.8364  149.8181 H   0  0  0  0  0  0  0  0  0  0  0  0  # atno 10718 bound_to 10713
  153.7960  135.3148  155.3384 H   0  0  0  0  0  0  0  0  0  0  0  0  # atno 10763 bound_to 10752
  154.8107  135.4669  154.0513 H   0  0  0  0  0  0  0  0  0  0  0  0  # atno 10764 bound_to 10752
  153.1846  135.6899  153.8519 H   0  0  0  0  0  0  0  0  0  0  0  0  # atno 10765 bound_to 10752
  140.8588  133.7803  156.0051 H   0  0  0  0  0  0  0  0  0  0  0  0  # atno 11005 bound_to 11000
  146.2444  140.5392  142.8920 LP  0  0  0  0  0  0  0  0  0  0  0  0  # atno 17320 bound_to 7965
  144.7996  140.6187  143.6487 LP  0  0  0  0  0  0  0  0  0  0  0  0  # atno 17321 bound_to 7965
  139.5574  144.2241  152.1635 LP  0  0  0  0  0  0  0  0  0  0  0  0  # atno 17342 bound_to 10162
  140.1498  144.5125  150.6694 LP  0  0  0  0  0  0  0  0  0  0  0  0  # atno 17343 bound_to 10162
  156.0163  130.3812  150.2101 LP  0  0  0  0  0  0  0  0  0  0  0  0  # atno 17370 bound_to 10713
  157.0289  131.0001  151.3318 LP  0  0  0  0  0  0  0  0  0  0  0  0  # atno 17371 bound_to 10713
  140.8706  134.2731  157.5192 LP  0  0  0  0  0  0  0  0  0  0  0  0  # atno 17394 bound_to 11000
  139.8706  134.9565  156.4240 LP  0  0  0  0  0  0  0  0  0  0  0  0  # atno 17395 bound_to 11000

$$$$
