AV-unprocessed.smi:99|AV-procd|sdf|877|dock9
  -GOLD-   2262017353D 1   1.00000     0.00000
 Structure written by MMmdl.
 53 56  0  0  0  0  0  0  0  0  1 V2000
  150.5988  132.9046  155.6541 O   0  0  0  0  0  0  0  0  0  0  0  0
  149.6675  133.5679  155.1927 C   0  0  0  0  0  0  0  0  0  0  0  0
  149.4798  134.8751  155.4575 O   0  0  0  0  0  0  0  0  0  0  0  0
  150.3659  135.5576  156.3283 C   0  0  0  0  0  0  0  0  0  0  0  0
  149.8369  136.9828  156.5611 C   0  0  2  0  0  0  0  0  0  0  0  0
  150.9055  137.9041  156.3404 O   0  0  0  0  0  0  0  0  0  0  0  0
  151.4518  138.3546  157.5496 C   0  0  1  0  0  0  0  0  0  0  0  0
  151.2842  139.8557  157.6396 N   0  0  0  0  0  0  0  0  0  0  0  0
  150.1281  140.4889  157.2003 C   0  0  0  0  0  0  0  0  0  0  0  0
  149.9408  141.8271  157.2864 C   0  0  0  0  0  0  0  0  0  0  0  0
  150.9708  142.6834  157.8649 C   0  0  0  0  0  0  0  0  0  0  0  0
  150.8938  143.9044  157.9826 O   0  0  0  0  0  0  0  0  0  0  0  0
  152.1097  142.0039  158.3059 N   0  0  0  0  0  0  0  0  0  0  0  0
  152.3122  140.6252  158.2276 C   0  0  0  0  0  0  0  0  0  0  0  0
  153.3483  140.1291  158.6684 O   0  0  0  0  0  0  0  0  0  0  0  0
  150.6962  137.6741  158.7001 C   0  0  2  0  0  0  0  0  0  0  0  0
  151.4259  136.5640  159.1891 O   0  0  0  0  0  0  0  0  0  0  0  0
  149.4063  137.2737  157.9994 C   0  0  2  0  0  0  0  0  0  0  0  0
  148.6992  136.2189  158.6427 O   0  0  0  0  0  0  0  0  0  0  0  0
  148.0463  136.4309  159.8051 C   0  0  0  0  0  0  0  0  0  0  0  0
  147.8185  137.5509  160.2667 O   0  0  0  0  0  0  0  0  0  0  0  0
  147.6362  135.1647  160.4771 C   0  0  0  0  0  0  0  0  0  0  0  0
  147.8362  133.9316  159.8136 C   0  0  0  0  0  0  0  0  0  0  0  0
  147.4550  132.7197  160.4217 C   0  0  0  0  0  0  0  0  0  0  0  0
  146.8691  132.7265  161.7008 C   0  0  0  0  0  0  0  0  0  0  0  0
  146.6650  133.9465  162.3715 C   0  0  0  0  0  0  0  0  0  0  0  0
  147.0458  135.1594  161.7652 C   0  0  0  0  0  0  0  0  0  0  0  0
  148.6268  133.0060  154.2842 C   0  0  0  0  0  0  0  0  0  0  0  0
  148.5831  131.6103  154.0593 C   0  0  0  0  0  0  0  0  0  0  0  0
  147.6115  131.0517  153.2063 C   0  0  0  0  0  0  0  0  0  0  0  0
  146.6730  131.8820  152.5665 C   0  0  0  0  0  0  0  0  0  0  0  0
  146.7067  133.2721  152.7809 C   0  0  0  0  0  0  0  0  0  0  0  0
  147.6769  133.8326  153.6345 C   0  0  0  0  0  0  0  0  0  0  0  0
  152.8454  142.5566  158.7218 H   0  0  0  0  0  0  0  0  0  0  0  0
  150.4127  135.0176  157.2749 H   0  0  0  0  0  0  0  0  0  0  0  0
  151.3707  135.5716  155.9057 H   0  0  0  0  0  0  0  0  0  0  0  0
  149.0137  137.1845  155.8750 H   0  0  0  0  0  0  0  0  0  0  0  0
  152.5273  138.1660  157.5426 H   0  0  0  0  0  0  0  0  0  0  0  0
  149.3274  139.9051  156.7712 H   0  0  0  0  0  0  0  0  0  0  0  0
  149.0216  142.2668  156.9269 H   0  0  0  0  0  0  0  0  0  0  0  0
  150.5204  138.3653  159.5254 H   0  0  0  0  0  0  0  0  0  0  0  0
  152.3479  136.7371  159.0749 H   0  0  0  0  0  0  0  0  0  0  0  0
  148.7631  138.1542  157.9544 H   0  0  0  0  0  0  0  0  0  0  0  0
  148.2837  133.9016  158.8305 H   0  0  0  0  0  0  0  0  0  0  0  0
  147.6118  131.7842  159.9051 H   0  0  0  0  0  0  0  0  0  0  0  0
  146.5756  131.7972  162.1665 H   0  0  0  0  0  0  0  0  0  0  0  0
  146.2149  133.9526  163.3531 H   0  0  0  0  0  0  0  0  0  0  0  0
  146.8735  136.0778  162.3075 H   0  0  0  0  0  0  0  0  0  0  0  0
  149.2929  130.9524  154.5398 H   0  0  0  0  0  0  0  0  0  0  0  0
  147.5864  129.9844  153.0433 H   0  0  0  0  0  0  0  0  0  0  0  0
  145.9281  131.4533  151.9122 H   0  0  0  0  0  0  0  0  0  0  0  0
  145.9874  133.9106  152.2900 H   0  0  0  0  0  0  0  0  0  0  0  0
  147.6757  134.9035  153.7753 H   0  0  0  0  0  0  0  0  0  0  0  0
  1  2  2  0  0  0  0
  2  3  1  0  0  0  0
  2 28  1  0  0  0  0
  3  4  1  0  0  0  0
  4  5  1  0  0  0  0
  4 35  1  0  0  0  0
  4 36  1  0  0  0  0
  5 18  1  0  0  0  0
  5  6  1  0  0  0  0
  5 37  1  0  0  0  0
  6  7  1  0  0  0  0
  7  8  1  0  0  0  0
  7 16  1  0  0  0  0
  7 38  1  0  0  0  0
  8 14  1  0  0  0  0
  8  9  1  0  0  0  0
  9 10  2  0  0  0  0
  9 39  1  0  0  0  0
 10 11  1  0  0  0  0
 10 40  1  0  0  0  0
 11 12  2  0  0  0  0
 11 13  1  0  0  0  0
 13 34  1  0  0  0  0
 13 14  1  0  0  0  0
 14 15  2  0  0  0  0
 16 17  1  0  0  0  0
 16 18  1  0  0  0  0
 16 41  1  0  0  0  0
 17 42  1  0  0  0  0
 18 19  1  0  0  0  0
 18 43  1  0  0  0  0
 19 20  1  0  0  0  0
 20 21  2  0  0  0  0
 20 22  1  0  0  0  0
 22 27  1  0  0  0  0
 22 23  2  0  0  0  0
 23 24  1  0  0  0  0
 23 44  1  0  0  0  0
 24 25  2  0  0  0  0
 24 45  1  0  0  0  0
 25 26  1  0  0  0  0
 25 46  1  0  0  0  0
 26 27  2  0  0  0  0
 26 47  1  0  0  0  0
 27 48  1  0  0  0  0
 28 33  1  0  0  0  0
 28 29  2  0  0  0  0
 29 30  1  0  0  0  0
 29 49  1  0  0  0  0
 30 31  2  0  0  0  0
 30 50  1  0  0  0  0
 31 32  1  0  0  0  0
 31 51  1  0  0  0  0
 32 33  2  0  0  0  0
 32 52  1  0  0  0  0
 33 53  1  0  0  0  0
M  END
> <s_m_source_file>
AV-unprocessed.smi

> <i_m_source_file_index>
99

> <i_lp_mmshare_version>
43012

> <i_f3d_flags>
0

> <s_epik_input>
W2NIXTFbY0hdW2NIXVtjSF1bY0hdYzFDKD1PKU9bQ0gyXVtDQEBIXTJPW0NAQEhdKG4zW2NIXVtjSF1jKD1PKVtuSF1jMz1PKVtDQEBIXShbT0hdKVtDQEhdMk9DKD1PKWM0W2NIXVtjSF1bY0hdW2NIXVtjSF00

> <s_epik_cmdline>
J2VwaWtfcHl0aG9uJywgJy1waCcsICc3LjAnLCAnLXRuJywgJzgnLCAnLW1hJywgJzIwMCcsICctbWV0YWxfYmluZGluZycsICctaW1hZScsICc8aW5maWxlLm1hZT4nLCAnLW9tYWUnLCAnPG91dGZpbGUubWFlPic=

> <r_lp_tautomer_probability>
1

> <r_epik_Ionization_Penalty>
0.00454555

> <r_epik_Ionization_Penalty_Charging>
0.0045191

> <r_epik_Ionization_Penalty_Neutral>
2.64449e-05

> <r_epik_State_Penalty>
-0

> <r_epik_Charging_Adjusted_Penalty>
0.0045191

> <i_epik_Tot_Q>
0

> <i_epik_Tot_abs_Q>
0

> <r_epik_Metal_State_Penalty>
1.27877

> <b_epik_Metal_Only>
0

> <s_epik_Chemistry_Notes>
This compound has an ester and may undergo hydrolysis at high or low pH. This compound contains an acetal/aminal-like group ( X-CH(R)-Y where X, Y are N, S, or O) that may be acid/base labile, releasing an aldehyde.

> <s_lp_Force_Field>
OPLS_2005

> <r_lp_Energy>
39.429

> <b_lp_Chiralities_Consistent>
1

> <s_lp_Variant>
AV-unprocessed.smi:99-13

> <Gold.Version>
5.8.1

> <Gold.Id.Protein>
6NUR|6NUR_protein|mol2

> <Gold.PLP.Fitness>
51.9297

> <Gold.PLP.PLP>
-45.6072

> <Gold.PLP.part.hbond>
-4.0000

> <Gold.PLP.part.metal>
0.0000

> <Gold.PLP.part.buried>
-4.5714

> <Gold.PLP.part.nonpolar>
-37.0831

> <Gold.PLP.part.repulsive>
0.3284

> <Gold.PLP.ligand.clash>
0.0000

> <Gold.PLP.ligand.torsion>
1.5949

> <Gold.PLP.Chemscore.Hbond>
3.1363

> <Gold.PLP.Chemscore.CHOScore>
0.0000

> <Gold.PLP.Chemscore.Metal>
0.0000

> <Gold.Chemscore.Hbonds>
donor molecule, donor type, donor heavy atom, donor atom, acceptor molecule, acceptor atom, score
      P1  H  6896  6909       L1    17  1.00
      P1  H  6931  6943       L1    21  0.38
      P1  H  6934  6947       L1    21  0.75
      P1  H  7997  8008       L1    15  0.79

> <Gold.PLP.Chemscore.Internal.Correction>
0.1035

> <Gold.Rescore>
     Score         DG    S(hbond)    S(metal)    S(lipo)     H(rot)  DE(clash)    DE(int)     intcor
     16.56     -18.24       3.07        0.00      91.30       3.19       0.14       1.54       ----

> <Gold.Chemscore.Fitness>
16.5551

> <Gold.Chemscore.DG>
-18.2399

> <Gold.Chemscore.ZeroCoef>
-5.4800

> <Gold.Chemscore.Hbond>
3.0673

> <Gold.Chemscore.Metal>
0.0000

> <Gold.Chemscore.Lipo>
91.3023

> <Gold.Chemscore.Internal_Hbond>
0.0000

> <Gold.Chemscore.DEClash>
0.1430

> <Gold.Chemscore.DEInternal>
1.5417

> <Gold.Chemscore.Rot>
3.1903

> <Gold.Chemscore.Internal.Correction>
   9.000000E+99

> <Gold.Chemscore.Hbonds>
donor molecule, donor type, donor heavy atom, donor atom, acceptor molecule, acceptor atom, score
      P1  H  6896  6909       L1    17  0.37
      P1  H  6931  6943       L1    21  0.37
      P1  H  6934  6947       L1    21  0.76
      P1  H  7997  8008       L1    15  0.61

> <Gold.Chemscore.Hbond.Weighted>
-10.2446

> <Gold.Chemscore.Metal.Weighted>
-0.0000

> <Gold.Chemscore.Lipo.Weighted>
-10.6824

> <Gold.Chemscore.Internal_Hbond.Weighted>
0.0000

> <Gold.Chemscore.DEClash.Weighted>
0.1430

> <Gold.Chemscore.DEInternal.Weighted>
1.5417

> <Gold.Chemscore.Rot.Weighted>
8.1671

> <Gold.Chemscore.Internal.Correction.Weighted>
   9.000000E+99

> <Gold.Protein.RotatedTorsions>
[ 6907 6896 6895 6894 ] final  109.86 input  -60.11 | X-H torsion
[ 7974 7965 7964 7962 ] final   84.26 input  175.53 | X-H torsion
[ 8008 7997 7996 7995 ] final -105.99 input   59.86 | X-H torsion
[ 10167 10162 10161 10158 ] final -108.90 input  -65.29 | X-H torsion
[ 10718 10713 10712 10709 ] final -148.27 input   66.30 | X-H torsion
[ 10763 10752 10751 10750 ] final   91.24 input  -60.55 | X-H torsion
[ 11005 11000 10999 10996 ] final   -9.21 input  -57.11 | X-H torsion

> <Gold.Protein.ActiveResidues>
 VAL166  LYS551  ARG553  GLY616  TRP617  ASP618  TYR619  PRO620  LYS621  CYS622 
 ASP623  PHE694  ASN695  SER759  ASP760  ASP761  ALA762  ILE779  LEU786  VAL792 
 PHE793  MET794  SER795  GLU796  ALA797  LYS798  CYS799  TRP800  GLU811  SER814 

> <Gold.Protein.RotatedAtoms>
  152.5047  133.8883  159.7380 H   0  0  0  0  0  0  0  0  0  0  0  0  # atno 6907 bound_to 6896
  150.9328  133.6737  159.2814 H   0  0  0  0  0  0  0  0  0  0  0  0  # atno 6908 bound_to 6896
  151.4076  135.0985  159.9627 H   0  0  0  0  0  0  0  0  0  0  0  0  # atno 6909 bound_to 6896
  145.6011  139.2352  143.2245 H   0  0  0  0  0  0  0  0  0  0  0  0  # atno 7974 bound_to 7965
  154.9079  140.0411  157.1930 H   0  0  0  0  0  0  0  0  0  0  0  0  # atno 8008 bound_to 7997
  154.8377  140.2909  155.5658 H   0  0  0  0  0  0  0  0  0  0  0  0  # atno 8009 bound_to 7997
  156.2990  140.2488  156.3314 H   0  0  0  0  0  0  0  0  0  0  0  0  # atno 8010 bound_to 7997
  140.1612  143.4119  152.1424 H   0  0  0  0  0  0  0  0  0  0  0  0  # atno 10167 bound_to 10162
  156.4181  130.8015  151.2236 H   0  0  0  0  0  0  0  0  0  0  0  0  # atno 10718 bound_to 10713
  153.2061  135.4405  155.0324 H   0  0  0  0  0  0  0  0  0  0  0  0  # atno 10763 bound_to 10752
  154.8174  135.3321  154.7139 H   0  0  0  0  0  0  0  0  0  0  0  0  # atno 10764 bound_to 10752
  153.7580  135.6993  153.4987 H   0  0  0  0  0  0  0  0  0  0  0  0  # atno 10765 bound_to 10752
  140.7317  133.8743  155.8898 H   0  0  0  0  0  0  0  0  0  0  0  0  # atno 11005 bound_to 11000
  146.1576  140.6836  142.9293 LP  0  0  0  0  0  0  0  0  0  0  0  0  # atno 17320 bound_to 7965
  144.7310  140.4670  143.6938 LP  0  0  0  0  0  0  0  0  0  0  0  0  # atno 17321 bound_to 7965
  139.5380  144.7229  151.4827 LP  0  0  0  0  0  0  0  0  0  0  0  0  # atno 17342 bound_to 10162
  140.6642  143.8434  150.6922 LP  0  0  0  0  0  0  0  0  0  0  0  0  # atno 17343 bound_to 10162
  157.7508  131.0237  150.3844 LP  0  0  0  0  0  0  0  0  0  0  0  0  # atno 17370 bound_to 10713
  156.4155  130.3942  149.6861 LP  0  0  0  0  0  0  0  0  0  0  0  0  # atno 17371 bound_to 10713
  140.9915  134.1272  157.4404 LP  0  0  0  0  0  0  0  0  0  0  0  0  # atno 17394 bound_to 11000
  139.8825  135.0042  156.6232 LP  0  0  0  0  0  0  0  0  0  0  0  0  # atno 17395 bound_to 11000

$$$$
