AV-unprocessed.smi:3076|AV-procd|sdf|11728|dock6
  -GOLD-   2272017123D 1   1.00000     0.00000
 Structure written by MMmdl.
 20 20  0  0  0  0  0  0  0  0  1 V2000
  143.8630  133.5738  147.2883 N   0  0  0  0  0  0  0  0  0  0  0  0
  144.0156  132.4306  148.2012 C   0  0  0  0  0  0  0  0  0  0  0  0
  143.5083  132.7294  149.6227 C   0  0  1  0  0  0  0  0  0  0  0  0
  143.1299  131.5082  150.2271 O   0  0  0  0  0  0  0  0  0  0  0  0
  144.5741  133.4412  150.4406 C   0  0  0  0  0  0  0  0  0  0  0  0
  144.3989  134.7727  150.8768 C   0  0  0  0  0  0  0  0  0  0  0  0
  145.4141  135.3778  151.6423 C   0  0  0  0  0  0  0  0  0  0  0  0
  146.5660  134.6246  151.9433 C   0  0  0  0  0  0  0  0  0  0  0  0
  146.7454  133.3502  151.5352 N   0  0  0  0  0  0  0  0  0  0  0  0
  145.7668  132.7773  150.8016 C   0  0  0  0  0  0  0  0  0  0  0  0
  142.9780  133.5140  146.7869 H   0  0  0  0  0  0  0  0  0  0  0  0
  143.8527  134.4482  147.8113 H   0  0  0  0  0  0  0  0  0  0  0  0
  143.5167  131.5493  147.7964 H   0  0  0  0  0  0  0  0  0  0  0  0
  145.0752  132.1787  148.2563 H   0  0  0  0  0  0  0  0  0  0  0  0
  142.6250  133.3680  149.5714 H   0  0  0  0  0  0  0  0  0  0  0  0
  143.1008  131.6330  151.1631 H   0  0  0  0  0  0  0  0  0  0  0  0
  143.5013  135.3219  150.6324 H   0  0  0  0  0  0  0  0  0  0  0  0
  145.3116  136.3943  151.9920 H   0  0  0  0  0  0  0  0  0  0  0  0
  147.3635  135.0569  152.5292 H   0  0  0  0  0  0  0  0  0  0  0  0
  145.9427  131.7561  150.4966 H   0  0  0  0  0  0  0  0  0  0  0  0
  1  2  1  0  0  0  0
  1 11  1  0  0  0  0
  1 12  1  0  0  0  0
  2  3  1  0  0  0  0
  2 13  1  0  0  0  0
  2 14  1  0  0  0  0
  3  4  1  0  0  0  0
  3  5  1  0  0  0  0
  3 15  1  0  0  0  0
  4 16  1  0  0  0  0
  5 10  1  0  0  0  0
  5  6  2  0  0  0  0
  6  7  1  0  0  0  0
  6 17  1  0  0  0  0
  7  8  2  0  0  0  0
  7 18  1  0  0  0  0
  8  9  1  0  0  0  0
  8 19  1  0  0  0  0
  9 10  2  0  0  0  0
 10 20  1  0  0  0  0
M  END
> <s_m_source_file>
AV-unprocessed.smi

> <i_m_source_file_index>
3076

> <i_lp_mmshare_version>
43012

> <i_f3d_flags>
0

> <s_epik_input>
W05IMl1bQ0gyXVtDQEhdKFtPSF0pYzFbY0hdW2NIXVtjSF1uW2NIXTE=

> <s_epik_cmdline>
J2VwaWtfcHl0aG9uJywgJy1waCcsICc3LjAnLCAnLXRuJywgJzgnLCAnLW1hJywgJzIwMCcsICctbWV0YWxfYmluZGluZycsICctaW1hZScsICc8aW5maWxlLm1hZT4nLCAnLW9tYWUnLCAnPG91dGZpbGUubWFlPic=

> <r_epik_Ionization_Penalty>
2.22627

> <r_epik_Ionization_Penalty_Charging>
0

> <r_epik_Ionization_Penalty_Neutral>
2.22627

> <r_epik_State_Penalty>
2.36938

> <r_epik_Charging_Adjusted_Penalty>
2.36938

> <i_epik_Tot_Q>
0

> <i_epik_Tot_abs_Q>
0

> <r_epik_Metal_State_Penalty>
2.36785

> <b_epik_Metal_Only>
0

> <s_lp_Force_Field>
OPLS_2005

> <r_lp_Energy>
11.5599

> <b_lp_Chiralities_Consistent>
1

> <s_lp_Variant>
AV-unprocessed.smi:3076-4

> <Gold.Version>
5.8.1

> <Gold.Id.Protein>
6NUR|6NUR_protein|mol2

> <Gold.PLP.Fitness>
30.9195

> <Gold.PLP.PLP>
-19.9668

> <Gold.PLP.part.hbond>
-4.9886

> <Gold.PLP.part.metal>
0.0000

> <Gold.PLP.part.buried>
1.8671

> <Gold.PLP.part.nonpolar>
-17.1044

> <Gold.PLP.part.repulsive>
0.1952

> <Gold.PLP.ligand.clash>
0.0000

> <Gold.PLP.ligand.torsion>
0.3480

> <Gold.PLP.Chemscore.Hbond>
2.9600

> <Gold.PLP.Chemscore.CHOScore>
0.9220

> <Gold.PLP.Chemscore.Metal>
0.0000

> <Gold.Chemscore.Hbonds>
donor molecule, donor type, donor heavy atom, donor atom, acceptor molecule, acceptor atom, score
      L1  H     1    11       P1 10195  1.00
      P1  H  7918  7932       L1     1  0.93
      P1  H 10785 10796       L1     4  1.00
      L1  C     8    19       P1  7948  0.94

> <Gold.PLP.Chemscore.Internal.Correction>
0.0027

> <Gold.Rescore>
     Score         DG    S(hbond)    S(metal)    S(lipo)     H(rot)  DE(clash)    DE(int)     intcor
     12.00     -13.54       1.82        0.00      57.41       1.85       1.00       0.54       ----

> <Gold.Chemscore.Fitness>
12.0006

> <Gold.Chemscore.DG>
-13.5438

> <Gold.Chemscore.ZeroCoef>
-5.4800

> <Gold.Chemscore.Hbond>
1.8178

> <Gold.Chemscore.Metal>
0.0000

> <Gold.Chemscore.Lipo>
57.4090

> <Gold.Chemscore.Internal_Hbond>
0.0000

> <Gold.Chemscore.DEClash>
1.0015

> <Gold.Chemscore.DEInternal>
0.5416

> <Gold.Chemscore.Rot>
1.8455

> <Gold.Chemscore.Internal.Correction>
   9.000000E+99

> <Gold.Chemscore.Hbonds>
donor molecule, donor type, donor heavy atom, donor atom, acceptor molecule, acceptor atom, score
      L1  H     1    11       P1 10195  1.00
      L1  H     1    12       P1  7921  0.01
      P1  H  7918  7932       L1     1  0.17
      P1  H 10785 10796       L1     4  0.51

> <Gold.Chemscore.Hbond.Weighted>
-6.0714

> <Gold.Chemscore.Metal.Weighted>
-0.0000

> <Gold.Chemscore.Lipo.Weighted>
-6.7168

> <Gold.Chemscore.Internal_Hbond.Weighted>
0.0000

> <Gold.Chemscore.DEClash.Weighted>
1.0015

> <Gold.Chemscore.DEInternal.Weighted>
0.5416

> <Gold.Chemscore.Rot.Weighted>
4.7245

> <Gold.Chemscore.Internal.Correction.Weighted>
   9.000000E+99

> <Gold.Protein.RotatedTorsions>
[ 6907 6896 6895 6894 ] final  129.05 input  -60.11 | X-H torsion
[ 7974 7965 7964 7962 ] final  113.85 input  175.53 | X-H torsion
[ 8008 7997 7996 7995 ] final  -64.32 input   59.86 | X-H torsion
[ 10167 10162 10161 10158 ] final  -87.98 input  -65.29 | X-H torsion
[ 10718 10713 10712 10709 ] final  -86.01 input   66.30 | X-H torsion
[ 10763 10752 10751 10750 ] final -159.82 input  -60.55 | X-H torsion
[ 11005 11000 10999 10996 ] final   51.64 input  -57.11 | X-H torsion

> <Gold.Protein.ActiveResidues>
 VAL166  LYS551  ARG553  GLY616  TRP617  ASP618  TYR619  PRO620  LYS621  CYS622 
 ASP623  PHE694  ASN695  SER759  ASP760  ASP761  ALA762  ILE779  LEU786  VAL792 
 PHE793  MET794  SER795  GLU796  ALA797  LYS798  CYS799  TRP800  GLU811  SER814 

> <Gold.Protein.RotatedAtoms>
  152.3661  133.6358  159.6051 H   0  0  0  0  0  0  0  0  0  0  0  0  # atno 6907 bound_to 6896
  150.7635  133.9346  159.3446 H   0  0  0  0  0  0  0  0  0  0  0  0  # atno 6908 bound_to 6896
  151.7176  135.0901  160.0330 H   0  0  0  0  0  0  0  0  0  0  0  0  # atno 6909 bound_to 6896
  145.2118  139.2903  143.4264 H   0  0  0  0  0  0  0  0  0  0  0  0  # atno 7974 bound_to 7965
  154.4605  140.0956  156.6878 H   0  0  0  0  0  0  0  0  0  0  0  0  # atno 8008 bound_to 7997
  155.5010  140.3473  155.4353 H   0  0  0  0  0  0  0  0  0  0  0  0  # atno 8009 bound_to 7997
  156.0860  140.1385  156.9641 H   0  0  0  0  0  0  0  0  0  0  0  0  # atno 8010 bound_to 7997
  140.3791  143.2757  151.9406 H   0  0  0  0  0  0  0  0  0  0  0  0  # atno 10167 bound_to 10162
  155.9992  130.4750  150.4650 H   0  0  0  0  0  0  0  0  0  0  0  0  # atno 10718 bound_to 10713
  154.7442  135.3076  154.8673 H   0  0  0  0  0  0  0  0  0  0  0  0  # atno 10763 bound_to 10752
  153.9479  135.6767  153.4748 H   0  0  0  0  0  0  0  0  0  0  0  0  # atno 10764 bound_to 10752
  153.1040  135.4898  154.8843 H   0  0  0  0  0  0  0  0  0  0  0  0  # atno 10765 bound_to 10752
  140.0916  134.5202  155.8847 H   0  0  0  0  0  0  0  0  0  0  0  0  # atno 11005 bound_to 11000
  146.3396  140.2396  142.8595 LP  0  0  0  0  0  0  0  0  0  0  0  0  # atno 17320 bound_to 7965
  144.9849  140.8493  143.5375 LP  0  0  0  0  0  0  0  0  0  0  0  0  # atno 17321 bound_to 7965
  139.4797  144.5835  151.7892 LP  0  0  0  0  0  0  0  0  0  0  0  0  # atno 17342 bound_to 10162
  140.4956  144.1246  150.5959 LP  0  0  0  0  0  0  0  0  0  0  0  0  # atno 17343 bound_to 10162
  157.2671  131.0579  151.2284 LP  0  0  0  0  0  0  0  0  0  0  0  0  # atno 17370 bound_to 10713
  157.3378  130.7017  149.6363 LP  0  0  0  0  0  0  0  0  0  0  0  0  # atno 17371 bound_to 10713
  141.2079  133.6669  156.6338 LP  0  0  0  0  0  0  0  0  0  0  0  0  # atno 17394 bound_to 11000
  140.3345  134.7901  157.4351 LP  0  0  0  0  0  0  0  0  0  0  0  0  # atno 17395 bound_to 11000

$$$$
