AV-unprocessed.smi:1868|AV-procd|sdf|7584|dock2
  -GOLD-   22720 9293D 1   1.00000     0.00000
 Structure written by MMmdl.
 47 49  0  0  0  0  0  0  0  0  2 V2000
  151.9810  138.6982  155.6685 C   0  0  0  0  0  0  0  0  0  0  0  0
  151.8559  139.8853  156.5698 C   0  0  0  0  0  0  0  0  0  0  0  0
  152.5632  140.0004  157.6935 N   0  0  0  0  0  0  0  0  0  0  0  0
  152.1495  141.2213  158.1895 C   0  0  0  0  0  0  0  0  0  0  0  0
  152.5299  141.9138  159.3611 C   0  0  0  0  0  0  0  0  0  0  0  0
  151.9596  143.1668  159.6667 C   0  0  0  0  0  0  0  0  0  0  0  0
  151.0032  143.7446  158.8070 C   0  0  0  0  0  0  0  0  0  0  0  0
  150.6101  143.0720  157.6341 C   0  0  0  0  0  0  0  0  0  0  0  0
  151.1819  141.8208  157.3339 C   0  0  0  0  0  0  0  0  0  0  0  0
  151.0140  140.9115  156.2930 N   0  0  0  0  0  0  0  0  0  0  0  0
  150.1191  141.0542  155.1528 C   0  0  0  0  0  0  0  0  0  0  0  0
  148.6736  141.4062  155.5610 C   0  0  2  0  0  0  0  0  0  0  0  0
  148.1492  140.3031  156.2714 O   0  0  0  0  0  0  0  0  0  0  0  0
  147.7459  141.7062  154.3627 C   0  0  0  0  0  0  0  0  0  0  0  0
  146.6923  142.6997  154.6906 N   0  3  2  0  0  0  0  0  0  0  0  0
  145.9059  142.3101  155.8890 C   0  0  0  0  0  0  0  0  0  0  0  0
  144.9201  143.4196  156.2918 C   0  0  0  0  0  0  0  0  0  0  0  0
  143.9792  143.7803  155.1301 C   0  0  1  0  0  0  0  0  0  0  0  0
  143.0129  144.9103  155.5120 C   0  0  0  0  0  0  0  0  0  0  0  0
  144.8182  144.1417  153.8928 C   0  0  0  0  0  0  0  0  0  0  0  0
  145.8066  143.0179  153.5389 C   0  0  0  0  0  0  0  0  0  0  0  0
  152.7387  138.0109  156.0466 H   0  0  0  0  0  0  0  0  0  0  0  0
  152.2754  139.0112  154.6666 H   0  0  0  0  0  0  0  0  0  0  0  0
  151.0338  138.1629  155.6106 H   0  0  0  0  0  0  0  0  0  0  0  0
  153.2619  141.4798  160.0261 H   0  0  0  0  0  0  0  0  0  0  0  0
  152.2582  143.6874  160.5649 H   0  0  0  0  0  0  0  0  0  0  0  0
  150.5721  144.7052  159.0486 H   0  0  0  0  0  0  0  0  0  0  0  0
  149.8773  143.5136  156.9756 H   0  0  0  0  0  0  0  0  0  0  0  0
  150.5221  141.8262  154.4959 H   0  0  0  0  0  0  0  0  0  0  0  0
  150.1380  140.1299  154.5744 H   0  0  0  0  0  0  0  0  0  0  0  0
  148.7013  142.2560  156.2409 H   0  0  0  0  0  0  0  0  0  0  0  0
  148.7709  139.5919  156.2276 H   0  0  0  0  0  0  0  0  0  0  0  0
  148.3113  142.0738  153.5059 H   0  0  0  0  0  0  0  0  0  0  0  0
  147.2871  140.7689  154.0433 H   0  0  0  0  0  0  0  0  0  0  0  0
  145.3691  141.3815  155.6878 H   0  0  0  0  0  0  0  0  0  0  0  0
  146.5794  142.1135  156.7240 H   0  0  0  0  0  0  0  0  0  0  0  0
  144.3395  143.0972  157.1569 H   0  0  0  0  0  0  0  0  0  0  0  0
  145.4766  144.3036  156.6063 H   0  0  0  0  0  0  0  0  0  0  0  0
  143.3814  142.8993  154.8907 H   0  0  0  0  0  0  0  0  0  0  0  0
  143.5509  145.8243  155.7668 H   0  0  0  0  0  0  0  0  0  0  0  0
  142.4038  144.6320  156.3726 H   0  0  0  0  0  0  0  0  0  0  0  0
  142.3349  145.1418  154.6899 H   0  0  0  0  0  0  0  0  0  0  0  0
  144.1637  144.3344  153.0419 H   0  0  0  0  0  0  0  0  0  0  0  0
  145.3687  145.0662  154.0742 H   0  0  0  0  0  0  0  0  0  0  0  0
  146.3974  143.3275  152.6776 H   0  0  0  0  0  0  0  0  0  0  0  0
  145.2613  142.1215  153.2390 H   0  0  0  0  0  0  0  0  0  0  0  0
  147.1769  143.5511  154.9378 H   0  0  0  0  0  0  0  0  0  0  0  0
  1  2  1  0  0  0  0
  1 22  1  0  0  0  0
  1 23  1  0  0  0  0
  1 24  1  0  0  0  0
  2 10  1  0  0  0  0
  2  3  2  0  0  0  0
  3  4  1  0  0  0  0
  4  9  2  0  0  0  0
  4  5  1  0  0  0  0
  5  6  2  0  0  0  0
  5 25  1  0  0  0  0
  6  7  1  0  0  0  0
  6 26  1  0  0  0  0
  7  8  2  0  0  0  0
  7 27  1  0  0  0  0
  8  9  1  0  0  0  0
  8 28  1  0  0  0  0
  9 10  1  0  0  0  0
 10 11  1  0  0  0  0
 11 12  1  0  0  0  0
 11 29  1  0  0  0  0
 11 30  1  0  0  0  0
 12 13  1  0  0  0  0
 12 14  1  0  0  0  0
 12 31  1  0  0  0  0
 13 32  1  0  0  0  0
 14 15  1  0  0  0  0
 14 33  1  0  0  0  0
 14 34  1  0  0  0  0
 15 21  1  0  0  0  0
 15 16  1  0  0  0  0
 15 47  1  0  0  0  0
 16 17  1  0  0  0  0
 16 35  1  0  0  0  0
 16 36  1  0  0  0  0
 17 18  1  0  0  0  0
 17 37  1  0  0  0  0
 17 38  1  0  0  0  0
 18 19  1  0  0  0  0
 18 20  1  0  0  0  0
 18 39  1  0  0  0  0
 19 40  1  0  0  0  0
 19 41  1  0  0  0  0
 19 42  1  0  0  0  0
 20 21  1  0  0  0  0
 20 43  1  0  0  0  0
 20 44  1  0  0  0  0
 21 45  1  0  0  0  0
 21 46  1  0  0  0  0
M  CHG  1  15   1
M  END
> <s_m_source_file>
AV-unprocessed.smi

> <i_m_source_file_index>
1868

> <i_lp_mmshare_version>
43012

> <i_f3d_flags>
0

> <s_epik_input>
W2NIXTFbY0hdW2NIXVtjSF1jKGMxMiluKGMobjIpW0NIM10pW0NIMl1bQ0BIXShbT0hdKVtDSDJdTjNbQ0gyXVtDSDJdW0NIXShbQ0gzXSlbQ0gyXVtDSDJdMw==

> <s_epik_cmdline>
J2VwaWtfcHl0aG9uJywgJy1waCcsICc3LjAnLCAnLXRuJywgJzgnLCAnLW1hJywgJzIwMCcsICctbWV0YWxfYmluZGluZycsICctaW1hZScsICc8aW5maWxlLm1hZT4nLCAnLW9tYWUnLCAnPG91dGZpbGUubWFlPic=

> <r_epik_Ionization_Penalty>
0.101157

> <r_epik_Ionization_Penalty_Charging>
0.00181365

> <r_epik_Ionization_Penalty_Neutral>
0.0993436

> <r_epik_State_Penalty>
0.0871902

> <r_epik_Charging_Adjusted_Penalty>
0.0890039

> <i_epik_Tot_Q>
1

> <i_epik_Tot_abs_Q>
1

> <r_epik_Metal_State_Penalty>
9.24346e-05

> <b_epik_Metal_Only>
0

> <s_lp_Force_Field>
OPLS_2005

> <r_lp_Energy>
22.6133

> <b_lp_Chiralities_Consistent>
1

> <s_lp_Variant>
AV-unprocessed.smi:1868-1

> <Gold.Version>
5.8.1

> <Gold.Id.Protein>
6NUR|6NUR_protein|mol2

> <Gold.PLP.Fitness>
49.7145

> <Gold.PLP.PLP>
-42.0444

> <Gold.PLP.part.hbond>
-2.0000

> <Gold.PLP.part.metal>
0.0000

> <Gold.PLP.part.buried>
-5.0537

> <Gold.PLP.part.nonpolar>
-34.1043

> <Gold.PLP.part.repulsive>
0.1204

> <Gold.PLP.ligand.clash>
0.0000

> <Gold.PLP.ligand.torsion>
0.5130

> <Gold.PLP.Chemscore.Hbond>
2.8640

> <Gold.PLP.Chemscore.CHOScore>
0.0000

> <Gold.PLP.Chemscore.Metal>
0.0000

> <Gold.Chemscore.Hbonds>
donor molecule, donor type, donor heavy atom, donor atom, acceptor molecule, acceptor atom, score
      L1  H    15    47       P1  8028  0.73
      P1  H  7997  8008       L1     3  0.35

> <Gold.PLP.Chemscore.Internal.Correction>
0.1042

> <Gold.Rescore>
     Score         DG    S(hbond)    S(metal)    S(lipo)     H(rot)  DE(clash)    DE(int)     intcor
     15.84     -17.38       0.85        0.00     119.40       1.92       0.13       1.42       ----

> <Gold.Chemscore.Fitness>
15.8351

> <Gold.Chemscore.DG>
-17.3847

> <Gold.Chemscore.ZeroCoef>
-5.4800

> <Gold.Chemscore.Hbond>
0.8532

> <Gold.Chemscore.Metal>
0.0000

> <Gold.Chemscore.Lipo>
119.4003

> <Gold.Chemscore.Internal_Hbond>
0.0000

> <Gold.Chemscore.DEClash>
0.1334

> <Gold.Chemscore.DEInternal>
1.4161

> <Gold.Chemscore.Rot>
1.9198

> <Gold.Chemscore.Internal.Correction>
   9.000000E+99

> <Gold.Chemscore.Hbonds>
donor molecule, donor type, donor heavy atom, donor atom, acceptor molecule, acceptor atom, score
      L1  H    15    47       P1  8028  0.02
      P1  H  7997  8008       L1     3  0.18

> <Gold.Chemscore.Hbond.Weighted>
-2.8496

> <Gold.Chemscore.Metal.Weighted>
-0.0000

> <Gold.Chemscore.Lipo.Weighted>
-13.9698

> <Gold.Chemscore.Internal_Hbond.Weighted>
0.0000

> <Gold.Chemscore.DEClash.Weighted>
0.1334

> <Gold.Chemscore.DEInternal.Weighted>
1.4161

> <Gold.Chemscore.Rot.Weighted>
4.9147

> <Gold.Chemscore.Internal.Correction.Weighted>
   9.000000E+99

> <Gold.Protein.RotatedTorsions>
[ 6907 6896 6895 6894 ] final   19.24 input  -60.11 | X-H torsion
[ 7974 7965 7964 7962 ] final -144.45 input  175.53 | X-H torsion
[ 8008 7997 7996 7995 ] final  -97.51 input   59.86 | X-H torsion
[ 10167 10162 10161 10158 ] final   85.84 input  -65.29 | X-H torsion
[ 10718 10713 10712 10709 ] final  -64.30 input   66.30 | X-H torsion
[ 10763 10752 10751 10750 ] final  -92.45 input  -60.55 | X-H torsion
[ 11005 11000 10999 10996 ] final  -63.40 input  -57.11 | X-H torsion

> <Gold.Protein.ActiveResidues>
 VAL166  LYS551  ARG553  GLY616  TRP617  ASP618  TYR619  PRO620  LYS621  CYS622 
 ASP623  PHE694  ASN695  SER759  ASP760  ASP761  ALA762  ILE779  LEU786  VAL792 
 PHE793  MET794  SER795  GLU796  ALA797  LYS798  CYS799  TRP800  GLU811  SER814 

> <Gold.Protein.RotatedAtoms>
  151.8777  135.0465  160.0485 H   0  0  0  0  0  0  0  0  0  0  0  0  # atno 6907 bound_to 6896
  152.2537  133.5233  159.5349 H   0  0  0  0  0  0  0  0  0  0  0  0  # atno 6908 bound_to 6896
  150.7092  134.0841  159.3951 H   0  0  0  0  0  0  0  0  0  0  0  0  # atno 6909 bound_to 6896
  144.8297  140.5709  143.5523 H   0  0  0  0  0  0  0  0  0  0  0  0  # atno 7974 bound_to 7965
  154.7887  140.0462  157.1184 H   0  0  0  0  0  0  0  0  0  0  0  0  # atno 8008 bound_to 7997
  154.9617  140.3078  155.5008 H   0  0  0  0  0  0  0  0  0  0  0  0  # atno 8009 bound_to 7997
  156.2947  140.2269  156.4703 H   0  0  0  0  0  0  0  0  0  0  0  0  # atno 8010 bound_to 7997
  139.8936  144.6371  150.8712 H   0  0  0  0  0  0  0  0  0  0  0  0  # atno 10167 bound_to 10162
  156.0738  130.4231  150.1400 H   0  0  0  0  0  0  0  0  0  0  0  0  # atno 10718 bound_to 10713
  154.6862  135.5231  153.8330 H   0  0  0  0  0  0  0  0  0  0  0  0  # atno 10763 bound_to 10752
  153.0599  135.6564  154.0497 H   0  0  0  0  0  0  0  0  0  0  0  0  # atno 10764 bound_to 10752
  154.0377  135.2980  155.3339 H   0  0  0  0  0  0  0  0  0  0  0  0  # atno 10765 bound_to 10752
  141.1392  133.6651  156.5675 H   0  0  0  0  0  0  0  0  0  0  0  0  # atno 11005 bound_to 11000
  145.4923  139.1488  143.3703 LP  0  0  0  0  0  0  0  0  0  0  0  0  # atno 17320 bound_to 7965
  146.2600  140.5061  142.8857 LP  0  0  0  0  0  0  0  0  0  0  0  0  # atno 17321 bound_to 7965
  140.7721  143.3490  151.2052 LP  0  0  0  0  0  0  0  0  0  0  0  0  # atno 17342 bound_to 10162
  139.7087  143.9412  152.2938 LP  0  0  0  0  0  0  0  0  0  0  0  0  # atno 17343 bound_to 10162
  156.9445  130.9755  151.3510 LP  0  0  0  0  0  0  0  0  0  0  0  0  # atno 17370 bound_to 10713
  157.5823  130.8385  149.8539 LP  0  0  0  0  0  0  0  0  0  0  0  0  # atno 17371 bound_to 10713
  140.3939  134.7416  157.4738 LP  0  0  0  0  0  0  0  0  0  0  0  0  # atno 17394 bound_to 11000
  140.0546  134.6082  155.8821 LP  0  0  0  0  0  0  0  0  0  0  0  0  # atno 17395 bound_to 11000

$$$$
