AV-unprocessed.smi:1451|AV-procd|sdf|5902|dock1
  -GOLD-   22720 5583D 1   1.00000     0.00000
 Structure written by MMmdl.
 47 48  0  0  0  0  0  0  0  0  2 V2000
  145.0532  134.2855  152.9107 C   0  0  0  0  0  0  0  0  0  0  0  0
  145.8832  135.5718  152.7942 C   0  0  1  0  0  0  0  0  0  0  0  0
  145.0854  136.6949  152.1108 C   0  0  0  0  0  0  0  0  0  0  0  0
  145.9283  137.9739  152.0331 C   0  0  0  0  0  0  0  0  0  0  0  0
  146.4384  138.3824  153.4240 C   0  0  0  0  0  0  0  0  0  0  0  0
  147.2098  137.2810  154.0562 N   0  3  1  0  0  0  0  0  0  0  0  0
  147.8305  137.6968  155.3397 C   0  0  0  0  0  0  0  0  0  0  0  0
  148.3205  139.1541  155.3107 C   0  0  0  0  0  0  0  0  0  0  0  0
  149.7232  139.2283  155.6981 N   0  0  0  0  0  0  0  0  0  0  0  0
  150.2273  140.1155  156.5679 C   0  0  0  0  0  0  0  0  0  0  0  0
  149.5371  140.9512  157.1525 O   0  0  0  0  0  0  0  0  0  0  0  0
  151.7380  140.0286  156.8266 C   0  0  0  0  0  0  0  0  0  0  0  0
  152.1571  140.7705  158.0275 N   0  0  0  0  0  0  0  0  0  0  0  0
  151.8436  142.1430  158.0794 C   0  0  0  0  0  0  0  0  0  0  0  0
  152.1889  142.9350  159.1126 C   0  0  0  0  0  0  0  0  0  0  0  0
  151.7901  144.4016  159.1640 C   0  0  0  0  0  0  0  0  0  0  0  0
  152.0957  144.9417  160.3441 F   0  0  0  0  0  0  0  0  0  0  0  0
  152.4362  145.0804  158.2171 F   0  0  0  0  0  0  0  0  0  0  0  0
  150.4804  144.5514  158.9615 F   0  0  0  0  0  0  0  0  0  0  0  0
  152.8850  142.2950  160.2116 C   0  0  0  0  0  0  0  0  0  0  0  0
  153.1862  140.9821  160.1811 C   0  0  0  0  0  0  0  0  0  0  0  0
  152.8245  140.1391  159.0396 C   0  0  0  0  0  0  0  0  0  0  0  0
  153.1038  138.9405  158.9949 O   0  0  0  0  0  0  0  0  0  0  0  0
  146.3938  136.0417  154.1715 C   0  0  0  0  0  0  0  0  0  0  0  0
  144.1608  134.4421  153.5173 H   0  0  0  0  0  0  0  0  0  0  0  0
  145.6321  133.4841  153.3707 H   0  0  0  0  0  0  0  0  0  0  0  0
  144.7312  133.9361  151.9292 H   0  0  0  0  0  0  0  0  0  0  0  0
  146.7512  135.3459  152.1727 H   0  0  0  0  0  0  0  0  0  0  0  0
  144.7818  136.3893  151.1090 H   0  0  0  0  0  0  0  0  0  0  0  0
  144.1686  136.8934  152.6678 H   0  0  0  0  0  0  0  0  0  0  0  0
  146.7751  137.8156  151.3637 H   0  0  0  0  0  0  0  0  0  0  0  0
  145.3385  138.7823  151.5998 H   0  0  0  0  0  0  0  0  0  0  0  0
  147.0683  139.2673  153.3252 H   0  0  0  0  0  0  0  0  0  0  0  0
  145.6014  138.6584  154.0677 H   0  0  0  0  0  0  0  0  0  0  0  0
  147.0952  137.6061  156.1408 H   0  0  0  0  0  0  0  0  0  0  0  0
  148.6458  137.0167  155.5922 H   0  0  0  0  0  0  0  0  0  0  0  0
  148.1975  139.5804  154.3149 H   0  0  0  0  0  0  0  0  0  0  0  0
  147.7328  139.7651  155.9971 H   0  0  0  0  0  0  0  0  0  0  0  0
  150.3565  138.5670  155.2727 H   0  0  0  0  0  0  0  0  0  0  0  0
  152.0070  138.9748  156.9102 H   0  0  0  0  0  0  0  0  0  0  0  0
  152.2840  140.3931  155.9542 H   0  0  0  0  0  0  0  0  0  0  0  0
  151.3053  142.5146  157.2194 H   0  0  0  0  0  0  0  0  0  0  0  0
  153.1759  142.8788  161.0723 H   0  0  0  0  0  0  0  0  0  0  0  0
  153.7090  140.5396  161.0164 H   0  0  0  0  0  0  0  0  0  0  0  0
  145.5535  136.2218  154.8445 H   0  0  0  0  0  0  0  0  0  0  0  0
  146.9850  135.2428  154.6171 H   0  0  0  0  0  0  0  0  0  0  0  0
  147.9712  137.0753  153.4250 H   0  0  0  0  0  0  0  0  0  0  0  0
  1  2  1  0  0  0  0
  1 25  1  0  0  0  0
  1 26  1  0  0  0  0
  1 27  1  0  0  0  0
  2 24  1  0  0  0  0
  2  3  1  0  0  0  0
  2 28  1  0  0  0  0
  3  4  1  0  0  0  0
  3 29  1  0  0  0  0
  3 30  1  0  0  0  0
  4  5  1  0  0  0  0
  4 31  1  0  0  0  0
  4 32  1  0  0  0  0
  5  6  1  0  0  0  0
  5 33  1  0  0  0  0
  5 34  1  0  0  0  0
  6  7  1  0  0  0  0
  6 24  1  0  0  0  0
  6 47  1  0  0  0  0
  7  8  1  0  0  0  0
  7 35  1  0  0  0  0
  7 36  1  0  0  0  0
  8  9  1  0  0  0  0
  8 37  1  0  0  0  0
  8 38  1  0  0  0  0
  9 10  1  0  0  0  0
  9 39  1  0  0  0  0
 10 11  2  0  0  0  0
 10 12  1  0  0  0  0
 12 13  1  0  0  0  0
 12 40  1  0  0  0  0
 12 41  1  0  0  0  0
 13 22  1  0  0  0  0
 13 14  1  0  0  0  0
 14 15  2  0  0  0  0
 14 42  1  0  0  0  0
 15 16  1  0  0  0  0
 15 20  1  0  0  0  0
 16 17  1  0  0  0  0
 16 18  1  0  0  0  0
 16 19  1  0  0  0  0
 20 21  2  0  0  0  0
 20 43  1  0  0  0  0
 21 22  1  0  0  0  0
 21 44  1  0  0  0  0
 22 23  2  0  0  0  0
 24 45  1  0  0  0  0
 24 46  1  0  0  0  0
M  CHG  1   6   1
M  END
> <s_m_source_file>
AV-unprocessed.smi

> <i_m_source_file_index>
1451

> <i_lp_mmshare_version>
43012

> <i_f3d_flags>
0

> <s_epik_input>
W0NIM11bQ0BASF0xW0NIMl1bQ0gyXVtDSDJdTihbQ0gyXTEpW0NIMl1bQ0gyXVtOSF1DKD1PKVtDSDJdbjJbY0hdYyhDKEYpKEYpRilbY0hdW2NIXWMyPU8=

> <s_epik_cmdline>
J2VwaWtfcHl0aG9uJywgJy1waCcsICc3LjAnLCAnLXRuJywgJzgnLCAnLW1hJywgJzIwMCcsICctbWV0YWxfYmluZGluZycsICctaW1hZScsICc8aW5maWxlLm1hZT4nLCAnLW9tYWUnLCAnPG91dGZpbGUubWFlPic=

> <r_lp_tautomer_probability>
1

> <r_epik_Ionization_Penalty>
0.00192452

> <r_epik_Ionization_Penalty_Charging>
0.00192444

> <r_epik_Ionization_Penalty_Neutral>
8.16761e-08

> <r_epik_State_Penalty>
0.00131115

> <r_epik_Charging_Adjusted_Penalty>
0.00323559

> <i_epik_Tot_Q>
1

> <i_epik_Tot_abs_Q>
1

> <r_epik_Metal_State_Penalty>
-0

> <b_epik_Metal_Only>
0

> <s_lp_Force_Field>
OPLS_2005

> <r_lp_Energy>
29.222

> <b_lp_Chiralities_Consistent>
1

> <s_lp_Variant>
AV-unprocessed.smi:1451-4

> <Gold.Version>
5.8.1

> <Gold.Id.Protein>
6NUR|6NUR_protein|mol2

> <Gold.PLP.Fitness>
46.0588

> <Gold.PLP.PLP>
-41.7874

> <Gold.PLP.part.hbond>
-1.0000

> <Gold.PLP.part.metal>
0.0000

> <Gold.PLP.part.buried>
-3.8595

> <Gold.PLP.part.nonpolar>
-36.6044

> <Gold.PLP.part.repulsive>
0.0804

> <Gold.PLP.ligand.clash>
0.0000

> <Gold.PLP.ligand.torsion>
0.9509

> <Gold.PLP.Chemscore.Hbond>
2.0000

> <Gold.PLP.Chemscore.CHOScore>
0.0000

> <Gold.PLP.Chemscore.Metal>
0.0000

> <Gold.Chemscore.Hbonds>
donor molecule, donor type, donor heavy atom, donor atom, acceptor molecule, acceptor atom, score
      L1  H     6    47       P1  7948  2.00

> <Gold.PLP.Chemscore.Internal.Correction>
0.1731

> <Gold.Rescore>
     Score         DG    S(hbond)    S(metal)    S(lipo)     H(rot)  DE(clash)    DE(int)     intcor
     11.20     -13.58       0.98        0.00      86.60       2.08       0.15       2.22       ----

> <Gold.Chemscore.Fitness>
11.2047

> <Gold.Chemscore.DG>
-13.5762

> <Gold.Chemscore.ZeroCoef>
-5.4800

> <Gold.Chemscore.Hbond>
0.9817

> <Gold.Chemscore.Metal>
0.0000

> <Gold.Chemscore.Lipo>
86.6015

> <Gold.Chemscore.Internal_Hbond>
0.0000

> <Gold.Chemscore.DEClash>
0.1543

> <Gold.Chemscore.DEInternal>
2.2172

> <Gold.Chemscore.Rot>
2.0762

> <Gold.Chemscore.Internal.Correction>
   9.000000E+99

> <Gold.Chemscore.Hbonds>
donor molecule, donor type, donor heavy atom, donor atom, acceptor molecule, acceptor atom, score
      L1  H     6    47       P1  7948  0.93

> <Gold.Chemscore.Hbond.Weighted>
-3.2788

> <Gold.Chemscore.Metal.Weighted>
-0.0000

> <Gold.Chemscore.Lipo.Weighted>
-10.1324

> <Gold.Chemscore.Internal_Hbond.Weighted>
0.0000

> <Gold.Chemscore.DEClash.Weighted>
0.1543

> <Gold.Chemscore.DEInternal.Weighted>
2.2172

> <Gold.Chemscore.Rot.Weighted>
5.3150

> <Gold.Chemscore.Internal.Correction.Weighted>
   9.000000E+99

> <Gold.Protein.RotatedTorsions>
[ 6907 6896 6895 6894 ] final   15.43 input  -60.11 | X-H torsion
[ 7974 7965 7964 7962 ] final   -8.83 input  175.53 | X-H torsion
[ 8008 7997 7996 7995 ] final -104.45 input   59.86 | X-H torsion
[ 10167 10162 10161 10158 ] final   66.69 input  -65.29 | X-H torsion
[ 10718 10713 10712 10709 ] final  119.37 input   66.30 | X-H torsion
[ 10763 10752 10751 10750 ] final  -95.56 input  -60.55 | X-H torsion
[ 11005 11000 10999 10996 ] final  156.10 input  -57.11 | X-H torsion

> <Gold.Protein.ActiveResidues>
 VAL166  LYS551  ARG553  GLY616  TRP617  ASP618  TYR619  PRO620  LYS621  CYS622 
 ASP623  PHE694  ASN695  SER759  ASP760  ASP761  ALA762  ILE779  LEU786  VAL792 
 PHE793  MET794  SER795  GLU796  ALA797  LYS798  CYS799  TRP800  GLU811  SER814 

> <Gold.Protein.RotatedAtoms>
  151.8180  135.0660  160.0421 H   0  0  0  0  0  0  0  0  0  0  0  0  # atno 6907 bound_to 6896
  152.2972  133.5614  159.5603 H   0  0  0  0  0  0  0  0  0  0  0  0  # atno 6908 bound_to 6896
  150.7256  134.0260  159.3759 H   0  0  0  0  0  0  0  0  0  0  0  0  # atno 6909 bound_to 6896
  146.2269  140.2527  142.8348 H   0  0  0  0  0  0  0  0  0  0  0  0  # atno 7974 bound_to 7965
  154.8856  140.0417  157.1808 H   0  0  0  0  0  0  0  0  0  0  0  0  # atno 8008 bound_to 7997
  154.8594  140.2941  155.5527 H   0  0  0  0  0  0  0  0  0  0  0  0  # atno 8009 bound_to 7997
  156.2998  140.2450  156.3566 H   0  0  0  0  0  0  0  0  0  0  0  0  # atno 8010 bound_to 7997
  140.0977  144.4931  150.7057 H   0  0  0  0  0  0  0  0  0  0  0  0  # atno 10167 bound_to 10162
  157.5966  131.1057  150.7886 H   0  0  0  0  0  0  0  0  0  0  0  0  # atno 10718 bound_to 10713
  154.7159  135.5116  153.8737 H   0  0  0  0  0  0  0  0  0  0  0  0  # atno 10763 bound_to 10752
  153.0820  135.6634  154.0034 H   0  0  0  0  0  0  0  0  0  0  0  0  # atno 10764 bound_to 10752
  153.9867  135.3023  155.3395 H   0  0  0  0  0  0  0  0  0  0  0  0  # atno 10765 bound_to 10752
  140.1643  134.8587  157.2613 H   0  0  0  0  0  0  0  0  0  0  0  0  # atno 11005 bound_to 11000
  144.9400  140.8068  143.5636 LP  0  0  0  0  0  0  0  0  0  0  0  0  # atno 17320 bound_to 7965
  145.2477  139.2045  143.4959 LP  0  0  0  0  0  0  0  0  0  0  0  0  # atno 17321 bound_to 7965
  140.6994  143.2425  151.4906 LP  0  0  0  0  0  0  0  0  0  0  0  0  # atno 17342 bound_to 10162
  139.5689  144.1976  152.1806 LP  0  0  0  0  0  0  0  0  0  0  0  0  # atno 17343 bound_to 10162
  156.8295  130.5011  149.5333 LP  0  0  0  0  0  0  0  0  0  0  0  0  # atno 17370 bound_to 10713
  156.1030  130.5983  150.9925 LP  0  0  0  0  0  0  0  0  0  0  0  0  # atno 17371 bound_to 10713
  140.2452  134.3748  155.7464 LP  0  0  0  0  0  0  0  0  0  0  0  0  # atno 17394 bound_to 11000
  141.2212  133.7287  156.8851 LP  0  0  0  0  0  0  0  0  0  0  0  0  # atno 17395 bound_to 11000

$$$$
