AV-unprocessed.smi:967|AV-procd|sdf|4286|dock1
  -GOLD-   22720 2193D 1   1.00000     0.00000
 Structure written by MMmdl.
 43 44  0  0  0  0  0  0  0  0  2 V2000
  146.9920  141.7203  157.3433 C   0  0  0  0  0  0  0  0  0  0  0  0
  146.0099  141.6009  156.2765 N   0  0  0  0  0  0  0  0  0  0  0  0
  145.7679  142.8053  155.4964 C   0  0  0  0  0  0  0  0  0  0  0  0
  146.2063  140.4647  155.4794 C   0  0  0  0  0  0  0  0  0  0  0  0
  147.1291  140.4682  154.4129 C   0  0  0  0  0  0  0  0  0  0  0  0
  147.2949  139.3019  153.6380 C   0  0  0  0  0  0  0  0  0  0  0  0
  146.5459  138.1446  153.9435 C   0  0  0  0  0  0  0  0  0  0  0  0
  146.7386  136.9963  153.1287 N   0  0  0  0  0  0  0  0  0  0  0  0
  145.9013  135.9639  152.9276 C   0  0  0  0  0  0  0  0  0  0  0  0
  144.7981  135.8321  153.4566 O   0  0  0  0  0  0  0  0  0  0  0  0
  146.4333  135.0704  152.0811 N   0  0  0  0  0  0  0  0  0  0  0  0
  145.8137  133.8183  151.6548 C   0  0  2  0  0  0  0  0  0  0  0  0
  146.5687  133.2524  150.4378 C   0  0  0  0  0  0  0  0  0  0  0  0
  145.9020  131.9725  149.9035 C   0  0  0  0  0  0  0  0  0  0  0  0
  144.4084  132.1792  149.5880 C   0  0  2  0  0  0  0  0  0  0  0  0
  144.2630  133.0119  148.4543 O   0  0  0  0  0  0  0  0  0  0  0  0
  143.6551  132.7843  150.7879 C   0  0  0  0  0  0  0  0  0  0  0  0
  144.3314  134.0614  151.3168 C   0  0  0  0  0  0  0  0  0  0  0  0
  145.6241  138.2035  155.0175 C   0  0  0  0  0  0  0  0  0  0  0  0
  145.4938  139.3416  155.7334 N   0  3  0  0  0  0  0  0  0  0  0  0
  147.1014  140.7764  157.8793 H   0  0  0  0  0  0  0  0  0  0  0  0
  146.6789  142.4800  158.0599 H   0  0  0  0  0  0  0  0  0  0  0  0
  147.9665  142.0073  156.9463 H   0  0  0  0  0  0  0  0  0  0  0  0
  145.0183  142.6258  154.7248 H   0  0  0  0  0  0  0  0  0  0  0  0
  146.6840  143.1498  155.0150 H   0  0  0  0  0  0  0  0  0  0  0  0
  145.4013  143.6040  156.1416 H   0  0  0  0  0  0  0  0  0  0  0  0
  147.7047  141.3546  154.1882 H   0  0  0  0  0  0  0  0  0  0  0  0
  147.9985  139.2982  152.8181 H   0  0  0  0  0  0  0  0  0  0  0  0
  147.6424  136.9250  152.6845 H   0  0  0  0  0  0  0  0  0  0  0  0
  147.3493  135.2659  151.7042 H   0  0  0  0  0  0  0  0  0  0  0  0
  145.8589  133.0796  152.4571 H   0  0  0  0  0  0  0  0  0  0  0  0
  146.6065  134.0006  149.6445 H   0  0  0  0  0  0  0  0  0  0  0  0
  147.6037  133.0391  150.7076 H   0  0  0  0  0  0  0  0  0  0  0  0
  146.4300  131.6158  149.0184 H   0  0  0  0  0  0  0  0  0  0  0  0
  146.0006  131.1859  150.6528 H   0  0  0  0  0  0  0  0  0  0  0  0
  143.9618  131.2173  149.3346 H   0  0  0  0  0  0  0  0  0  0  0  0
  145.0453  133.5343  148.3630 H   0  0  0  0  0  0  0  0  0  0  0  0
  142.6187  132.9923  150.5192 H   0  0  0  0  0  0  0  0  0  0  0  0
  143.6179  132.0473  151.5911 H   0  0  0  0  0  0  0  0  0  0  0  0
  143.8011  134.4154  152.2016 H   0  0  0  0  0  0  0  0  0  0  0  0
  144.2465  134.8532  150.5709 H   0  0  0  0  0  0  0  0  0  0  0  0
  144.9773  137.3968  155.3279 H   0  0  0  0  0  0  0  0  0  0  0  0
  144.8228  139.3550  156.5016 H   0  0  0  0  0  0  0  0  0  0  0  0
  1  2  1  0  0  0  0
  1 21  1  0  0  0  0
  1 22  1  0  0  0  0
  1 23  1  0  0  0  0
  2  3  1  0  0  0  0
  2  4  1  0  0  0  0
  3 24  1  0  0  0  0
  3 25  1  0  0  0  0
  3 26  1  0  0  0  0
  4 20  1  0  0  0  0
  4  5  2  0  0  0  0
  5  6  1  0  0  0  0
  5 27  1  0  0  0  0
  6  7  2  0  0  0  0
  6 28  1  0  0  0  0
  7  8  1  0  0  0  0
  7 19  1  0  0  0  0
  8  9  1  0  0  0  0
  8 29  1  0  0  0  0
  9 10  2  0  0  0  0
  9 11  1  0  0  0  0
 11 12  1  0  0  0  0
 11 30  1  0  0  0  0
 12 18  1  0  0  0  0
 12 13  1  0  0  0  0
 12 31  1  0  0  0  0
 13 14  1  0  0  0  0
 13 32  1  0  0  0  0
 13 33  1  0  0  0  0
 14 15  1  0  0  0  0
 14 34  1  0  0  0  0
 14 35  1  0  0  0  0
 15 16  1  0  0  0  0
 15 17  1  0  0  0  0
 15 36  1  0  0  0  0
 16 37  1  0  0  0  0
 17 18  1  0  0  0  0
 17 38  1  0  0  0  0
 17 39  1  0  0  0  0
 18 40  1  0  0  0  0
 18 41  1  0  0  0  0
 19 20  2  0  0  0  0
 19 42  1  0  0  0  0
 20 43  1  0  0  0  0
M  CHG  1  20   1
M  END
> <s_m_source_file>
AV-unprocessed.smi

> <i_m_source_file_index>
967

> <i_lp_mmshare_version>
43012

> <i_f3d_flags>
0

> <s_epik_input>
W0NIM11OKFtDSDNdKWMxW2NIXVtjSF1jKFtjSF1uMSlbTkhdQyg9TylbTkhdW0NAQEhdMltDSDJdW0NIMl1bQ0BASF0oW09IXSlbQ0gyXVtDSDJdMg==

> <s_epik_cmdline>
J2VwaWtfcHl0aG9uJywgJy1waCcsICc3LjAnLCAnLXRuJywgJzgnLCAnLW1hJywgJzIwMCcsICctbWV0YWxfYmluZGluZycsICctaW1hZScsICc8aW5maWxlLm1hZT4nLCAnLW9tYWUnLCAnPG91dGZpbGUubWFlPic=

> <r_lp_tautomer_probability>
0.999994

> <r_epik_Ionization_Penalty>
0.251848

> <r_epik_Ionization_Penalty_Charging>
0.251826

> <r_epik_Ionization_Penalty_Neutral>
2.16844e-05

> <r_epik_State_Penalty>
0.243201

> <r_epik_Charging_Adjusted_Penalty>
0.495027

> <i_epik_Tot_Q>
1

> <i_epik_Tot_abs_Q>
1

> <r_epik_Metal_State_Penalty>
0.534113

> <b_epik_Metal_Only>
0

> <s_lp_Force_Field>
OPLS_2005

> <r_lp_Energy>
23.5814

> <b_lp_Chiralities_Consistent>
1

> <s_lp_Variant>
AV-unprocessed.smi:967-2

> <Gold.Version>
5.8.1

> <Gold.Id.Protein>
6NUR|6NUR_protein|mol2

> <Gold.PLP.Fitness>
40.6502

> <Gold.PLP.PLP>
-33.0005

> <Gold.PLP.part.hbond>
-4.8812

> <Gold.PLP.part.metal>
0.0000

> <Gold.PLP.part.buried>
-1.8024

> <Gold.PLP.part.nonpolar>
-26.9039

> <Gold.PLP.part.repulsive>
0.3219

> <Gold.PLP.ligand.clash>
0.0000

> <Gold.PLP.ligand.torsion>
0.7050

> <Gold.PLP.Chemscore.Hbond>
2.9520

> <Gold.PLP.Chemscore.CHOScore>
0.0000

> <Gold.PLP.Chemscore.Metal>
0.0000

> <Gold.Chemscore.Hbonds>
donor molecule, donor type, donor heavy atom, donor atom, acceptor molecule, acceptor atom, score
      L1  H     8    29       P1  7948  1.00
      L1  H    11    30       P1  7948  0.99
      L1  H    16    37       P1  7921  1.00

> <Gold.PLP.Chemscore.Internal.Correction>
0.2038

> <Gold.Rescore>
     Score         DG    S(hbond)    S(metal)    S(lipo)     H(rot)  DE(clash)    DE(int)     intcor
     16.67     -19.55       2.77        0.00      78.95       1.73       0.04       2.84       ----

> <Gold.Chemscore.Fitness>
16.6676

> <Gold.Chemscore.DG>
-19.5506

> <Gold.Chemscore.ZeroCoef>
-5.4800

> <Gold.Chemscore.Hbond>
2.7729

> <Gold.Chemscore.Metal>
0.0000

> <Gold.Chemscore.Lipo>
78.9541

> <Gold.Chemscore.Internal_Hbond>
0.0000

> <Gold.Chemscore.DEClash>
0.0387

> <Gold.Chemscore.DEInternal>
2.8443

> <Gold.Chemscore.Rot>
1.7299

> <Gold.Chemscore.Internal.Correction>
   9.000000E+99

> <Gold.Chemscore.Hbonds>
donor molecule, donor type, donor heavy atom, donor atom, acceptor molecule, acceptor atom, score
      L1  H     8    29       P1  7948  0.99
      L1  H    11    30       P1  7948  0.88
      L1  H    16    37       P1  7921  0.73

> <Gold.Chemscore.Hbond.Weighted>
-9.2615

> <Gold.Chemscore.Metal.Weighted>
-0.0000

> <Gold.Chemscore.Lipo.Weighted>
-9.2376

> <Gold.Chemscore.Internal_Hbond.Weighted>
0.0000

> <Gold.Chemscore.DEClash.Weighted>
0.0387

> <Gold.Chemscore.DEInternal.Weighted>
2.8443

> <Gold.Chemscore.Rot.Weighted>
4.4285

> <Gold.Chemscore.Internal.Correction.Weighted>
   9.000000E+99

> <Gold.Protein.RotatedTorsions>
[ 6907 6896 6895 6894 ] final -128.58 input  -60.11 | X-H torsion
[ 7974 7965 7964 7962 ] final  -50.89 input  175.53 | X-H torsion
[ 8008 7997 7996 7995 ] final -151.91 input   59.86 | X-H torsion
[ 10167 10162 10161 10158 ] final  123.00 input  -65.29 | X-H torsion
[ 10718 10713 10712 10709 ] final -128.32 input   66.30 | X-H torsion
[ 10763 10752 10751 10750 ] final -175.81 input  -60.55 | X-H torsion
[ 11005 11000 10999 10996 ] final -135.51 input  -57.11 | X-H torsion

> <Gold.Protein.ActiveResidues>
 VAL166  LYS551  ARG553  GLY616  TRP617  ASP618  TYR619  PRO620  LYS621  CYS622 
 ASP623  PHE694  ASN695  SER759  ASP760  ASP761  ALA762  ILE779  LEU786  VAL792 
 PHE793  MET794  SER795  GLU796  ALA797  LYS798  CYS799  TRP800  GLU811  SER814 

> <Gold.Protein.RotatedAtoms>
  150.9194  133.6899  159.2835 H   0  0  0  0  0  0  0  0  0  0  0  0  # atno 6907 bound_to 6896
  151.4359  135.1013  159.9665 H   0  0  0  0  0  0  0  0  0  0  0  0  # atno 6908 bound_to 6896
  152.4971  133.8613  159.7307 H   0  0  0  0  0  0  0  0  0  0  0  0  # atno 6909 bound_to 6896
  145.9249  140.7801  142.9628 H   0  0  0  0  0  0  0  0  0  0  0  0  # atno 7974 bound_to 7965
  155.6468  140.0707  157.2600 H   0  0  0  0  0  0  0  0  0  0  0  0  # atno 8008 bound_to 7997
  154.4171  140.1740  156.1681 H   0  0  0  0  0  0  0  0  0  0  0  0  # atno 8009 bound_to 7997
  155.9810  140.3353  155.6666 H   0  0  0  0  0  0  0  0  0  0  0  0  # atno 8010 bound_to 7997
  139.5825  144.6992  151.3492 H   0  0  0  0  0  0  0  0  0  0  0  0  # atno 10167 bound_to 10162
  156.1940  130.6814  151.0459 H   0  0  0  0  0  0  0  0  0  0  0  0  # atno 10718 bound_to 10713
  154.5799  135.2835  155.0743 H   0  0  0  0  0  0  0  0  0  0  0  0  # atno 10763 bound_to 10752
  154.2084  135.6412  153.5111 H   0  0  0  0  0  0  0  0  0  0  0  0  # atno 10764 bound_to 10752
  153.0085  135.5485  154.6449 H   0  0  0  0  0  0  0  0  0  0  0  0  # atno 10765 bound_to 10752
  140.8891  134.1834  157.4540 H   0  0  0  0  0  0  0  0  0  0  0  0  # atno 11005 bound_to 11000
  144.6757  140.2035  143.7384 LP  0  0  0  0  0  0  0  0  0  0  0  0  # atno 17320 bound_to 7965
  145.8501  139.2171  143.1777 LP  0  0  0  0  0  0  0  0  0  0  0  0  # atno 17321 bound_to 7965
  140.7101  143.7412  150.7552 LP  0  0  0  0  0  0  0  0  0  0  0  0  # atno 17342 bound_to 10162
  140.0948  143.4843  152.2458 LP  0  0  0  0  0  0  0  0  0  0  0  0  # atno 17343 bound_to 10162
  157.6946  131.0798  150.7006 LP  0  0  0  0  0  0  0  0  0  0  0  0  # atno 17370 bound_to 10713
  156.7063  130.4638  149.5559 LP  0  0  0  0  0  0  0  0  0  0  0  0  # atno 17371 bound_to 10713
  139.8727  134.9851  156.5266 LP  0  0  0  0  0  0  0  0  0  0  0  0  # atno 17394 bound_to 11000
  140.8369  133.8235  155.9037 LP  0  0  0  0  0  0  0  0  0  0  0  0  # atno 17395 bound_to 11000

$$$$
