AV-unprocessed.smi:2339|AV-procd|sdf|9340|dock10
  -GOLD-   2272012563D 1   1.00000     0.00000
 Structure written by MMmdl.
 49 52  0  0  0  0  0  0  0  0  1 V2000
  148.8903  131.4299  161.5964 C   0  0  0  0  0  0  0  0  0  0  0  0
  147.8659  132.1629  160.7234 C   0  0  0  0  0  0  0  0  0  0  0  0
  147.7491  133.5667  161.0912 N   0  0  0  0  0  0  0  0  0  0  0  0
  147.4202  133.9487  162.3875 C   0  0  0  0  0  0  0  0  0  0  0  0
  147.2333  135.2255  162.7734 C   0  0  0  0  0  0  0  0  0  0  0  0
  147.3747  136.3094  161.7806 C   0  0  0  0  0  0  0  0  0  0  0  0
  147.2099  137.4867  162.0997 O   0  0  0  0  0  0  0  0  0  0  0  0
  147.7224  135.9015  160.3936 C   0  0  0  0  0  0  0  0  0  0  0  0
  147.8642  136.9414  159.4605 N   0  0  0  0  0  0  0  0  0  0  0  0
  148.2598  136.8957  158.1719 C   0  0  0  0  0  0  0  0  0  0  0  0
  148.5415  135.8755  157.5479 O   0  0  0  0  0  0  0  0  0  0  0  0
  148.3347  138.1032  157.5864 N   0  0  0  0  0  0  0  0  0  0  0  0
  148.7270  138.4082  156.2102 C   0  0  2  0  0  0  0  0  0  0  0  0
  150.2258  138.2048  155.9852 C   0  0  1  0  0  0  0  0  0  0  0  0
  151.0383  137.2369  155.2015 C   0  0  0  0  0  0  0  0  0  0  0  0
  151.9987  138.2558  154.5328 C   0  0  0  0  0  0  0  0  0  0  0  0
  151.4466  139.5650  154.8137 O   0  0  0  0  0  0  0  0  0  0  0  0
  150.0639  139.3225  154.9762 C   0  0  2  0  0  0  0  0  0  0  0  0
  149.0279  139.9334  155.9396 C   0  0  0  0  0  0  0  0  0  0  0  0
  149.5182  140.8452  157.0753 C   0  0  0  0  0  0  0  0  0  0  0  0
  148.3088  141.6443  157.5572 C   0  0  0  0  0  0  0  0  0  0  0  0
  147.3938  141.7701  156.3394 C   0  0  0  0  0  0  0  0  0  0  0  0
  147.9163  140.7679  155.3024 C   0  0  0  0  0  0  0  0  0  0  0  0
  147.8850  134.5773  160.1417 C   0  0  0  0  0  0  0  0  0  0  0  0
  148.9635  130.3810  161.3092 H   0  0  0  0  0  0  0  0  0  0  0  0
  148.6099  131.4684  162.6494 H   0  0  0  0  0  0  0  0  0  0  0  0
  149.8818  131.8726  161.4959 H   0  0  0  0  0  0  0  0  0  0  0  0
  148.1500  132.0845  159.6733 H   0  0  0  0  0  0  0  0  0  0  0  0
  146.8914  131.6813  160.8127 H   0  0  0  0  0  0  0  0  0  0  0  0
  147.3290  133.1279  163.0842 H   0  0  0  0  0  0  0  0  0  0  0  0
  146.9823  135.4753  163.7938 H   0  0  0  0  0  0  0  0  0  0  0  0
  147.6513  137.8589  159.8244 H   0  0  0  0  0  0  0  0  0  0  0  0
  148.0900  138.8979  158.1593 H   0  0  0  0  0  0  0  0  0  0  0  0
  148.1118  137.9227  155.4467 H   0  0  0  0  0  0  0  0  0  0  0  0
  150.7892  138.5188  156.8690 H   0  0  0  0  0  0  0  0  0  0  0  0
  151.5626  136.5164  155.8296 H   0  0  0  0  0  0  0  0  0  0  0  0
  150.4366  136.6996  154.4671 H   0  0  0  0  0  0  0  0  0  0  0  0
  153.0086  138.1913  154.9386 H   0  0  0  0  0  0  0  0  0  0  0  0
  152.0544  138.0881  153.4563 H   0  0  0  0  0  0  0  0  0  0  0  0
  149.6101  139.0070  154.0298 H   0  0  0  0  0  0  0  0  0  0  0  0
  149.9759  140.3071  157.9051 H   0  0  0  0  0  0  0  0  0  0  0  0
  150.2748  141.5318  156.6933 H   0  0  0  0  0  0  0  0  0  0  0  0
  147.7943  141.0924  158.3442 H   0  0  0  0  0  0  0  0  0  0  0  0
  148.5905  142.6136  157.9696 H   0  0  0  0  0  0  0  0  0  0  0  0
  146.3578  141.5624  156.6095 H   0  0  0  0  0  0  0  0  0  0  0  0
  147.4272  142.7818  155.9338 H   0  0  0  0  0  0  0  0  0  0  0  0
  148.3062  141.3140  154.4426 H   0  0  0  0  0  0  0  0  0  0  0  0
  147.1087  140.1420  154.9243 H   0  0  0  0  0  0  0  0  0  0  0  0
  148.1487  134.1902  159.1708 H   0  0  0  0  0  0  0  0  0  0  0  0
  1  2  1  0  0  0  0
  1 25  1  0  0  0  0
  1 26  1  0  0  0  0
  1 27  1  0  0  0  0
  2  3  1  0  0  0  0
  2 28  1  0  0  0  0
  2 29  1  0  0  0  0
  3 24  1  0  0  0  0
  3  4  1  0  0  0  0
  4  5  2  0  0  0  0
  4 30  1  0  0  0  0
  5  6  1  0  0  0  0
  5 31  1  0  0  0  0
  6  7  2  0  0  0  0
  6  8  1  0  0  0  0
  8  9  1  0  0  0  0
  8 24  2  0  0  0  0
  9 10  1  0  0  0  0
  9 32  1  0  0  0  0
 10 11  2  0  0  0  0
 10 12  1  0  0  0  0
 12 13  1  0  0  0  0
 12 33  1  0  0  0  0
 13 19  1  0  0  0  0
 13 14  1  0  0  0  0
 13 34  1  0  0  0  0
 14 18  1  0  0  0  0
 14 15  1  0  0  0  0
 14 35  1  0  0  0  0
 15 16  1  0  0  0  0
 15 36  1  0  0  0  0
 15 37  1  0  0  0  0
 16 17  1  0  0  0  0
 16 38  1  0  0  0  0
 16 39  1  0  0  0  0
 17 18  1  0  0  0  0
 18 19  1  0  0  0  0
 18 40  1  0  0  0  0
 19 23  1  0  0  0  0
 19 20  1  0  0  0  0
 20 21  1  0  0  0  0
 20 41  1  0  0  0  0
 20 42  1  0  0  0  0
 21 22  1  0  0  0  0
 21 43  1  0  0  0  0
 21 44  1  0  0  0  0
 22 23  1  0  0  0  0
 22 45  1  0  0  0  0
 22 46  1  0  0  0  0
 23 47  1  0  0  0  0
 23 48  1  0  0  0  0
 24 49  1  0  0  0  0
M  END
> <s_m_source_file>
AV-unprocessed.smi

> <i_m_source_file_index>
2339

> <i_lp_mmshare_version>
43012

> <i_f3d_flags>
0

> <s_epik_input>
W0NIM11bQ0gyXW4xW2NIXVtjSF1jKD1PKWMoW2NIXTEpW05IXUMoPU8pW05IXVtDQEBIXTJbQ0BASF0oW0NIMl1bQ0gyXU8zKVtDQEBIXTNDMjRbQ0gyXVtDSDJdW0NIMl1bQ0gyXTQ=

> <s_epik_cmdline>
J2VwaWtfcHl0aG9uJywgJy1waCcsICc3LjAnLCAnLXRuJywgJzgnLCAnLW1hJywgJzIwMCcsICctbWV0YWxfYmluZGluZycsICctaW1hZScsICc8aW5maWxlLm1hZT4nLCAnLW9tYWUnLCAnPG91dGZpbGUubWFlPic=

> <r_lp_tautomer_probability>
1

> <r_epik_Ionization_Penalty>
0.00145966

> <r_epik_Ionization_Penalty_Charging>
0.00143969

> <r_epik_Ionization_Penalty_Neutral>
1.99697e-05

> <r_epik_State_Penalty>
0.000961843

> <r_epik_Charging_Adjusted_Penalty>
0.00240153

> <i_epik_Tot_Q>
0

> <i_epik_Tot_abs_Q>
0

> <r_epik_Metal_State_Penalty>
-0

> <b_epik_Metal_Only>
0

> <s_lp_Force_Field>
OPLS_2005

> <r_lp_Energy>
78.6194

> <b_lp_Chiralities_Consistent>
1

> <s_lp_Variant>
AV-unprocessed.smi:2339-5

> <Gold.Version>
5.8.1

> <Gold.Id.Protein>
6NUR|6NUR_protein|mol2

> <Gold.PLP.Fitness>
44.1060

> <Gold.PLP.PLP>
-37.1848

> <Gold.PLP.part.hbond>
-3.0000

> <Gold.PLP.part.metal>
0.0000

> <Gold.PLP.part.buried>
-5.5969

> <Gold.PLP.part.nonpolar>
-28.5052

> <Gold.PLP.part.repulsive>
0.3031

> <Gold.PLP.ligand.clash>
0.0000

> <Gold.PLP.ligand.torsion>
0.1759

> <Gold.PLP.Chemscore.Hbond>
2.3280

> <Gold.PLP.Chemscore.CHOScore>
0.0000

> <Gold.PLP.Chemscore.Metal>
0.0000

> <Gold.Chemscore.Hbonds>
donor molecule, donor type, donor heavy atom, donor atom, acceptor molecule, acceptor atom, score
      P1  H  6931  6943       L1     7  0.69
      P1  H  6934  6947       L1     7  0.64
      P1  H  7989  7998       L1    17  1.00

> <Gold.PLP.Chemscore.Internal.Correction>
0.2891

> <Gold.Rescore>
     Score         DG    S(hbond)    S(metal)    S(lipo)     H(rot)  DE(clash)    DE(int)     intcor
     17.33     -19.03       2.17        0.00      79.24       1.17       0.42       1.28       ----

> <Gold.Chemscore.Fitness>
17.3260

> <Gold.Chemscore.DG>
-19.0255

> <Gold.Chemscore.ZeroCoef>
-5.4800

> <Gold.Chemscore.Hbond>
2.1742

> <Gold.Chemscore.Metal>
0.0000

> <Gold.Chemscore.Lipo>
79.2395

> <Gold.Chemscore.Internal_Hbond>
0.0000

> <Gold.Chemscore.DEClash>
0.4159

> <Gold.Chemscore.DEInternal>
1.2835

> <Gold.Chemscore.Rot>
1.1670

> <Gold.Chemscore.Internal.Correction>
   9.000000E+99

> <Gold.Chemscore.Hbonds>
donor molecule, donor type, donor heavy atom, donor atom, acceptor molecule, acceptor atom, score
      P1  H  6931  6943       L1     7  0.31
      P1  H  6934  6947       L1     7  0.64
      P1  H  7989  7998       L1    17  0.61

> <Gold.Chemscore.Hbond.Weighted>
-7.2619

> <Gold.Chemscore.Metal.Weighted>
-0.0000

> <Gold.Chemscore.Lipo.Weighted>
-9.2710

> <Gold.Chemscore.Internal_Hbond.Weighted>
0.0000

> <Gold.Chemscore.DEClash.Weighted>
0.4159

> <Gold.Chemscore.DEInternal.Weighted>
1.2835

> <Gold.Chemscore.Rot.Weighted>
2.9874

> <Gold.Chemscore.Internal.Correction.Weighted>
   9.000000E+99

> <Gold.Protein.RotatedTorsions>
[ 6907 6896 6895 6894 ] final  150.66 input  -60.11 | X-H torsion
[ 7974 7965 7964 7962 ] final  135.92 input  175.53 | X-H torsion
[ 8008 7997 7996 7995 ] final  177.36 input   59.86 | X-H torsion
[ 10167 10162 10161 10158 ] final  -11.64 input  -65.29 | X-H torsion
[ 10718 10713 10712 10709 ] final  142.73 input   66.30 | X-H torsion
[ 10763 10752 10751 10750 ] final  -73.27 input  -60.55 | X-H torsion
[ 11005 11000 10999 10996 ] final  145.36 input  -57.11 | X-H torsion

> <Gold.Protein.ActiveResidues>
 VAL166  LYS551  ARG553  GLY616  TRP617  ASP618  TYR619  PRO620  LYS621  CYS622 
 ASP623  PHE694  ASN695  SER759  ASP760  ASP761  ALA762  ILE779  LEU786  VAL792 
 PHE793  MET794  SER795  GLU796  ALA797  LYS798  CYS799  TRP800  GLU811  SER814 

> <Gold.Protein.RotatedAtoms>
  152.1114  133.4303  159.4632 H   0  0  0  0  0  0  0  0  0  0  0  0  # atno 6907 bound_to 6896
  150.6867  134.2644  159.4571 H   0  0  0  0  0  0  0  0  0  0  0  0  # atno 6908 bound_to 6896
  152.0513  134.9651  160.0625 H   0  0  0  0  0  0  0  0  0  0  0  0  # atno 6909 bound_to 6896
  144.9616  139.4704  143.5477 H   0  0  0  0  0  0  0  0  0  0  0  0  # atno 7974 bound_to 7965
  156.0665  140.1360  156.9880 H   0  0  0  0  0  0  0  0  0  0  0  0  # atno 8008 bound_to 7997
  154.4509  140.0980  156.6666 H   0  0  0  0  0  0  0  0  0  0  0  0  # atno 8009 bound_to 7997
  155.5296  140.3458  155.4425 H   0  0  0  0  0  0  0  0  0  0  0  0  # atno 8010 bound_to 7997
  140.7143  143.5618  150.9187 H   0  0  0  0  0  0  0  0  0  0  0  0  # atno 10167 bound_to 10162
  157.3771  131.0987  151.0773 H   0  0  0  0  0  0  0  0  0  0  0  0  # atno 10718 bound_to 10713
  154.4571  135.5903  153.6230 H   0  0  0  0  0  0  0  0  0  0  0  0  # atno 10763 bound_to 10752
  152.9819  135.6035  154.3532 H   0  0  0  0  0  0  0  0  0  0  0  0  # atno 10764 bound_to 10752
  154.3400  135.2842  155.2406 H   0  0  0  0  0  0  0  0  0  0  0  0  # atno 10765 bound_to 10752
  140.0706  134.9154  157.1339 H   0  0  0  0  0  0  0  0  0  0  0  0  # atno 11005 bound_to 11000
  146.3355  139.8769  142.8830 LP  0  0  0  0  0  0  0  0  0  0  0  0  # atno 17320 bound_to 7965
  145.2691  141.0103  143.3782 LP  0  0  0  0  0  0  0  0  0  0  0  0  # atno 17321 bound_to 7965
  139.9343  143.6456  152.3069 LP  0  0  0  0  0  0  0  0  0  0  0  0  # atno 17342 bound_to 10162
  139.6918  144.7646  151.1425 LP  0  0  0  0  0  0  0  0  0  0  0  0  # atno 17343 bound_to 10162
  157.1856  130.6329  149.5686 LP  0  0  0  0  0  0  0  0  0  0  0  0  # atno 17370 bound_to 10713
  155.9768  130.4739  150.6549 LP  0  0  0  0  0  0  0  0  0  0  0  0  # atno 17371 bound_to 10713
  140.3633  134.2471  155.7185 LP  0  0  0  0  0  0  0  0  0  0  0  0  # atno 17394 bound_to 11000
  141.2010  133.7973  157.0461 LP  0  0  0  0  0  0  0  0  0  0  0  0  # atno 17395 bound_to 11000

$$$$
