AV-unprocessed.smi:1116|AV-procd|sdf|4807|dock6
  -GOLD-   22720 3353D 1   1.00000     0.00000
 Structure written by MMmdl.
 36 37  0  0  0  0  0  0  0  0  1 V2000
  151.8703  145.0548  158.7539 C   0  0  0  0  0  0  0  0  0  0  0  0
  152.2774  143.8089  159.4632 C   0  0  0  0  0  0  0  0  0  0  0  0
  152.5169  142.6494  158.8448 N   0  0  0  0  0  0  0  0  0  0  0  0
  152.8766  141.6299  159.7321 C   0  0  0  0  0  0  0  0  0  0  0  0
  153.1718  140.2547  159.2151 C   0  0  0  0  0  0  0  0  0  0  0  0
  151.9063  139.5435  158.7067 C   0  0  0  0  0  0  0  0  0  0  0  0
  151.2060  140.3314  157.6987 N   0  0  0  0  0  0  0  0  0  0  0  0
  150.7551  139.8626  156.5251 C   0  0  0  0  0  0  0  0  0  0  0  0
  150.8857  138.6912  156.1706 O   0  0  0  0  0  0  0  0  0  0  0  0
  150.0573  140.8735  155.6113 C   0  0  0  0  0  0  0  0  0  0  0  0
  149.7411  140.2928  154.2198 C   0  0  0  0  0  0  0  0  0  0  0  0
  148.4006  139.5334  154.1712 C   0  0  2  0  0  0  0  0  0  0  0  0
  148.2537  138.7246  152.9728 N   0  0  0  0  0  0  0  0  0  0  0  0
  147.1917  139.0828  152.2389 C   0  0  0  0  0  0  0  0  0  0  0  0
  146.8361  138.5646  151.1833 O   0  0  0  0  0  0  0  0  0  0  0  0
  146.5883  140.1035  152.8572 N   0  0  0  0  0  0  0  0  0  0  0  0
  147.2084  140.4549  153.9825 C   0  0  0  0  0  0  0  0  0  0  0  0
  146.8928  141.3629  154.7491 O   0  0  0  0  0  0  0  0  0  0  0  0
  152.9134  142.0409  161.0414 C   0  0  0  0  0  0  0  0  0  0  0  0
  152.4905  143.7228  161.2072 S   0  0  0  0  0  0  0  0  0  0  0  0
  151.6782  144.8525  157.6997 H   0  0  0  0  0  0  0  0  0  0  0  0
  152.6615  145.8009  158.8291 H   0  0  0  0  0  0  0  0  0  0  0  0
  150.9628  145.4592  159.2027 H   0  0  0  0  0  0  0  0  0  0  0  0
  153.9104  140.3134  158.4148 H   0  0  0  0  0  0  0  0  0  0  0  0
  153.6320  139.6555  160.0017 H   0  0  0  0  0  0  0  0  0  0  0  0
  152.1765  138.5889  158.2543 H   0  0  0  0  0  0  0  0  0  0  0  0
  151.2340  139.3152  159.5356 H   0  0  0  0  0  0  0  0  0  0  0  0
  151.0587  141.3084  157.9067 H   0  0  0  0  0  0  0  0  0  0  0  0
  149.1395  141.2202  156.0885 H   0  0  0  0  0  0  0  0  0  0  0  0
  150.7042  141.7455  155.5106 H   0  0  0  0  0  0  0  0  0  0  0  0
  149.7115  141.1012  153.4873 H   0  0  0  0  0  0  0  0  0  0  0  0
  150.5526  139.6319  153.9090 H   0  0  0  0  0  0  0  0  0  0  0  0
  148.2593  138.9157  155.0589 H   0  0  0  0  0  0  0  0  0  0  0  0
  148.8845  137.9725  152.7363 H   0  0  0  0  0  0  0  0  0  0  0  0
  145.7608  140.5623  152.5051 H   0  0  0  0  0  0  0  0  0  0  0  0
  153.1607  141.4578  161.9160 H   0  0  0  0  0  0  0  0  0  0  0  0
  1  2  1  0  0  0  0
  1 21  1  0  0  0  0
  1 22  1  0  0  0  0
  1 23  1  0  0  0  0
  2 20  1  0  0  0  0
  2  3  2  0  0  0  0
  3  4  1  0  0  0  0
  4  5  1  0  0  0  0
  4 19  2  0  0  0  0
  5  6  1  0  0  0  0
  5 24  1  0  0  0  0
  5 25  1  0  0  0  0
  6  7  1  0  0  0  0
  6 26  1  0  0  0  0
  6 27  1  0  0  0  0
  7  8  1  0  0  0  0
  7 28  1  0  0  0  0
  8  9  2  0  0  0  0
  8 10  1  0  0  0  0
 10 11  1  0  0  0  0
 10 29  1  0  0  0  0
 10 30  1  0  0  0  0
 11 12  1  0  0  0  0
 11 31  1  0  0  0  0
 11 32  1  0  0  0  0
 12 17  1  0  0  0  0
 12 13  1  0  0  0  0
 12 33  1  0  0  0  0
 13 14  1  0  0  0  0
 13 34  1  0  0  0  0
 14 15  2  0  0  0  0
 14 16  1  0  0  0  0
 16 17  1  0  0  0  0
 16 35  1  0  0  0  0
 17 18  2  0  0  0  0
 19 20  1  0  0  0  0
 19 36  1  0  0  0  0
M  END
> <s_m_source_file>
AV-unprocessed.smi

> <i_m_source_file_index>
1116

> <i_lp_mmshare_version>
43012

> <i_f3d_flags>
0

> <s_epik_input>
W0NIM11jMW5jKFtjSF1zMSlbQ0gyXVtDSDJdW05IXUMoPU8pW0NIMl1bQ0gyXVtDQEBIXTJbTkhdQyg9TylbTkhdQzI9Tw==

> <s_epik_cmdline>
J2VwaWtfcHl0aG9uJywgJy1waCcsICc3LjAnLCAnLXRuJywgJzgnLCAnLW1hJywgJzIwMCcsICctbWV0YWxfYmluZGluZycsICctaW1hZScsICc8aW5maWxlLm1hZT4nLCAnLW9tYWUnLCAnPG91dGZpbGUubWFlPic=

> <r_lp_tautomer_probability>
1

> <r_epik_Ionization_Penalty>
0.00889251

> <r_epik_Ionization_Penalty_Charging>
0

> <r_epik_Ionization_Penalty_Neutral>
0.00889251

> <r_epik_State_Penalty>
0.00583796

> <r_epik_Charging_Adjusted_Penalty>
0.00583796

> <i_epik_Tot_Q>
0

> <i_epik_Tot_abs_Q>
0

> <r_epik_Metal_State_Penalty>
0.408839

> <b_epik_Metal_Only>
0

> <s_lp_Force_Field>
OPLS_2005

> <r_lp_Energy>
12.4074

> <b_lp_Chiralities_Consistent>
1

> <s_lp_Variant>
AV-unprocessed.smi:1116-1

> <Gold.Version>
5.8.1

> <Gold.Id.Protein>
6NUR|6NUR_protein|mol2

> <Gold.PLP.Fitness>
46.7335

> <Gold.PLP.PLP>
-39.2677

> <Gold.PLP.part.hbond>
-4.0000

> <Gold.PLP.part.metal>
0.0000

> <Gold.PLP.part.buried>
-2.5722

> <Gold.PLP.part.nonpolar>
-33.8578

> <Gold.PLP.part.repulsive>
0.6946

> <Gold.PLP.ligand.clash>
0.0000

> <Gold.PLP.ligand.torsion>
0.5385

> <Gold.PLP.Chemscore.Hbond>
2.8240

> <Gold.PLP.Chemscore.CHOScore>
0.0000

> <Gold.PLP.Chemscore.Metal>
0.0000

> <Gold.Chemscore.Hbonds>
donor molecule, donor type, donor heavy atom, donor atom, acceptor molecule, acceptor atom, score
      L1  H    13    34       P1  7948  0.86
      L1  H    16    35       P1 10175  0.82
      P1  H  7954  7966       L1    15  1.00

> <Gold.PLP.Chemscore.Internal.Correction>
0.0708

> <Gold.Rescore>
     Score         DG    S(hbond)    S(metal)    S(lipo)     H(rot)  DE(clash)    DE(int)     intcor
     16.08     -16.76       2.42        0.00      89.42       2.83       0.17       0.52       ----

> <Gold.Chemscore.Fitness>
16.0761

> <Gold.Chemscore.DG>
-16.7631

> <Gold.Chemscore.ZeroCoef>
-5.4800

> <Gold.Chemscore.Hbond>
2.4169

> <Gold.Chemscore.Metal>
0.0000

> <Gold.Chemscore.Lipo>
89.4159

> <Gold.Chemscore.Internal_Hbond>
0.0000

> <Gold.Chemscore.DEClash>
0.1713

> <Gold.Chemscore.DEInternal>
0.5157

> <Gold.Chemscore.Rot>
2.8324

> <Gold.Chemscore.Internal.Correction>
   9.000000E+99

> <Gold.Chemscore.Hbonds>
donor molecule, donor type, donor heavy atom, donor atom, acceptor molecule, acceptor atom, score
      L1  H    13    34       P1  7948  0.85
      L1  H    16    35       P1 10175  0.34
      P1  H  7954  7966       L1    15  0.93

> <Gold.Chemscore.Hbond.Weighted>
-8.0724

> <Gold.Chemscore.Metal.Weighted>
-0.0000

> <Gold.Chemscore.Lipo.Weighted>
-10.4617

> <Gold.Chemscore.Internal_Hbond.Weighted>
0.0000

> <Gold.Chemscore.DEClash.Weighted>
0.1713

> <Gold.Chemscore.DEInternal.Weighted>
0.5157

> <Gold.Chemscore.Rot.Weighted>
7.2510

> <Gold.Chemscore.Internal.Correction.Weighted>
   9.000000E+99

> <Gold.Protein.RotatedTorsions>
[ 6907 6896 6895 6894 ] final -137.51 input  -60.11 | X-H torsion
[ 7974 7965 7964 7962 ] final -143.62 input  175.53 | X-H torsion
[ 8008 7997 7996 7995 ] final -165.34 input   59.86 | X-H torsion
[ 10167 10162 10161 10158 ] final   30.01 input  -65.29 | X-H torsion
[ 10718 10713 10712 10709 ] final   21.01 input   66.30 | X-H torsion
[ 10763 10752 10751 10750 ] final  134.65 input  -60.55 | X-H torsion
[ 11005 11000 10999 10996 ] final  162.81 input  -57.11 | X-H torsion

> <Gold.Protein.ActiveResidues>
 VAL166  LYS551  ARG553  GLY616  TRP617  ASP618  TYR619  PRO620  LYS621  CYS622 
 ASP623  PHE694  ASN695  SER759  ASP760  ASP761  ALA762  ILE779  LEU786  VAL792 
 PHE793  MET794  SER795  GLU796  ALA797  LYS798  CYS799  TRP800  GLU811  SER814 

> <Gold.Protein.RotatedAtoms>
  151.0234  133.5856  159.2668 H   0  0  0  0  0  0  0  0  0  0  0  0  # atno 6907 bound_to 6896
  151.2964  135.0755  159.9232 H   0  0  0  0  0  0  0  0  0  0  0  0  # atno 6908 bound_to 6896
  152.5328  133.9923  159.7910 H   0  0  0  0  0  0  0  0  0  0  0  0  # atno 6909 bound_to 6896
  144.8356  140.5812  143.5486 H   0  0  0  0  0  0  0  0  0  0  0  0  # atno 7974 bound_to 7965
  155.8484  140.0959  157.1690 H   0  0  0  0  0  0  0  0  0  0  0  0  # atno 8008 bound_to 7997
  154.3984  140.1388  156.3876 H   0  0  0  0  0  0  0  0  0  0  0  0  # atno 8009 bound_to 7997
  155.7988  140.3453  155.5393 H   0  0  0  0  0  0  0  0  0  0  0  0  # atno 8010 bound_to 7997
  140.4716  144.0754  150.6239 H   0  0  0  0  0  0  0  0  0  0  0  0  # atno 10167 bound_to 10162
  157.1324  130.6597  149.5956 H   0  0  0  0  0  0  0  0  0  0  0  0  # atno 10718 bound_to 10713
  153.8271  135.3108  155.3415 H   0  0  0  0  0  0  0  0  0  0  0  0  # atno 10763 bound_to 10752
  154.7989  135.4739  154.0230 H   0  0  0  0  0  0  0  0  0  0  0  0  # atno 10764 bound_to 10752
  153.1657  135.6869  153.8769 H   0  0  0  0  0  0  0  0  0  0  0  0  # atno 10765 bound_to 10752
  140.2295  134.8135  157.3302 H   0  0  0  0  0  0  0  0  0  0  0  0  # atno 11005 bound_to 11000
  145.4802  139.1496  143.3766 LP  0  0  0  0  0  0  0  0  0  0  0  0  # atno 17320 bound_to 7965
  146.2655  140.4937  142.8836 LP  0  0  0  0  0  0  0  0  0  0  0  0  # atno 17321 bound_to 7965
  140.3970  143.2723  151.9993 LP  0  0  0  0  0  0  0  0  0  0  0  0  # atno 17342 bound_to 10162
  139.4819  144.6029  151.7573 LP  0  0  0  0  0  0  0  0  0  0  0  0  # atno 17343 bound_to 10162
  155.9805  130.4806  150.6776 LP  0  0  0  0  0  0  0  0  0  0  0  0  # atno 17370 bound_to 10713
  157.4380  131.0857  151.0972 LP  0  0  0  0  0  0  0  0  0  0  0  0  # atno 17371 bound_to 10713
  140.1765  134.4543  155.7798 LP  0  0  0  0  0  0  0  0  0  0  0  0  # atno 17394 bound_to 11000
  141.2218  133.6965  156.7797 LP  0  0  0  0  0  0  0  0  0  0  0  0  # atno 17395 bound_to 11000

$$$$
