AV-unprocessed.smi:2820|AV-procd|sdf|10855|dock6
  -GOLD-   2272015303D 1   1.00000     0.00000
 Structure written by MMmdl.
 30 31  0  0  0  0  0  0  0  0  2 V2000
  147.6169  139.0082  153.4820 C   0  0  0  0  0  0  0  0  0  0  0  0
  148.9866  139.4908  153.4175 N   0  0  0  0  0  0  0  0  0  0  0  0
  149.5437  140.2101  154.4834 C   0  0  0  0  0  0  0  0  0  0  0  0
  150.5605  139.6077  155.2557 C   0  0  0  0  0  0  0  0  0  0  0  0
  151.1337  140.3146  156.3327 C   0  0  0  0  0  0  0  0  0  0  0  0
  150.6793  141.6213  156.6233 C   0  0  0  0  0  0  0  0  0  0  0  0
  151.1851  142.4008  157.6718 N   0  0  0  0  0  0  0  0  0  0  0  0
  152.1587  141.6929  158.4933 C   0  0  0  0  0  0  0  0  0  0  0  0
  152.5859  142.5736  159.6803 C   0  0  0  0  0  0  0  0  0  0  0  0
  153.0848  143.8165  159.1947 O   0  0  0  0  0  0  0  0  0  0  0  0
  152.1012  144.5377  158.4588 C   0  0  0  0  0  0  0  0  0  0  0  0
  151.6624  143.7084  157.2395 C   0  0  0  0  0  0  0  0  0  0  0  0
  149.7045  142.1641  155.8619 N   0  3  0  0  0  0  0  0  0  0  0  0
  149.1302  141.5204  154.8223 C   0  0  0  0  0  0  0  0  0  0  0  0
  147.3674  138.4765  152.5637 H   0  0  0  0  0  0  0  0  0  0  0  0
  146.9177  139.8374  153.5942 H   0  0  0  0  0  0  0  0  0  0  0  0
  147.4864  138.3203  154.3180 H   0  0  0  0  0  0  0  0  0  0  0  0
  149.5331  139.3012  152.5893 H   0  0  0  0  0  0  0  0  0  0  0  0
  150.9019  138.6084  155.0272 H   0  0  0  0  0  0  0  0  0  0  0  0
  151.9111  139.8544  156.9250 H   0  0  0  0  0  0  0  0  0  0  0  0
  151.7273  140.7592  158.8568 H   0  0  0  0  0  0  0  0  0  0  0  0
  153.0319  141.4341  157.8927 H   0  0  0  0  0  0  0  0  0  0  0  0
  151.7491  142.7455  160.3592 H   0  0  0  0  0  0  0  0  0  0  0  0
  153.3669  142.0770  160.2561 H   0  0  0  0  0  0  0  0  0  0  0  0
  151.2491  144.7697  159.0999 H   0  0  0  0  0  0  0  0  0  0  0  0
  152.5250  145.4884  158.1352 H   0  0  0  0  0  0  0  0  0  0  0  0
  152.5021  143.5889  156.5536 H   0  0  0  0  0  0  0  0  0  0  0  0
  150.8725  144.2299  156.6972 H   0  0  0  0  0  0  0  0  0  0  0  0
  148.3640  142.0778  154.3038 H   0  0  0  0  0  0  0  0  0  0  0  0
  149.3856  143.1079  156.0825 H   0  0  0  0  0  0  0  0  0  0  0  0
  1  2  1  0  0  0  0
  1 15  1  0  0  0  0
  1 16  1  0  0  0  0
  1 17  1  0  0  0  0
  2  3  1  0  0  0  0
  2 18  1  0  0  0  0
  3 14  1  0  0  0  0
  3  4  2  0  0  0  0
  4  5  1  0  0  0  0
  4 19  1  0  0  0  0
  5  6  2  0  0  0  0
  5 20  1  0  0  0  0
  6  7  1  0  0  0  0
  6 13  1  0  0  0  0
  7 12  1  0  0  0  0
  7  8  1  0  0  0  0
  8  9  1  0  0  0  0
  8 21  1  0  0  0  0
  8 22  1  0  0  0  0
  9 10  1  0  0  0  0
  9 23  1  0  0  0  0
  9 24  1  0  0  0  0
 10 11  1  0  0  0  0
 11 12  1  0  0  0  0
 11 25  1  0  0  0  0
 11 26  1  0  0  0  0
 12 27  1  0  0  0  0
 12 28  1  0  0  0  0
 13 14  2  0  0  0  0
 13 30  1  0  0  0  0
 14 29  1  0  0  0  0
M  CHG  1  13   1
M  END
> <s_m_source_file>
AV-unprocessed.smi

> <i_m_source_file_index>
2820

> <i_lp_mmshare_version>
43012

> <i_f3d_flags>
0

> <s_epik_input>
W0NIM11bTkhdYzFbY0hdW2NIXWMobltjSF0xKU4yW0NIMl1bQ0gyXU9bQ0gyXVtDSDJdMg==

> <s_epik_cmdline>
J2VwaWtfcHl0aG9uJywgJy1waCcsICc3LjAnLCAnLXRuJywgJzgnLCAnLW1hJywgJzIwMCcsICctbWV0YWxfYmluZGluZycsICctaW1hZScsICc8aW5maWxlLm1hZT4nLCAnLW9tYWUnLCAnPG91dGZpbGUubWFlPic=

> <r_lp_tautomer_probability>
0.999846

> <r_epik_Ionization_Penalty>
1.60145

> <r_epik_Ionization_Penalty_Charging>
1.60145

> <r_epik_Ionization_Penalty_Neutral>
8.44735e-08

> <r_epik_State_Penalty>
1.69965

> <r_epik_Charging_Adjusted_Penalty>
3.3011

> <i_epik_Tot_Q>
1

> <i_epik_Tot_abs_Q>
1

> <r_epik_Metal_State_Penalty>
5.75781

> <b_epik_Metal_Only>
0

> <s_lp_Force_Field>
OPLS_2005

> <r_lp_Energy>
26.3697

> <b_lp_Chiralities_Consistent>
1

> <s_lp_Variant>
AV-unprocessed.smi:2820-2

> <Gold.Version>
5.8.1

> <Gold.Id.Protein>
6NUR|6NUR_protein|mol2

> <Gold.PLP.Fitness>
38.5833

> <Gold.PLP.PLP>
-31.6883

> <Gold.PLP.part.hbond>
-1.4806

> <Gold.PLP.part.metal>
0.0000

> <Gold.PLP.part.buried>
-4.0412

> <Gold.PLP.part.nonpolar>
-27.0280

> <Gold.PLP.part.repulsive>
0.3247

> <Gold.PLP.ligand.clash>
0.0000

> <Gold.PLP.ligand.torsion>
0.7038

> <Gold.PLP.Chemscore.Hbond>
2.7360

> <Gold.PLP.Chemscore.CHOScore>
0.0000

> <Gold.PLP.Chemscore.Metal>
0.0000

> <Gold.Chemscore.Hbonds>
donor molecule, donor type, donor heavy atom, donor atom, acceptor molecule, acceptor atom, score
      L1  H     2    18       P1  7957  0.66
      L1  H    13    30       P1  8028  2.00

> <Gold.PLP.Chemscore.Internal.Correction>
0.0946

> <Gold.Rescore>
     Score         DG    S(hbond)    S(metal)    S(lipo)     H(rot)  DE(clash)    DE(int)     intcor
     17.45     -18.22       1.75        0.00      80.93       1.00       0.10       0.67       ----

> <Gold.Chemscore.Fitness>
17.4466

> <Gold.Chemscore.DG>
-18.2196

> <Gold.Chemscore.ZeroCoef>
-5.4800

> <Gold.Chemscore.Hbond>
1.7458

> <Gold.Chemscore.Metal>
0.0000

> <Gold.Chemscore.Lipo>
80.9286

> <Gold.Chemscore.Internal_Hbond>
0.0000

> <Gold.Chemscore.DEClash>
0.1002

> <Gold.Chemscore.DEInternal>
0.6728

> <Gold.Chemscore.Rot>
1.0000

> <Gold.Chemscore.Internal.Correction>
   9.000000E+99

> <Gold.Chemscore.Hbonds>
donor molecule, donor type, donor heavy atom, donor atom, acceptor molecule, acceptor atom, score
      L1  H     2    18       P1  7957  0.65
      L1  H    13    30       P1  8028  0.97

> <Gold.Chemscore.Hbond.Weighted>
-5.8310

> <Gold.Chemscore.Metal.Weighted>
-0.0000

> <Gold.Chemscore.Lipo.Weighted>
-9.4686

> <Gold.Chemscore.Internal_Hbond.Weighted>
0.0000

> <Gold.Chemscore.DEClash.Weighted>
0.1002

> <Gold.Chemscore.DEInternal.Weighted>
0.6728

> <Gold.Chemscore.Rot.Weighted>
2.5600

> <Gold.Chemscore.Internal.Correction.Weighted>
   9.000000E+99

> <Gold.Protein.RotatedTorsions>
[ 6907 6896 6895 6894 ] final -122.72 input  -60.11 | X-H torsion
[ 7974 7965 7964 7962 ] final -109.40 input  175.53 | X-H torsion
[ 8008 7997 7996 7995 ] final   52.51 input   59.86 | X-H torsion
[ 10167 10162 10161 10158 ] final  153.14 input  -65.29 | X-H torsion
[ 10718 10713 10712 10709 ] final   96.33 input   66.30 | X-H torsion
[ 10763 10752 10751 10750 ] final  -43.96 input  -60.55 | X-H torsion
[ 11005 11000 10999 10996 ] final -153.50 input  -57.11 | X-H torsion

> <Gold.Protein.ActiveResidues>
 VAL166  LYS551  ARG553  GLY616  TRP617  ASP618  TYR619  PRO620  LYS621  CYS622 
 ASP623  PHE694  ASN695  SER759  ASP760  ASP761  ALA762  ILE779  LEU786  VAL792 
 PHE793  MET794  SER795  GLU796  ALA797  LYS798  CYS799  TRP800  GLU811  SER814 

> <Gold.Protein.RotatedAtoms>
  150.8602  133.7654  159.2994 H   0  0  0  0  0  0  0  0  0  0  0  0  # atno 6907 bound_to 6896
  151.5299  135.1066  159.9909 H   0  0  0  0  0  0  0  0  0  0  0  0  # atno 6908 bound_to 6896
  152.4621  133.7799  159.6901 H   0  0  0  0  0  0  0  0  0  0  0  0  # atno 6909 bound_to 6896
  145.1810  140.8971  143.3480 H   0  0  0  0  0  0  0  0  0  0  0  0  # atno 7974 bound_to 7965
  155.4529  140.3459  155.4303 H   0  0  0  0  0  0  0  0  0  0  0  0  # atno 8008 bound_to 7997
  156.1209  140.1487  156.9236 H   0  0  0  0  0  0  0  0  0  0  0  0  # atno 8009 bound_to 7997
  154.4822  140.0866  156.7384 H   0  0  0  0  0  0  0  0  0  0  0  0  # atno 8010 bound_to 7997
  139.4829  144.5298  151.7741 H   0  0  0  0  0  0  0  0  0  0  0  0  # atno 10167 bound_to 10162
  157.6928  131.0574  150.4476 H   0  0  0  0  0  0  0  0  0  0  0  0  # atno 10718 bound_to 10713
  154.0042  135.6689  153.4761 H   0  0  0  0  0  0  0  0  0  0  0  0  # atno 10763 bound_to 10752
  153.0649  135.5007  154.8173 H   0  0  0  0  0  0  0  0  0  0  0  0  # atno 10764 bound_to 10752
  154.7034  135.3083  154.9270 H   0  0  0  0  0  0  0  0  0  0  0  0  # atno 10765 bound_to 10752
  140.7074  134.3870  157.5202 H   0  0  0  0  0  0  0  0  0  0  0  0  # atno 11005 bound_to 11000
  145.0137  139.3487  143.6107 LP  0  0  0  0  0  0  0  0  0  0  0  0  # atno 17320 bound_to 7965
  146.3453  139.9409  142.8741 LP  0  0  0  0  0  0  0  0  0  0  0  0  # atno 17321 bound_to 7965
  140.4823  144.1432  150.5935 LP  0  0  0  0  0  0  0  0  0  0  0  0  # atno 17342 bound_to 10162
  140.4264  143.2588  151.9651 LP  0  0  0  0  0  0  0  0  0  0  0  0  # atno 17343 bound_to 10162
  156.4829  130.4078  149.6451 LP  0  0  0  0  0  0  0  0  0  0  0  0  # atno 17370 bound_to 10713
  156.3490  130.7422  151.2378 LP  0  0  0  0  0  0  0  0  0  0  0  0  # atno 17371 bound_to 10713
  139.8880  134.8866  156.2495 LP  0  0  0  0  0  0  0  0  0  0  0  0  # atno 17394 bound_to 11000
  141.0113  133.7094  156.1116 LP  0  0  0  0  0  0  0  0  0  0  0  0  # atno 17395 bound_to 11000

$$$$
