AV-unprocessed.smi:632|AV-procd|sdf|3126|dock2
  -GOLD-   22720 0 43D 1   1.00000     0.00000
 Structure written by MMmdl.
 42 43  0  0  0  0  0  0  0  0  1 V2000
  151.5813  136.8477  158.8213 C   0  0  0  0  0  0  0  0  0  0  0  0
  150.0557  136.7139  158.6476 C   0  0  0  0  0  0  0  0  0  0  0  0
  149.5002  136.0386  159.9207 C   0  0  0  0  0  0  0  0  0  0  0  0
  149.3986  138.1034  158.5365 C   0  0  0  0  0  0  0  0  0  0  0  0
  149.7490  135.9011  157.4108 C   0  0  0  0  0  0  0  0  0  0  0  0
  150.1517  134.6276  157.2824 N   0  0  0  0  0  0  0  0  0  0  0  0
  149.7680  134.0601  156.0766 N   0  0  0  0  0  0  0  0  0  0  0  0
  149.0816  134.9206  155.3146 C   0  0  0  0  0  0  0  0  0  0  0  0
  148.5665  134.6004  154.0303 N   0  0  0  0  0  0  0  0  0  0  0  0
  147.5180  133.8148  153.7265 C   0  0  0  0  0  0  0  0  0  0  0  0
  146.8202  133.2123  154.5427 O   0  0  0  0  0  0  0  0  0  0  0  0
  147.3192  133.7597  152.4012 N   0  0  0  0  0  0  0  0  0  0  0  0
  146.2659  132.9941  151.7406 C   0  0  2  0  0  0  0  0  0  0  0  0
  146.4573  133.0124  150.2093 C   0  0  0  0  0  0  0  0  0  0  0  0
  145.3175  132.2705  149.4922 C   0  0  0  0  0  0  0  0  0  0  0  0
  143.9462  132.8464  149.8849 C   0  0  1  0  0  0  0  0  0  0  0  0
  142.9244  132.0940  149.2657 O   0  0  0  0  0  0  0  0  0  0  0  0
  143.7520  132.8189  151.4107 C   0  0  0  0  0  0  0  0  0  0  0  0
  144.8889  133.5663  152.1261 C   0  0  0  0  0  0  0  0  0  0  0  0
  148.8452  136.5093  156.0179 S   0  0  0  0  0  0  0  0  0  0  0  0
  151.8318  137.4193  159.7155 H   0  0  0  0  0  0  0  0  0  0  0  0
  152.0374  137.3595  157.9730 H   0  0  0  0  0  0  0  0  0  0  0  0
  152.0582  135.8708  158.9101 H   0  0  0  0  0  0  0  0  0  0  0  0
  149.9339  135.0499  160.0750 H   0  0  0  0  0  0  0  0  0  0  0  0
  148.4164  135.9247  159.8761 H   0  0  0  0  0  0  0  0  0  0  0  0
  149.7234  136.6281  160.8107 H   0  0  0  0  0  0  0  0  0  0  0  0
  149.5906  138.7066  159.4247 H   0  0  0  0  0  0  0  0  0  0  0  0
  148.3172  138.0226  158.4202 H   0  0  0  0  0  0  0  0  0  0  0  0
  149.7801  138.6595  157.6795 H   0  0  0  0  0  0  0  0  0  0  0  0
  149.0523  135.0207  153.2521 H   0  0  0  0  0  0  0  0  0  0  0  0
  147.9390  134.2873  151.8043 H   0  0  0  0  0  0  0  0  0  0  0  0
  146.3082  131.9598  152.0878 H   0  0  0  0  0  0  0  0  0  0  0  0
  146.4979  134.0431  149.8539 H   0  0  0  0  0  0  0  0  0  0  0  0
  147.4116  132.5568  149.9424 H   0  0  0  0  0  0  0  0  0  0  0  0
  145.4568  132.3356  148.4126 H   0  0  0  0  0  0  0  0  0  0  0  0
  145.3613  131.2104  149.7469 H   0  0  0  0  0  0  0  0  0  0  0  0
  143.8706  133.8741  149.5277 H   0  0  0  0  0  0  0  0  0  0  0  0
  142.1121  132.5709  149.3409 H   0  0  0  0  0  0  0  0  0  0  0  0
  142.7934  133.2664  151.6759 H   0  0  0  0  0  0  0  0  0  0  0  0
  143.7207  131.7866  151.7630 H   0  0  0  0  0  0  0  0  0  0  0  0
  144.7459  133.5031  153.2056 H   0  0  0  0  0  0  0  0  0  0  0  0
  144.8420  134.6256  151.8691 H   0  0  0  0  0  0  0  0  0  0  0  0
  1  2  1  0  0  0  0
  1 21  1  0  0  0  0
  1 22  1  0  0  0  0
  1 23  1  0  0  0  0
  2  3  1  0  0  0  0
  2  4  1  0  0  0  0
  2  5  1  0  0  0  0
  3 24  1  0  0  0  0
  3 25  1  0  0  0  0
  3 26  1  0  0  0  0
  4 27  1  0  0  0  0
  4 28  1  0  0  0  0
  4 29  1  0  0  0  0
  5 20  1  0  0  0  0
  5  6  2  0  0  0  0
  6  7  1  0  0  0  0
  7  8  2  0  0  0  0
  8  9  1  0  0  0  0
  8 20  1  0  0  0  0
  9 10  1  0  0  0  0
  9 30  1  0  0  0  0
 10 11  2  0  0  0  0
 10 12  1  0  0  0  0
 12 13  1  0  0  0  0
 12 31  1  0  0  0  0
 13 19  1  0  0  0  0
 13 14  1  0  0  0  0
 13 32  1  0  0  0  0
 14 15  1  0  0  0  0
 14 33  1  0  0  0  0
 14 34  1  0  0  0  0
 15 16  1  0  0  0  0
 15 35  1  0  0  0  0
 15 36  1  0  0  0  0
 16 17  1  0  0  0  0
 16 18  1  0  0  0  0
 16 37  1  0  0  0  0
 17 38  1  0  0  0  0
 18 19  1  0  0  0  0
 18 39  1  0  0  0  0
 18 40  1  0  0  0  0
 19 41  1  0  0  0  0
 19 42  1  0  0  0  0
M  END
> <s_m_source_file>
AV-unprocessed.smi

> <i_m_source_file_index>
632

> <i_lp_mmshare_version>
43012

> <i_f3d_flags>
0

> <s_epik_input>
W0NIM11DKFtDSDNdKShbQ0gzXSljMW5uYyhzMSlbTkhdQyg9TylbTkhdW0NAQEhdMltDSDJdW0NIMl1bQ0BASF0oW09IXSlbQ0gyXVtDSDJdMg==

> <s_epik_cmdline>
J2VwaWtfcHl0aG9uJywgJy1waCcsICc3LjAnLCAnLXRuJywgJzgnLCAnLW1hJywgJzIwMCcsICctbWV0YWxfYmluZGluZycsICctaW1hZScsICc8aW5maWxlLm1hZT4nLCAnLW9tYWUnLCAnPG91dGZpbGUubWFlPic=

> <r_lp_tautomer_probability>
1

> <r_epik_Ionization_Penalty>
0.000349475

> <r_epik_Ionization_Penalty_Charging>
0

> <r_epik_Ionization_Penalty_Neutral>
0.000349475

> <r_epik_State_Penalty>
-0

> <r_epik_Charging_Adjusted_Penalty>
0

> <i_epik_Tot_Q>
0

> <i_epik_Tot_abs_Q>
0

> <r_epik_Metal_State_Penalty>
0.179207

> <b_epik_Metal_Only>
0

> <s_lp_Force_Field>
OPLS_2005

> <r_lp_Energy>
2.50478

> <b_lp_Chiralities_Consistent>
1

> <s_lp_Variant>
AV-unprocessed.smi:632-1

> <Gold.Version>
5.8.1

> <Gold.Id.Protein>
6NUR|6NUR_protein|mol2

> <Gold.PLP.Fitness>
39.7314

> <Gold.PLP.PLP>
-31.0321

> <Gold.PLP.part.hbond>
-5.6348

> <Gold.PLP.part.metal>
0.0000

> <Gold.PLP.part.buried>
-5.5279

> <Gold.PLP.part.nonpolar>
-21.4397

> <Gold.PLP.part.repulsive>
0.0819

> <Gold.PLP.ligand.clash>
0.0000

> <Gold.PLP.ligand.torsion>
0.7455

> <Gold.PLP.Chemscore.Hbond>
3.3938

> <Gold.PLP.Chemscore.CHOScore>
0.0000

> <Gold.PLP.Chemscore.Metal>
0.0000

> <Gold.Chemscore.Hbonds>
donor molecule, donor type, donor heavy atom, donor atom, acceptor molecule, acceptor atom, score
      L1  H     9    30       P1  7948  0.86
      L1  H    12    31       P1  7948  0.37
      L1  H    17    38       P1 10186  0.70
      P1  H  6896  6907       L1     6  0.42
      P1  H 10785 10796       L1    17  0.98

> <Gold.PLP.Chemscore.Internal.Correction>
0.0089

> <Gold.Rescore>
     Score         DG    S(hbond)    S(metal)    S(lipo)     H(rot)  DE(clash)    DE(int)     intcor
     19.43     -20.48       3.47        0.00      66.14       1.70       0.20       0.86       ----

> <Gold.Chemscore.Fitness>
19.4257

> <Gold.Chemscore.DG>
-20.4783

> <Gold.Chemscore.ZeroCoef>
-5.4800

> <Gold.Chemscore.Hbond>
3.4743

> <Gold.Chemscore.Metal>
0.0000

> <Gold.Chemscore.Lipo>
66.1376

> <Gold.Chemscore.Internal_Hbond>
0.0000

> <Gold.Chemscore.DEClash>
0.1950

> <Gold.Chemscore.DEInternal>
0.8575

> <Gold.Chemscore.Rot>
1.6968

> <Gold.Chemscore.Internal.Correction>
   9.000000E+99

> <Gold.Chemscore.Hbonds>
donor molecule, donor type, donor heavy atom, donor atom, acceptor molecule, acceptor atom, score
      L1  H     9    30       P1  7948  0.16
      L1  H    12    31       P1  7948  0.03
      L1  H    17    38       P1 10186  0.66
      P1  H  6896  6907       L1     6  0.09
      P1  H 10785 10796       L1    17  0.91

> <Gold.Chemscore.Hbond.Weighted>
-11.6041

> <Gold.Chemscore.Metal.Weighted>
-0.0000

> <Gold.Chemscore.Lipo.Weighted>
-7.7381

> <Gold.Chemscore.Internal_Hbond.Weighted>
0.0000

> <Gold.Chemscore.DEClash.Weighted>
0.1950

> <Gold.Chemscore.DEInternal.Weighted>
0.8575

> <Gold.Chemscore.Rot.Weighted>
4.3438

> <Gold.Chemscore.Internal.Correction.Weighted>
   9.000000E+99

> <Gold.Protein.RotatedTorsions>
[ 6907 6896 6895 6894 ] final  -93.43 input  -60.11 | X-H torsion
[ 7974 7965 7964 7962 ] final  -14.25 input  175.53 | X-H torsion
[ 8008 7997 7996 7995 ] final  115.47 input   59.86 | X-H torsion
[ 10167 10162 10161 10158 ] final -145.80 input  -65.29 | X-H torsion
[ 10718 10713 10712 10709 ] final -109.15 input   66.30 | X-H torsion
[ 10763 10752 10751 10750 ] final   36.20 input  -60.55 | X-H torsion
[ 11005 11000 10999 10996 ] final   83.86 input  -57.11 | X-H torsion

> <Gold.Protein.ActiveResidues>
 VAL166  LYS551  ARG553  GLY616  TRP617  ASP618  TYR619  PRO620  LYS621  CYS622 
 ASP623  PHE694  ASN695  SER759  ASP760  ASP761  ALA762  ILE779  LEU786  VAL792 
 PHE793  MET794  SER795  GLU796  ALA797  LYS798  CYS799  TRP800  GLU811  SER814 

> <Gold.Protein.RotatedAtoms>
  150.6922  134.1968  159.4306 H   0  0  0  0  0  0  0  0  0  0  0  0  # atno 6907 bound_to 6896
  151.9936  134.9963  160.0572 H   0  0  0  0  0  0  0  0  0  0  0  0  # atno 6908 bound_to 6896
  152.1644  133.4567  159.4914 H   0  0  0  0  0  0  0  0  0  0  0  0  # atno 6909 bound_to 6896
  146.2082  140.3321  142.8400 H   0  0  0  0  0  0  0  0  0  0  0  0  # atno 7974 bound_to 7965
  156.2383  140.2938  156.0373 H   0  0  0  0  0  0  0  0  0  0  0  0  # atno 8008 bound_to 7997
  155.2026  140.0410  157.2937 H   0  0  0  0  0  0  0  0  0  0  0  0  # atno 8009 bound_to 7997
  154.6120  140.2454  155.7664 H   0  0  0  0  0  0  0  0  0  0  0  0  # atno 8010 bound_to 7997
  139.7772  143.8152  152.2633 H   0  0  0  0  0  0  0  0  0  0  0  0  # atno 10167 bound_to 10162
  156.0522  130.5749  150.8060 H   0  0  0  0  0  0  0  0  0  0  0  0  # atno 10718 bound_to 10713
  153.0087  135.6312  154.1947 H   0  0  0  0  0  0  0  0  0  0  0  0  # atno 10763 bound_to 10752
  154.1690  135.2819  155.3088 H   0  0  0  0  0  0  0  0  0  0  0  0  # atno 10764 bound_to 10752
  154.5923  135.5614  153.7351 H   0  0  0  0  0  0  0  0  0  0  0  0  # atno 10765 bound_to 10752
  139.9018  134.8175  156.2366 H   0  0  0  0  0  0  0  0  0  0  0  0  # atno 11005 bound_to 11000
  144.8845  140.7443  143.5966 LP  0  0  0  0  0  0  0  0  0  0  0  0  # atno 17320 bound_to 7965
  145.3242  139.1779  143.4571 LP  0  0  0  0  0  0  0  0  0  0  0  0  # atno 17321 bound_to 7965
  139.8204  144.7298  150.9580 LP  0  0  0  0  0  0  0  0  0  0  0  0  # atno 17342 bound_to 10162
  140.7817  143.4164  151.0910 LP  0  0  0  0  0  0  0  0  0  0  0  0  # atno 17343 bound_to 10162
  157.5459  131.0942  150.9763 LP  0  0  0  0  0  0  0  0  0  0  0  0  # atno 17370 bound_to 10713
  157.0035  130.5609  149.5313 LP  0  0  0  0  0  0  0  0  0  0  0  0  # atno 17371 bound_to 10713
  141.0311  133.6988  156.1432 LP  0  0  0  0  0  0  0  0  0  0  0  0  # atno 17394 bound_to 11000
  140.7095  134.4477  157.5582 LP  0  0  0  0  0  0  0  0  0  0  0  0  # atno 17395 bound_to 11000

$$$$
