#       Name:                AV-unprocessed.smi:3250
#       Creating user name   scv26
#       Creation time:       Fri Mar 27 18:31:42 2020


#       File generated by GOLD software.
#

@<TRIPOS>MOLECULE
AV-unprocessed.smi:3250
    45    46     1
SMALL
NO_CHARGES


@<TRIPOS>ATOM
      1 ****        -4.8196   2.0674   0.9022 C.3            1 S1                 0.0000
      2 ****        -4.1957   2.1310  -0.4992 C.3            1 S1                 0.0000
      3 ****        -2.7152   2.0260  -0.4721 N.4            1 S1                 1.0000
      4 ****        -2.0969   2.5101  -1.7291 C.3            1 S1                 0.0000
      5 ****        -0.5649   2.4220  -1.6459 C.3            1 S1                 0.0000
      6 ****        -0.1848   1.0827  -1.3599 O.3            1 S1                 0.0000
      7 ****        -0.6805   0.6379  -0.1011 C.3            1 S1                 0.0000
      8 ****        -0.1466  -0.7785   0.1510 C.3            1 S1                 0.0000
      9 ****         1.2959  -0.7837   0.3409 N.pl3          1 S1                 0.0000
     10 ****         2.0409  -1.9278   0.5547 C.ar           1 S1                 0.0000
     11 ****         1.3904  -3.0818   0.7418 N.ar           1 S1                 0.0000
     12 ****         2.1444  -4.1831   0.9489 C.ar           1 S1                 0.0000
     13 ****         3.5522  -4.1256   0.9665 C.ar           1 S1                 0.0000
     14 ****         4.1329  -2.8588   0.7554 C.ar           1 S1                 0.0000
     15 ****         5.5066  -2.7350   0.7553 O.3            1 S1                 0.0000
     16 ****         6.0645  -1.4470   0.5213 C.3            1 S1                 0.0000
     17 ****         3.3648  -1.7586   0.5511 N.ar           1 S1                 0.0000
     18 ****        -2.2215   0.6650  -0.1441 C.3            1 S1                 0.0000
     19 ****        -5.8944   2.2436   0.8500 H              1 S1                 0.0000
     20 ****        -4.3933   2.8262   1.5591 H              1 S1                 0.0000
     21 ****        -4.6761   1.0944   1.3711 H              1 S1                 0.0000
     22 ****        -4.6151   1.3553  -1.1418 H              1 S1                 0.0000
     23 ****        -4.4749   3.0864  -0.9456 H              1 S1                 0.0000
     24 ****        -2.4590   1.9135  -2.5682 H              1 S1                 0.0000
     25 ****        -2.3944   3.5424  -1.9164 H              1 S1                 0.0000
     26 ****        -0.1191   2.7201  -2.5949 H              1 S1                 0.0000
     27 ****        -0.1739   3.0976  -0.8834 H              1 S1                 0.0000
     28 ****        -0.3267   1.3009   0.6911 H              1 S1                 0.0000
     29 ****        -0.6122  -1.1924   1.0461 H              1 S1                 0.0000
     30 ****        -0.4073  -1.4351  -0.6801 H              1 S1                 0.0000
     31 ****         1.8051   0.0722   0.1749 H              1 S1                 0.0000
     32 ****         1.6217  -5.1159   1.1007 H              1 S1                 0.0000
     33 ****         4.1543  -5.0068   1.1316 H              1 S1                 0.0000
     34 ****         7.1520  -1.5159   0.5404 H              1 S1                 0.0000
     35 ****         5.7640  -0.7361   1.2922 H              1 S1                 0.0000
     36 ****         5.7753  -1.0583  -0.4563 H              1 S1                 0.0000
     37 ****        -2.6119   0.3455   0.8218 H              1 S1                 0.0000
     38 ****        -2.5885  -0.0441  -0.8880 H              1 S1                 0.0000
     39 ****        -2.3934   2.6439   0.2596 H              1 S1                 0.0000
     40 ****         0.8136   1.0267  -1.3505 LP             1 S1                 0.0000
     41 ****        -0.5454   0.4859  -2.0768 LP             1 S1                 0.0000
     42 ****         0.3915  -3.1269   0.7289 LP             1 S1                 0.0000
     43 ****         5.8594  -3.3446   0.0454 LP             1 S1                 0.0000
     44 ****         5.8322  -3.0413   1.6498 LP             1 S1                 0.0000
     45 ****         3.7741  -0.8581   0.4039 LP             1 S1                 0.0000
@<TRIPOS>BOND
    1    1    2 1     
    2    1   19 1     
    3    1   20 1     
    4    1   21 1     
    5    2    3 1     
    6    2   22 1     
    7    2   23 1     
    8    3   18 1     
    9    3    4 1     
   10    3   39 1     
   11    4    5 1     
   12    4   24 1     
   13    4   25 1     
   14    5    6 1     
   15    5   26 1     
   16    5   27 1     
   17    6    7 1     
   18    7    8 1     
   19    7   18 1     
   20    7   28 1     
   21    8    9 1     
   22    8   29 1     
   23    8   30 1     
   24    9   10 1     
   25    9   31 1     
   26   10   17 ar    
   27   10   11 ar    
   28   11   12 ar    
   29   12   13 ar    
   30   12   32 1     
   31   13   14 ar    
   32   13   33 1     
   33   14   15 1     
   34   14   17 ar    
   35   15   16 1     
   36   16   34 1     
   37   16   35 1     
   38   16   36 1     
   39   18   37 1     
   40   18   38 1     
   41    6   40 1     
   42    6   41 1     
   43   11   42 1     
   44   15   43 1     
   45   15   44 1     
   46   17   45 1     
@<TRIPOS>SUBSTRUCTURE
      1 S1             1
@<TRIPOS>SET
LONE_PAIRS      STATIC     ATOMS    <user>   **** ""
6 40 41 42 43 44 45
DONOR_HYDROGENS      STATIC     ATOMS    <user>   **** ""
2 39 31
ATOM$BLUE        STATIC     ATOMS    COLORGROUP SYSTEM
6 40 41 42 43 44 45
ATOM$RED        STATIC     ATOMS    COLORGROUP SYSTEM
2 39 31
