AV-unprocessed.smi:1999|AV-procd|sdf|8094|dock6
  -GOLD-   2272010313D 1   1.00000     0.00000
 Structure written by MMmdl.
 39 40  0  0  0  0  0  0  0  0  2 V2000
  139.7376  138.6027  153.2798 C   0  0  0  0  0  0  0  0  0  0  0  0
  140.3432  137.2456  153.3939 C   0  0  0  0  0  0  0  0  0  0  0  0
  139.6691  136.1938  153.8744 N   0  0  0  0  0  0  0  0  0  0  0  0
  140.4355  135.0368  153.8836 N   0  0  0  0  0  0  0  0  0  0  0  0
  141.6701  135.2517  153.4088 C   0  0  0  0  0  0  0  0  0  0  0  0
  142.6598  134.2391  153.2989 N   0  0  0  0  0  0  0  0  0  0  0  0
  143.6878  134.1716  152.4354 C   0  0  0  0  0  0  0  0  0  0  0  0
  143.9254  134.9887  151.5456 O   0  0  0  0  0  0  0  0  0  0  0  0
  144.4486  133.0912  152.6680 N   0  0  0  0  0  0  0  0  0  0  0  0
  145.6303  132.6890  151.9031 C   0  0  2  0  0  0  0  0  0  0  0  0
  145.2170  132.4347  150.4470 C   0  0  0  0  0  0  0  0  0  0  0  0
  146.3074  131.4410  152.5172 C   0  0  0  0  0  0  0  0  0  0  0  0
  147.7309  131.6648  152.8766 N   0  3  0  0  0  0  0  0  0  0  0  0
  147.9976  133.0366  153.3679 C   0  0  0  0  0  0  0  0  0  0  0  0
  149.5000  133.2195  153.6439 C   0  0  0  0  0  0  0  0  0  0  0  0
  149.9391  132.2388  154.5761 O   0  0  0  0  0  0  0  0  0  0  0  0
  149.7608  130.9162  154.0828 C   0  0  0  0  0  0  0  0  0  0  0  0
  148.2662  130.6612  153.8285 C   0  0  0  0  0  0  0  0  0  0  0  0
  141.9976  136.9002  152.9028 S   0  0  0  0  0  0  0  0  0  0  0  0
  139.2708  138.8869  154.2230 H   0  0  0  0  0  0  0  0  0  0  0  0
  138.9798  138.6084  152.4963 H   0  0  0  0  0  0  0  0  0  0  0  0
  140.5015  139.3403  153.0331 H   0  0  0  0  0  0  0  0  0  0  0  0
  142.5785  133.4825  153.9619 H   0  0  0  0  0  0  0  0  0  0  0  0
  144.1740  132.4787  153.4225 H   0  0  0  0  0  0  0  0  0  0  0  0
  146.3418  133.5155  151.8872 H   0  0  0  0  0  0  0  0  0  0  0  0
  146.0797  132.1677  149.8359 H   0  0  0  0  0  0  0  0  0  0  0  0
  144.7656  133.3237  150.0050 H   0  0  0  0  0  0  0  0  0  0  0  0
  144.4936  131.6221  150.3737 H   0  0  0  0  0  0  0  0  0  0  0  0
  145.7517  131.1621  153.4139 H   0  0  0  0  0  0  0  0  0  0  0  0
  146.2343  130.5886  151.8399 H   0  0  0  0  0  0  0  0  0  0  0  0
  147.6715  133.7671  152.6265 H   0  0  0  0  0  0  0  0  0  0  0  0
  147.4218  133.2194  154.2765 H   0  0  0  0  0  0  0  0  0  0  0  0
  150.0771  133.1442  152.7208 H   0  0  0  0  0  0  0  0  0  0  0  0
  149.6885  134.2103  154.0574 H   0  0  0  0  0  0  0  0  0  0  0  0
  150.3420  130.7714  153.1705 H   0  0  0  0  0  0  0  0  0  0  0  0
  150.1430  130.2093  154.8194 H   0  0  0  0  0  0  0  0  0  0  0  0
  147.7141  130.7131  154.7682 H   0  0  0  0  0  0  0  0  0  0  0  0
  148.1331  129.6537  153.4353 H   0  0  0  0  0  0  0  0  0  0  0  0
  148.2587  131.5651  152.0208 H   0  0  0  0  0  0  0  0  0  0  0  0
  1  2  1  0  0  0  0
  1 20  1  0  0  0  0
  1 21  1  0  0  0  0
  1 22  1  0  0  0  0
  2 19  1  0  0  0  0
  2  3  2  0  0  0  0
  3  4  1  0  0  0  0
  4  5  2  0  0  0  0
  5  6  1  0  0  0  0
  5 19  1  0  0  0  0
  6  7  1  0  0  0  0
  6 23  1  0  0  0  0
  7  8  2  0  0  0  0
  7  9  1  0  0  0  0
  9 10  1  0  0  0  0
  9 24  1  0  0  0  0
 10 11  1  0  0  0  0
 10 12  1  0  0  0  0
 10 25  1  0  0  0  0
 11 26  1  0  0  0  0
 11 27  1  0  0  0  0
 11 28  1  0  0  0  0
 12 13  1  0  0  0  0
 12 29  1  0  0  0  0
 12 30  1  0  0  0  0
 13 18  1  0  0  0  0
 13 14  1  0  0  0  0
 13 39  1  0  0  0  0
 14 15  1  0  0  0  0
 14 31  1  0  0  0  0
 14 32  1  0  0  0  0
 15 16  1  0  0  0  0
 15 33  1  0  0  0  0
 15 34  1  0  0  0  0
 16 17  1  0  0  0  0
 17 18  1  0  0  0  0
 17 35  1  0  0  0  0
 17 36  1  0  0  0  0
 18 37  1  0  0  0  0
 18 38  1  0  0  0  0
M  CHG  1  13   1
M  END
> <s_m_source_file>
AV-unprocessed.smi

> <i_m_source_file_index>
1999

> <i_lp_mmshare_version>
43012

> <i_f3d_flags>
0

> <s_epik_input>
W0NIM11jMW5uYyhzMSlbTkhdQyg9TylbTkhdW0NASF0oW0NIM10pW0NIMl1OMltDSDJdW0NIMl1PW0NIMl1bQ0gyXTI=

> <s_epik_cmdline>
J2VwaWtfcHl0aG9uJywgJy1waCcsICc3LjAnLCAnLXRuJywgJzgnLCAnLW1hJywgJzIwMCcsICctbWV0YWxfYmluZGluZycsICctaW1hZScsICc8aW5maWxlLm1hZT4nLCAnLW9tYWUnLCAnPG91dGZpbGUubWFlPic=

> <r_lp_tautomer_probability>
1

> <r_epik_Ionization_Penalty>
0.701298

> <r_epik_Ionization_Penalty_Charging>
0.695697

> <r_epik_Ionization_Penalty_Neutral>
0.00560124

> <r_epik_State_Penalty>
0.717972

> <r_epik_Charging_Adjusted_Penalty>
1.41367

> <i_epik_Tot_Q>
1

> <i_epik_Tot_abs_Q>
1

> <r_epik_Metal_State_Penalty>
1.07748

> <b_epik_Metal_Only>
0

> <s_lp_Force_Field>
OPLS_2005

> <r_lp_Energy>
20.3025

> <b_lp_Chiralities_Consistent>
1

> <s_lp_Variant>
AV-unprocessed.smi:1999-3

> <Gold.Version>
5.8.1

> <Gold.Id.Protein>
6NUR|6NUR_protein|mol2

> <Gold.PLP.Fitness>
43.3458

> <Gold.PLP.PLP>
-34.3706

> <Gold.PLP.part.hbond>
-4.9234

> <Gold.PLP.part.metal>
0.0000

> <Gold.PLP.part.buried>
-8.1595

> <Gold.PLP.part.nonpolar>
-21.9431

> <Gold.PLP.part.repulsive>
0.4972

> <Gold.PLP.ligand.clash>
0.0000

> <Gold.PLP.ligand.torsion>
1.1204

> <Gold.PLP.Chemscore.Hbond>
3.7256

> <Gold.PLP.Chemscore.CHOScore>
0.0000

> <Gold.PLP.Chemscore.Metal>
0.0000

> <Gold.Chemscore.Hbonds>
donor molecule, donor type, donor heavy atom, donor atom, acceptor molecule, acceptor atom, score
      L1  H     6    23       P1 10957  1.00
      L1  H     9    24       P1 10957  0.69
      L1  H    13    39       P1 10747  1.00
      P1  H 11000 11005       L1     4  1.00

> <Gold.PLP.Chemscore.Internal.Correction>
0.0394

> <Gold.Rescore>
     Score         DG    S(hbond)    S(metal)    S(lipo)     H(rot)  DE(clash)    DE(int)     intcor
     16.91     -19.05       3.18        0.00      60.93       1.63       0.06       2.08       ----

> <Gold.Chemscore.Fitness>
16.9115

> <Gold.Chemscore.DG>
-19.0502

> <Gold.Chemscore.ZeroCoef>
-5.4800

> <Gold.Chemscore.Hbond>
3.1794

> <Gold.Chemscore.Metal>
0.0000

> <Gold.Chemscore.Lipo>
60.9255

> <Gold.Chemscore.Internal_Hbond>
0.0000

> <Gold.Chemscore.DEClash>
0.0629

> <Gold.Chemscore.DEInternal>
2.0758

> <Gold.Chemscore.Rot>
1.6317

> <Gold.Chemscore.Internal.Correction>
   9.000000E+99

> <Gold.Chemscore.Hbonds>
donor molecule, donor type, donor heavy atom, donor atom, acceptor molecule, acceptor atom, score
      L1  H     6    23       P1 10957  1.00
      L1  H     9    24       P1 10957  0.15
      L1  H    13    39       P1 10747  0.95
      P1  H 11000 11005       L1     4  0.55

> <Gold.Chemscore.Hbond.Weighted>
-10.6192

> <Gold.Chemscore.Metal.Weighted>
-0.0000

> <Gold.Chemscore.Lipo.Weighted>
-7.1283

> <Gold.Chemscore.Internal_Hbond.Weighted>
0.0000

> <Gold.Chemscore.DEClash.Weighted>
0.0629

> <Gold.Chemscore.DEInternal.Weighted>
2.0758

> <Gold.Chemscore.Rot.Weighted>
4.1773

> <Gold.Chemscore.Internal.Correction.Weighted>
   9.000000E+99

> <Gold.Protein.RotatedTorsions>
[ 6907 6896 6895 6894 ] final  -21.74 input  -60.11 | X-H torsion
[ 7974 7965 7964 7962 ] final  -28.76 input  175.53 | X-H torsion
[ 8008 7997 7996 7995 ] final -168.81 input   59.86 | X-H torsion
[ 10167 10162 10161 10158 ] final  119.77 input  -65.29 | X-H torsion
[ 10718 10713 10712 10709 ] final  -45.12 input   66.30 | X-H torsion
[ 10763 10752 10751 10750 ] final    6.01 input  -60.55 | X-H torsion
[ 11005 11000 10999 10996 ] final   28.75 input  -57.11 | X-H torsion

> <Gold.Protein.ActiveResidues>
 VAL166  LYS551  ARG553  GLY616  TRP617  ASP618  TYR619  PRO620  LYS621  CYS622 
 ASP623  PHE694  ASN695  SER759  ASP760  ASP761  ALA762  ILE779  LEU786  VAL792 
 PHE793  MET794  SER795  GLU796  ALA797  LYS798  CYS799  TRP800  GLU811  SER814 

> <Gold.Protein.RotatedAtoms>
  151.2289  135.0547  159.8979 H   0  0  0  0  0  0  0  0  0  0  0  0  # atno 6907 bound_to 6896
  152.5407  134.0559  159.8140 H   0  0  0  0  0  0  0  0  0  0  0  0  # atno 6908 bound_to 6896
  151.0735  133.5398  159.2657 H   0  0  0  0  0  0  0  0  0  0  0  0  # atno 6909 bound_to 6896
  146.1265  140.5324  142.8712 H   0  0  0  0  0  0  0  0  0  0  0  0  # atno 7974 bound_to 7965
  155.8965  140.1033  157.1381 H   0  0  0  0  0  0  0  0  0  0  0  0  # atno 8008 bound_to 7997
  154.4021  140.1301  156.4445 H   0  0  0  0  0  0  0  0  0  0  0  0  # atno 8009 bound_to 7997
  155.7473  140.3466  155.5135 H   0  0  0  0  0  0  0  0  0  0  0  0  # atno 8010 bound_to 7997
  139.6024  144.7060  151.3031 H   0  0  0  0  0  0  0  0  0  0  0  0  # atno 10167 bound_to 10162
  156.2315  130.4173  149.8869 H   0  0  0  0  0  0  0  0  0  0  0  0  # atno 10718 bound_to 10713
  153.2527  135.6915  153.7662 H   0  0  0  0  0  0  0  0  0  0  0  0  # atno 10763 bound_to 10752
  153.6750  135.3338  155.3164 H   0  0  0  0  0  0  0  0  0  0  0  0  # atno 10764 bound_to 10752
  154.8400  135.4509  154.1490 H   0  0  0  0  0  0  0  0  0  0  0  0  # atno 10765 bound_to 10752
  140.3122  134.2636  155.7732 H   0  0  0  0  0  0  0  0  0  0  0  0  # atno 11005 bound_to 11000
  144.7648  140.5504  143.6711 LP  0  0  0  0  0  0  0  0  0  0  0  0  # atno 17320 bound_to 7965
  145.5354  139.1475  143.3477 LP  0  0  0  0  0  0  0  0  0  0  0  0  # atno 17321 bound_to 7965
  140.7260  143.7003  150.7851 LP  0  0  0  0  0  0  0  0  0  0  0  0  # atno 17342 bound_to 10162
  140.0582  143.5182  152.2641 LP  0  0  0  0  0  0  0  0  0  0  0  0  # atno 17343 bound_to 10162
  156.6481  130.8732  151.3526 LP  0  0  0  0  0  0  0  0  0  0  0  0  # atno 17370 bound_to 10713
  157.7135  130.9469  150.1172 LP  0  0  0  0  0  0  0  0  0  0  0  0  # atno 17371 bound_to 10713
  141.2105  133.7716  156.9925 LP  0  0  0  0  0  0  0  0  0  0  0  0  # atno 17394 bound_to 11000
  140.1014  134.9533  157.1929 LP  0  0  0  0  0  0  0  0  0  0  0  0  # atno 17395 bound_to 11000

$$$$
