AV-unprocessed.smi:2888|AV-procd|sdf|11103|dock8
  -GOLD-   2272015573D 1   1.00000     0.00000
 Structure written by MMmdl.
 33 35  0  0  0  0  0  0  0  0  1 V2000
  152.3848  138.6216  155.0619 C   0  0  0  0  0  0  0  0  0  0  0  0
  151.1894  139.5498  155.0396 C   0  0  0  0  0  0  0  0  0  0  0  0
  150.0231  139.2361  154.3110 C   0  0  0  0  0  0  0  0  0  0  0  0
  148.9804  140.1845  154.3717 C   0  0  0  0  0  0  0  0  0  0  0  0
  147.6753  139.9747  153.6336 C   0  0  0  0  0  0  0  0  0  0  0  0
  149.0963  141.3259  155.0862 N   0  0  0  0  0  0  0  0  0  0  0  0
  150.2469  141.5224  155.7352 C   0  0  0  0  0  0  0  0  0  0  0  0
  150.3334  142.7041  156.4478 N   0  0  0  0  0  0  0  0  0  0  0  0
  151.3425  142.9805  157.4627 C   0  0  1  0  0  0  0  0  0  0  0  0
  151.9293  144.3936  157.3539 C   0  0  0  0  0  0  0  0  0  0  0  0
  151.6627  144.9552  158.7559 C   0  0  2  0  0  0  0  0  0  0  0  0
  152.5217  144.2723  159.8290 C   0  0  0  0  0  0  0  0  0  0  0  0
  151.8509  142.9035  159.9414 C   0  0  0  0  0  0  0  0  0  0  0  0
  150.7466  143.0041  158.8802 C   0  0  1  0  0  0  0  0  0  0  0  0
  150.3988  144.3726  159.0201 O   0  0  0  0  0  0  0  0  0  0  0  0
  151.2984  140.6940  155.7497 N   0  0  0  0  0  0  0  0  0  0  0  0
  152.1730  137.6936  154.5298 H   0  0  0  0  0  0  0  0  0  0  0  0
  152.6533  138.3714  156.0886 H   0  0  0  0  0  0  0  0  0  0  0  0
  153.2426  139.0993  154.5878 H   0  0  0  0  0  0  0  0  0  0  0  0
  149.9344  138.3240  153.7392 H   0  0  0  0  0  0  0  0  0  0  0  0
  147.6333  138.9828  153.1832 H   0  0  0  0  0  0  0  0  0  0  0  0
  147.5661  140.7149  152.8409 H   0  0  0  0  0  0  0  0  0  0  0  0
  146.8310  140.0738  154.3164 H   0  0  0  0  0  0  0  0  0  0  0  0
  149.7649  143.4743  156.1269 H   0  0  0  0  0  0  0  0  0  0  0  0
  152.1220  142.2200  157.4005 H   0  0  0  0  0  0  0  0  0  0  0  0
  152.9898  144.3894  157.0998 H   0  0  0  0  0  0  0  0  0  0  0  0
  151.4065  144.9909  156.6053 H   0  0  0  0  0  0  0  0  0  0  0  0
  151.6741  146.0443  158.8048 H   0  0  0  0  0  0  0  0  0  0  0  0
  153.5710  144.2086  159.5389 H   0  0  0  0  0  0  0  0  0  0  0  0
  152.4603  144.8073  160.7773 H   0  0  0  0  0  0  0  0  0  0  0  0
  152.5374  142.0774  159.7535 H   0  0  0  0  0  0  0  0  0  0  0  0
  151.4202  142.7701  160.9344 H   0  0  0  0  0  0  0  0  0  0  0  0
  149.9239  142.3057  159.0393 H   0  0  0  0  0  0  0  0  0  0  0  0
  1  2  1  0  0  0  0
  1 17  1  0  0  0  0
  1 18  1  0  0  0  0
  1 19  1  0  0  0  0
  2 16  1  0  0  0  0
  2  3  2  0  0  0  0
  3  4  1  0  0  0  0
  3 20  1  0  0  0  0
  4  5  1  0  0  0  0
  4  6  2  0  0  0  0
  5 21  1  0  0  0  0
  5 22  1  0  0  0  0
  5 23  1  0  0  0  0
  6  7  1  0  0  0  0
  7  8  1  0  0  0  0
  7 16  2  0  0  0  0
  8  9  1  0  0  0  0
  8 24  1  0  0  0  0
  9 14  1  0  0  0  0
  9 10  1  0  0  0  0
  9 25  1  0  0  0  0
 10 11  1  0  0  0  0
 10 26  1  0  0  0  0
 10 27  1  0  0  0  0
 11 15  1  0  0  0  0
 11 12  1  0  0  0  0
 11 28  1  0  0  0  0
 12 13  1  0  0  0  0
 12 29  1  0  0  0  0
 12 30  1  0  0  0  0
 13 14  1  0  0  0  0
 13 31  1  0  0  0  0
 13 32  1  0  0  0  0
 14 15  1  0  0  0  0
 14 33  1  0  0  0  0
M  END
> <s_m_source_file>
AV-unprocessed.smi

> <i_m_source_file_index>
2888

> <i_lp_mmshare_version>
43012

> <i_f3d_flags>
0

> <s_epik_input>
W0NIM11jMVtjSF1jKFtDSDNdKW5jKG4xKVtOSF1bQ0BIXShbQ0gyXVtDQEBIXTIzKVtDQEBIXShPMylbQ0gyXVtDSDJdMg==

> <s_epik_cmdline>
J2VwaWtfcHl0aG9uJywgJy1waCcsICc3LjAnLCAnLXRuJywgJzgnLCAnLW1hJywgJzIwMCcsICctbWV0YWxfYmluZGluZycsICctaW1hZScsICc8aW5maWxlLm1hZT4nLCAnLW9tYWUnLCAnPG91dGZpbGUubWFlPic=

> <r_lp_tautomer_probability>
1

> <r_epik_Ionization_Penalty>
0.00890508

> <r_epik_Ionization_Penalty_Charging>
0

> <r_epik_Ionization_Penalty_Neutral>
0.00890508

> <r_epik_State_Penalty>
0.0067342

> <r_epik_Charging_Adjusted_Penalty>
0.0067342

> <i_epik_Tot_Q>
0

> <i_epik_Tot_abs_Q>
0

> <r_epik_Metal_State_Penalty>
0.00663442

> <b_epik_Metal_Only>
0

> <s_lp_Force_Field>
OPLS_2005

> <r_lp_Energy>
31.5377

> <b_lp_Chiralities_Consistent>
1

> <s_lp_Variant>
AV-unprocessed.smi:2888-4

> <Gold.Version>
5.8.1

> <Gold.Id.Protein>
6NUR|6NUR_protein|mol2

> <Gold.PLP.Fitness>
40.6302

> <Gold.PLP.PLP>
-38.0398

> <Gold.PLP.part.hbond>
-1.8717

> <Gold.PLP.part.metal>
0.0000

> <Gold.PLP.part.buried>
-3.8203

> <Gold.PLP.part.nonpolar>
-32.7715

> <Gold.PLP.part.repulsive>
0.3720

> <Gold.PLP.ligand.clash>
0.0000

> <Gold.PLP.ligand.torsion>
0.2141

> <Gold.PLP.Chemscore.Hbond>
1.0000

> <Gold.PLP.Chemscore.CHOScore>
0.0000

> <Gold.PLP.Chemscore.Metal>
0.0000

> <Gold.Chemscore.Hbonds>
donor molecule, donor type, donor heavy atom, donor atom, acceptor molecule, acceptor atom, score
      L1  H     8    24       P1  8028  1.00

> <Gold.PLP.Chemscore.Internal.Correction>
0.0187

> <Gold.Rescore>
     Score         DG    S(hbond)    S(metal)    S(lipo)     H(rot)  DE(clash)    DE(int)     intcor
     18.46     -18.65       0.99        0.00     106.17       1.00       0.06       0.13       ----

> <Gold.Chemscore.Fitness>
18.4647

> <Gold.Chemscore.DG>
-18.6539

> <Gold.Chemscore.ZeroCoef>
-5.4800

> <Gold.Chemscore.Hbond>
0.9918

> <Gold.Chemscore.Metal>
0.0000

> <Gold.Chemscore.Lipo>
106.1660

> <Gold.Chemscore.Internal_Hbond>
0.0000

> <Gold.Chemscore.DEClash>
0.0554

> <Gold.Chemscore.DEInternal>
0.1339

> <Gold.Chemscore.Rot>
1.0000

> <Gold.Chemscore.Internal.Correction>
   9.000000E+99

> <Gold.Chemscore.Hbonds>
donor molecule, donor type, donor heavy atom, donor atom, acceptor molecule, acceptor atom, score
      L1  H     8    24       P1  8028  0.98

> <Gold.Chemscore.Hbond.Weighted>
-3.3125

> <Gold.Chemscore.Metal.Weighted>
-0.0000

> <Gold.Chemscore.Lipo.Weighted>
-12.4214

> <Gold.Chemscore.Internal_Hbond.Weighted>
0.0000

> <Gold.Chemscore.DEClash.Weighted>
0.0554

> <Gold.Chemscore.DEInternal.Weighted>
0.1339

> <Gold.Chemscore.Rot.Weighted>
2.5600

> <Gold.Chemscore.Internal.Correction.Weighted>
   9.000000E+99

> <Gold.Protein.RotatedTorsions>
[ 6907 6896 6895 6894 ] final   92.95 input  -60.11 | X-H torsion
[ 7974 7965 7964 7962 ] final  -49.24 input  175.53 | X-H torsion
[ 8008 7997 7996 7995 ] final  112.79 input   59.86 | X-H torsion
[ 10167 10162 10161 10158 ] final  151.67 input  -65.29 | X-H torsion
[ 10718 10713 10712 10709 ] final   61.90 input   66.30 | X-H torsion
[ 10763 10752 10751 10750 ] final -144.67 input  -60.55 | X-H torsion
[ 11005 11000 10999 10996 ] final  167.96 input  -57.11 | X-H torsion

> <Gold.Protein.ActiveResidues>
 VAL166  LYS551  ARG553  GLY616  TRP617  ASP618  TYR619  PRO620  LYS621  CYS622 
 ASP623  PHE694  ASN695  SER759  ASP760  ASP761  ALA762  ILE779  LEU786  VAL792 
 PHE793  MET794  SER795  GLU796  ALA797  LYS798  CYS799  TRP800  GLU811  SER814 

> <Gold.Protein.RotatedAtoms>
  152.5453  134.1423  159.8483 H   0  0  0  0  0  0  0  0  0  0  0  0  # atno 6907 bound_to 6896
  151.1458  133.4934  159.2603 H   0  0  0  0  0  0  0  0  0  0  0  0  # atno 6908 bound_to 6896
  151.1525  135.0244  159.8729 H   0  0  0  0  0  0  0  0  0  0  0  0  # atno 6909 bound_to 6896
  145.9427  140.7647  142.9544 H   0  0  0  0  0  0  0  0  0  0  0  0  # atno 7974 bound_to 7965
  156.2216  140.2992  155.9965 H   0  0  0  0  0  0  0  0  0  0  0  0  # atno 8008 bound_to 7997
  155.2467  140.0424  157.2999 H   0  0  0  0  0  0  0  0  0  0  0  0  # atno 8009 bound_to 7997
  154.5849  140.2385  155.8009 H   0  0  0  0  0  0  0  0  0  0  0  0  # atno 8010 bound_to 7997
  139.4838  144.5421  151.7546 H   0  0  0  0  0  0  0  0  0  0  0  0  # atno 10167 bound_to 10162
  157.5862  130.9020  149.9520 H   0  0  0  0  0  0  0  0  0  0  0  0  # atno 10718 bound_to 10713
  154.8418  135.3434  154.6383 H   0  0  0  0  0  0  0  0  0  0  0  0  # atno 10763 bound_to 10752
  153.6994  135.6970  153.5072 H   0  0  0  0  0  0  0  0  0  0  0  0  # atno 10764 bound_to 10752
  153.2534  135.4346  155.0776 H   0  0  0  0  0  0  0  0  0  0  0  0  # atno 10765 bound_to 10752
  140.2822  134.7741  157.3768 H   0  0  0  0  0  0  0  0  0  0  0  0  # atno 11005 bound_to 11000
  144.6782  140.2306  143.7356 LP  0  0  0  0  0  0  0  0  0  0  0  0  # atno 17320 bound_to 7965
  145.8278  139.2072  143.1900 LP  0  0  0  0  0  0  0  0  0  0  0  0  # atno 17321 bound_to 7965
  140.4962  144.1237  150.5961 LP  0  0  0  0  0  0  0  0  0  0  0  0  # atno 17342 bound_to 10162
  140.4114  143.2655  151.9828 LP  0  0  0  0  0  0  0  0  0  0  0  0  # atno 17343 bound_to 10162
  156.0911  130.3663  150.0393 LP  0  0  0  0  0  0  0  0  0  0  0  0  # atno 17370 bound_to 10713
  156.8524  130.9463  151.3624 LP  0  0  0  0  0  0  0  0  0  0  0  0  # atno 17371 bound_to 10713
  140.1272  134.5142  155.8134 LP  0  0  0  0  0  0  0  0  0  0  0  0  # atno 17394 bound_to 11000
  141.2161  133.6777  156.6974 LP  0  0  0  0  0  0  0  0  0  0  0  0  # atno 17395 bound_to 11000

$$$$
