AV-unprocessed.smi:3204|AV-procd|sdf|12252|dock6
  -GOLD-   2272018 83D 1   1.00000     0.00000
 Structure written by MMmdl.
 30 31  0  0  0  0  0  0  0  0  1 V2000
  152.7855  142.6832  162.0398 C   0  0  0  0  0  0  0  0  0  0  0  0
  153.3768  142.0531  160.7737 C   0  0  0  0  0  0  0  0  0  0  0  0
  152.6425  142.4882  159.5191 C   0  0  0  0  0  0  0  0  0  0  0  0
  152.5598  143.8186  159.2939 N   0  0  0  0  0  0  0  0  0  0  0  0
  151.9002  144.2034  158.1987 C   0  0  0  0  0  0  0  0  0  0  0  0
  151.3095  143.4095  157.3016 N   0  0  0  0  0  0  0  0  0  0  0  0
  151.3808  142.0738  157.5144 C   0  0  0  0  0  0  0  0  0  0  0  0
  150.7707  141.1947  156.6082 N   0  0  0  0  0  0  0  0  0  0  0  0
  149.4190  141.4289  156.1088 C   0  0  2  0  0  0  0  0  0  0  0  0
  148.4028  140.3992  156.5847 C   0  0  0  0  0  0  0  0  0  0  0  0
  147.2998  140.6116  155.7145 O   0  0  0  0  0  0  0  0  0  0  0  0
  147.7724  141.0275  154.4331 C   0  0  0  0  0  0  0  0  0  0  0  0
  149.2667  141.3413  154.5940 C   0  0  2  0  0  0  0  0  0  0  0  0
  150.0201  140.2770  154.0394 O   0  0  0  0  0  0  0  0  0  0  0  0
  152.0552  141.5523  158.6394 C   0  0  0  0  0  0  0  0  0  0  0  0
  152.1288  140.2179  158.8662 F   0  0  0  0  0  0  0  0  0  0  0  0
  153.3297  142.3576  162.9265 H   0  0  0  0  0  0  0  0  0  0  0  0
  151.7405  142.3992  162.1675 H   0  0  0  0  0  0  0  0  0  0  0  0
  152.8348  143.7716  161.9990 H   0  0  0  0  0  0  0  0  0  0  0  0
  154.4290  142.3265  160.6838 H   0  0  0  0  0  0  0  0  0  0  0  0
  153.3511  140.9662  160.8545 H   0  0  0  0  0  0  0  0  0  0  0  0
  151.8372  145.2665  158.0202 H   0  0  0  0  0  0  0  0  0  0  0  0
  151.3021  140.4237  156.2300 H   0  0  0  0  0  0  0  0  0  0  0  0
  149.0788  142.4099  156.4441 H   0  0  0  0  0  0  0  0  0  0  0  0
  148.7754  139.3820  156.4534 H   0  0  0  0  0  0  0  0  0  0  0  0
  148.1218  140.5316  157.6297 H   0  0  0  0  0  0  0  0  0  0  0  0
  147.5815  140.2605  153.6810 H   0  0  0  0  0  0  0  0  0  0  0  0
  147.2193  141.9202  154.1395 H   0  0  0  0  0  0  0  0  0  0  0  0
  149.5477  142.2695  154.0957 H   0  0  0  0  0  0  0  0  0  0  0  0
  149.6386  140.0455  153.2066 H   0  0  0  0  0  0  0  0  0  0  0  0
  1  2  1  0  0  0  0
  1 17  1  0  0  0  0
  1 18  1  0  0  0  0
  1 19  1  0  0  0  0
  2  3  1  0  0  0  0
  2 20  1  0  0  0  0
  2 21  1  0  0  0  0
  3 15  1  0  0  0  0
  3  4  2  0  0  0  0
  4  5  1  0  0  0  0
  5  6  2  0  0  0  0
  5 22  1  0  0  0  0
  6  7  1  0  0  0  0
  7  8  1  0  0  0  0
  7 15  2  0  0  0  0
  8  9  1  0  0  0  0
  8 23  1  0  0  0  0
  9 13  1  0  0  0  0
  9 10  1  0  0  0  0
  9 24  1  0  0  0  0
 10 11  1  0  0  0  0
 10 25  1  0  0  0  0
 10 26  1  0  0  0  0
 11 12  1  0  0  0  0
 12 13  1  0  0  0  0
 12 27  1  0  0  0  0
 12 28  1  0  0  0  0
 13 14  1  0  0  0  0
 13 29  1  0  0  0  0
 14 30  1  0  0  0  0
 15 16  1  0  0  0  0
M  END
> <s_m_source_file>
AV-unprocessed.smi

> <i_m_source_file_index>
3204

> <i_lp_mmshare_version>
43012

> <i_f3d_flags>
0

> <s_epik_input>
W0NIM11bQ0gyXWMxbltjSF1uYyhjMUYpW05IXVtDQEBIXTJbQ0gyXU9bQ0gyXVtDQEhdMltPSF0=

> <s_epik_cmdline>
J2VwaWtfcHl0aG9uJywgJy1waCcsICc3LjAnLCAnLXRuJywgJzgnLCAnLW1hJywgJzIwMCcsICctbWV0YWxfYmluZGluZycsICctaW1hZScsICc8aW5maWxlLm1hZT4nLCAnLW9tYWUnLCAnPG91dGZpbGUubWFlPic=

> <r_lp_tautomer_probability>
1

> <r_epik_Ionization_Penalty>
0.000484964

> <r_epik_Ionization_Penalty_Charging>
0

> <r_epik_Ionization_Penalty_Neutral>
0.000484964

> <r_epik_State_Penalty>
-0

> <r_epik_Charging_Adjusted_Penalty>
0

> <i_epik_Tot_Q>
0

> <i_epik_Tot_abs_Q>
0

> <r_epik_Metal_State_Penalty>
-0

> <b_epik_Metal_Only>
0

> <s_lp_Force_Field>
OPLS_2005

> <r_lp_Energy>
19.3266

> <b_lp_Chiralities_Consistent>
1

> <s_lp_Variant>
AV-unprocessed.smi:3204-3

> <Gold.Version>
5.8.1

> <Gold.Id.Protein>
6NUR|6NUR_protein|mol2

> <Gold.PLP.Fitness>
39.5425

> <Gold.PLP.PLP>
-35.0028

> <Gold.PLP.part.hbond>
-2.0000

> <Gold.PLP.part.metal>
0.0000

> <Gold.PLP.part.buried>
-6.3569

> <Gold.PLP.part.nonpolar>
-27.6814

> <Gold.PLP.part.repulsive>
0.2456

> <Gold.PLP.ligand.clash>
0.0000

> <Gold.PLP.ligand.torsion>
0.4694

> <Gold.PLP.Chemscore.Hbond>
1.8233

> <Gold.PLP.Chemscore.CHOScore>
0.0000

> <Gold.PLP.Chemscore.Metal>
0.0000

> <Gold.Chemscore.Hbonds>
donor molecule, donor type, donor heavy atom, donor atom, acceptor molecule, acceptor atom, score
      L1  H    14    30       P1  7957  0.96
      P1  H  7989  7998       L1    14  0.79

> <Gold.PLP.Chemscore.Internal.Correction>
0.0087

> <Gold.Rescore>
     Score         DG    S(hbond)    S(metal)    S(lipo)     H(rot)  DE(clash)    DE(int)     intcor
     12.51     -13.01       1.44        0.00      63.46       1.83       0.02       0.48       ----

> <Gold.Chemscore.Fitness>
12.5054

> <Gold.Chemscore.DG>
-13.0113

> <Gold.Chemscore.ZeroCoef>
-5.4800

> <Gold.Chemscore.Hbond>
1.4373

> <Gold.Chemscore.Metal>
0.0000

> <Gold.Chemscore.Lipo>
63.4616

> <Gold.Chemscore.Internal_Hbond>
0.0000

> <Gold.Chemscore.DEClash>
0.0234

> <Gold.Chemscore.DEInternal>
0.4824

> <Gold.Chemscore.Rot>
1.8337

> <Gold.Chemscore.Internal.Correction>
   9.000000E+99

> <Gold.Chemscore.Hbonds>
donor molecule, donor type, donor heavy atom, donor atom, acceptor molecule, acceptor atom, score
      L1  H    14    30       P1  7957  0.88
      P1  H  7989  7998       L1    14  0.13

> <Gold.Chemscore.Hbond.Weighted>
-4.8005

> <Gold.Chemscore.Metal.Weighted>
-0.0000

> <Gold.Chemscore.Lipo.Weighted>
-7.4250

> <Gold.Chemscore.Internal_Hbond.Weighted>
0.0000

> <Gold.Chemscore.DEClash.Weighted>
0.0234

> <Gold.Chemscore.DEInternal.Weighted>
0.4824

> <Gold.Chemscore.Rot.Weighted>
4.6942

> <Gold.Chemscore.Internal.Correction.Weighted>
   9.000000E+99

> <Gold.Protein.RotatedTorsions>
[ 6907 6896 6895 6894 ] final  170.05 input  -60.11 | X-H torsion
[ 7974 7965 7964 7962 ] final  -85.65 input  175.53 | X-H torsion
[ 8008 7997 7996 7995 ] final  155.71 input   59.86 | X-H torsion
[ 10167 10162 10161 10158 ] final  175.13 input  -65.29 | X-H torsion
[ 10718 10713 10712 10709 ] final   70.78 input   66.30 | X-H torsion
[ 10763 10752 10751 10750 ] final  -79.65 input  -60.55 | X-H torsion
[ 11005 11000 10999 10996 ] final  -65.95 input  -57.11 | X-H torsion

> <Gold.Protein.ActiveResidues>
 VAL166  LYS551  ARG553  GLY616  TRP617  ASP618  TYR619  PRO620  LYS621  CYS622 
 ASP623  PHE694  ASN695  SER759  ASP760  ASP761  ALA762  ILE779  LEU786  VAL792 
 PHE793  MET794  SER795  GLU796  ALA797  LYS798  CYS799  TRP800  GLU811  SER814 

> <Gold.Protein.RotatedAtoms>
  151.8222  133.3396  159.3587 H   0  0  0  0  0  0  0  0  0  0  0  0  # atno 6907 bound_to 6896
  150.7291  134.5563  159.5829 H   0  0  0  0  0  0  0  0  0  0  0  0  # atno 6908 bound_to 6896
  152.2997  134.7626  160.0411 H   0  0  0  0  0  0  0  0  0  0  0  0  # atno 6909 bound_to 6896
  145.4905  140.9553  143.1815 H   0  0  0  0  0  0  0  0  0  0  0  0  # atno 7974 bound_to 7965
  156.2463  140.1932  156.6843 H   0  0  0  0  0  0  0  0  0  0  0  0  # atno 8008 bound_to 7997
  154.6298  140.0597  156.9744 H   0  0  0  0  0  0  0  0  0  0  0  0  # atno 8009 bound_to 7997
  155.1728  140.3269  155.4392 H   0  0  0  0  0  0  0  0  0  0  0  0  # atno 8010 bound_to 7997
  139.5166  144.3066  152.0330 H   0  0  0  0  0  0  0  0  0  0  0  0  # atno 10167 bound_to 10162
  157.6418  130.9495  150.0698 H   0  0  0  0  0  0  0  0  0  0  0  0  # atno 10718 bound_to 10713
  154.5413  135.5688  153.6842 H   0  0  0  0  0  0  0  0  0  0  0  0  # atno 10763 bound_to 10752
  152.9964  135.6228  154.2498 H   0  0  0  0  0  0  0  0  0  0  0  0  # atno 10764 bound_to 10752
  154.2429  135.2862  155.2826 H   0  0  0  0  0  0  0  0  0  0  0  0  # atno 10765 bound_to 10752
  141.1469  133.6690  156.6065 H   0  0  0  0  0  0  0  0  0  0  0  0  # atno 11005 bound_to 11000
  144.7837  139.6472  143.7143 LP  0  0  0  0  0  0  0  0  0  0  0  0  # atno 17320 bound_to 7965
  146.2287  139.5772  142.9570 LP  0  0  0  0  0  0  0  0  0  0  0  0  # atno 17321 bound_to 7965
  140.2512  144.4167  150.6221 LP  0  0  0  0  0  0  0  0  0  0  0  0  # atno 17342 bound_to 10162
  140.6223  143.2177  151.6669 LP  0  0  0  0  0  0  0  0  0  0  0  0  # atno 17343 bound_to 10162
  156.1706  130.3646  149.9171 LP  0  0  0  0  0  0  0  0  0  0  0  0  # atno 17370 bound_to 10713
  156.7147  130.8984  151.3613 LP  0  0  0  0  0  0  0  0  0  0  0  0  # atno 17371 bound_to 10713
  140.3648  134.7657  157.4558 LP  0  0  0  0  0  0  0  0  0  0  0  0  # atno 17394 bound_to 11000
  140.0757  134.5801  155.8594 LP  0  0  0  0  0  0  0  0  0  0  0  0  # atno 17395 bound_to 11000

$$$$
