#       Name:                AV-unprocessed.smi:3110
#       Creating user name   scv26
#       Creation time:       Fri Mar 27 17:20:26 2020


#       File generated by GOLD software.
#

@<TRIPOS>MOLECULE
AV-unprocessed.smi:3110
    36    37     1
SMALL
NO_CHARGES


@<TRIPOS>ATOM
      1 ****         1.0182   1.1032  -1.2687 O.2            1 S1                 0.0000
      2 ****         0.4295   0.0556  -1.5349 C.2            1 S1                 0.0000
      3 ****        -1.0901   0.0518  -1.7213 C.3            1 S1                 0.0000
      4 ****        -1.8511   0.1802  -0.3851 C.3            1 S1                 0.0000
      5 ****        -3.3445   0.0832  -0.5630 C.2            1 S1                 0.0000
      6 ****        -4.0019   1.0594   0.0593 C.2            1 S1                 0.0000
      7 ****        -3.0799   2.0058   0.7761 C.3            1 S1                 0.0000
      8 ****        -1.6720   1.5361   0.3501 C.3            1 S1                 0.0000
      9 ****         1.0508  -1.1265  -1.6701 N.am           1 S1                 0.0000
     10 ****         2.4752  -1.3598  -1.4500 C.3            1 S1                 0.0000
     11 ****         2.7588  -1.8729  -0.0256 C.3            1 S1                 0.0000
     12 ****         2.4750  -0.8801   0.9945 N.pl3          1 S1                 0.0000
     13 ****         1.3683  -0.8314   1.8326 C.2            1 S1                 0.0000
     14 ****         1.5218   0.2860   2.6217 C.2            1 S1                 0.0000
     15 ****         2.7116   0.9316   2.2937 N.2            1 S1                 0.0000
     16 ****         3.2212   0.1832   1.3238 C.2            1 S1                 0.0000
     17 ****        -1.3624   0.8700  -2.3896 H              1 S1                 0.0000
     18 ****        -1.3883  -0.8672  -2.2287 H              1 S1                 0.0000
     19 ****        -1.5599  -0.6355   0.2788 H              1 S1                 0.0000
     20 ****        -3.8064  -0.7157  -1.1242 H              1 S1                 0.0000
     21 ****        -5.0755   1.1739   0.0800 H              1 S1                 0.0000
     22 ****        -3.2716   3.0377   0.4810 H              1 S1                 0.0000
     23 ****        -3.2267   1.9158   1.8527 H              1 S1                 0.0000
     24 ****        -0.9972   1.4481   1.2023 H              1 S1                 0.0000
     25 ****        -1.2436   2.2818  -0.3209 H              1 S1                 0.0000
     26 ****         0.4879  -1.9325  -1.9004 H              1 S1                 0.0000
     27 ****         2.7998  -2.1093  -2.1720 H              1 S1                 0.0000
     28 ****         3.0614  -0.4637  -1.6612 H              1 S1                 0.0000
     29 ****         2.1731  -2.7693   0.1820 H              1 S1                 0.0000
     30 ****         3.8077  -2.1579   0.0626 H              1 S1                 0.0000
     31 ****         0.5810  -1.5696   1.7932 H              1 S1                 0.0000
     32 ****         0.8723   0.6717   3.3935 H              1 S1                 0.0000
     33 ****         4.1572   0.4165   0.8374 H              1 S1                 0.0000
     34 ****         0.5039   1.9555  -1.1735 LP             1 S1                 0.0000
     35 ****         2.0109   1.1021  -1.1476 LP             1 S1                 0.0000
     36 ****         3.0926   1.7644   2.6953 LP             1 S1                 0.0000
@<TRIPOS>BOND
    1    1    2 2     
    2    2    3 1     
    3    2    9 am    
    4    3    4 1     
    5    3   17 1     
    6    3   18 1     
    7    4    8 1     
    8    4    5 1     
    9    4   19 1     
   10    5    6 2     
   11    5   20 1     
   12    6    7 1     
   13    6   21 1     
   14    7    8 1     
   15    7   22 1     
   16    7   23 1     
   17    8   24 1     
   18    8   25 1     
   19    9   10 1     
   20    9   26 1     
   21   10   11 1     
   22   10   27 1     
   23   10   28 1     
   24   11   12 1     
   25   11   29 1     
   26   11   30 1     
   27   12   16 1     
   28   12   13 1     
   29   13   14 2     
   30   13   31 1     
   31   14   15 1     
   32   14   32 1     
   33   15   16 2     
   34   16   33 1     
   35    1   34 1     
   36    1   35 1     
   37   15   36 1     
@<TRIPOS>SUBSTRUCTURE
      1 S1             1
@<TRIPOS>SET
LONE_PAIRS      STATIC     ATOMS    <user>   **** ""
3 34 35 36
DONOR_HYDROGENS      STATIC     ATOMS    <user>   **** ""
1 26
ATOM$BLUE        STATIC     ATOMS    COLORGROUP SYSTEM
3 34 35 36
ATOM$RED        STATIC     ATOMS    COLORGROUP SYSTEM
1 26
