AV-unprocessed.smi:1804|AV-procd|sdf|7295|dock2
  -GOLD-   22720 8553D 1   1.00000     0.00000
 Structure written by MMmdl.
 44 45  0  0  0  0  0  0  0  0  2 V2000
  148.4826  137.2989  157.6064 C   0  0  0  0  0  0  0  0  0  0  0  0
  149.1117  137.5768  156.2877 N   0  3  0  0  0  0  0  0  0  0  0  0
  148.0603  137.6584  155.2395 C   0  0  0  0  0  0  0  0  0  0  0  0
  150.3140  136.7299  155.9511 C   0  0  0  0  0  0  0  0  0  0  0  0
  149.8810  135.2309  155.8218 C   0  0  0  0  0  0  0  0  0  0  0  0
  149.1392  134.9277  154.5965 N   0  0  0  0  0  0  0  0  0  0  0  0
  148.3784  133.8426  154.3894 C   0  0  0  0  0  0  0  0  0  0  0  0
  148.2177  132.9566  155.2290 O   0  0  0  0  0  0  0  0  0  0  0  0
  147.8343  133.8576  153.1600 N   0  0  0  0  0  0  0  0  0  0  0  0
  146.9928  132.8847  152.5583 C   0  0  0  0  0  0  0  0  0  0  0  0
  146.5656  131.7787  153.1874 N   0  0  0  0  0  0  0  0  0  0  0  0
  145.7574  130.9971  152.3720 N   0  0  0  0  0  0  0  0  0  0  0  0
  145.6073  131.5433  151.1621 C   0  0  0  0  0  0  0  0  0  0  0  0
  146.4401  133.0655  150.8996 S   0  0  0  0  0  0  0  0  0  0  0  0
  150.9617  137.1472  154.5892 C   0  0  0  0  0  0  0  0  0  0  0  0
  151.3406  138.6262  154.3860 C   0  0  0  0  0  0  0  0  0  0  0  0
  152.3724  139.1764  155.3782 C   0  0  0  0  0  0  0  0  0  0  0  0
  151.7643  139.4389  156.7595 C   0  0  0  0  0  0  0  0  0  0  0  0
  151.7153  138.2191  157.6914 C   0  0  0  0  0  0  0  0  0  0  0  0
  151.4032  136.8395  157.0659 C   0  0  0  0  0  0  0  0  0  0  0  0
  147.9136  136.3692  157.5906 H   0  0  0  0  0  0  0  0  0  0  0  0
  147.7863  138.0990  157.8595 H   0  0  0  0  0  0  0  0  0  0  0  0
  149.1997  137.2384  158.4222 H   0  0  0  0  0  0  0  0  0  0  0  0
  147.5682  136.6979  155.0874 H   0  0  0  0  0  0  0  0  0  0  0  0
  148.4376  138.0036  154.2793 H   0  0  0  0  0  0  0  0  0  0  0  0
  147.2921  138.3717  155.5392 H   0  0  0  0  0  0  0  0  0  0  0  0
  150.7404  134.5644  155.8961 H   0  0  0  0  0  0  0  0  0  0  0  0
  149.2256  134.9522  156.6461 H   0  0  0  0  0  0  0  0  0  0  0  0
  149.2112  135.6015  153.8479 H   0  0  0  0  0  0  0  0  0  0  0  0
  148.0513  134.6561  152.5821 H   0  0  0  0  0  0  0  0  0  0  0  0
  145.0022  131.0463  150.4185 H   0  0  0  0  0  0  0  0  0  0  0  0
  151.8681  136.5635  154.4245 H   0  0  0  0  0  0  0  0  0  0  0  0
  150.3062  136.8541  153.7685 H   0  0  0  0  0  0  0  0  0  0  0  0
  151.7558  138.7238  153.3822 H   0  0  0  0  0  0  0  0  0  0  0  0
  150.4542  139.2595  154.3890 H   0  0  0  0  0  0  0  0  0  0  0  0
  153.2457  138.5262  155.4462 H   0  0  0  0  0  0  0  0  0  0  0  0
  152.7362  140.1266  154.9852 H   0  0  0  0  0  0  0  0  0  0  0  0
  152.3443  140.2167  157.2575 H   0  0  0  0  0  0  0  0  0  0  0  0
  150.7652  139.8604  156.6463 H   0  0  0  0  0  0  0  0  0  0  0  0
  152.6782  138.1347  158.1965 H   0  0  0  0  0  0  0  0  0  0  0  0
  151.0039  138.4343  158.4882 H   0  0  0  0  0  0  0  0  0  0  0  0
  151.1463  136.1741  157.8908 H   0  0  0  0  0  0  0  0  0  0  0  0
  152.3400  136.4332  156.6827 H   0  0  0  0  0  0  0  0  0  0  0  0
  149.4814  138.5138  156.3642 H   0  0  0  0  0  0  0  0  0  0  0  0
  1  2  1  0  0  0  0
  1 21  1  0  0  0  0
  1 22  1  0  0  0  0
  1 23  1  0  0  0  0
  2  3  1  0  0  0  0
  2  4  1  0  0  0  0
  2 44  1  0  0  0  0
  3 24  1  0  0  0  0
  3 25  1  0  0  0  0
  3 26  1  0  0  0  0
  4 20  1  0  0  0  0
  4  5  1  0  0  0  0
  4 15  1  0  0  0  0
  5  6  1  0  0  0  0
  5 27  1  0  0  0  0
  5 28  1  0  0  0  0
  6  7  1  0  0  0  0
  6 29  1  0  0  0  0
  7  8  2  0  0  0  0
  7  9  1  0  0  0  0
  9 10  1  0  0  0  0
  9 30  1  0  0  0  0
 10 14  1  0  0  0  0
 10 11  2  0  0  0  0
 11 12  1  0  0  0  0
 12 13  2  0  0  0  0
 13 14  1  0  0  0  0
 13 31  1  0  0  0  0
 15 16  1  0  0  0  0
 15 32  1  0  0  0  0
 15 33  1  0  0  0  0
 16 17  1  0  0  0  0
 16 34  1  0  0  0  0
 16 35  1  0  0  0  0
 17 18  1  0  0  0  0
 17 36  1  0  0  0  0
 17 37  1  0  0  0  0
 18 19  1  0  0  0  0
 18 38  1  0  0  0  0
 18 39  1  0  0  0  0
 19 20  1  0  0  0  0
 19 40  1  0  0  0  0
 19 41  1  0  0  0  0
 20 42  1  0  0  0  0
 20 43  1  0  0  0  0
M  CHG  1   2   1
M  END
> <s_m_source_file>
AV-unprocessed.smi

> <i_m_source_file_index>
1804

> <i_lp_mmshare_version>
43012

> <i_f3d_flags>
0

> <s_epik_input>
W0NIMl0xW0NIMl1bQ0gyXVtDSDJdW0NIMl1bQ0gyXUMxKE4oW0NIM10pW0NIM10pW0NIMl1bTkhdQyg9TylbTkhdYzJubltjSF1zMg==

> <s_epik_cmdline>
J2VwaWtfcHl0aG9uJywgJy1waCcsICc3LjAnLCAnLXRuJywgJzgnLCAnLW1hJywgJzIwMCcsICctbWV0YWxfYmluZGluZycsICctaW1hZScsICc8aW5maWxlLm1hZT4nLCAnLW9tYWUnLCAnPG91dGZpbGUubWFlPic=

> <r_lp_tautomer_probability>
1

> <r_epik_Ionization_Penalty>
0.00320238

> <r_epik_Ionization_Penalty_Charging>
0.00244219

> <r_epik_Ionization_Penalty_Neutral>
0.000760187

> <r_epik_State_Penalty>
-0

> <r_epik_Charging_Adjusted_Penalty>
0.00244219

> <i_epik_Tot_Q>
1

> <i_epik_Tot_abs_Q>
1

> <r_epik_Metal_State_Penalty>
0.262153

> <b_epik_Metal_Only>
0

> <s_lp_Force_Field>
OPLS_2005

> <r_lp_Energy>
34.4391

> <b_lp_Chiralities_Consistent>
1

> <s_lp_Variant>
AV-unprocessed.smi:1804-1

> <Gold.Version>
5.8.1

> <Gold.Id.Protein>
6NUR|6NUR_protein|mol2

> <Gold.PLP.Fitness>
34.1048

> <Gold.PLP.PLP>
-28.6454

> <Gold.PLP.part.hbond>
-2.0000

> <Gold.PLP.part.metal>
0.0000

> <Gold.PLP.part.buried>
-4.5712

> <Gold.PLP.part.nonpolar>
-22.8160

> <Gold.PLP.part.repulsive>
0.3220

> <Gold.PLP.ligand.clash>
0.0000

> <Gold.PLP.ligand.torsion>
0.3042

> <Gold.PLP.Chemscore.Hbond>
1.9920

> <Gold.PLP.Chemscore.CHOScore>
0.0000

> <Gold.PLP.Chemscore.Metal>
0.0000

> <Gold.Chemscore.Hbonds>
donor molecule, donor type, donor heavy atom, donor atom, acceptor molecule, acceptor atom, score
      L1  H     6    29       P1  7948  0.89
      L1  H     9    30       P1  7948  1.00

> <Gold.PLP.Chemscore.Internal.Correction>
0.0918

> <Gold.Rescore>
     Score         DG    S(hbond)    S(metal)    S(lipo)     H(rot)  DE(clash)    DE(int)     intcor
     11.13     -13.86       1.59        0.00      62.33       1.65       0.00       2.73       ----

> <Gold.Chemscore.Fitness>
11.1282

> <Gold.Chemscore.DG>
-13.8566

> <Gold.Chemscore.ZeroCoef>
-5.4800

> <Gold.Chemscore.Hbond>
1.5881

> <Gold.Chemscore.Metal>
0.0000

> <Gold.Chemscore.Lipo>
62.3347

> <Gold.Chemscore.Internal_Hbond>
0.0000

> <Gold.Chemscore.DEClash>
0.0009

> <Gold.Chemscore.DEInternal>
2.7275

> <Gold.Chemscore.Rot>
1.6487

> <Gold.Chemscore.Internal.Correction>
   9.000000E+99

> <Gold.Chemscore.Hbonds>
donor molecule, donor type, donor heavy atom, donor atom, acceptor molecule, acceptor atom, score
      L1  H     6    29       P1  7948  0.55
      L1  H     9    30       P1  7948  0.60

> <Gold.Chemscore.Hbond.Weighted>
-5.3041

> <Gold.Chemscore.Metal.Weighted>
-0.0000

> <Gold.Chemscore.Lipo.Weighted>
-7.2932

> <Gold.Chemscore.Internal_Hbond.Weighted>
0.0000

> <Gold.Chemscore.DEClash.Weighted>
0.0009

> <Gold.Chemscore.DEInternal.Weighted>
2.7275

> <Gold.Chemscore.Rot.Weighted>
4.2207

> <Gold.Chemscore.Internal.Correction.Weighted>
   9.000000E+99

> <Gold.Protein.RotatedTorsions>
[ 6907 6896 6895 6894 ] final  -88.52 input  -60.11 | X-H torsion
[ 7974 7965 7964 7962 ] final  -56.06 input  175.53 | X-H torsion
[ 8008 7997 7996 7995 ] final  125.96 input   59.86 | X-H torsion
[ 10167 10162 10161 10158 ] final  -46.14 input  -65.29 | X-H torsion
[ 10718 10713 10712 10709 ] final    4.74 input   66.30 | X-H torsion
[ 10763 10752 10751 10750 ] final  154.09 input  -60.55 | X-H torsion
[ 11005 11000 10999 10996 ] final   51.20 input  -57.11 | X-H torsion

> <Gold.Protein.ActiveResidues>
 VAL166  LYS551  ARG553  GLY616  TRP617  ASP618  TYR619  PRO620  LYS621  CYS622 
 ASP623  PHE694  ASN695  SER759  ASP760  ASP761  ALA762  ILE779  LEU786  VAL792 
 PHE793  MET794  SER795  GLU796  ALA797  LYS798  CYS799  TRP800  GLU811  SER814 

> <Gold.Protein.RotatedAtoms>
  150.6869  134.2729  159.4595 H   0  0  0  0  0  0  0  0  0  0  0  0  # atno 6907 bound_to 6896
  152.0650  134.9568  160.0584 H   0  0  0  0  0  0  0  0  0  0  0  0  # atno 6908 bound_to 6896
  152.0980  133.4200  159.4611 H   0  0  0  0  0  0  0  0  0  0  0  0  # atno 6909 bound_to 6896
  145.8670  140.8244  142.9908 H   0  0  0  0  0  0  0  0  0  0  0  0  # atno 7974 bound_to 7965
  156.2850  140.2704  156.2033 H   0  0  0  0  0  0  0  0  0  0  0  0  # atno 8008 bound_to 7997
  155.0338  140.0386  157.2502 H   0  0  0  0  0  0  0  0  0  0  0  0  # atno 8009 bound_to 7997
  154.7331  140.2710  155.6443 H   0  0  0  0  0  0  0  0  0  0  0  0  # atno 8010 bound_to 7997
  140.6829  143.2845  151.3740 H   0  0  0  0  0  0  0  0  0  0  0  0  # atno 10167 bound_to 10162
  156.8970  130.5708  149.5648 H   0  0  0  0  0  0  0  0  0  0  0  0  # atno 10718 bound_to 10713
  154.1466  135.2817  155.3146 H   0  0  0  0  0  0  0  0  0  0  0  0  # atno 10763 bound_to 10752
  154.6248  135.5455  153.7618 H   0  0  0  0  0  0  0  0  0  0  0  0  # atno 10764 bound_to 10752
  153.0234  135.6448  154.1612 H   0  0  0  0  0  0  0  0  0  0  0  0  # atno 10765 bound_to 10752
  140.0953  134.5154  155.8813 H   0  0  0  0  0  0  0  0  0  0  0  0  # atno 11005 bound_to 11000
  144.6726  140.1181  143.7451 LP  0  0  0  0  0  0  0  0  0  0  0  0  # atno 17320 bound_to 7965
  145.9181  139.2529  143.1397 LP  0  0  0  0  0  0  0  0  0  0  0  0  # atno 17321 bound_to 7965
  139.6165  144.0992  152.2351 LP  0  0  0  0  0  0  0  0  0  0  0  0  # atno 17342 bound_to 10162
  140.0423  144.5998  150.7401 LP  0  0  0  0  0  0  0  0  0  0  0  0  # atno 17343 bound_to 10162
  156.0600  130.5655  150.9173 LP  0  0  0  0  0  0  0  0  0  0  0  0  # atno 17370 bound_to 10713
  157.6049  131.0939  150.8896 LP  0  0  0  0  0  0  0  0  0  0  0  0  # atno 17371 bound_to 10713
  141.2090  133.6679  156.6410 LP  0  0  0  0  0  0  0  0  0  0  0  0  # atno 17394 bound_to 11000
  140.3295  134.7940  157.4315 LP  0  0  0  0  0  0  0  0  0  0  0  0  # atno 17395 bound_to 11000

$$$$
