AV-unprocessed.smi:1715|AV-procd|sdf|6911|dock4
  -GOLD-   22720 8113D 1   1.00000     0.00000
 Structure written by MMmdl.
 40 41  0  0  0  0  0  0  0  0  1 V2000
  150.4305  137.6878  155.3374 C   0  0  0  0  0  0  0  0  0  0  0  0
  150.6241  138.8156  154.3094 C   0  0  1  0  0  0  0  0  0  0  0  0
  149.3495  139.1344  153.5025 C   0  0  0  0  0  0  0  0  0  0  0  0
  148.3467  139.8498  154.2849 N   0  0  0  0  0  0  0  0  0  0  0  0
  147.1620  140.1335  153.4767 C   0  0  0  0  0  0  0  0  0  0  0  0
  146.8131  139.0559  152.4330 C   0  0  0  0  0  0  0  0  0  0  0  0
  145.4261  138.6252  152.5594 N   0  0  0  0  0  0  0  0  0  0  0  0
  145.0305  137.4063  152.9525 C   0  0  0  0  0  0  0  0  0  0  0  0
  145.8093  136.5012  153.2531 O   0  0  0  0  0  0  0  0  0  0  0  0
  143.6908  137.3108  152.9714 N   0  0  0  0  0  0  0  0  0  0  0  0
  142.9125  136.1811  153.3291 C   0  0  0  0  0  0  0  0  0  0  0  0
  141.5309  136.2230  153.6605 C   0  0  0  0  0  0  0  0  0  0  0  0
  141.0665  135.0162  153.9511 N   0  0  0  0  0  0  0  0  0  0  0  0
  142.1385  134.2044  153.8095 N   0  0  0  0  0  0  0  0  0  0  0  0
  143.2842  134.8698  153.4320 C   0  0  0  0  0  0  0  0  0  0  0  0
  148.9516  141.0571  154.8401 C   0  0  0  0  0  0  0  0  0  0  0  0
  150.1921  140.7391  155.6952 C   0  0  2  0  0  0  0  0  0  0  0  0
  150.8831  142.0087  156.2036 C   0  0  0  0  0  0  0  0  0  0  0  0
  151.1335  140.0046  154.9151 O   0  0  0  0  0  0  0  0  0  0  0  0
  142.0734  133.2095  153.9724 H   0  0  0  0  0  0  0  0  0  0  0  0
  150.1532  136.7565  154.8430 H   0  0  0  0  0  0  0  0  0  0  0  0
  149.6459  137.9187  156.0577 H   0  0  0  0  0  0  0  0  0  0  0  0
  151.3510  137.5058  155.8923 H   0  0  0  0  0  0  0  0  0  0  0  0
  151.3883  138.4784  153.6085 H   0  0  0  0  0  0  0  0  0  0  0  0
  149.6260  139.7358  152.6349 H   0  0  0  0  0  0  0  0  0  0  0  0
  148.9269  138.2086  153.1103 H   0  0  0  0  0  0  0  0  0  0  0  0
  146.3038  140.3030  154.1287 H   0  0  0  0  0  0  0  0  0  0  0  0
  147.3225  141.0725  152.9449 H   0  0  0  0  0  0  0  0  0  0  0  0
  147.0017  139.4254  151.4235 H   0  0  0  0  0  0  0  0  0  0  0  0
  147.4367  138.1723  152.5638 H   0  0  0  0  0  0  0  0  0  0  0  0
  144.7163  139.3059  152.3315 H   0  0  0  0  0  0  0  0  0  0  0  0
  143.1719  138.1331  152.7000 H   0  0  0  0  0  0  0  0  0  0  0  0
  140.8636  137.0715  153.6986 H   0  0  0  0  0  0  0  0  0  0  0  0
  144.2242  134.3613  153.2776 H   0  0  0  0  0  0  0  0  0  0  0  0
  149.2287  141.7360  154.0319 H   0  0  0  0  0  0  0  0  0  0  0  0
  148.2323  141.5887  155.4621 H   0  0  0  0  0  0  0  0  0  0  0  0
  149.8953  140.1429  156.5587 H   0  0  0  0  0  0  0  0  0  0  0  0
  150.2107  142.5993  156.8262 H   0  0  0  0  0  0  0  0  0  0  0  0
  151.2127  142.6372  155.3758 H   0  0  0  0  0  0  0  0  0  0  0  0
  151.7592  141.7612  156.8033 H   0  0  0  0  0  0  0  0  0  0  0  0
  1  2  1  0  0  0  0
  1 21  1  0  0  0  0
  1 22  1  0  0  0  0
  1 23  1  0  0  0  0
  2 19  1  0  0  0  0
  2  3  1  0  0  0  0
  2 24  1  0  0  0  0
  3  4  1  0  0  0  0
  3 25  1  0  0  0  0
  3 26  1  0  0  0  0
  4  5  1  0  0  0  0
  4 16  1  0  0  0  0
  5  6  1  0  0  0  0
  5 27  1  0  0  0  0
  5 28  1  0  0  0  0
  6  7  1  0  0  0  0
  6 29  1  0  0  0  0
  6 30  1  0  0  0  0
  7  8  1  0  0  0  0
  7 31  1  0  0  0  0
  8  9  2  0  0  0  0
  8 10  1  0  0  0  0
 10 11  1  0  0  0  0
 10 32  1  0  0  0  0
 11 15  2  0  0  0  0
 11 12  1  0  0  0  0
 12 13  2  0  0  0  0
 12 33  1  0  0  0  0
 13 14  1  0  0  0  0
 14 20  1  0  0  0  0
 14 15  1  0  0  0  0
 15 34  1  0  0  0  0
 16 17  1  0  0  0  0
 16 35  1  0  0  0  0
 16 36  1  0  0  0  0
 17 18  1  0  0  0  0
 17 19  1  0  0  0  0
 17 37  1  0  0  0  0
 18 38  1  0  0  0  0
 18 39  1  0  0  0  0
 18 40  1  0  0  0  0
M  END
> <s_m_source_file>
AV-unprocessed.smi

> <i_m_source_file_index>
1715

> <i_lp_mmshare_version>
43012

> <i_f3d_flags>
0

> <s_epik_input>
W0NIM11bQ0BASF0xW0NIMl1OKFtDSDJdW0NASF0oTzEpW0NIM10pW0NIMl1bQ0gyXVtOSF1DKD1PKVtOSF1jMltjSF1uW25IXVtjSF0y

> <s_epik_cmdline>
J2VwaWtfcHl0aG9uJywgJy1waCcsICc3LjAnLCAnLXRuJywgJzgnLCAnLW1hJywgJzIwMCcsICctbWV0YWxfYmluZGluZycsICctaW1hZScsICc8aW5maWxlLm1hZT4nLCAnLW9tYWUnLCAnPG91dGZpbGUubWFlPic=

> <r_lp_tautomer_probability>
0.5

> <r_epik_Ionization_Penalty>
0.242771

> <r_epik_Ionization_Penalty_Charging>
0

> <r_epik_Ionization_Penalty_Neutral>
0.242771

> <r_epik_State_Penalty>
0.233765

> <r_epik_Charging_Adjusted_Penalty>
0.233765

> <i_epik_Tot_Q>
0

> <i_epik_Tot_abs_Q>
0

> <r_epik_Metal_State_Penalty>
0.233764

> <b_epik_Metal_Only>
0

> <s_lp_Force_Field>
OPLS_2005

> <r_lp_Energy>
25.0708

> <b_lp_Chiralities_Consistent>
1

> <s_lp_Variant>
AV-unprocessed.smi:1715-3

> <Gold.Version>
5.8.1

> <Gold.Id.Protein>
6NUR|6NUR_protein|mol2

> <Gold.PLP.Fitness>
42.3572

> <Gold.PLP.PLP>
-31.3130

> <Gold.PLP.part.hbond>
-5.3946

> <Gold.PLP.part.metal>
0.0000

> <Gold.PLP.part.buried>
-3.4027

> <Gold.PLP.part.nonpolar>
-23.3469

> <Gold.PLP.part.repulsive>
0.5359

> <Gold.PLP.ligand.clash>
0.0000

> <Gold.PLP.ligand.torsion>
0.7220

> <Gold.PLP.Chemscore.Hbond>
4.1570

> <Gold.PLP.Chemscore.CHOScore>
0.0000

> <Gold.PLP.Chemscore.Metal>
0.0000

> <Gold.Chemscore.Hbonds>
donor molecule, donor type, donor heavy atom, donor atom, acceptor molecule, acceptor atom, score
      L1  H     7    31       P1 10175  1.00
      L1  H    10    32       P1 10175  0.14
      L1  H    14    20       P1 10957  1.00
      P1  H  7989  7998       L1    19  1.00
      P1  H 11000 11005       L1    13  0.93

> <Gold.PLP.Chemscore.Internal.Correction>
0.0174

> <Gold.Rescore>
     Score         DG    S(hbond)    S(metal)    S(lipo)     H(rot)  DE(clash)    DE(int)     intcor
     16.11     -19.77       2.94        0.00      73.77       1.63       1.90       1.76       ----

> <Gold.Chemscore.Fitness>
16.1101

> <Gold.Chemscore.DG>
-19.7704

> <Gold.Chemscore.ZeroCoef>
-5.4800

> <Gold.Chemscore.Hbond>
2.9427

> <Gold.Chemscore.Metal>
0.0000

> <Gold.Chemscore.Lipo>
73.7727

> <Gold.Chemscore.Internal_Hbond>
0.0000

> <Gold.Chemscore.DEClash>
1.8978

> <Gold.Chemscore.DEInternal>
1.7625

> <Gold.Chemscore.Rot>
1.6287

> <Gold.Chemscore.Internal.Correction>
   9.000000E+99

> <Gold.Chemscore.Hbonds>
donor molecule, donor type, donor heavy atom, donor atom, acceptor molecule, acceptor atom, score
      L1  H     7    31       P1 10175  0.95
      L1  H    10    32       P1 10175  0.14
      L1  H    14    20       P1 10957  0.95
      P1  H  7989  7998       L1    19  0.22
      P1  H 11000 11005       L1    13  0.30

> <Gold.Chemscore.Hbond.Weighted>
-9.8285

> <Gold.Chemscore.Metal.Weighted>
-0.0000

> <Gold.Chemscore.Lipo.Weighted>
-8.6314

> <Gold.Chemscore.Internal_Hbond.Weighted>
0.0000

> <Gold.Chemscore.DEClash.Weighted>
1.8978

> <Gold.Chemscore.DEInternal.Weighted>
1.7625

> <Gold.Chemscore.Rot.Weighted>
4.1695

> <Gold.Chemscore.Internal.Correction.Weighted>
   9.000000E+99

> <Gold.Protein.RotatedTorsions>
[ 6907 6896 6895 6894 ] final   91.17 input  -60.11 | X-H torsion
[ 7974 7965 7964 7962 ] final -145.12 input  175.53 | X-H torsion
[ 8008 7997 7996 7995 ] final  105.92 input   59.86 | X-H torsion
[ 10167 10162 10161 10158 ] final  161.17 input  -65.29 | X-H torsion
[ 10718 10713 10712 10709 ] final   -4.37 input   66.30 | X-H torsion
[ 10763 10752 10751 10750 ] final   92.84 input  -60.55 | X-H torsion
[ 11005 11000 10999 10996 ] final   36.42 input  -57.11 | X-H torsion

> <Gold.Protein.ActiveResidues>
 VAL166  LYS551  ARG553  GLY616  TRP617  ASP618  TYR619  PRO620  LYS621  CYS622 
 ASP623  PHE694  ASN695  SER759  ASP760  ASP761  ALA762  ILE779  LEU786  VAL792 
 PHE793  MET794  SER795  GLU796  ALA797  LYS798  CYS799  TRP800  GLU811  SER814 

> <Gold.Protein.RotatedAtoms>
  152.5449  134.1699  159.8592 H   0  0  0  0  0  0  0  0  0  0  0  0  # atno 6907 bound_to 6896
  151.1710  133.4777  159.2601 H   0  0  0  0  0  0  0  0  0  0  0  0  # atno 6908 bound_to 6896
  151.1275  135.0124  159.8622 H   0  0  0  0  0  0  0  0  0  0  0  0  # atno 6909 bound_to 6896
  144.8250  140.5624  143.5553 H   0  0  0  0  0  0  0  0  0  0  0  0  # atno 7974 bound_to 7965
  156.1700  140.3122  155.8956 H   0  0  0  0  0  0  0  0  0  0  0  0  # atno 8008 bound_to 7997
  155.3607  140.0476  157.3063 H   0  0  0  0  0  0  0  0  0  0  0  0  # atno 8009 bound_to 7997
  154.5231  140.2205  155.8950 H   0  0  0  0  0  0  0  0  0  0  0  0  # atno 8010 bound_to 7997
  139.4846  144.4563  151.8764 H   0  0  0  0  0  0  0  0  0  0  0  0  # atno 10167 bound_to 10162
  156.7622  130.5273  149.5783 H   0  0  0  0  0  0  0  0  0  0  0  0  # atno 10718 bound_to 10713
  153.2237  135.4347  155.0518 H   0  0  0  0  0  0  0  0  0  0  0  0  # atno 10763 bound_to 10752
  154.8262  135.3362  154.6890 H   0  0  0  0  0  0  0  0  0  0  0  0  # atno 10764 bound_to 10752
  153.7320  135.7010  153.5043 H   0  0  0  0  0  0  0  0  0  0  0  0  # atno 10765 bound_to 10752
  140.2328  134.3508  155.7957 H   0  0  0  0  0  0  0  0  0  0  0  0  # atno 11005 bound_to 11000
  145.5021  139.1483  143.3651 LP  0  0  0  0  0  0  0  0  0  0  0  0  # atno 17320 bound_to 7965
  146.2555  140.5161  142.8875 LP  0  0  0  0  0  0  0  0  0  0  0  0  # atno 17321 bound_to 7965
  140.4023  144.2477  150.5892 LP  0  0  0  0  0  0  0  0  0  0  0  0  # atno 17342 bound_to 10162
  140.5046  143.2308  151.8628 LP  0  0  0  0  0  0  0  0  0  0  0  0  # atno 17343 bound_to 10162
  156.1331  130.6192  151.0362 LP  0  0  0  0  0  0  0  0  0  0  0  0  # atno 17370 bound_to 10713
  157.6729  131.0857  150.7567 LP  0  0  0  0  0  0  0  0  0  0  0  0  # atno 17371 bound_to 10713
  141.2216  133.7255  156.8758 LP  0  0  0  0  0  0  0  0  0  0  0  0  # atno 17394 bound_to 11000
  140.1733  134.9084  157.2860 LP  0  0  0  0  0  0  0  0  0  0  0  0  # atno 17395 bound_to 11000

$$$$
