AV-unprocessed.smi:2822|AV-procd|sdf|10868|dock10
  -GOLD-   2272015313D 1   1.00000     0.00000
 Structure written by MMmdl.
 40 42  0  0  0  0  0  0  0  0  2 V2000
  147.5179  133.3874  152.2910 Cl  0  0  0  0  0  0  0  0  0  0  0  0
  146.0785  132.9681  151.4286 C   0  0  0  0  0  0  0  0  0  0  0  0
  146.0375  131.7785  150.6732 C   0  0  0  0  0  0  0  0  0  0  0  0
  144.9558  131.3800  149.9716 N   0  0  0  0  0  0  0  0  0  0  0  0
  143.8620  132.1689  150.0020 C   0  0  0  0  0  0  0  0  0  0  0  0
  143.7960  133.3774  150.7241 C   0  0  0  0  0  0  0  0  0  0  0  0
  144.9310  133.7938  151.4592 C   0  0  0  0  0  0  0  0  0  0  0  0
  144.9537  134.9801  152.2084 N   0  0  0  0  0  0  0  0  0  0  0  0
  143.8509  135.9271  152.1485 C   0  0  0  0  0  0  0  0  0  0  0  0
  144.1893  137.2301  152.8860 C   0  0  2  0  0  0  0  0  0  0  0  0
  145.5306  137.8217  152.4151 C   0  0  0  0  0  0  0  0  0  0  0  0
  145.8638  139.0393  153.1904 N   0  3  2  0  0  0  0  0  0  0  0  0
  147.1320  139.6681  152.7417 C   0  0  0  0  0  0  0  0  0  0  0  0
  147.3987  140.9783  153.5005 C   0  0  0  0  0  0  0  0  0  0  0  0
  147.4065  140.7401  155.0160 C   0  0  0  0  0  0  0  0  0  0  0  0
  146.0983  140.0643  155.4487 C   0  0  0  0  0  0  0  0  0  0  0  0
  145.8492  138.7672  154.6536 C   0  0  1  0  0  0  0  0  0  0  0  0
  144.5126  138.1126  155.0540 C   0  0  0  0  0  0  0  0  0  0  0  0
  144.2943  136.9426  154.2764 O   0  0  0  0  0  0  0  0  0  0  0  0
  146.8986  131.1278  150.6307 H   0  0  0  0  0  0  0  0  0  0  0  0
  143.0104  131.8263  149.4329 H   0  0  0  0  0  0  0  0  0  0  0  0
  142.8846  133.9553  150.7015 H   0  0  0  0  0  0  0  0  0  0  0  0
  145.8270  135.2806  152.6180 H   0  0  0  0  0  0  0  0  0  0  0  0
  143.5985  136.1363  151.1082 H   0  0  0  0  0  0  0  0  0  0  0  0
  142.9763  135.4673  152.6101 H   0  0  0  0  0  0  0  0  0  0  0  0
  143.3917  137.9565  152.7158 H   0  0  0  0  0  0  0  0  0  0  0  0
  146.3282  137.0857  152.5298 H   0  0  0  0  0  0  0  0  0  0  0  0
  145.4746  138.0707  151.3545 H   0  0  0  0  0  0  0  0  0  0  0  0
  147.9589  138.9728  152.8940 H   0  0  0  0  0  0  0  0  0  0  0  0
  147.0807  139.8710  151.6712 H   0  0  0  0  0  0  0  0  0  0  0  0
  148.3517  141.4047  153.1858 H   0  0  0  0  0  0  0  0  0  0  0  0
  146.6322  141.7121  153.2480 H   0  0  0  0  0  0  0  0  0  0  0  0
  148.2549  140.1102  155.2867 H   0  0  0  0  0  0  0  0  0  0  0  0
  147.5364  141.6842  155.5461 H   0  0  0  0  0  0  0  0  0  0  0  0
  146.1330  139.8480  156.5172 H   0  0  0  0  0  0  0  0  0  0  0  0
  145.2668  140.7551  155.3005 H   0  0  0  0  0  0  0  0  0  0  0  0
  146.6539  138.0633  154.8737 H   0  0  0  0  0  0  0  0  0  0  0  0
  144.5324  137.8312  156.1072 H   0  0  0  0  0  0  0  0  0  0  0  0
  143.6792  138.8058  154.9267 H   0  0  0  0  0  0  0  0  0  0  0  0
  145.1284  139.7085  153.0122 H   0  0  0  0  0  0  0  0  0  0  0  0
  1  2  1  0  0  0  0
  2  7  1  0  0  0  0
  2  3  2  0  0  0  0
  3  4  1  0  0  0  0
  3 20  1  0  0  0  0
  4  5  2  0  0  0  0
  5  6  1  0  0  0  0
  5 21  1  0  0  0  0
  6  7  2  0  0  0  0
  6 22  1  0  0  0  0
  7  8  1  0  0  0  0
  8  9  1  0  0  0  0
  8 23  1  0  0  0  0
  9 10  1  0  0  0  0
  9 24  1  0  0  0  0
  9 25  1  0  0  0  0
 10 19  1  0  0  0  0
 10 11  1  0  0  0  0
 10 26  1  0  0  0  0
 11 12  1  0  0  0  0
 11 27  1  0  0  0  0
 11 28  1  0  0  0  0
 12 17  1  0  0  0  0
 12 13  1  0  0  0  0
 12 40  1  0  0  0  0
 13 14  1  0  0  0  0
 13 29  1  0  0  0  0
 13 30  1  0  0  0  0
 14 15  1  0  0  0  0
 14 31  1  0  0  0  0
 14 32  1  0  0  0  0
 15 16  1  0  0  0  0
 15 33  1  0  0  0  0
 15 34  1  0  0  0  0
 16 17  1  0  0  0  0
 16 35  1  0  0  0  0
 16 36  1  0  0  0  0
 17 18  1  0  0  0  0
 17 37  1  0  0  0  0
 18 19  1  0  0  0  0
 18 38  1  0  0  0  0
 18 39  1  0  0  0  0
M  CHG  1  12   1
M  END
> <s_m_source_file>
AV-unprocessed.smi

> <i_m_source_file_index>
2822

> <i_lp_mmshare_version>
43012

> <i_f3d_flags>
0

> <s_epik_input>
Q2xjMVtjSF1uW2NIXVtjSF1jMVtOSF1bQ0gyXVtDQEhdKFtDSDJdMilPW0NIMl1bQ0BASF0oTjIzKVtDSDJdW0NIMl1bQ0gyXVtDSDJdMw==

> <s_epik_cmdline>
J2VwaWtfcHl0aG9uJywgJy1waCcsICc3LjAnLCAnLXRuJywgJzgnLCAnLW1hJywgJzIwMCcsICctbWV0YWxfYmluZGluZycsICctaW1hZScsICc8aW5maWxlLm1hZT4nLCAnLW9tYWUnLCAnPG91dGZpbGUubWFlPic=

> <r_lp_tautomer_probability>
0.999999

> <r_epik_Ionization_Penalty>
0.88937

> <r_epik_Ionization_Penalty_Charging>
0.0803403

> <r_epik_Ionization_Penalty_Neutral>
0.80903

> <r_epik_State_Penalty>
0.931884

> <r_epik_Charging_Adjusted_Penalty>
1.01222

> <i_epik_Tot_Q>
1

> <i_epik_Tot_abs_Q>
1

> <r_epik_Metal_State_Penalty>
0.0782275

> <b_epik_Metal_Only>
0

> <s_lp_Force_Field>
OPLS_2005

> <r_lp_Energy>
28.742

> <b_lp_Chiralities_Consistent>
1

> <s_lp_Variant>
AV-unprocessed.smi:2822-9

> <Gold.Version>
5.8.1

> <Gold.Id.Protein>
6NUR|6NUR_protein|mol2

> <Gold.PLP.Fitness>
38.4739

> <Gold.PLP.PLP>
-26.6248

> <Gold.PLP.part.hbond>
-1.9809

> <Gold.PLP.part.metal>
0.0000

> <Gold.PLP.part.buried>
0.4004

> <Gold.PLP.part.nonpolar>
-25.3929

> <Gold.PLP.part.repulsive>
0.1645

> <Gold.PLP.ligand.clash>
0.0000

> <Gold.PLP.ligand.torsion>
0.0734

> <Gold.PLP.Chemscore.Hbond>
2.0000

> <Gold.PLP.Chemscore.CHOScore>
1.9985

> <Gold.PLP.Chemscore.Metal>
0.0000

> <Gold.Chemscore.Hbonds>
donor molecule, donor type, donor heavy atom, donor atom, acceptor molecule, acceptor atom, score
      L1  H    12    40       P1 10175  2.00
      L1  C     3    20       P1 10747  1.00
      L1  C     5    21       P1 10952  0.71

> <Gold.PLP.Chemscore.Internal.Correction>
0.0003

> <Gold.Rescore>
     Score         DG    S(hbond)    S(metal)    S(lipo)     H(rot)  DE(clash)    DE(int)     intcor
     14.74     -15.21       1.00        0.00      80.27       1.17       0.39       0.08       ----

> <Gold.Chemscore.Fitness>
14.7384

> <Gold.Chemscore.DG>
-15.2108

> <Gold.Chemscore.ZeroCoef>
-5.4800

> <Gold.Chemscore.Hbond>
0.9978

> <Gold.Chemscore.Metal>
0.0000

> <Gold.Chemscore.Lipo>
80.2701

> <Gold.Chemscore.Internal_Hbond>
0.0000

> <Gold.Chemscore.DEClash>
0.3927

> <Gold.Chemscore.DEInternal>
0.0796

> <Gold.Chemscore.Rot>
1.1693

> <Gold.Chemscore.Internal.Correction>
   9.000000E+99

> <Gold.Chemscore.Hbonds>
donor molecule, donor type, donor heavy atom, donor atom, acceptor molecule, acceptor atom, score
      L1  H    12    40       P1 10175  1.00

> <Gold.Chemscore.Hbond.Weighted>
-3.3325

> <Gold.Chemscore.Metal.Weighted>
-0.0000

> <Gold.Chemscore.Lipo.Weighted>
-9.3916

> <Gold.Chemscore.Internal_Hbond.Weighted>
0.0000

> <Gold.Chemscore.DEClash.Weighted>
0.3927

> <Gold.Chemscore.DEInternal.Weighted>
0.0796

> <Gold.Chemscore.Rot.Weighted>
2.9934

> <Gold.Chemscore.Internal.Correction.Weighted>
   9.000000E+99

> <Gold.Protein.RotatedTorsions>
[ 6907 6896 6895 6894 ] final   99.89 input  -60.11 | X-H torsion
[ 7974 7965 7964 7962 ] final   -9.88 input  175.53 | X-H torsion
[ 8008 7997 7996 7995 ] final   26.98 input   59.86 | X-H torsion
[ 10167 10162 10161 10158 ] final  -17.76 input  -65.29 | X-H torsion
[ 10718 10713 10712 10709 ] final  -58.50 input   66.30 | X-H torsion
[ 10763 10752 10751 10750 ] final   93.06 input  -60.55 | X-H torsion
[ 11005 11000 10999 10996 ] final   99.12 input  -57.11 | X-H torsion

> <Gold.Protein.ActiveResidues>
 VAL166  LYS551  ARG553  GLY616  TRP617  ASP618  TYR619  PRO620  LYS621  CYS622 
 ASP623  PHE694  ASN695  SER759  ASP760  ASP761  ALA762  ILE779  LEU786  VAL792 
 PHE793  MET794  SER795  GLU796  ALA797  LYS798  CYS799  TRP800  GLU811  SER814 

> <Gold.Protein.RotatedAtoms>
  152.5383  134.0359  159.8045 H   0  0  0  0  0  0  0  0  0  0  0  0  # atno 6907 bound_to 6896
  151.0523  133.5606  159.2648 H   0  0  0  0  0  0  0  0  0  0  0  0  # atno 6908 bound_to 6896
  151.2536  135.0638  159.9125 H   0  0  0  0  0  0  0  0  0  0  0  0  # atno 6909 bound_to 6896
  146.2238  140.2682  142.8355 H   0  0  0  0  0  0  0  0  0  0  0  0  # atno 7974 bound_to 7965
  155.0358  140.3163  155.4742 H   0  0  0  0  0  0  0  0  0  0  0  0  # atno 8008 bound_to 7997
  156.2865  140.2172  156.5423 H   0  0  0  0  0  0  0  0  0  0  0  0  # atno 8009 bound_to 7997
  154.7332  140.0479  157.0732 H   0  0  0  0  0  0  0  0  0  0  0  0  # atno 8010 bound_to 7997
  140.7251  143.4983  150.9902 H   0  0  0  0  0  0  0  0  0  0  0  0  # atno 10167 bound_to 10162
  156.1130  130.4173  150.0586 H   0  0  0  0  0  0  0  0  0  0  0  0  # atno 10718 bound_to 10713
  153.2261  135.4339  155.0543 H   0  0  0  0  0  0  0  0  0  0  0  0  # atno 10763 bound_to 10752
  154.8274  135.3368  154.6856 H   0  0  0  0  0  0  0  0  0  0  0  0  # atno 10764 bound_to 10752
  153.7286  135.7012  153.5051 H   0  0  0  0  0  0  0  0  0  0  0  0  # atno 10765 bound_to 10752
  139.8771  134.9081  156.4558 H   0  0  0  0  0  0  0  0  0  0  0  0  # atno 11005 bound_to 11000
  144.9288  140.7951  143.5702 LP  0  0  0  0  0  0  0  0  0  0  0  0  # atno 17320 bound_to 7965
  145.2624  139.1987  143.4885 LP  0  0  0  0  0  0  0  0  0  0  0  0  # atno 17321 bound_to 7965
  139.8691  143.7215  152.3168 LP  0  0  0  0  0  0  0  0  0  0  0  0  # atno 17342 bound_to 10162
  139.7458  144.7547  151.0582 LP  0  0  0  0  0  0  0  0  0  0  0  0  # atno 17343 bound_to 10162
  156.8544  130.9470  151.3623 LP  0  0  0  0  0  0  0  0  0  0  0  0  # atno 17370 bound_to 10713
  157.6313  130.8731  149.9278 LP  0  0  0  0  0  0  0  0  0  0  0  0  # atno 17371 bound_to 10713
  140.8899  133.7855  155.9560 LP  0  0  0  0  0  0  0  0  0  0  0  0  # atno 17394 bound_to 11000
  140.8764  134.2664  157.5166 LP  0  0  0  0  0  0  0  0  0  0  0  0  # atno 17395 bound_to 11000

$$$$
