AV-unprocessed.smi:265|AV-procd|sdf|2026|dock10
  -GOLD-   2262021233D 1   1.00000     0.00000
 Structure written by MMmdl.
 52 56  0  0  0  0  0  0  0  0  1 V2000
  150.9029  141.7334  156.8878 C   0  0  0  0  0  0  0  0  0  0  0  0
  151.3263  140.7609  155.7767 C   0  0  1  0  0  0  0  0  0  0  0  0
  152.1007  139.6902  156.3109 O   0  0  0  0  0  0  0  0  0  0  0  0
  151.8514  138.4915  155.5819 C   0  0  0  0  0  0  0  0  0  0  0  0
  150.9575  138.8958  154.4133 C   0  0  0  0  0  0  0  0  0  0  0  0
  150.1954  140.0901  154.9739 C   0  0  2  0  0  0  0  0  0  0  0  0
  149.7952  140.9198  153.8999 O   0  0  0  0  0  0  0  0  0  0  0  0
  148.9570  139.7032  155.8289 C   0  0  0  0  0  0  0  0  0  0  0  0
  147.9763  138.8952  155.1217 N   0  0  0  0  0  0  0  0  0  0  0  0
  146.8568  139.3484  154.4612 C   0  0  0  0  0  0  0  0  0  0  0  0
  146.1281  138.4223  153.9006 N   0  0  0  0  0  0  0  0  0  0  0  0
  146.8065  137.2412  154.1787 C   0  0  0  0  0  0  0  0  0  0  0  0
  146.5765  135.8702  153.8718 C   0  0  0  0  0  0  0  0  0  0  0  0
  145.5125  135.4518  153.1399 N   0  0  0  0  0  0  0  0  0  0  0  0
  144.3988  134.8275  153.8537 C   0  0  0  0  0  0  0  0  0  0  0  0
  143.1422  134.7854  152.9705 C   0  0  0  0  0  0  0  0  0  0  0  0
  143.4198  134.1235  151.6110 C   0  0  2  0  0  0  0  0  0  0  0  0
  143.6809  132.7365  151.7826 O   0  0  0  0  0  0  0  0  0  0  0  0
  143.7710  132.0107  150.5553 C   0  0  0  0  0  0  0  0  0  0  0  0
  144.7029  132.6940  149.5369 C   0  0  0  0  0  0  0  0  0  0  0  0
  145.1123  132.0661  148.5634 O   0  0  0  0  0  0  0  0  0  0  0  0
  145.0091  133.9872  149.7280 N   0  0  0  0  0  0  0  0  0  0  0  0
  144.6519  134.7481  150.9206 C   0  0  2  0  0  0  0  0  0  0  0  0
  145.8630  134.8121  151.8733 C   0  0  0  0  0  0  0  0  0  0  0  0
  147.4779  134.9655  154.3402 N   0  0  0  0  0  0  0  0  0  0  0  0
  148.5360  135.3706  155.0485 C   0  0  0  0  0  0  0  0  0  0  0  0
  148.8784  136.6108  155.4015 N   0  0  0  0  0  0  0  0  0  0  0  0
  147.9722  137.5224  154.9462 C   0  0  0  0  0  0  0  0  0  0  0  0
  142.5350  134.2392  150.9820 H   0  0  0  0  0  0  0  0  0  0  0  0
  144.4020  135.7627  150.6081 H   0  0  0  0  0  0  0  0  0  0  0  0
  150.2799  142.5351  156.4906 H   0  0  0  0  0  0  0  0  0  0  0  0
  151.7768  142.1919  157.3507 H   0  0  0  0  0  0  0  0  0  0  0  0
  150.3451  141.2288  157.6765 H   0  0  0  0  0  0  0  0  0  0  0  0
  151.9820  141.2921  155.0836 H   0  0  0  0  0  0  0  0  0  0  0  0
  152.7805  138.0274  155.2507 H   0  0  0  0  0  0  0  0  0  0  0  0
  151.3353  137.7867  156.2345 H   0  0  0  0  0  0  0  0  0  0  0  0
  151.5901  139.2102  153.5811 H   0  0  0  0  0  0  0  0  0  0  0  0
  150.3316  138.0825  154.0490 H   0  0  0  0  0  0  0  0  0  0  0  0
  150.0387  140.5001  153.0888 H   0  0  0  0  0  0  0  0  0  0  0  0
  149.2667  139.1528  156.7180 H   0  0  0  0  0  0  0  0  0  0  0  0
  148.4500  140.5987  156.1899 H   0  0  0  0  0  0  0  0  0  0  0  0
  146.5906  140.3946  154.4160 H   0  0  0  0  0  0  0  0  0  0  0  0
  144.6813  133.8159  154.1488 H   0  0  0  0  0  0  0  0  0  0  0  0
  144.1785  135.3807  154.7677 H   0  0  0  0  0  0  0  0  0  0  0  0
  142.3373  134.2617  153.4868 H   0  0  0  0  0  0  0  0  0  0  0  0
  142.7904  135.8045  152.8057 H   0  0  0  0  0  0  0  0  0  0  0  0
  144.1299  131.0028  150.7642 H   0  0  0  0  0  0  0  0  0  0  0  0
  142.7771  131.9157  150.1165 H   0  0  0  0  0  0  0  0  0  0  0  0
  145.5893  134.4476  149.0418 H   0  0  0  0  0  0  0  0  0  0  0  0
  146.6838  135.3299  151.3779 H   0  0  0  0  0  0  0  0  0  0  0  0
  146.2216  133.8047  152.0900 H   0  0  0  0  0  0  0  0  0  0  0  0
  149.2037  134.5891  155.3801 H   0  0  0  0  0  0  0  0  0  0  0  0
  1  2  1  0  0  0  0
  1 31  1  0  0  0  0
  1 32  1  0  0  0  0
  1 33  1  0  0  0  0
  2  6  1  0  0  0  0
  2  3  1  0  0  0  0
  2 34  1  0  0  0  0
  3  4  1  0  0  0  0
  4  5  1  0  0  0  0
  4 35  1  0  0  0  0
  4 36  1  0  0  0  0
  5  6  1  0  0  0  0
  5 37  1  0  0  0  0
  5 38  1  0  0  0  0
  6  7  1  0  0  0  0
  6  8  1  0  0  0  0
  7 39  1  0  0  0  0
  8  9  1  0  0  0  0
  8 40  1  0  0  0  0
  8 41  1  0  0  0  0
  9 28  1  0  0  0  0
  9 10  1  0  0  0  0
 10 11  2  0  0  0  0
 10 42  1  0  0  0  0
 11 12  1  0  0  0  0
 12 28  2  0  0  0  0
 12 13  1  0  0  0  0
 13 14  1  0  0  0  0
 13 25  2  0  0  0  0
 14 24  1  0  0  0  0
 14 15  1  0  0  0  0
 15 16  1  0  0  0  0
 15 43  1  0  0  0  0
 15 44  1  0  0  0  0
 16 17  1  0  0  0  0
 16 45  1  0  0  0  0
 16 46  1  0  0  0  0
 17 29  1  0  0  0  0
 17 23  1  0  0  0  0
 17 18  1  0  0  0  0
 18 19  1  0  0  0  0
 19 20  1  0  0  0  0
 19 47  1  0  0  0  0
 19 48  1  0  0  0  0
 20 21  2  0  0  0  0
 20 22  1  0  0  0  0
 22 23  1  0  0  0  0
 22 49  1  0  0  0  0
 23 30  1  0  0  0  0
 23 24  1  0  0  0  0
 24 50  1  0  0  0  0
 24 51  1  0  0  0  0
 25 26  1  0  0  0  0
 26 27  2  0  0  0  0
 26 52  1  0  0  0  0
 27 28  1  0  0  0  0
M  END
> <s_m_source_file>
AV-unprocessed.smi

> <i_m_source_file_index>
265

> <i_lp_mmshare_version>
43012

> <i_f3d_flags>
0

> <s_epik_input>
W0NIMl0xW0NIMl1PW0NAQEhdKFtDSDNdKVtDQEBdMShbT0hdKVtDSDJdbihbY0hdbjIpYyhjMjMpbltjSF1uYzNOKFtDSDJdW0NIMl00KVtDSDJdW0NAQEhdKFtDQEhdNDUpW05IXUMoPU8pW0NIMl1PNQ==

> <s_epik_cmdline>
J2VwaWtfcHl0aG9uJywgJy1waCcsICc3LjAnLCAnLXRuJywgJzgnLCAnLW1hJywgJzIwMCcsICctbWV0YWxfYmluZGluZycsICctaW1hZScsICc8aW5maWxlLm1hZT4nLCAnLW9tYWUnLCAnPG91dGZpbGUubWFlPic=

> <r_lp_tautomer_probability>
1

> <r_epik_Ionization_Penalty>
0.00221504

> <r_epik_Ionization_Penalty_Charging>
0

> <r_epik_Ionization_Penalty_Neutral>
0.00221504

> <r_epik_State_Penalty>
-0

> <r_epik_Charging_Adjusted_Penalty>
0

> <i_epik_Tot_Q>
0

> <i_epik_Tot_abs_Q>
0

> <r_epik_Metal_State_Penalty>
-0

> <b_epik_Metal_Only>
0

> <s_lp_Force_Field>
OPLS_2005

> <r_lp_Energy>
44.4274

> <b_lp_Chiralities_Consistent>
1

> <s_lp_Variant>
AV-unprocessed.smi:265-12

> <Gold.Version>
5.8.1

> <Gold.Id.Protein>
6NUR|6NUR_protein|mol2

> <Gold.PLP.Fitness>
42.6838

> <Gold.PLP.PLP>
-36.3388

> <Gold.PLP.part.hbond>
-5.5125

> <Gold.PLP.part.metal>
0.0000

> <Gold.PLP.part.buried>
-0.8622

> <Gold.PLP.part.nonpolar>
-27.9188

> <Gold.PLP.part.repulsive>
1.8686

> <Gold.PLP.ligand.clash>
0.0000

> <Gold.PLP.ligand.torsion>
0.5959

> <Gold.PLP.Chemscore.Hbond>
2.3900

> <Gold.PLP.Chemscore.CHOScore>
0.0000

> <Gold.PLP.Chemscore.Metal>
0.0000

> <Gold.Chemscore.Hbonds>
donor molecule, donor type, donor heavy atom, donor atom, acceptor molecule, acceptor atom, score
      L1  H     7    39       P1  7957  0.99
      L1  H    22    49       P1  7921  1.00
      P1  H  7997  8010       L1     3  0.39

> <Gold.PLP.Chemscore.Internal.Correction>
0.3669

> <Gold.Rescore>
     Score         DG    S(hbond)    S(metal)    S(lipo)     H(rot)  DE(clash)    DE(int)     intcor
     14.43     -15.15       2.08        0.00      72.43       2.25       0.10       0.61       ----

> <Gold.Chemscore.Fitness>
14.4296

> <Gold.Chemscore.DG>
-15.1469

> <Gold.Chemscore.ZeroCoef>
-5.4800

> <Gold.Chemscore.Hbond>
2.0782

> <Gold.Chemscore.Metal>
0.0000

> <Gold.Chemscore.Lipo>
72.4253

> <Gold.Chemscore.Internal_Hbond>
0.0000

> <Gold.Chemscore.DEClash>
0.1042

> <Gold.Chemscore.DEInternal>
0.6131

> <Gold.Chemscore.Rot>
2.2453

> <Gold.Chemscore.Internal.Correction>
   9.000000E+99

> <Gold.Chemscore.Hbonds>
donor molecule, donor type, donor heavy atom, donor atom, acceptor molecule, acceptor atom, score
      L1  H     7    39       P1  7957  0.89
      L1  H    22    49       P1  7921  0.89
      P1  H  7997  8010       L1     3  0.25

> <Gold.Chemscore.Hbond.Weighted>
-6.9410

> <Gold.Chemscore.Metal.Weighted>
-0.0000

> <Gold.Chemscore.Lipo.Weighted>
-8.4738

> <Gold.Chemscore.Internal_Hbond.Weighted>
0.0000

> <Gold.Chemscore.DEClash.Weighted>
0.1042

> <Gold.Chemscore.DEInternal.Weighted>
0.6131

> <Gold.Chemscore.Rot.Weighted>
5.7479

> <Gold.Chemscore.Internal.Correction.Weighted>
   9.000000E+99

> <Gold.Protein.RotatedTorsions>
[ 6907 6896 6895 6894 ] final   84.69 input  -60.11 | X-H torsion
[ 7974 7965 7964 7962 ] final -144.86 input  175.53 | X-H torsion
[ 8008 7997 7996 7995 ] final   76.15 input   59.86 | X-H torsion
[ 10167 10162 10161 10158 ] final  -86.81 input  -65.29 | X-H torsion
[ 10718 10713 10712 10709 ] final -130.11 input   66.30 | X-H torsion
[ 10763 10752 10751 10750 ] final -103.91 input  -60.55 | X-H torsion
[ 11005 11000 10999 10996 ] final -157.00 input  -57.11 | X-H torsion

> <Gold.Protein.ActiveResidues>
 VAL166  LYS551  ARG553  GLY616  TRP617  ASP618  TYR619  PRO620  LYS621  CYS622 
 ASP623  PHE694  ASN695  SER759  ASP760  ASP761  ALA762  ILE779  LEU786  VAL792 
 PHE793  MET794  SER795  GLU796  ALA797  LYS798  CYS799  TRP800  GLU811  SER814 

> <Gold.Protein.RotatedAtoms>
  152.5358  134.2702  159.8968 H   0  0  0  0  0  0  0  0  0  0  0  0  # atno 6907 bound_to 6896
  151.2658  133.4272  159.2626 H   0  0  0  0  0  0  0  0  0  0  0  0  # atno 6908 bound_to 6896
  151.0411  134.9623  159.8219 H   0  0  0  0  0  0  0  0  0  0  0  0  # atno 6909 bound_to 6896
  144.8268  140.5657  143.5542 H   0  0  0  0  0  0  0  0  0  0  0  0  # atno 7974 bound_to 7965
  155.8232  140.3469  155.5527 H   0  0  0  0  0  0  0  0  0  0  0  0  # atno 8008 bound_to 7997
  155.8320  140.0928  157.1807 H   0  0  0  0  0  0  0  0  0  0  0  0  # atno 8009 bound_to 7997
  154.4004  140.1410  156.3612 H   0  0  0  0  0  0  0  0  0  0  0  0  # atno 8010 bound_to 7997
  140.3905  143.2707  151.9270 H   0  0  0  0  0  0  0  0  0  0  0  0  # atno 10167 bound_to 10162
  156.2112  130.6919  151.0651 H   0  0  0  0  0  0  0  0  0  0  0  0  # atno 10718 bound_to 10713
  154.7841  135.4806  153.9907 H   0  0  0  0  0  0  0  0  0  0  0  0  # atno 10763 bound_to 10752
  153.1534  135.6795  153.8855 H   0  0  0  0  0  0  0  0  0  0  0  0  # atno 10764 bound_to 10752
  153.8492  135.3169  155.3409 H   0  0  0  0  0  0  0  0  0  0  0  0  # atno 10765 bound_to 10752
  140.6694  134.4263  157.5232 H   0  0  0  0  0  0  0  0  0  0  0  0  # atno 11005 bound_to 11000
  145.4983  139.1484  143.3671 LP  0  0  0  0  0  0  0  0  0  0  0  0  # atno 17320 bound_to 7965
  146.2573  140.5122  142.8868 LP  0  0  0  0  0  0  0  0  0  0  0  0  # atno 17321 bound_to 7965
  139.4789  144.5732  151.8055 LP  0  0  0  0  0  0  0  0  0  0  0  0  # atno 17342 bound_to 10162
  140.4844  144.1402  150.5938 LP  0  0  0  0  0  0  0  0  0  0  0  0  # atno 17343 bound_to 10162
  157.7039  131.0764  150.6730 LP  0  0  0  0  0  0  0  0  0  0  0  0  # atno 17370 bound_to 10713
  156.6790  130.4561  149.5633 LP  0  0  0  0  0  0  0  0  0  0  0  0  # atno 17371 bound_to 10713
  139.8986  134.8609  156.1993 LP  0  0  0  0  0  0  0  0  0  0  0  0  # atno 17394 bound_to 11000
  141.0404  133.6941  156.1587 LP  0  0  0  0  0  0  0  0  0  0  0  0  # atno 17395 bound_to 11000

$$$$
