#       Name:                AV-unprocessed.smi:148
#       Creating user name   scv26
#       Creation time:       Thu Mar 26 18:43:09 2020


#       File generated by GOLD software.
#

@<TRIPOS>MOLECULE
AV-unprocessed.smi:148
    73    77     1
SMALL
NO_CHARGES


@<TRIPOS>ATOM
      1 ****        -4.5866  -3.0657  -1.1034 O.3            1 S1                 0.0000
      2 ****        -3.2472  -2.6672  -1.3096 C.3            1 S1                 0.0000
      3 ****        -3.1238  -1.7093  -2.5203 C.3            1 S1                 0.0000
      4 ****        -1.7048  -1.0945  -2.6418 C.3            1 S1                 0.0000
      5 ****        -1.2412  -0.4677  -1.4162 N.pl3          1 S1                 0.0000
      6 ****        -1.6296   0.7567  -0.9202 C.2            1 S1                 0.0000
      7 ****        -1.0592   1.1100   0.1999 N.2            1 S1                 0.0000
      8 ****        -0.2138   0.0485   0.4953 C.ar           1 S1                 0.0000
      9 ****         0.7010  -0.2217   1.5459 C.ar           1 S1                 0.0000
     10 ****         0.9175   0.6565   2.5522 N.3            1 S1                 0.0000
     11 ****         0.2527   0.1892   3.7699 C.3            1 S1                 0.0000
     12 ****         0.3099   1.2400   4.8862 C.3            1 S1                 0.0000
     13 ****         1.7609   1.6503   5.1553 C.3            1 S1                 0.0000
     14 ****         2.4007   2.1616   3.8592 C.3            1 S1                 0.0000
     15 ****         2.3120   1.1115   2.7185 C.3            1 S1                 0.0000
     16 ****         2.9809   1.5918   1.3834 C.3            1 S1                 0.0000
     17 ****         4.5109   1.7750   1.5154 C.3            1 S1                 0.0000
     18 ****         4.8419   3.1913   1.0262 C.3            1 S1                 0.0000
     19 ****         3.5297   3.9653   1.1165 C.3            1 S1                 0.0000
     20 ****         2.4800   2.9168   0.7556 C.3            1 S1                 0.0000
     21 ****         1.1727   3.3228   1.1057 O.3            1 S1                 0.0000
     22 ****         1.3765  -1.4014   1.5156 N.ar           1 S1                 0.0000
     23 ****         1.1749  -2.2591   0.5107 C.ar           1 S1                 0.0000
     24 ****         0.3635  -2.1357  -0.5424 N.ar           1 S1                 0.0000
     25 ****        -0.3170  -0.9539  -0.5083 C.ar           1 S1                 0.0000
     26 ****        -3.6229  -2.3824  -3.8308 C.3            1 S1                 0.0000
     27 ****        -3.6200  -1.5283  -5.0862 C.3            1 S1                 0.0000
     28 ****        -3.8212  -2.5872  -6.1639 C.3            1 S1                 0.0000
     29 ****        -3.0996  -3.7261  -5.7061 O.3            1 S1                 0.0000
     30 ****        -2.8629  -3.6276  -4.3030 C.3            1 S1                 0.0000
     31 ****        -4.6150  -3.6545  -0.3648 H              1 S1                 0.0000
     32 ****        -2.9166  -2.1889  -0.3881 H              1 S1                 0.0000
     33 ****        -2.6245  -3.5514  -1.4477 H              1 S1                 0.0000
     34 ****        -3.7990  -0.8745  -2.3257 H              1 S1                 0.0000
     35 ****        -0.9761  -1.8507  -2.9312 H              1 S1                 0.0000
     36 ****        -1.6799  -0.3295  -3.4168 H              1 S1                 0.0000
     37 ****        -2.3538   1.3834  -1.4201 H              1 S1                 0.0000
     38 ****        -0.7892  -0.0520   3.5533 H              1 S1                 0.0000
     39 ****         0.7269  -0.7320   4.1125 H              1 S1                 0.0000
     40 ****        -0.2751   2.1151   4.6000 H              1 S1                 0.0000
     41 ****        -0.1434   0.8445   5.7954 H              1 S1                 0.0000
     42 ****         1.7977   2.4228   5.9240 H              1 S1                 0.0000
     43 ****         2.3249   0.7986   5.5372 H              1 S1                 0.0000
     44 ****         1.8957   3.0830   3.5729 H              1 S1                 0.0000
     45 ****         3.4349   2.4355   4.0615 H              1 S1                 0.0000
     46 ****         2.8730   0.2378   3.0540 H              1 S1                 0.0000
     47 ****         2.8427   0.8156   0.6310 H              1 S1                 0.0000
     48 ****         4.8455   1.6479   2.5441 H              1 S1                 0.0000
     49 ****         5.0496   1.0306   0.9281 H              1 S1                 0.0000
     50 ****         5.6410   3.6565   1.6040 H              1 S1                 0.0000
     51 ****         5.1679   3.1507  -0.0140 H              1 S1                 0.0000
     52 ****         3.3821   4.3247   2.1354 H              1 S1                 0.0000
     53 ****         3.5061   4.8292   0.4516 H              1 S1                 0.0000
     54 ****         2.4894   2.7976  -0.3290 H              1 S1                 0.0000
     55 ****         0.5683   2.6383   0.8605 H              1 S1                 0.0000
     56 ****         1.7479  -3.1736   0.5549 H              1 S1                 0.0000
     57 ****        -4.6606  -2.6825  -3.6763 H              1 S1                 0.0000
     58 ****        -4.3992  -0.7658  -5.0895 H              1 S1                 0.0000
     59 ****        -2.6595  -1.0400  -5.2449 H              1 S1                 0.0000
     60 ****        -4.8764  -2.8511  -6.2466 H              1 S1                 0.0000
     61 ****        -3.4746  -2.2613  -7.1447 H              1 S1                 0.0000
     62 ****        -1.7885  -3.5346  -4.1504 H              1 S1                 0.0000
     63 ****        -3.1963  -4.5289  -3.7880 H              1 S1                 0.0000
     64 ****        -4.9291  -3.5316  -1.9193 LP             1 S1                 0.0000
     65 ****        -5.1522  -2.2626  -0.9162 LP             1 S1                 0.0000
     66 ****        -1.1988   1.9503   0.7237 LP             1 S1                 0.0000
     67 ****         0.4854   1.5193   2.2898 LP             1 S1                 0.0000
     68 ****         0.9408   4.1664   0.6212 LP             1 S1                 0.0000
     69 ****         1.1215   3.4800   2.0919 LP             1 S1                 0.0000
     70 ****         2.0232  -1.6269   2.2442 LP             1 S1                 0.0000
     71 ****         0.2670  -2.8216  -1.2637 LP             1 S1                 0.0000
     72 ****        -2.2238  -3.7772  -6.1861 LP             1 S1                 0.0000
     73 ****        -3.6315  -4.5518  -5.8943 LP             1 S1                 0.0000
@<TRIPOS>BOND
    1    1    2 1     
    2    1   31 1     
    3    2    3 1     
    4    2   32 1     
    5    2   33 1     
    6    3    4 1     
    7    3   26 1     
    8    3   34 1     
    9    4    5 1     
   10    4   35 1     
   11    4   36 1     
   12    5   25 1     
   13    5    6 1     
   14    6    7 2     
   15    6   37 1     
   16    7    8 1     
   17    8   25 ar    
   18    8    9 ar    
   19    9   10 1     
   20    9   22 ar    
   21   10   15 1     
   22   10   11 1     
   23   11   12 1     
   24   11   38 1     
   25   11   39 1     
   26   12   13 1     
   27   12   40 1     
   28   12   41 1     
   29   13   14 1     
   30   13   42 1     
   31   13   43 1     
   32   14   15 1     
   33   14   44 1     
   34   14   45 1     
   35   15   16 1     
   36   15   46 1     
   37   16   20 1     
   38   16   17 1     
   39   16   47 1     
   40   17   18 1     
   41   17   48 1     
   42   17   49 1     
   43   18   19 1     
   44   18   50 1     
   45   18   51 1     
   46   19   20 1     
   47   19   52 1     
   48   19   53 1     
   49   20   21 1     
   50   20   54 1     
   51   21   55 1     
   52   22   23 ar    
   53   23   24 ar    
   54   23   56 1     
   55   24   25 ar    
   56   26   30 1     
   57   26   27 1     
   58   26   57 1     
   59   27   28 1     
   60   27   58 1     
   61   27   59 1     
   62   28   29 1     
   63   28   60 1     
   64   28   61 1     
   65   29   30 1     
   66   30   62 1     
   67   30   63 1     
   68    1   64 1     
   69    1   65 1     
   70    7   66 1     
   71   10   67 1     
   72   21   68 1     
   73   21   69 1     
   74   22   70 1     
   75   24   71 1     
   76   29   72 1     
   77   29   73 1     
@<TRIPOS>SUBSTRUCTURE
      1 S1             1
@<TRIPOS>SET
LONE_PAIRS      STATIC     ATOMS    <user>   **** ""
10 64 65 66 67 68 69 70 71 72 73
DONOR_HYDROGENS      STATIC     ATOMS    <user>   **** ""
2 31 55
ATOM$BLUE        STATIC     ATOMS    COLORGROUP SYSTEM
10 64 65 66 67 68 69 70 71 72 73
ATOM$RED        STATIC     ATOMS    COLORGROUP SYSTEM
2 31 55
