AV-unprocessed.smi:2244|AV-procd|sdf|9073|dock10
  -GOLD-   2272012283D 1   1.00000     0.00000
 Structure written by MMmdl.
 49 51  0  0  0  0  0  0  0  0  1 V2000
  151.0927  145.3134  160.0829 C   0  0  0  0  0  0  0  0  0  0  0  0
  151.8236  144.3244  159.1472 C   0  0  0  0  0  0  0  0  0  0  0  0
  150.7822  143.7678  158.1541 C   0  0  0  0  0  0  0  0  0  0  0  0
  152.9025  145.1213  158.3844 C   0  0  0  0  0  0  0  0  0  0  0  0
  152.4800  143.1638  159.9161 C   0  0  0  0  0  0  0  0  0  0  0  0
  153.2754  142.1749  159.2950 C   0  0  0  0  0  0  0  0  0  0  0  0
  153.8217  141.1680  160.1087 C   0  0  0  0  0  0  0  0  0  0  0  0
  153.5499  141.1948  161.4916 C   0  0  0  0  0  0  0  0  0  0  0  0
  154.1453  140.1365  162.2389 N   0  0  0  0  0  0  0  0  0  0  0  0
  154.5733  138.9103  161.8690 C   0  0  0  0  0  0  0  0  0  0  0  0
  154.4816  138.5335  160.7018 O   0  0  0  0  0  0  0  0  0  0  0  0
  155.0958  138.1434  162.8401 N   0  0  0  0  0  0  0  0  0  0  0  0
  155.6181  136.7919  162.6697 C   0  0  1  0  0  0  0  0  0  0  0  0
  156.9244  136.6064  163.4591 C   0  0  0  0  0  0  0  0  0  0  0  0
  157.3790  135.1391  163.4167 C   0  0  0  0  0  0  0  0  0  0  0  0
  156.3445  134.2935  163.9081 O   0  0  0  0  0  0  0  0  0  0  0  0
  155.1578  134.3439  163.1217 C   0  0  1  0  0  0  0  0  0  0  0  0
  154.1811  133.3265  163.6774 C   0  0  0  0  0  0  0  0  0  0  0  0
  154.6494  132.2312  164.6064 C   0  0  0  0  0  0  0  0  0  0  0  0
  154.2075  131.8921  163.2034 C   0  0  0  0  0  0  0  0  0  0  0  0
  154.5799  135.7709  163.1574 C   0  0  0  0  0  0  0  0  0  0  0  0
  152.7758  142.1779  162.0183 N   0  0  0  0  0  0  0  0  0  0  0  0
  152.2539  143.1394  161.2519 N   0  0  0  0  0  0  0  0  0  0  0  0
  150.6389  146.1288  159.5186 H   0  0  0  0  0  0  0  0  0  0  0  0
  151.7756  145.7660  160.8029 H   0  0  0  0  0  0  0  0  0  0  0  0
  150.2904  144.8259  160.6381 H   0  0  0  0  0  0  0  0  0  0  0  0
  150.0093  143.1970  158.6700 H   0  0  0  0  0  0  0  0  0  0  0  0
  151.2387  143.1084  157.4153 H   0  0  0  0  0  0  0  0  0  0  0  0
  150.2873  144.5698  157.6054 H   0  0  0  0  0  0  0  0  0  0  0  0
  152.4679  145.9639  157.8454 H   0  0  0  0  0  0  0  0  0  0  0  0
  153.4194  144.5036  157.6491 H   0  0  0  0  0  0  0  0  0  0  0  0
  153.6551  145.5195  159.0657 H   0  0  0  0  0  0  0  0  0  0  0  0
  153.4764  142.1664  158.2350 H   0  0  0  0  0  0  0  0  0  0  0  0
  154.4368  140.3927  159.6752 H   0  0  0  0  0  0  0  0  0  0  0  0
  154.2636  140.3381  163.2210 H   0  0  0  0  0  0  0  0  0  0  0  0
  155.1348  138.5305  163.7727 H   0  0  0  0  0  0  0  0  0  0  0  0
  155.8095  136.6073  161.6108 H   0  0  0  0  0  0  0  0  0  0  0  0
  157.7078  137.2503  163.0585 H   0  0  0  0  0  0  0  0  0  0  0  0
  156.7755  136.9049  164.4979 H   0  0  0  0  0  0  0  0  0  0  0  0
  157.6524  134.8458  162.4022 H   0  0  0  0  0  0  0  0  0  0  0  0
  158.2663  135.0049  164.0355 H   0  0  0  0  0  0  0  0  0  0  0  0
  155.3973  134.0692  162.0926 H   0  0  0  0  0  0  0  0  0  0  0  0
  153.1953  133.7366  163.8882 H   0  0  0  0  0  0  0  0  0  0  0  0
  155.7135  132.1724  164.8256 H   0  0  0  0  0  0  0  0  0  0  0  0
  153.9887  131.9516  165.4245 H   0  0  0  0  0  0  0  0  0  0  0  0
  153.2522  131.3852  163.0849 H   0  0  0  0  0  0  0  0  0  0  0  0
  154.9777  131.6081  162.4893 H   0  0  0  0  0  0  0  0  0  0  0  0
  154.2746  136.0125  164.1770 H   0  0  0  0  0  0  0  0  0  0  0  0
  153.6814  135.8264  162.5414 H   0  0  0  0  0  0  0  0  0  0  0  0
  1  2  1  0  0  0  0
  1 24  1  0  0  0  0
  1 25  1  0  0  0  0
  1 26  1  0  0  0  0
  2  3  1  0  0  0  0
  2  4  1  0  0  0  0
  2  5  1  0  0  0  0
  3 27  1  0  0  0  0
  3 28  1  0  0  0  0
  3 29  1  0  0  0  0
  4 30  1  0  0  0  0
  4 31  1  0  0  0  0
  4 32  1  0  0  0  0
  5 23  1  0  0  0  0
  5  6  2  0  0  0  0
  6  7  1  0  0  0  0
  6 33  1  0  0  0  0
  7  8  2  0  0  0  0
  7 34  1  0  0  0  0
  8  9  1  0  0  0  0
  8 22  1  0  0  0  0
  9 10  1  0  0  0  0
  9 35  1  0  0  0  0
 10 11  2  0  0  0  0
 10 12  1  0  0  0  0
 12 13  1  0  0  0  0
 12 36  1  0  0  0  0
 13 21  1  0  0  0  0
 13 14  1  0  0  0  0
 13 37  1  0  0  0  0
 14 15  1  0  0  0  0
 14 38  1  0  0  0  0
 14 39  1  0  0  0  0
 15 16  1  0  0  0  0
 15 40  1  0  0  0  0
 15 41  1  0  0  0  0
 16 17  1  0  0  0  0
 17 18  1  0  0  0  0
 17 21  1  0  0  0  0
 17 42  1  0  0  0  0
 18 20  1  0  0  0  0
 18 19  1  0  0  0  0
 18 43  1  0  0  0  0
 19 20  1  0  0  0  0
 19 44  1  0  0  0  0
 19 45  1  0  0  0  0
 20 46  1  0  0  0  0
 20 47  1  0  0  0  0
 21 48  1  0  0  0  0
 21 49  1  0  0  0  0
 22 23  2  0  0  0  0
M  END
> <s_m_source_file>
AV-unprocessed.smi

> <i_m_source_file_index>
2244

> <i_lp_mmshare_version>
43012

> <i_f3d_flags>
0

> <s_epik_input>
W0NIM11DKFtDSDNdKShbQ0gzXSljMVtjSF1bY0hdYyhubjEpW05IXUMoPU8pW05IXVtDQEBIXTJbQ0gyXVtDSDJdT1tDQEhdKFtDSDJdMilbQ0hdM1tDSDJdW0NIMl0z

> <s_epik_cmdline>
J2VwaWtfcHl0aG9uJywgJy1waCcsICc3LjAnLCAnLXRuJywgJzgnLCAnLW1hJywgJzIwMCcsICctbWV0YWxfYmluZGluZycsICctaW1hZScsICc8aW5maWxlLm1hZT4nLCAnLW9tYWUnLCAnPG91dGZpbGUubWFlPic=

> <r_lp_tautomer_probability>
1

> <r_epik_Ionization_Penalty>
0.011369

> <r_epik_Ionization_Penalty_Charging>
0

> <r_epik_Ionization_Penalty_Neutral>
0.011369

> <r_epik_State_Penalty>
0.00456331

> <r_epik_Charging_Adjusted_Penalty>
0.00456331

> <i_epik_Tot_Q>
0

> <i_epik_Tot_abs_Q>
0

> <r_epik_Metal_State_Penalty>
-0

> <b_epik_Metal_Only>
0

> <s_lp_Force_Field>
OPLS_2005

> <r_lp_Energy>
27.405

> <b_lp_Chiralities_Consistent>
1

> <s_lp_Variant>
AV-unprocessed.smi:2244-2

> <Gold.Version>
5.8.1

> <Gold.Id.Protein>
6NUR|6NUR_protein|mol2

> <Gold.PLP.Fitness>
45.0101

> <Gold.PLP.PLP>
-46.6519

> <Gold.PLP.part.hbond>
0.0000

> <Gold.PLP.part.metal>
0.0000

> <Gold.PLP.part.buried>
-5.3417

> <Gold.PLP.part.nonpolar>
-40.9863

> <Gold.PLP.part.repulsive>
0.1764

> <Gold.PLP.ligand.clash>
0.0000

> <Gold.PLP.ligand.torsion>
1.3589

> <Gold.PLP.Chemscore.Hbond>
0.0000

> <Gold.PLP.Chemscore.CHOScore>
0.0000

> <Gold.PLP.Chemscore.Metal>
0.0000

> <Gold.PLP.Chemscore.Internal.Correction>
1.0759

> <Gold.Rescore>
     Score         DG    S(hbond)    S(metal)    S(lipo)     H(rot)  DE(clash)    DE(int)     intcor
     14.38     -17.10       0.00        0.00     127.74       1.30       0.04       2.68       ----

> <Gold.Chemscore.Fitness>
14.3794

> <Gold.Chemscore.DG>
-17.0971

> <Gold.Chemscore.ZeroCoef>
-5.4800

> <Gold.Chemscore.Hbond>
0.0000

> <Gold.Chemscore.Metal>
0.0000

> <Gold.Chemscore.Lipo>
127.7396

> <Gold.Chemscore.Internal_Hbond>
0.0000

> <Gold.Chemscore.DEClash>
0.0363

> <Gold.Chemscore.DEInternal>
2.6814

> <Gold.Chemscore.Rot>
1.3002

> <Gold.Chemscore.Internal.Correction>
   9.000000E+99

> <Gold.Chemscore.Hbond.Weighted>
-0.0000

> <Gold.Chemscore.Metal.Weighted>
-0.0000

> <Gold.Chemscore.Lipo.Weighted>
-14.9455

> <Gold.Chemscore.Internal_Hbond.Weighted>
0.0000

> <Gold.Chemscore.DEClash.Weighted>
0.0363

> <Gold.Chemscore.DEInternal.Weighted>
2.6814

> <Gold.Chemscore.Rot.Weighted>
3.3284

> <Gold.Chemscore.Internal.Correction.Weighted>
   9.000000E+99

> <Gold.Protein.RotatedTorsions>
[ 6907 6896 6895 6894 ] final  143.88 input  -60.11 | X-H torsion
[ 7974 7965 7964 7962 ] final -110.84 input  175.53 | X-H torsion
[ 8008 7997 7996 7995 ] final -158.81 input   59.86 | X-H torsion
[ 10167 10162 10161 10158 ] final  -20.43 input  -65.29 | X-H torsion
[ 10718 10713 10712 10709 ] final -162.43 input   66.30 | X-H torsion
[ 10763 10752 10751 10750 ] final   19.97 input  -60.55 | X-H torsion
[ 11005 11000 10999 10996 ] final  121.88 input  -57.11 | X-H torsion

> <Gold.Protein.ActiveResidues>
 VAL166  LYS551  ARG553  GLY616  TRP617  ASP618  TYR619  PRO620  LYS621  CYS622 
 ASP623  PHE694  ASN695  SER759  ASP760  ASP761  ALA762  ILE779  LEU786  VAL792 
 PHE793  MET794  SER795  GLU796  ALA797  LYS798  CYS799  TRP800  GLU811  SER814 

> <Gold.Protein.RotatedAtoms>
  152.2007  133.4839  159.5056 H   0  0  0  0  0  0  0  0  0  0  0  0  # atno 6907 bound_to 6896
  150.6969  134.1594  159.4179 H   0  0  0  0  0  0  0  0  0  0  0  0  # atno 6908 bound_to 6896
  151.9512  135.0168  160.0593 H   0  0  0  0  0  0  0  0  0  0  0  0  # atno 6909 bound_to 6896
  145.1634  140.8889  143.3578 H   0  0  0  0  0  0  0  0  0  0  0  0  # atno 7974 bound_to 7965
  155.7532  140.0829  157.2191 H   0  0  0  0  0  0  0  0  0  0  0  0  # atno 8008 bound_to 7997
  154.4010  140.1556  156.2803 H   0  0  0  0  0  0  0  0  0  0  0  0  # atno 8009 bound_to 7997
  155.8911  140.3415  155.5959 H   0  0  0  0  0  0  0  0  0  0  0  0  # atno 8010 bound_to 7997
  140.7276  143.4723  151.0229 H   0  0  0  0  0  0  0  0  0  0  0  0  # atno 10167 bound_to 10162
  156.6103  130.8847  151.2935 H   0  0  0  0  0  0  0  0  0  0  0  0  # atno 10718 bound_to 10713
  153.1117  135.6698  153.9489 H   0  0  0  0  0  0  0  0  0  0  0  0  # atno 10763 bound_to 10752
  153.9030  135.3033  155.3450 H   0  0  0  0  0  0  0  0  0  0  0  0  # atno 10764 bound_to 10752
  154.7536  135.5023  153.9411 H   0  0  0  0  0  0  0  0  0  0  0  0  # atno 10765 bound_to 10752
  139.9244  134.9640  156.8024 H   0  0  0  0  0  0  0  0  0  0  0  0  # atno 11005 bound_to 11000
  145.0308  139.3343  143.6026 LP  0  0  0  0  0  0  0  0  0  0  0  0  # atno 17320 bound_to 7965
  146.3479  139.9644  142.8713 LP  0  0  0  0  0  0  0  0  0  0  0  0  # atno 17321 bound_to 7965
  139.8416  143.7556  152.3180 LP  0  0  0  0  0  0  0  0  0  0  0  0  # atno 17342 bound_to 10162
  139.7707  144.7477  151.0229 LP  0  0  0  0  0  0  0  0  0  0  0  0  # atno 17343 bound_to 10162
  157.7256  130.9618  150.1621 LP  0  0  0  0  0  0  0  0  0  0  0  0  # atno 17370 bound_to 10713
  156.2396  130.3689  149.8352 LP  0  0  0  0  0  0  0  0  0  0  0  0  # atno 17371 bound_to 10713
  140.6379  133.9846  155.7693 LP  0  0  0  0  0  0  0  0  0  0  0  0  # atno 17394 bound_to 11000
  141.0791  134.0090  157.3413 LP  0  0  0  0  0  0  0  0  0  0  0  0  # atno 17395 bound_to 11000

$$$$
