AV-unprocessed.smi:1724|AV-procd|sdf|6951|dock10
  -GOLD-   22720 8163D 1   1.00000     0.00000
 Structure written by MMmdl.
 37 38  0  0  0  0  0  0  0  0  2 V2000
  151.0768  138.8017  158.5892 O   0  0  0  0  0  0  0  0  0  0  0  0
  150.0503  139.0602  157.9615 C   0  0  0  0  0  0  0  0  0  0  0  0
  149.9199  140.1435  157.1819 N   0  0  0  0  0  0  0  0  0  0  0  0
  150.9376  141.1705  156.9747 C   0  0  0  0  0  0  0  0  0  0  0  0
  150.8896  142.2735  158.0522 C   0  0  2  0  0  0  0  0  0  0  0  0
  151.4373  143.6267  157.5591 C   0  0  0  0  0  0  0  0  0  0  0  0
  151.4505  144.6448  158.7049 C   0  0  0  0  0  0  0  0  0  0  0  0
  152.1904  144.0735  159.9233 C   0  0  0  0  0  0  0  0  0  0  0  0
  151.5870  142.8472  160.3196 O   0  0  0  0  0  0  0  0  0  0  0  0
  151.6620  141.8403  159.3154 C   0  0  0  0  0  0  0  0  0  0  0  0
  148.9277  138.3185  157.9368 N   0  0  0  0  0  0  0  0  0  0  0  0
  148.6219  137.1246  158.6138 C   0  0  0  0  0  0  0  0  0  0  0  0
  147.8491  137.0347  159.7319 C   0  0  0  0  0  0  0  0  0  0  0  0
  147.5586  135.7621  160.3802 C   0  0  0  0  0  0  0  0  0  0  0  0
  146.7843  135.6374  161.6804 C   0  0  0  0  0  0  0  0  0  0  0  0
  145.5439  136.1076  161.5475 F   0  0  0  0  0  0  0  0  0  0  0  0
  146.7123  134.3657  162.0737 F   0  0  0  0  0  0  0  0  0  0  0  0
  147.3925  136.3347  162.6389 F   0  0  0  0  0  0  0  0  0  0  0  0
  148.1588  134.6970  159.7374 C   0  0  0  0  0  0  0  0  0  0  0  0
  148.9136  134.6956  158.6172 N   0  5  0  0  0  0  0  0  0  0  0  0
  149.1787  135.8913  158.0189 C   0  0  0  0  0  0  0  0  0  0  0  0
  149.8666  135.9620  156.9997 O   0  0  0  0  0  0  0  0  0  0  0  0
  149.0436  140.2709  156.6974 H   0  0  0  0  0  0  0  0  0  0  0  0
  151.9075  140.6734  157.0066 H   0  0  0  0  0  0  0  0  0  0  0  0
  150.8577  141.6085  155.9781 H   0  0  0  0  0  0  0  0  0  0  0  0
  149.8462  142.4172  158.3379 H   0  0  0  0  0  0  0  0  0  0  0  0
  152.4490  143.4977  157.1715 H   0  0  0  0  0  0  0  0  0  0  0  0
  150.8346  144.0142  156.7374 H   0  0  0  0  0  0  0  0  0  0  0  0
  151.9203  145.5729  158.3783 H   0  0  0  0  0  0  0  0  0  0  0  0
  150.4263  144.8938  158.9854 H   0  0  0  0  0  0  0  0  0  0  0  0
  153.2472  143.9173  159.7007 H   0  0  0  0  0  0  0  0  0  0  0  0
  152.1407  144.7762  160.7553 H   0  0  0  0  0  0  0  0  0  0  0  0
  151.2349  140.9223  159.7200 H   0  0  0  0  0  0  0  0  0  0  0  0
  152.7063  141.6261  159.0819 H   0  0  0  0  0  0  0  0  0  0  0  0
  148.1912  138.6445  157.3281 H   0  0  0  0  0  0  0  0  0  0  0  0
  147.4046  137.9105  160.1735 H   0  0  0  0  0  0  0  0  0  0  0  0
  148.0144  133.6951  160.1952 H   0  0  0  0  0  0  0  0  0  0  0  0
  1  2  2  0  0  0  0
  2  3  1  0  0  0  0
  2 11  1  0  0  0  0
  3  4  1  0  0  0  0
  3 23  1  0  0  0  0
  4  5  1  0  0  0  0
  4 24  1  0  0  0  0
  4 25  1  0  0  0  0
  5 10  1  0  0  0  0
  5  6  1  0  0  0  0
  5 26  1  0  0  0  0
  6  7  1  0  0  0  0
  6 27  1  0  0  0  0
  6 28  1  0  0  0  0
  7  8  1  0  0  0  0
  7 29  1  0  0  0  0
  7 30  1  0  0  0  0
  8  9  1  0  0  0  0
  8 31  1  0  0  0  0
  8 32  1  0  0  0  0
  9 10  1  0  0  0  0
 10 33  1  0  0  0  0
 10 34  1  0  0  0  0
 11 12  1  0  0  0  0
 11 35  1  0  0  0  0
 12 21  1  0  0  0  0
 12 13  2  0  0  0  0
 13 14  1  0  0  0  0
 13 36  1  0  0  0  0
 14 15  1  0  0  0  0
 14 19  2  0  0  0  0
 15 16  1  0  0  0  0
 15 17  1  0  0  0  0
 15 18  1  0  0  0  0
 19 20  1  0  0  0  0
 19 37  1  0  0  0  0
 20 21  1  0  0  0  0
 21 22  2  0  0  0  0
M  CHG  1  20  -1
M  END
> <s_m_source_file>
AV-unprocessed.smi

> <i_m_source_file_index>
1724

> <i_lp_mmshare_version>
43012

> <i_f3d_flags>
0

> <s_epik_input>
Tz1jMVtuSF1bY0hdYyhDKEYpKEYpRilbY0hdYzFbTkhdQyg9TylbTkhdW0NIMl1bQ0BASF0yW0NIMl1bQ0gyXVtDSDJdT1tDSDJdMg==

> <s_epik_cmdline>
J2VwaWtfcHl0aG9uJywgJy1waCcsICc3LjAnLCAnLXRuJywgJzgnLCAnLW1hJywgJzIwMCcsICctbWV0YWxfYmluZGluZycsICctaW1hZScsICc8aW5maWxlLm1hZT4nLCAnLW9tYWUnLCAnPG91dGZpbGUubWFlPic=

> <r_lp_tautomer_probability>
1

> <r_epik_Ionization_Penalty>
3.16025

> <r_epik_Ionization_Penalty_Charging>
0.171172

> <r_epik_Ionization_Penalty_Neutral>
2.98908

> <r_epik_State_Penalty>
2.98521

> <r_epik_Charging_Adjusted_Penalty>
3.15638

> <i_epik_Tot_Q>
-1

> <i_epik_Tot_abs_Q>
1

> <r_epik_Metal_State_Penalty>
0.452642

> <b_epik_Metal_Only>
1

> <s_lp_Force_Field>
OPLS_2005

> <r_lp_Energy>
24.3751

> <b_lp_Chiralities_Consistent>
1

> <s_lp_Variant>
AV-unprocessed.smi:1724-3

> <Gold.Version>
5.8.1

> <Gold.Id.Protein>
6NUR|6NUR_protein|mol2

> <Gold.PLP.Fitness>
44.3680

> <Gold.PLP.PLP>
-40.7228

> <Gold.PLP.part.hbond>
-1.0873

> <Gold.PLP.part.metal>
0.0000

> <Gold.PLP.part.buried>
-3.6866

> <Gold.PLP.part.nonpolar>
-35.6733

> <Gold.PLP.part.repulsive>
0.2528

> <Gold.PLP.ligand.clash>
0.0000

> <Gold.PLP.ligand.torsion>
1.2041

> <Gold.PLP.Chemscore.Hbond>
2.0000

> <Gold.PLP.Chemscore.CHOScore>
0.0000

> <Gold.PLP.Chemscore.Metal>
0.0000

> <Gold.Chemscore.Hbonds>
donor molecule, donor type, donor heavy atom, donor atom, acceptor molecule, acceptor atom, score
      P1  H  6896  6908       L1    20  1.80

> <Gold.PLP.Chemscore.Internal.Correction>
0.0534

> <Gold.Rescore>
     Score         DG    S(hbond)    S(metal)    S(lipo)     H(rot)  DE(clash)    DE(int)     intcor
     11.06     -12.47       0.01        0.00      88.53       1.32       0.22       1.19       ----

> <Gold.Chemscore.Fitness>
11.0555

> <Gold.Chemscore.DG>
-12.4661

> <Gold.Chemscore.ZeroCoef>
-5.4800

> <Gold.Chemscore.Hbond>
0.0058

> <Gold.Chemscore.Metal>
0.0000

> <Gold.Chemscore.Lipo>
88.5333

> <Gold.Chemscore.Internal_Hbond>
0.0000

> <Gold.Chemscore.DEClash>
0.2212

> <Gold.Chemscore.DEInternal>
1.1894

> <Gold.Chemscore.Rot>
1.3248

> <Gold.Chemscore.Internal.Correction>
   9.000000E+99

> <Gold.Chemscore.Hbonds>
donor molecule, donor type, donor heavy atom, donor atom, acceptor molecule, acceptor atom, score
      P1  H  6896  6908       L1    20  0.05

> <Gold.Chemscore.Hbond.Weighted>
-0.0192

> <Gold.Chemscore.Metal.Weighted>
-0.0000

> <Gold.Chemscore.Lipo.Weighted>
-10.3584

> <Gold.Chemscore.Internal_Hbond.Weighted>
0.0000

> <Gold.Chemscore.DEClash.Weighted>
0.2212

> <Gold.Chemscore.DEInternal.Weighted>
1.1894

> <Gold.Chemscore.Rot.Weighted>
3.3915

> <Gold.Chemscore.Internal.Correction.Weighted>
   9.000000E+99

> <Gold.Protein.RotatedTorsions>
[ 6907 6896 6895 6894 ] final  155.39 input  -60.11 | X-H torsion
[ 7974 7965 7964 7962 ] final  -62.89 input  175.53 | X-H torsion
[ 8008 7997 7996 7995 ] final   62.90 input   59.86 | X-H torsion
[ 10167 10162 10161 10158 ] final -146.95 input  -65.29 | X-H torsion
[ 10718 10713 10712 10709 ] final  163.06 input   66.30 | X-H torsion
[ 10763 10752 10751 10750 ] final  -14.22 input  -60.55 | X-H torsion
[ 11005 11000 10999 10996 ] final    0.24 input  -57.11 | X-H torsion

> <Gold.Protein.ActiveResidues>
 VAL166  LYS551  ARG553  GLY616  TRP617  ASP618  TYR619  PRO620  LYS621  CYS622 
 ASP623  PHE694  ASN695  SER759  ASP760  ASP761  ALA762  ILE779  LEU786  VAL792 
 PHE793  MET794  SER795  GLU796  ALA797  LYS798  CYS799  TRP800  GLU811  SER814 

> <Gold.Protein.RotatedAtoms>
  152.0448  133.3993  159.4351 H   0  0  0  0  0  0  0  0  0  0  0  0  # atno 6907 bound_to 6896
  150.6873  134.3374  159.4862 H   0  0  0  0  0  0  0  0  0  0  0  0  # atno 6908 bound_to 6896
  152.1177  134.9228  160.0615 H   0  0  0  0  0  0  0  0  0  0  0  0  # atno 6909 bound_to 6896
  145.7858  140.8737  143.0306 H   0  0  0  0  0  0  0  0  0  0  0  0  # atno 7974 bound_to 7965
  155.6217  140.3496  155.4654 H   0  0  0  0  0  0  0  0  0  0  0  0  # atno 8008 bound_to 7997
  156.0073  140.1226  157.0512 H   0  0  0  0  0  0  0  0  0  0  0  0  # atno 8009 bound_to 7997
  154.4269  140.1088  156.5767 H   0  0  0  0  0  0  0  0  0  0  0  0  # atno 8010 bound_to 7997
  139.7666  143.8299  152.2617 H   0  0  0  0  0  0  0  0  0  0  0  0  # atno 10167 bound_to 10162
  157.1138  131.0474  151.2445 H   0  0  0  0  0  0  0  0  0  0  0  0  # atno 10718 bound_to 10713
  153.5250  135.7015  153.5712 H   0  0  0  0  0  0  0  0  0  0  0  0  # atno 10763 bound_to 10752
  153.3745  135.3936  155.1812 H   0  0  0  0  0  0  0  0  0  0  0  0  # atno 10764 bound_to 10752
  154.8691  135.3820  154.4742 H   0  0  0  0  0  0  0  0  0  0  0  0  # atno 10765 bound_to 10752
  140.6288  133.9594  155.8263 H   0  0  0  0  0  0  0  0  0  0  0  0  # atno 11005 bound_to 11000
  144.6789  140.0053  143.7484 LP  0  0  0  0  0  0  0  0  0  0  0  0  # atno 17320 bound_to 7965
  146.0028  139.3105  143.0917 LP  0  0  0  0  0  0  0  0  0  0  0  0  # atno 17321 bound_to 7965
  139.8321  144.7249  150.9438 LP  0  0  0  0  0  0  0  0  0  0  0  0  # atno 17342 bound_to 10162
  140.7811  143.4061  151.1069 LP  0  0  0  0  0  0  0  0  0  0  0  0  # atno 17343 bound_to 10162
  157.4536  130.7612  149.7173 LP  0  0  0  0  0  0  0  0  0  0  0  0  # atno 17370 bound_to 10713
  155.9844  130.3992  150.3313 LP  0  0  0  0  0  0  0  0  0  0  0  0  # atno 17371 bound_to 10713
  141.0690  134.0233  157.3553 LP  0  0  0  0  0  0  0  0  0  0  0  0  # atno 17394 bound_to 11000
  139.9124  135.0192  156.7746 LP  0  0  0  0  0  0  0  0  0  0  0  0  # atno 17395 bound_to 11000

$$$$
