AV-unprocessed.smi:598|AV-procd|sdf|3023|dock10
  -GOLD-   2262023533D 1   1.00000     0.00000
 Structure written by MMmdl.
 43 44  0  0  0  0  0  0  0  0  3 V2000
  152.9184  142.6275  162.0959 C   0  0  0  0  0  0  0  0  0  0  0  0
  152.7791  143.3382  160.7367 C   0  0  2  0  0  0  0  0  0  0  0  0
  152.0794  144.6975  160.9359 C   0  0  0  0  0  0  0  0  0  0  0  0
  151.9451  145.4670  159.6179 C   0  0  0  0  0  0  0  0  0  0  0  0
  151.1799  144.6353  158.5849 C   0  0  0  0  0  0  0  0  0  0  0  0
  151.8573  143.2714  158.3470 C   0  0  2  0  0  0  0  0  0  0  0  0
  151.0632  142.5005  157.3914 N   0  0  0  0  0  0  0  0  0  0  0  0
  149.7945  142.1038  157.5738 C   0  0  0  0  0  0  0  0  0  0  0  0
  149.1442  142.3636  158.5871 O   0  0  0  0  0  0  0  0  0  0  0  0
  149.1685  141.3054  156.4215 C   0  0  0  0  0  0  0  0  0  0  0  0
  149.6589  139.9191  156.3435 N   0  0  0  0  0  0  0  0  0  0  0  0
  149.4693  139.1072  157.4794 C   0  0  0  0  0  0  0  0  0  0  0  0
  149.8845  137.8259  157.5209 C   0  0  0  0  0  0  0  0  0  0  0  0
  149.6871  137.0086  158.6978 N   0  3  0  0  0  0  0  0  0  0  0  0
  149.9529  135.8124  158.6347 O   0  0  0  0  0  0  0  0  0  0  0  0
  149.2596  137.5327  159.7220 O   0  5  0  0  0  0  0  0  0  0  0  0
  150.5425  137.2921  156.3441 C   0  0  0  0  0  0  0  0  0  0  0  0
  150.7305  138.0647  155.2561 C   0  0  0  0  0  0  0  0  0  0  0  0
  150.2820  139.4602  155.2150 C   0  0  0  0  0  0  0  0  0  0  0  0
  150.4558  140.1731  154.2263 O   0  0  0  0  0  0  0  0  0  0  0  0
  152.0426  142.4785  159.6696 C   0  0  1  0  0  0  0  0  0  0  0  0
  152.7618  141.1355  159.4144 C   0  0  0  0  0  0  0  0  0  0  0  0
  151.9482  142.3103  162.4799 H   0  0  0  0  0  0  0  0  0  0  0  0
  153.3675  143.2881  162.8381 H   0  0  0  0  0  0  0  0  0  0  0  0
  153.5598  141.7493  162.0318 H   0  0  0  0  0  0  0  0  0  0  0  0
  153.7869  143.5398  160.3698 H   0  0  0  0  0  0  0  0  0  0  0  0
  151.0904  144.5437  161.3699 H   0  0  0  0  0  0  0  0  0  0  0  0
  152.6375  145.3042  161.6500 H   0  0  0  0  0  0  0  0  0  0  0  0
  151.4301  146.4123  159.7896 H   0  0  0  0  0  0  0  0  0  0  0  0
  152.9341  145.7173  159.2325 H   0  0  0  0  0  0  0  0  0  0  0  0
  150.1550  144.4854  158.9278 H   0  0  0  0  0  0  0  0  0  0  0  0
  151.1134  145.1926  157.6496 H   0  0  0  0  0  0  0  0  0  0  0  0
  152.8479  143.4481  157.9228 H   0  0  0  0  0  0  0  0  0  0  0  0
  151.5178  142.2469  156.5261 H   0  0  0  0  0  0  0  0  0  0  0  0
  148.0850  141.3231  156.5468 H   0  0  0  0  0  0  0  0  0  0  0  0
  149.3533  141.8227  155.4779 H   0  0  0  0  0  0  0  0  0  0  0  0
  148.9766  139.5998  158.3052 H   0  0  0  0  0  0  0  0  0  0  0  0
  150.8902  136.2697  156.3267 H   0  0  0  0  0  0  0  0  0  0  0  0
  151.2241  137.6466  154.3910 H   0  0  0  0  0  0  0  0  0  0  0  0
  151.0493  142.2485  160.0589 H   0  0  0  0  0  0  0  0  0  0  0  0
  153.7856  141.2951  159.0749 H   0  0  0  0  0  0  0  0  0  0  0  0
  152.2541  140.5382  158.6573 H   0  0  0  0  0  0  0  0  0  0  0  0
  152.7986  140.5186  160.3112 H   0  0  0  0  0  0  0  0  0  0  0  0
  1  2  1  0  0  0  0
  1 23  1  0  0  0  0
  1 24  1  0  0  0  0
  1 25  1  0  0  0  0
  2 21  1  0  0  0  0
  2  3  1  0  0  0  0
  2 26  1  0  0  0  0
  3  4  1  0  0  0  0
  3 27  1  0  0  0  0
  3 28  1  0  0  0  0
  4  5  1  0  0  0  0
  4 29  1  0  0  0  0
  4 30  1  0  0  0  0
  5  6  1  0  0  0  0
  5 31  1  0  0  0  0
  5 32  1  0  0  0  0
  6  7  1  0  0  0  0
  6 21  1  0  0  0  0
  6 33  1  0  0  0  0
  7  8  1  0  0  0  0
  7 34  1  0  0  0  0
  8  9  2  0  0  0  0
  8 10  1  0  0  0  0
 10 11  1  0  0  0  0
 10 35  1  0  0  0  0
 10 36  1  0  0  0  0
 11 19  1  0  0  0  0
 11 12  1  0  0  0  0
 12 13  2  0  0  0  0
 12 37  1  0  0  0  0
 13 14  1  0  0  0  0
 13 17  1  0  0  0  0
 14 15  2  0  0  0  0
 14 16  1  0  0  0  0
 17 18  2  0  0  0  0
 17 38  1  0  0  0  0
 18 19  1  0  0  0  0
 18 39  1  0  0  0  0
 19 20  2  0  0  0  0
 21 22  1  0  0  0  0
 21 40  1  0  0  0  0
 22 41  1  0  0  0  0
 22 42  1  0  0  0  0
 22 43  1  0  0  0  0
M  CHG  1  14   1
M  CHG  1  16  -1
M  END
> <s_m_source_file>
AV-unprocessed.smi

> <i_m_source_file_index>
598

> <i_lp_mmshare_version>
43012

> <i_f3d_flags>
0

> <s_epik_input>
W0NIM11bQ0BASF0xW0NIMl1bQ0gyXVtDSDJdW0NASF0oW0NASF0xW0NIM10pW05IXUMoPU8pW0NIMl1uMltjSF1jKFtOK10oPU8pW08tXSlbY0hdW2NIXWMyPU8=

> <s_epik_cmdline>
J2VwaWtfcHl0aG9uJywgJy1waCcsICc3LjAnLCAnLXRuJywgJzgnLCAnLW1hJywgJzIwMCcsICctbWV0YWxfYmluZGluZycsICctaW1hZScsICc8aW5maWxlLm1hZT4nLCAnLW9tYWUnLCAnPG91dGZpbGUubWFlPic=

> <r_lp_tautomer_probability>
1

> <r_epik_Ionization_Penalty>
1.91291e-08

> <r_epik_Ionization_Penalty_Charging>
8.21931e-11

> <r_epik_Ionization_Penalty_Neutral>
1.90469e-08

> <r_epik_State_Penalty>
-0

> <r_epik_Charging_Adjusted_Penalty>
8.21931e-11

> <i_epik_Tot_Q>
0

> <i_epik_Tot_abs_Q>
2

> <r_epik_Metal_State_Penalty>
-0

> <b_epik_Metal_Only>
0

> <s_lp_Force_Field>
OPLS_2005

> <r_lp_Energy>
24.1223

> <b_lp_Chiralities_Consistent>
1

> <s_lp_Variant>
AV-unprocessed.smi:598-3

> <Gold.Version>
5.8.1

> <Gold.Id.Protein>
6NUR|6NUR_protein|mol2

> <Gold.PLP.Fitness>
49.0546

> <Gold.PLP.PLP>
-43.2580

> <Gold.PLP.part.hbond>
-3.2218

> <Gold.PLP.part.metal>
0.0000

> <Gold.PLP.part.buried>
-8.2353

> <Gold.PLP.part.nonpolar>
-33.2602

> <Gold.PLP.part.repulsive>
0.2701

> <Gold.PLP.ligand.clash>
0.0000

> <Gold.PLP.ligand.torsion>
0.2093

> <Gold.PLP.Chemscore.Hbond>
2.0692

> <Gold.PLP.Chemscore.CHOScore>
0.0000

> <Gold.PLP.Chemscore.Metal>
0.0000

> <Gold.Chemscore.Hbonds>
donor molecule, donor type, donor heavy atom, donor atom, acceptor molecule, acceptor atom, score
      P1  H  6896  6907       L1    15  1.00
      P1  H  6931  6943       L1    16  0.09
      P1  H  7989  7998       L1    20  1.00

> <Gold.PLP.Chemscore.Internal.Correction>
0.0077

> <Gold.Rescore>
     Score         DG    S(hbond)    S(metal)    S(lipo)     H(rot)  DE(clash)    DE(int)     intcor
     20.57     -21.66       2.21        0.00     108.82       1.54       0.03       1.06       ----

> <Gold.Chemscore.Fitness>
20.5690

> <Gold.Chemscore.DG>
-21.6582

> <Gold.Chemscore.ZeroCoef>
-5.4800

> <Gold.Chemscore.Hbond>
2.2115

> <Gold.Chemscore.Metal>
0.0000

> <Gold.Chemscore.Lipo>
108.8238

> <Gold.Chemscore.Internal_Hbond>
0.0000

> <Gold.Chemscore.DEClash>
0.0252

> <Gold.Chemscore.DEInternal>
1.0640

> <Gold.Chemscore.Rot>
1.5393

> <Gold.Chemscore.Internal.Correction>
   9.000000E+99

> <Gold.Chemscore.Hbonds>
donor molecule, donor type, donor heavy atom, donor atom, acceptor molecule, acceptor atom, score
      P1  H  6896  6907       L1    15  0.99
      P1  H  6931  6943       L1    16  0.09
      P1  H  7989  7998       L1    20  0.93

> <Gold.Chemscore.Hbond.Weighted>
-7.3865

> <Gold.Chemscore.Metal.Weighted>
-0.0000

> <Gold.Chemscore.Lipo.Weighted>
-12.7324

> <Gold.Chemscore.Internal_Hbond.Weighted>
0.0000

> <Gold.Chemscore.DEClash.Weighted>
0.0252

> <Gold.Chemscore.DEInternal.Weighted>
1.0640

> <Gold.Chemscore.Rot.Weighted>
3.9407

> <Gold.Chemscore.Internal.Correction.Weighted>
   9.000000E+99

> <Gold.Protein.RotatedTorsions>
[ 6907 6896 6895 6894 ] final  -52.45 input  -60.11 | X-H torsion
[ 7974 7965 7964 7962 ] final  -56.01 input  175.53 | X-H torsion
[ 8008 7997 7996 7995 ] final  156.72 input   59.86 | X-H torsion
[ 10167 10162 10161 10158 ] final  178.95 input  -65.29 | X-H torsion
[ 10718 10713 10712 10709 ] final   -2.31 input   66.30 | X-H torsion
[ 10763 10752 10751 10750 ] final   23.68 input  -60.55 | X-H torsion
[ 11005 11000 10999 10996 ] final   10.67 input  -57.11 | X-H torsion

> <Gold.Protein.ActiveResidues>
 VAL166  LYS551  ARG553  GLY616  TRP617  ASP618  TYR619  PRO620  LYS621  CYS622 
 ASP623  PHE694  ASN695  SER759  ASP760  ASP761  ALA762  ILE779  LEU786  VAL792 
 PHE793  MET794  SER795  GLU796  ALA797  LYS798  CYS799  TRP800  GLU811  SER814 

> <Gold.Protein.RotatedAtoms>
  150.8516  134.7843  159.7013 H   0  0  0  0  0  0  0  0  0  0  0  0  # atno 6907 bound_to 6896
  152.4579  134.5246  159.9803 H   0  0  0  0  0  0  0  0  0  0  0  0  # atno 6908 bound_to 6896
  151.5366  133.3402  159.2963 H   0  0  0  0  0  0  0  0  0  0  0  0  # atno 6909 bound_to 6896
  145.8676  140.8240  142.9905 H   0  0  0  0  0  0  0  0  0  0  0  0  # atno 7974 bound_to 7965
  156.2406  140.1905  156.6998 H   0  0  0  0  0  0  0  0  0  0  0  0  # atno 8008 bound_to 7997
  154.6190  140.0611  156.9618 H   0  0  0  0  0  0  0  0  0  0  0  0  # atno 8009 bound_to 7997
  155.1892  140.3283  155.4364 H   0  0  0  0  0  0  0  0  0  0  0  0  # atno 8010 bound_to 7997
  139.5316  144.2619  152.0700 H   0  0  0  0  0  0  0  0  0  0  0  0  # atno 10167 bound_to 10162
  156.7927  130.5367  149.5733 H   0  0  0  0  0  0  0  0  0  0  0  0  # atno 10718 bound_to 10713
  153.0820  135.6621  154.0026 H   0  0  0  0  0  0  0  0  0  0  0  0  # atno 10763 bound_to 10752
  153.9645  135.2970  155.3433 H   0  0  0  0  0  0  0  0  0  0  0  0  # atno 10764 bound_to 10752
  154.7221  135.5160  153.8900 H   0  0  0  0  0  0  0  0  0  0  0  0  # atno 10765 bound_to 10752
  140.5118  134.0644  155.7820 H   0  0  0  0  0  0  0  0  0  0  0  0  # atno 11005 bound_to 11000
  144.6726  140.1189  143.7451 LP  0  0  0  0  0  0  0  0  0  0  0  0  # atno 17320 bound_to 7965
  145.9175  139.2525  143.1401 LP  0  0  0  0  0  0  0  0  0  0  0  0  # atno 17321 bound_to 7965
  140.2083  144.4589  150.6398 LP  0  0  0  0  0  0  0  0  0  0  0  0  # atno 17342 bound_to 10162
  140.6497  143.2222  151.6105 LP  0  0  0  0  0  0  0  0  0  0  0  0  # atno 17343 bound_to 10162
  156.1149  130.6067  151.0105 LP  0  0  0  0  0  0  0  0  0  0  0  0  # atno 17370 bound_to 10713
  157.6592  131.0884  150.7876 LP  0  0  0  0  0  0  0  0  0  0  0  0  # atno 17371 bound_to 10713
  141.1381  133.9186  157.2387 LP  0  0  0  0  0  0  0  0  0  0  0  0  # atno 17394 bound_to 11000
  139.9654  135.0143  156.9374 LP  0  0  0  0  0  0  0  0  0  0  0  0  # atno 17395 bound_to 11000

$$$$
