AV-unprocessed.smi:3018|AV-procd|sdf|11480|dock7
  -GOLD-   2272016413D 1   1.00000     0.00000
 Structure written by MMmdl.
 45 46  0  0  0  0  0  0  0  0  1 V2000
  151.4789  138.1045  158.8946 C   0  0  0  0  0  0  0  0  0  0  0  0
  150.9889  138.7065  157.5668 C   0  0  0  0  0  0  0  0  0  0  0  0
  150.6306  140.2080  157.6024 C   0  0  1  0  0  0  0  0  0  0  0  0
  151.7292  140.9122  158.1871 O   0  0  0  0  0  0  0  0  0  0  0  0
  151.4474  142.0877  158.9491 C   0  0  0  0  0  0  0  0  0  0  0  0
  151.2106  143.2257  157.9409 C   0  0  0  0  0  0  0  0  0  0  0  0
  150.9630  144.5679  158.6476 C   0  0  0  0  0  0  0  0  0  0  0  0
  152.1145  144.9139  159.6039 C   0  0  0  0  0  0  0  0  0  0  0  0
  152.3574  143.7815  160.6135 C   0  0  0  0  0  0  0  0  0  0  0  0
  152.6072  142.4411  159.9033 C   0  0  0  0  0  0  0  0  0  0  0  0
  150.2860  140.7806  156.2158 C   0  0  0  0  0  0  0  0  0  0  0  0
  151.0605  140.6358  155.2699 O   0  0  0  0  0  0  0  0  0  0  0  0
  149.1476  141.4868  156.1349 N   0  0  0  0  0  0  0  0  0  0  0  0
  148.6962  142.2418  154.9685 C   0  0  0  0  0  0  0  0  0  0  0  0
  147.3709  141.6835  154.4067 C   0  0  0  0  0  0  0  0  0  0  0  0
  147.4859  140.3734  153.6380 C   0  0  0  0  0  0  0  0  0  0  0  0
  148.4605  139.5333  153.6499 N   0  0  0  0  0  0  0  0  0  0  0  0
  147.9956  138.5761  152.8094 N   0  0  0  0  0  0  0  0  0  0  0  0
  146.7783  138.8225  152.3111 C   0  0  0  0  0  0  0  0  0  0  0  0
  146.1208  138.1193  151.5481 O   0  0  0  0  0  0  0  0  0  0  0  0
  146.4391  139.9934  152.8346 N   0  0  0  0  0  0  0  0  0  0  0  0
  148.5648  137.7624  152.6255 H   0  0  0  0  0  0  0  0  0  0  0  0
  145.5755  140.4989  152.6992 H   0  0  0  0  0  0  0  0  0  0  0  0
  151.6147  137.0271  158.7986 H   0  0  0  0  0  0  0  0  0  0  0  0
  150.7615  138.2751  159.6978 H   0  0  0  0  0  0  0  0  0  0  0  0
  152.4368  138.5228  159.2022 H   0  0  0  0  0  0  0  0  0  0  0  0
  151.7447  138.5333  156.7996 H   0  0  0  0  0  0  0  0  0  0  0  0
  150.1080  138.1519  157.2422 H   0  0  0  0  0  0  0  0  0  0  0  0
  149.7602  140.3117  158.2505 H   0  0  0  0  0  0  0  0  0  0  0  0
  150.5334  141.9672  159.5283 H   0  0  0  0  0  0  0  0  0  0  0  0
  152.0743  143.3172  157.2809 H   0  0  0  0  0  0  0  0  0  0  0  0
  150.3592  142.9836  157.3041 H   0  0  0  0  0  0  0  0  0  0  0  0
  150.8429  145.3602  157.9084 H   0  0  0  0  0  0  0  0  0  0  0  0
  150.0265  144.5220  159.2038 H   0  0  0  0  0  0  0  0  0  0  0  0
  153.0244  145.0926  159.0297 H   0  0  0  0  0  0  0  0  0  0  0  0
  151.8935  145.8422  160.1313 H   0  0  0  0  0  0  0  0  0  0  0  0
  153.2068  144.0276  161.2510 H   0  0  0  0  0  0  0  0  0  0  0  0
  151.4937  143.6893  161.2729 H   0  0  0  0  0  0  0  0  0  0  0  0
  152.7374  141.6648  160.6564 H   0  0  0  0  0  0  0  0  0  0  0  0
  153.5413  142.4922  159.3427 H   0  0  0  0  0  0  0  0  0  0  0  0
  148.5778  141.5540  156.9661 H   0  0  0  0  0  0  0  0  0  0  0  0
  148.6105  143.3090  155.1797 H   0  0  0  0  0  0  0  0  0  0  0  0
  149.4699  142.1535  154.2056 H   0  0  0  0  0  0  0  0  0  0  0  0
  146.6644  141.5363  155.2238 H   0  0  0  0  0  0  0  0  0  0  0  0
  146.9202  142.4306  153.7518 H   0  0  0  0  0  0  0  0  0  0  0  0
  1  2  1  0  0  0  0
  1 24  1  0  0  0  0
  1 25  1  0  0  0  0
  1 26  1  0  0  0  0
  2  3  1  0  0  0  0
  2 27  1  0  0  0  0
  2 28  1  0  0  0  0
  3  4  1  0  0  0  0
  3 11  1  0  0  0  0
  3 29  1  0  0  0  0
  4  5  1  0  0  0  0
  5 10  1  0  0  0  0
  5  6  1  0  0  0  0
  5 30  1  0  0  0  0
  6  7  1  0  0  0  0
  6 31  1  0  0  0  0
  6 32  1  0  0  0  0
  7  8  1  0  0  0  0
  7 33  1  0  0  0  0
  7 34  1  0  0  0  0
  8  9  1  0  0  0  0
  8 35  1  0  0  0  0
  8 36  1  0  0  0  0
  9 10  1  0  0  0  0
  9 37  1  0  0  0  0
  9 38  1  0  0  0  0
 10 39  1  0  0  0  0
 10 40  1  0  0  0  0
 11 12  2  0  0  0  0
 11 13  1  0  0  0  0
 13 14  1  0  0  0  0
 13 41  1  0  0  0  0
 14 15  1  0  0  0  0
 14 42  1  0  0  0  0
 14 43  1  0  0  0  0
 15 16  1  0  0  0  0
 15 44  1  0  0  0  0
 15 45  1  0  0  0  0
 16 21  1  0  0  0  0
 16 17  2  0  0  0  0
 17 18  1  0  0  0  0
 18 22  1  0  0  0  0
 18 19  1  0  0  0  0
 19 20  2  0  0  0  0
 19 21  1  0  0  0  0
 21 23  1  0  0  0  0
M  END
> <s_m_source_file>
AV-unprocessed.smi

> <i_m_source_file_index>
3018

> <i_lp_mmshare_version>
43012

> <i_f3d_flags>
0

> <s_epik_input>
W0NIMl0xW0NIMl1bQ0gyXVtDSDJdW0NIMl1bQ0hdMU9bQ0BASF0oW0NIMl1bQ0gzXSlDKD1PKVtOSF1bQ0gyXVtDSDJdYzJuW25IXWMoPU8pW25IXTI=

> <s_epik_cmdline>
J2VwaWtfcHl0aG9uJywgJy1waCcsICc3LjAnLCAnLXRuJywgJzgnLCAnLW1hJywgJzIwMCcsICctbWV0YWxfYmluZGluZycsICctaW1hZScsICc8aW5maWxlLm1hZT4nLCAnLW9tYWUnLCAnPG91dGZpbGUubWFlPic=

> <r_lp_tautomer_probability>
1

> <r_epik_Ionization_Penalty>
0.000773817

> <r_epik_Ionization_Penalty_Charging>
0.000773741

> <r_epik_Ionization_Penalty_Neutral>
7.58514e-08

> <r_epik_State_Penalty>
-0

> <r_epik_Charging_Adjusted_Penalty>
0.000773741

> <i_epik_Tot_Q>
0

> <i_epik_Tot_abs_Q>
0

> <r_epik_Metal_State_Penalty>
0.495152

> <b_epik_Metal_Only>
0

> <s_lp_Force_Field>
OPLS_2005

> <r_lp_Energy>
29.5576

> <b_lp_Chiralities_Consistent>
1

> <s_lp_Variant>
AV-unprocessed.smi:3018-2

> <Gold.Version>
5.8.1

> <Gold.Id.Protein>
6NUR|6NUR_protein|mol2

> <Gold.PLP.Fitness>
46.5045

> <Gold.PLP.PLP>
-39.5255

> <Gold.PLP.part.hbond>
-4.2544

> <Gold.PLP.part.metal>
0.0000

> <Gold.PLP.part.buried>
-3.3032

> <Gold.PLP.part.nonpolar>
-35.3782

> <Gold.PLP.part.repulsive>
4.0206

> <Gold.PLP.ligand.clash>
0.0000

> <Gold.PLP.ligand.torsion>
1.0270

> <Gold.PLP.Chemscore.Hbond>
2.9680

> <Gold.PLP.Chemscore.CHOScore>
0.0000

> <Gold.PLP.Chemscore.Metal>
0.0000

> <Gold.Chemscore.Hbonds>
donor molecule, donor type, donor heavy atom, donor atom, acceptor molecule, acceptor atom, score
      L1  H    18    22       P1  7948  1.00
      L1  H    21    23       P1 10175  0.99
      P1  H  7989  7998       L1    12  0.88

> <Gold.PLP.Chemscore.Internal.Correction>
0.1290

> <Gold.Rescore>
     Score         DG    S(hbond)    S(metal)    S(lipo)     H(rot)  DE(clash)    DE(int)     intcor
     16.70     -18.12       2.77        0.00      95.50       3.04       0.11       1.31       ----

> <Gold.Chemscore.Fitness>
16.6982

> <Gold.Chemscore.DG>
-18.1191

> <Gold.Chemscore.ZeroCoef>
-5.4800

> <Gold.Chemscore.Hbond>
2.7663

> <Gold.Chemscore.Metal>
0.0000

> <Gold.Chemscore.Lipo>
95.5015

> <Gold.Chemscore.Internal_Hbond>
0.0000

> <Gold.Chemscore.DEClash>
0.1100

> <Gold.Chemscore.DEInternal>
1.3109

> <Gold.Chemscore.Rot>
3.0367

> <Gold.Chemscore.Internal.Correction>
   9.000000E+99

> <Gold.Chemscore.Hbonds>
donor molecule, donor type, donor heavy atom, donor atom, acceptor molecule, acceptor atom, score
      L1  H    18    22       P1  7948  0.98
      L1  H    21    23       P1 10175  0.62
      P1  H  7989  7998       L1    12  0.86

> <Gold.Chemscore.Hbond.Weighted>
-9.2393

> <Gold.Chemscore.Metal.Weighted>
-0.0000

> <Gold.Chemscore.Lipo.Weighted>
-11.1737

> <Gold.Chemscore.Internal_Hbond.Weighted>
0.0000

> <Gold.Chemscore.DEClash.Weighted>
0.1100

> <Gold.Chemscore.DEInternal.Weighted>
1.3109

> <Gold.Chemscore.Rot.Weighted>
7.7739

> <Gold.Chemscore.Internal.Correction.Weighted>
   9.000000E+99

> <Gold.Protein.RotatedTorsions>
[ 6907 6896 6895 6894 ] final  -13.19 input  -60.11 | X-H torsion
[ 7974 7965 7964 7962 ] final   50.91 input  175.53 | X-H torsion
[ 8008 7997 7996 7995 ] final  167.94 input   59.86 | X-H torsion
[ 10167 10162 10161 10158 ] final  -81.34 input  -65.29 | X-H torsion
[ 10718 10713 10712 10709 ] final  169.71 input   66.30 | X-H torsion
[ 10763 10752 10751 10750 ] final  134.29 input  -60.55 | X-H torsion
[ 11005 11000 10999 10996 ] final  -38.41 input  -57.11 | X-H torsion

> <Gold.Protein.ActiveResidues>
 VAL166  LYS551  ARG553  GLY616  TRP617  ASP618  TYR619  PRO620  LYS621  CYS622 
 ASP623  PHE694  ASN695  SER759  ASP760  ASP761  ALA762  ILE779  LEU786  VAL792 
 PHE793  MET794  SER795  GLU796  ALA797  LYS798  CYS799  TRP800  GLU811  SER814 

> <Gold.Protein.RotatedAtoms>
  151.3588  135.0900  159.9427 H   0  0  0  0  0  0  0  0  0  0  0  0  # atno 6907 bound_to 6896
  152.5167  133.9279  159.7576 H   0  0  0  0  0  0  0  0  0  0  0  0  # atno 6908 bound_to 6896
  150.9669  133.6331  159.2774 H   0  0  0  0  0  0  0  0  0  0  0  0  # atno 6909 bound_to 6896
  145.9965  139.4394  143.0041 H   0  0  0  0  0  0  0  0  0  0  0  0  # atno 7974 bound_to 7965
  156.1591  140.1603  156.8643 H   0  0  0  0  0  0  0  0  0  0  0  0  # atno 8008 bound_to 7997
  154.5143  140.0793  156.8086 H   0  0  0  0  0  0  0  0  0  0  0  0  # atno 8009 bound_to 7997
  155.3744  140.3402  155.4246 H   0  0  0  0  0  0  0  0  0  0  0  0  # atno 8010 bound_to 7997
  140.4421  143.2511  151.8611 H   0  0  0  0  0  0  0  0  0  0  0  0  # atno 10167 bound_to 10162
  157.0187  131.0225  151.2781 H   0  0  0  0  0  0  0  0  0  0  0  0  # atno 10718 bound_to 10713
  153.8212  135.3116  155.3410 H   0  0  0  0  0  0  0  0  0  0  0  0  # atno 10763 bound_to 10752
  154.8012  135.4725  154.0283 H   0  0  0  0  0  0  0  0  0  0  0  0  # atno 10764 bound_to 10752
  153.1692  135.6875  153.8721 H   0  0  0  0  0  0  0  0  0  0  0  0  # atno 10765 bound_to 10752
  141.0025  133.6948  156.2049 H   0  0  0  0  0  0  0  0  0  0  0  0  # atno 11005 bound_to 11000
  145.7551  140.9957  143.1229 LP  0  0  0  0  0  0  0  0  0  0  0  0  # atno 17320 bound_to 7965
  144.6905  139.9262  143.7470 LP  0  0  0  0  0  0  0  0  0  0  0  0  # atno 17321 bound_to 7965
  139.4790  144.5217  151.8792 LP  0  0  0  0  0  0  0  0  0  0  0  0  # atno 17342 bound_to 10162
  140.4306  144.2120  150.5888 LP  0  0  0  0  0  0  0  0  0  0  0  0  # atno 17343 bound_to 10162
  157.5266  130.8032  149.7869 LP  0  0  0  0  0  0  0  0  0  0  0  0  # atno 17370 bound_to 10713
  156.0110  130.3833  150.2265 LP  0  0  0  0  0  0  0  0  0  0  0  0  # atno 17371 bound_to 10713
  140.6865  134.4711  157.5589 LP  0  0  0  0  0  0  0  0  0  0  0  0  # atno 17394 bound_to 11000
  139.9046  134.8478  156.1756 LP  0  0  0  0  0  0  0  0  0  0  0  0  # atno 17395 bound_to 11000

$$$$
