AV-unprocessed.smi:99|AV-procd|sdf|890|dock5
  -GOLD-   2262017373D 1   1.00000     0.00000
 Structure written by MMmdl.
 52 55  0  0  0  0  0  0  0  0  2 V2000
  151.8365  136.7472  159.0830 O   0  0  0  0  0  0  0  0  0  0  0  0
  151.1809  137.4593  158.3200 C   0  0  0  0  0  0  0  0  0  0  0  0
  150.3240  136.9785  157.4025 O   0  0  0  0  0  0  0  0  0  0  0  0
  150.5416  135.7103  156.8048 C   0  0  0  0  0  0  0  0  0  0  0  0
  149.4110  134.7512  157.2017 C   0  0  1  0  0  0  0  0  0  0  0  0
  149.3952  134.5502  158.6054 O   0  0  0  0  0  0  0  0  0  0  0  0
  148.1057  134.2100  159.0166 C   0  0  1  0  0  0  0  0  0  0  0  0
  147.7819  135.0052  160.2646 N   0  0  0  0  0  0  0  0  0  0  0  0
  147.4236  134.3552  161.4331 C   0  0  0  0  0  0  0  0  0  0  0  0
  147.1393  135.0396  162.5596 C   0  0  0  0  0  0  0  0  0  0  0  0
  147.2114  136.4980  162.5479 C   0  0  0  0  0  0  0  0  0  0  0  0
  146.9394  137.1160  163.5753 O   0  0  0  0  0  0  0  0  0  0  0  0
  147.5822  137.1143  161.3880 N   0  5  0  0  0  0  0  0  0  0  0  0
  147.8798  136.4228  160.2492 C   0  0  0  0  0  0  0  0  0  0  0  0
  148.2450  136.9672  159.2069 O   0  0  0  0  0  0  0  0  0  0  0  0
  147.1283  134.4933  157.8502 C   0  0  1  0  0  0  0  0  0  0  0  0
  146.0092  135.2898  158.1938 O   0  0  0  0  0  0  0  0  0  0  0  0
  148.0027  135.2270  156.8430 C   0  0  2  0  0  0  0  0  0  0  0  0
  147.6938  134.8260  155.5143 O   0  0  0  0  0  0  0  0  0  0  0  0
  146.6676  135.3905  154.8428 C   0  0  0  0  0  0  0  0  0  0  0  0
  145.9091  136.2318  155.3285 O   0  0  0  0  0  0  0  0  0  0  0  0
  146.5491  134.8902  153.4427 C   0  0  0  0  0  0  0  0  0  0  0  0
  147.2188  133.7004  153.0730 C   0  0  0  0  0  0  0  0  0  0  0  0
  147.1251  133.2033  151.7586 C   0  0  0  0  0  0  0  0  0  0  0  0
  146.3616  133.8905  150.7972 C   0  0  0  0  0  0  0  0  0  0  0  0
  145.6914  135.0758  151.1520 C   0  0  0  0  0  0  0  0  0  0  0  0
  145.7831  135.5740  152.4664 C   0  0  0  0  0  0  0  0  0  0  0  0
  151.2456  138.9493  158.3198 C   0  0  0  0  0  0  0  0  0  0  0  0
  150.5169  139.6751  157.3491 C   0  0  0  0  0  0  0  0  0  0  0  0
  150.5643  141.0825  157.3214 C   0  0  0  0  0  0  0  0  0  0  0  0
  151.3405  141.7812  158.2646 C   0  0  0  0  0  0  0  0  0  0  0  0
  152.0673  141.0709  159.2375 C   0  0  0  0  0  0  0  0  0  0  0  0
  152.0195  139.6638  159.2680 C   0  0  0  0  0  0  0  0  0  0  0  0
  150.5703  135.8257  155.7205 H   0  0  0  0  0  0  0  0  0  0  0  0
  151.5030  135.3012  157.1177 H   0  0  0  0  0  0  0  0  0  0  0  0
  149.5903  133.7737  156.7503 H   0  0  0  0  0  0  0  0  0  0  0  0
  148.1192  133.1598  159.3101 H   0  0  0  0  0  0  0  0  0  0  0  0
  147.3725  133.2781  161.4529 H   0  0  0  0  0  0  0  0  0  0  0  0
  146.8634  134.5145  163.4623 H   0  0  0  0  0  0  0  0  0  0  0  0
  146.7952  133.5327  157.4546 H   0  0  0  0  0  0  0  0  0  0  0  0
  145.5391  135.4995  157.4005 H   0  0  0  0  0  0  0  0  0  0  0  0
  147.9270  136.3049  156.9934 H   0  0  0  0  0  0  0  0  0  0  0  0
  147.8113  133.1552  153.7935 H   0  0  0  0  0  0  0  0  0  0  0  0
  147.6401  132.2931  151.4883 H   0  0  0  0  0  0  0  0  0  0  0  0
  146.2903  133.5092  149.7892 H   0  0  0  0  0  0  0  0  0  0  0  0
  145.1055  135.6045  150.4146 H   0  0  0  0  0  0  0  0  0  0  0  0
  145.2564  136.4866  152.7048 H   0  0  0  0  0  0  0  0  0  0  0  0
  149.9161  139.1603  156.6132 H   0  0  0  0  0  0  0  0  0  0  0  0
  150.0049  141.6262  156.5743 H   0  0  0  0  0  0  0  0  0  0  0  0
  151.3774  142.8603  158.2425 H   0  0  0  0  0  0  0  0  0  0  0  0
  152.6622  141.6052  159.9635 H   0  0  0  0  0  0  0  0  0  0  0  0
  152.5847  139.1516  160.0326 H   0  0  0  0  0  0  0  0  0  0  0  0
  1  2  2  0  0  0  0
  2  3  1  0  0  0  0
  2 28  1  0  0  0  0
  3  4  1  0  0  0  0
  4  5  1  0  0  0  0
  4 34  1  0  0  0  0
  4 35  1  0  0  0  0
  5 18  1  0  0  0  0
  5  6  1  0  0  0  0
  5 36  1  0  0  0  0
  6  7  1  0  0  0  0
  7  8  1  0  0  0  0
  7 16  1  0  0  0  0
  7 37  1  0  0  0  0
  8 14  1  0  0  0  0
  8  9  1  0  0  0  0
  9 10  2  0  0  0  0
  9 38  1  0  0  0  0
 10 11  1  0  0  0  0
 10 39  1  0  0  0  0
 11 12  2  0  0  0  0
 11 13  1  0  0  0  0
 13 14  1  0  0  0  0
 14 15  2  0  0  0  0
 16 17  1  0  0  0  0
 16 18  1  0  0  0  0
 16 40  1  0  0  0  0
 17 41  1  0  0  0  0
 18 19  1  0  0  0  0
 18 42  1  0  0  0  0
 19 20  1  0  0  0  0
 20 21  2  0  0  0  0
 20 22  1  0  0  0  0
 22 27  1  0  0  0  0
 22 23  2  0  0  0  0
 23 24  1  0  0  0  0
 23 43  1  0  0  0  0
 24 25  2  0  0  0  0
 24 44  1  0  0  0  0
 25 26  1  0  0  0  0
 25 45  1  0  0  0  0
 26 27  2  0  0  0  0
 26 46  1  0  0  0  0
 27 47  1  0  0  0  0
 28 33  1  0  0  0  0
 28 29  2  0  0  0  0
 29 30  1  0  0  0  0
 29 48  1  0  0  0  0
 30 31  2  0  0  0  0
 30 49  1  0  0  0  0
 31 32  1  0  0  0  0
 31 50  1  0  0  0  0
 32 33  2  0  0  0  0
 32 51  1  0  0  0  0
 33 52  1  0  0  0  0
M  CHG  1  13  -1
M  END
> <s_m_source_file>
AV-unprocessed.smi

> <i_m_source_file_index>
99

> <i_lp_mmshare_version>
43012

> <i_f3d_flags>
0

> <s_epik_input>
W2NIXTFbY0hdW2NIXVtjSF1bY0hdYzFDKD1PKU9bQ0gyXVtDQEBIXTJPW0NAQEhdKG4zW2NIXVtjSF1jKD1PKVtuSF1jMz1PKVtDQEBIXShbT0hdKVtDQEhdMk9DKD1PKWM0W2NIXVtjSF1bY0hdW2NIXVtjSF00

> <s_epik_cmdline>
J2VwaWtfcHl0aG9uJywgJy1waCcsICc3LjAnLCAnLXRuJywgJzgnLCAnLW1hJywgJzIwMCcsICctbWV0YWxfYmluZGluZycsICctaW1hZScsICc8aW5maWxlLm1hZT4nLCAnLW9tYWUnLCAnPG91dGZpbGUubWFlPic=

> <r_lp_tautomer_probability>
1

> <r_epik_Ionization_Penalty>
2.89159

> <r_epik_Ionization_Penalty_Charging>
2.1077e-08

> <r_epik_Ionization_Penalty_Neutral>
2.89159

> <r_epik_State_Penalty>
2.88671

> <r_epik_Charging_Adjusted_Penalty>
2.88671

> <i_epik_Tot_Q>
-1

> <i_epik_Tot_abs_Q>
1

> <r_epik_Metal_State_Penalty>
0.0727308

> <b_epik_Metal_Only>
1

> <s_epik_Chemistry_Notes>
This compound has an ester and may undergo hydrolysis at high or low pH. This compound contains an acetal/aminal-like group ( X-CH(R)-Y where X, Y are N, S, or O) that may be acid/base labile, releasing an aldehyde.

> <s_lp_Force_Field>
OPLS_2005

> <r_lp_Energy>
45.1404

> <b_lp_Chiralities_Consistent>
1

> <s_lp_Variant>
AV-unprocessed.smi:99-26

> <Gold.Version>
5.8.1

> <Gold.Id.Protein>
6NUR|6NUR_protein|mol2

> <Gold.PLP.Fitness>
56.0710

> <Gold.PLP.PLP>
-41.7327

> <Gold.PLP.part.hbond>
-4.1253

> <Gold.PLP.part.metal>
0.0000

> <Gold.PLP.part.buried>
-3.9710

> <Gold.PLP.part.nonpolar>
-33.7642

> <Gold.PLP.part.repulsive>
0.0883

> <Gold.PLP.ligand.clash>
0.0000

> <Gold.PLP.ligand.torsion>
1.1040

> <Gold.PLP.Chemscore.Hbond>
5.3520

> <Gold.PLP.Chemscore.CHOScore>
0.0000

> <Gold.PLP.Chemscore.Metal>
0.0000

> <Gold.Chemscore.Hbonds>
donor molecule, donor type, donor heavy atom, donor atom, acceptor molecule, acceptor atom, score
      P1  H  6896  6908       L1     6  1.00
      P1  H  6896  6909       L1     1  0.90
      P1  H  6931  6943       L1    13  1.98
      P1  H  6934  6947       L1    13  1.73

> <Gold.PLP.Chemscore.Internal.Correction>
0.4903

> <Gold.Rescore>
     Score         DG    S(hbond)    S(metal)    S(lipo)     H(rot)  DE(clash)    DE(int)     intcor
      9.53     -17.01       2.84        0.00      85.93       3.13       1.02       6.46       ----

> <Gold.Chemscore.Fitness>
9.5321

> <Gold.Chemscore.DG>
-17.0114

> <Gold.Chemscore.ZeroCoef>
-5.4800

> <Gold.Chemscore.Hbond>
2.8449

> <Gold.Chemscore.Metal>
0.0000

> <Gold.Chemscore.Lipo>
85.9309

> <Gold.Chemscore.Internal_Hbond>
0.0000

> <Gold.Chemscore.DEClash>
1.0167

> <Gold.Chemscore.DEInternal>
6.4626

> <Gold.Chemscore.Rot>
3.1346

> <Gold.Chemscore.Internal.Correction>
   9.000000E+99

> <Gold.Chemscore.Hbonds>
donor molecule, donor type, donor heavy atom, donor atom, acceptor molecule, acceptor atom, score
      P1  H  6896  6908       L1     6  0.89
      P1  H  6896  6909       L1     1  0.88
      P1  H  6931  6943       L1    13  0.33
      P1  H  6934  6947       L1    13  0.60

> <Gold.Chemscore.Hbond.Weighted>
-9.5020

> <Gold.Chemscore.Metal.Weighted>
-0.0000

> <Gold.Chemscore.Lipo.Weighted>
-10.0539

> <Gold.Chemscore.Internal_Hbond.Weighted>
0.0000

> <Gold.Chemscore.DEClash.Weighted>
1.0167

> <Gold.Chemscore.DEInternal.Weighted>
6.4626

> <Gold.Chemscore.Rot.Weighted>
8.0246

> <Gold.Chemscore.Internal.Correction.Weighted>
   9.000000E+99

> <Gold.Protein.RotatedTorsions>
[ 6907 6896 6895 6894 ] final  131.03 input  -60.11 | X-H torsion
[ 7974 7965 7964 7962 ] final   71.13 input  175.53 | X-H torsion
[ 8008 7997 7996 7995 ] final -132.67 input   59.86 | X-H torsion
[ 10167 10162 10161 10158 ] final  -71.57 input  -65.29 | X-H torsion
[ 10718 10713 10712 10709 ] final  107.07 input   66.30 | X-H torsion
[ 10763 10752 10751 10750 ] final   55.18 input  -60.55 | X-H torsion
[ 11005 11000 10999 10996 ] final  103.55 input  -57.11 | X-H torsion

> <Gold.Protein.ActiveResidues>
 VAL166  LYS551  ARG553  GLY616  TRP617  ASP618  TYR619  PRO620  LYS621  CYS622 
 ASP623  PHE694  ASN695  SER759  ASP760  ASP761  ALA762  ILE779  LEU786  VAL792 
 PHE793  MET794  SER795  GLU796  ALA797  LYS798  CYS799  TRP800  GLU811  SER814 

> <Gold.Protein.RotatedAtoms>
  152.3467  133.6130  159.5914 H   0  0  0  0  0  0  0  0  0  0  0  0  # atno 6907 bound_to 6896
  150.7512  133.9639  159.3533 H   0  0  0  0  0  0  0  0  0  0  0  0  # atno 6908 bound_to 6896
  151.7496  135.0836  160.0380 H   0  0  0  0  0  0  0  0  0  0  0  0  # atno 6909 bound_to 6896
  145.7696  139.2837  143.1329 H   0  0  0  0  0  0  0  0  0  0  0  0  # atno 7974 bound_to 7965
  155.3327  140.0468  157.3043 H   0  0  0  0  0  0  0  0  0  0  0  0  # atno 8008 bound_to 7997
  154.5319  140.2260  155.8755 H   0  0  0  0  0  0  0  0  0  0  0  0  # atno 8009 bound_to 7997
  156.1797  140.3077  155.9132 H   0  0  0  0  0  0  0  0  0  0  0  0  # atno 8010 bound_to 7997
  140.5262  143.2326  151.7342 H   0  0  0  0  0  0  0  0  0  0  0  0  # atno 10167 bound_to 10162
  157.6643  131.0865  150.6102 H   0  0  0  0  0  0  0  0  0  0  0  0  # atno 10718 bound_to 10713
  152.9813  135.5719  154.5025 H   0  0  0  0  0  0  0  0  0  0  0  0  # atno 10763 bound_to 10752
  154.4542  135.2779  155.1761 H   0  0  0  0  0  0  0  0  0  0  0  0  # atno 10764 bound_to 10752
  154.3376  135.6236  153.5634 H   0  0  0  0  0  0  0  0  0  0  0  0  # atno 10765 bound_to 10752
  139.8784  134.9267  156.5226 H   0  0  0  0  0  0  0  0  0  0  0  0  # atno 11005 bound_to 11000
  146.0183  140.8371  142.9936 LP  0  0  0  0  0  0  0  0  0  0  0  0  # atno 17320 bound_to 7965
  144.6815  140.2591  143.7321 LP  0  0  0  0  0  0  0  0  0  0  0  0  # atno 17321 bound_to 7965
  139.4939  144.4182  152.0007 LP  0  0  0  0  0  0  0  0  0  0  0  0  # atno 17342 bound_to 10162
  140.3281  144.3349  150.5993 LP  0  0  0  0  0  0  0  0  0  0  0  0  # atno 17343 bound_to 10162
  156.6403  130.4456  149.5755 LP  0  0  0  0  0  0  0  0  0  0  0  0  # atno 17370 bound_to 10713
  156.2214  130.6739  151.1372 LP  0  0  0  0  0  0  0  0  0  0  0  0  # atno 17371 bound_to 10713
  140.8439  133.8183  155.9102 LP  0  0  0  0  0  0  0  0  0  0  0  0  # atno 17394 bound_to 11000
  140.9210  134.2141  157.4926 LP  0  0  0  0  0  0  0  0  0  0  0  0  # atno 17395 bound_to 11000

$$$$
