AV-unprocessed.smi:34|AV-procd|sdf|220|dock3
  -GOLD-   2262015533D 1   1.00000     0.00000
 Structure written by MMmdl.
 55 59  0  0  0  0  0  0  0  0  1 V2000
  153.8177  140.2365  160.2713 O   0  0  0  0  0  0  0  0  0  0  0  0
  153.0201  140.9151  159.6234 C   0  0  0  0  0  0  0  0  0  0  0  0
  152.3235  140.3909  158.4619 N   0  0  0  0  0  0  0  0  0  0  0  0
  152.4610  139.1744  157.8840 C   0  0  0  0  0  0  0  0  0  0  0  0
  153.6584  138.7111  157.4386 N   0  0  0  0  0  0  0  0  0  0  0  0
  153.7448  137.5011  156.8796 C   0  0  0  0  0  0  0  0  0  0  0  0
  152.7743  136.6098  156.6721 N   0  0  0  0  0  0  0  0  0  0  0  0
  151.5662  137.0666  157.1095 C   0  0  0  0  0  0  0  0  0  0  0  0
  151.3312  138.3310  157.7191 C   0  0  0  0  0  0  0  0  0  0  0  0
  149.9850  138.4580  158.0348 N   0  0  0  0  0  0  0  0  0  0  0  0
  149.4597  137.3309  157.6366 C   0  0  0  0  0  0  0  0  0  0  0  0
  150.3387  136.4325  157.0740 N   0  0  0  0  0  0  0  0  0  0  0  0
  150.0158  135.0652  156.5513 C   0  0  1  0  0  0  0  0  0  0  0  0
  148.6415  134.8348  156.6239 O   0  0  0  0  0  0  0  0  0  0  0  0
  148.1605  134.2120  155.4300 C   0  0  1  0  0  0  0  0  0  0  0  0
  147.2322  135.1910  154.6965 C   0  0  0  0  0  0  0  0  0  0  0  0
  146.7981  134.6014  153.4815 O   0  0  0  0  0  0  0  0  0  0  0  0
  145.4873  134.3718  153.2695 C   0  0  0  0  0  0  0  0  0  0  0  0
  144.5938  134.7651  154.0223 O   0  0  0  0  0  0  0  0  0  0  0  0
  145.2297  133.5839  152.0301 C   0  0  0  0  0  0  0  0  0  0  0  0
  143.8993  133.2477  151.6867 C   0  0  0  0  0  0  0  0  0  0  0  0
  143.6248  132.5039  150.5226 C   0  0  0  0  0  0  0  0  0  0  0  0
  144.6779  132.0876  149.6872 C   0  0  0  0  0  0  0  0  0  0  0  0
  146.0056  132.4152  150.0179 C   0  0  0  0  0  0  0  0  0  0  0  0
  146.2821  133.1578  151.1824 C   0  0  0  0  0  0  0  0  0  0  0  0
  149.4099  133.8695  154.6104 C   0  0  2  0  0  0  0  0  0  0  0  0
  149.8147  132.6348  154.9137 F   0  0  0  0  0  0  0  0  0  0  0  0
  150.4459  134.8667  155.0926 C   0  0  1  0  0  0  0  0  0  0  0  0
  150.4329  136.0508  154.3154 O   0  0  0  0  0  0  0  0  0  0  0  0
  152.6440  142.3054  160.0453 C   0  0  0  0  0  0  0  0  0  0  0  0
  152.7607  142.6880  161.4006 C   0  0  0  0  0  0  0  0  0  0  0  0
  152.4222  143.9940  161.8047 C   0  0  0  0  0  0  0  0  0  0  0  0
  151.9728  144.9313  160.8556 C   0  0  0  0  0  0  0  0  0  0  0  0
  151.8658  144.5626  159.5013 C   0  0  0  0  0  0  0  0  0  0  0  0
  152.2029  143.2564  159.0961 C   0  0  0  0  0  0  0  0  0  0  0  0
  151.6495  141.0096  158.0348 H   0  0  0  0  0  0  0  0  0  0  0  0
  154.7309  137.2040  156.5535 H   0  0  0  0  0  0  0  0  0  0  0  0
  148.4068  137.1176  157.7504 H   0  0  0  0  0  0  0  0  0  0  0  0
  150.5223  134.3795  157.2320 H   0  0  0  0  0  0  0  0  0  0  0  0
  147.6064  133.3057  155.6781 H   0  0  0  0  0  0  0  0  0  0  0  0
  146.3868  135.4589  155.3304 H   0  0  0  0  0  0  0  0  0  0  0  0
  147.7659  136.1129  154.4638 H   0  0  0  0  0  0  0  0  0  0  0  0
  143.0744  133.5569  152.3124 H   0  0  0  0  0  0  0  0  0  0  0  0
  142.6049  132.2530  150.2707 H   0  0  0  0  0  0  0  0  0  0  0  0
  144.4674  131.5177  148.7943 H   0  0  0  0  0  0  0  0  0  0  0  0
  146.8147  132.0967  149.3771 H   0  0  0  0  0  0  0  0  0  0  0  0
  147.3126  133.3904  151.4082 H   0  0  0  0  0  0  0  0  0  0  0  0
  149.2481  133.8904  153.5318 H   0  0  0  0  0  0  0  0  0  0  0  0
  151.4564  134.4574  155.0635 H   0  0  0  0  0  0  0  0  0  0  0  0
  149.7116  136.0010  153.7064 H   0  0  0  0  0  0  0  0  0  0  0  0
  153.1054  141.9804  162.1411 H   0  0  0  0  0  0  0  0  0  0  0  0
  152.5085  144.2765  162.8436 H   0  0  0  0  0  0  0  0  0  0  0  0
  151.7139  145.9329  161.1657 H   0  0  0  0  0  0  0  0  0  0  0  0
  151.5273  145.2834  158.7715 H   0  0  0  0  0  0  0  0  0  0  0  0
  152.1222  142.9969  158.0505 H   0  0  0  0  0  0  0  0  0  0  0  0
  1  2  2  0  0  0  0
  2  3  1  0  0  0  0
  2 30  1  0  0  0  0
  3  4  1  0  0  0  0
  3 36  1  0  0  0  0
  4  9  1  0  0  0  0
  4  5  2  0  0  0  0
  5  6  1  0  0  0  0
  6  7  2  0  0  0  0
  6 37  1  0  0  0  0
  7  8  1  0  0  0  0
  8 12  1  0  0  0  0
  8  9  2  0  0  0  0
  9 10  1  0  0  0  0
 10 11  2  0  0  0  0
 11 12  1  0  0  0  0
 11 38  1  0  0  0  0
 12 13  1  0  0  0  0
 13 28  1  0  0  0  0
 13 14  1  0  0  0  0
 13 39  1  0  0  0  0
 14 15  1  0  0  0  0
 15 16  1  0  0  0  0
 15 26  1  0  0  0  0
 15 40  1  0  0  0  0
 16 17  1  0  0  0  0
 16 41  1  0  0  0  0
 16 42  1  0  0  0  0
 17 18  1  0  0  0  0
 18 19  2  0  0  0  0
 18 20  1  0  0  0  0
 20 25  1  0  0  0  0
 20 21  2  0  0  0  0
 21 22  1  0  0  0  0
 21 43  1  0  0  0  0
 22 23  2  0  0  0  0
 22 44  1  0  0  0  0
 23 24  1  0  0  0  0
 23 45  1  0  0  0  0
 24 25  2  0  0  0  0
 24 46  1  0  0  0  0
 25 47  1  0  0  0  0
 26 27  1  0  0  0  0
 26 28  1  0  0  0  0
 26 48  1  0  0  0  0
 28 29  1  0  0  0  0
 28 49  1  0  0  0  0
 29 50  1  0  0  0  0
 30 35  1  0  0  0  0
 30 31  2  0  0  0  0
 31 32  1  0  0  0  0
 31 51  1  0  0  0  0
 32 33  2  0  0  0  0
 32 52  1  0  0  0  0
 33 34  1  0  0  0  0
 33 53  1  0  0  0  0
 34 35  2  0  0  0  0
 34 54  1  0  0  0  0
 35 55  1  0  0  0  0
M  END
> <s_m_source_file>
AV-unprocessed.smi

> <i_m_source_file_index>
34

> <i_lp_mmshare_version>
43012

> <i_f3d_flags>
0

> <s_epik_input>
W2NIXTFbY0hdW2NIXVtjSF1bY0hdYzFDKD1PKVtOSF1jKG5bY0hdbjIpYyhjMjMpbltjSF1uM1tDQEBIXTRPW0NASF0oW0NAQEhdKEYpW0NASF00W09IXSlbQ0gyXU9DKD1PKWM1W2NIXVtjSF1bY0hdW2NIXVtjSF01

> <s_epik_cmdline>
J2VwaWtfcHl0aG9uJywgJy1waCcsICc3LjAnLCAnLXRuJywgJzgnLCAnLW1hJywgJzIwMCcsICctbWV0YWxfYmluZGluZycsICctaW1hZScsICc8aW5maWxlLm1hZT4nLCAnLW9tYWUnLCAnPG91dGZpbGUubWFlPic=

> <r_lp_tautomer_probability>
1

> <r_epik_Ionization_Penalty>
0.00257489

> <r_epik_Ionization_Penalty_Charging>
0

> <r_epik_Ionization_Penalty_Neutral>
0.00257489

> <r_epik_State_Penalty>
0.00519398

> <r_epik_Charging_Adjusted_Penalty>
0.00519398

> <i_epik_Tot_Q>
0

> <i_epik_Tot_abs_Q>
0

> <r_epik_Metal_State_Penalty>
0.335891

> <b_epik_Metal_Only>
0

> <s_epik_Chemistry_Notes>
This compound has an ester and may undergo hydrolysis at high or low pH. This compound contains an acetal/aminal-like group ( X-CH(R)-Y where X, Y are N, S, or O) that may be acid/base labile, releasing an aldehyde.

> <s_lp_Force_Field>
OPLS_2005

> <r_lp_Energy>
51.6643

> <b_lp_Chiralities_Consistent>
1

> <s_lp_Variant>
AV-unprocessed.smi:34-6

> <Gold.Version>
5.8.1

> <Gold.Id.Protein>
6NUR|6NUR_protein|mol2

> <Gold.PLP.Fitness>
66.1488

> <Gold.PLP.PLP>
-59.4266

> <Gold.PLP.part.hbond>
-4.0000

> <Gold.PLP.part.metal>
0.0000

> <Gold.PLP.part.buried>
-8.7133

> <Gold.PLP.part.nonpolar>
-48.4465

> <Gold.PLP.part.repulsive>
0.4066

> <Gold.PLP.ligand.clash>
0.0000

> <Gold.PLP.ligand.torsion>
1.3011

> <Gold.PLP.Chemscore.Hbond>
3.0000

> <Gold.PLP.Chemscore.CHOScore>
0.0000

> <Gold.PLP.Chemscore.Metal>
0.0000

> <Gold.Chemscore.Hbonds>
donor molecule, donor type, donor heavy atom, donor atom, acceptor molecule, acceptor atom, score
      L1  H    29    50       P1  7948  0.99
      P1  H  7997  8008       L1     5  1.00
      P1  H 10752 10763       L1     7  1.00

> <Gold.PLP.Chemscore.Internal.Correction>
0.3244

> <Gold.Rescore>
     Score         DG    S(hbond)    S(metal)    S(lipo)     H(rot)  DE(clash)    DE(int)     intcor
     19.63     -20.89       1.79        0.00     140.25       2.72       0.03       1.23       ----

> <Gold.Chemscore.Fitness>
19.6334

> <Gold.Chemscore.DG>
-20.8944

> <Gold.Chemscore.ZeroCoef>
-5.4800

> <Gold.Chemscore.Hbond>
1.7882

> <Gold.Chemscore.Metal>
0.0000

> <Gold.Chemscore.Lipo>
140.2476

> <Gold.Chemscore.Internal_Hbond>
0.0000

> <Gold.Chemscore.DEClash>
0.0308

> <Gold.Chemscore.DEInternal>
1.2302

> <Gold.Chemscore.Rot>
2.7215

> <Gold.Chemscore.Internal.Correction>
   9.000000E+99

> <Gold.Chemscore.Hbonds>
donor molecule, donor type, donor heavy atom, donor atom, acceptor molecule, acceptor atom, score
      L1  H    29    50       P1  7948  0.23
      P1  H  7997  8008       L1     5  0.52
      P1  H 10752 10763       L1     7  0.42

> <Gold.Chemscore.Hbond.Weighted>
-5.9725

> <Gold.Chemscore.Metal.Weighted>
-0.0000

> <Gold.Chemscore.Lipo.Weighted>
-16.4090

> <Gold.Chemscore.Internal_Hbond.Weighted>
0.0000

> <Gold.Chemscore.DEClash.Weighted>
0.0308

> <Gold.Chemscore.DEInternal.Weighted>
1.2302

> <Gold.Chemscore.Rot.Weighted>
6.9670

> <Gold.Chemscore.Internal.Correction.Weighted>
   9.000000E+99

> <Gold.Protein.RotatedTorsions>
[ 6907 6896 6895 6894 ] final  -14.35 input  -60.11 | X-H torsion
[ 7974 7965 7964 7962 ] final  151.97 input  175.53 | X-H torsion
[ 8008 7997 7996 7995 ] final  -68.70 input   59.86 | X-H torsion
[ 10167 10162 10161 10158 ] final -118.78 input  -65.29 | X-H torsion
[ 10718 10713 10712 10709 ] final  110.57 input   66.30 | X-H torsion
[ 10763 10752 10751 10750 ] final  115.90 input  -60.55 | X-H torsion
[ 11005 11000 10999 10996 ] final  -53.55 input  -57.11 | X-H torsion

> <Gold.Protein.ActiveResidues>
 VAL166  LYS551  ARG553  GLY616  TRP617  ASP618  TYR619  PRO620  LYS621  CYS622 
 ASP623  PHE694  ASN695  SER759  ASP760  ASP761  ALA762  ILE779  LEU786  VAL792 
 PHE793  MET794  SER795  GLU796  ALA797  LYS798  CYS799  TRP800  GLU811  SER814 

> <Gold.Protein.RotatedAtoms>
  151.3408  135.0863  159.9370 H   0  0  0  0  0  0  0  0  0  0  0  0  # atno 6907 bound_to 6896
  152.5212  133.9449  159.7654 H   0  0  0  0  0  0  0  0  0  0  0  0  # atno 6908 bound_to 6896
  150.9806  133.6196  159.2753 H   0  0  0  0  0  0  0  0  0  0  0  0  # atno 6909 bound_to 6896
  144.8255  139.6607  143.6082 H   0  0  0  0  0  0  0  0  0  0  0  0  # atno 7974 bound_to 7965
  154.4886  140.0868  156.7543 H   0  0  0  0  0  0  0  0  0  0  0  0  # atno 8008 bound_to 7997
  155.4287  140.3449  155.4260 H   0  0  0  0  0  0  0  0  0  0  0  0  # atno 8009 bound_to 7997
  156.1298  140.1498  156.9071 H   0  0  0  0  0  0  0  0  0  0  0  0  # atno 8010 bound_to 7997
  140.0537  143.5035  152.2068 H   0  0  0  0  0  0  0  0  0  0  0  0  # atno 10167 bound_to 10162
  157.6487  131.0935  150.6621 H   0  0  0  0  0  0  0  0  0  0  0  0  # atno 10718 bound_to 10713
  153.5291  135.3582  155.2667 H   0  0  0  0  0  0  0  0  0  0  0  0  # atno 10763 bound_to 10752
  154.8728  135.4064  154.3172 H   0  0  0  0  0  0  0  0  0  0  0  0  # atno 10764 bound_to 10752
  153.3857  135.7070  153.6599 H   0  0  0  0  0  0  0  0  0  0  0  0  # atno 10765 bound_to 10752
  141.0981  133.6621  156.4188 H   0  0  0  0  0  0  0  0  0  0  0  0  # atno 11005 bound_to 11000
  146.2560  139.6303  142.9395 LP  0  0  0  0  0  0  0  0  0  0  0  0  # atno 17320 bound_to 7965
  145.5010  141.0437  143.2540 LP  0  0  0  0  0  0  0  0  0  0  0  0  # atno 17321 bound_to 7965
  139.5937  144.7559  151.3339 LP  0  0  0  0  0  0  0  0  0  0  0  0  # atno 17342 bound_to 10162
  140.7204  143.7150  150.7740 LP  0  0  0  0  0  0  0  0  0  0  0  0  # atno 17343 bound_to 10162
  156.6935  130.4602  149.5593 LP  0  0  0  0  0  0  0  0  0  0  0  0  # atno 17370 bound_to 10713
  156.1845  130.6520  151.0990 LP  0  0  0  0  0  0  0  0  0  0  0  0  # atno 17371 bound_to 10713
  140.5089  134.6414  157.5277 LP  0  0  0  0  0  0  0  0  0  0  0  0  # atno 17394 bound_to 11000
  139.9824  134.7116  155.9835 LP  0  0  0  0  0  0  0  0  0  0  0  0  # atno 17395 bound_to 11000

$$$$
