AV-unprocessed.smi:2436|AV-procd|sdf|9593|dock8
  -GOLD-   2272013223D 1   1.00000     0.00000
 Structure written by MMmdl.
 36 37  0  0  0  0  0  0  0  0  1 V2000
  152.6508  143.1376  161.6234 C   0  0  0  0  0  0  0  0  0  0  0  0
  152.4018  142.3618  160.3207 C   0  0  0  0  0  0  0  0  0  0  0  0
  151.9293  143.2344  159.1427 C   0  0  0  0  0  0  0  0  0  0  0  0
  151.4092  142.3987  158.0559 N   0  0  0  0  0  0  0  0  0  0  0  0
  151.8811  141.2015  157.6722 C   0  0  0  0  0  0  0  0  0  0  0  0
  152.8359  140.6408  158.2108 O   0  0  0  0  0  0  0  0  0  0  0  0
  151.1768  140.7131  156.6362 N   0  0  0  0  0  0  0  0  0  0  0  0
  151.3654  139.4835  155.9514 C   0  0  0  0  0  0  0  0  0  0  0  0
  151.8797  138.4212  156.7283 C   0  0  0  0  0  0  0  0  0  0  0  0
  152.0848  137.1832  156.0854 C   0  0  0  0  0  0  0  0  0  0  0  0
  152.5879  136.1214  156.8080 O   0  0  0  0  0  0  0  0  0  0  0  0
  153.0888  136.3763  158.1155 C   0  0  0  0  0  0  0  0  0  0  0  0
  151.7973  137.0174  154.7716 N   0  0  0  0  0  0  0  0  0  0  0  0
  151.3149  138.0786  154.1242 C   0  0  0  0  0  0  0  0  0  0  0  0
  151.0869  139.2884  154.6387 N   0  0  0  0  0  0  0  0  0  0  0  0
  150.9966  144.4279  159.4451 C   0  0  0  0  0  0  0  0  0  0  0  0
  152.2385  145.3219  159.4794 C   0  0  0  0  0  0  0  0  0  0  0  0
  152.9074  144.2832  158.5753 C   0  0  0  0  0  0  0  0  0  0  0  0
  152.9396  142.4580  162.4251 H   0  0  0  0  0  0  0  0  0  0  0  0
  151.7563  143.6687  161.9484 H   0  0  0  0  0  0  0  0  0  0  0  0
  153.4529  143.8672  161.5100 H   0  0  0  0  0  0  0  0  0  0  0  0
  153.3112  141.8242  160.0512 H   0  0  0  0  0  0  0  0  0  0  0  0
  151.6630  141.5859  160.5232 H   0  0  0  0  0  0  0  0  0  0  0  0
  150.6202  142.7723  157.5489 H   0  0  0  0  0  0  0  0  0  0  0  0
  150.4171  141.2859  156.2995 H   0  0  0  0  0  0  0  0  0  0  0  0
  152.1116  138.5456  157.7762 H   0  0  0  0  0  0  0  0  0  0  0  0
  153.4396  135.4432  158.5561 H   0  0  0  0  0  0  0  0  0  0  0  0
  152.3129  136.7786  158.7684 H   0  0  0  0  0  0  0  0  0  0  0  0
  153.9317  137.0686  158.0918 H   0  0  0  0  0  0  0  0  0  0  0  0
  151.0862  137.9452  153.0774 H   0  0  0  0  0  0  0  0  0  0  0  0
  150.3235  144.6853  158.6247 H   0  0  0  0  0  0  0  0  0  0  0  0
  150.4612  144.3614  160.3928 H   0  0  0  0  0  0  0  0  0  0  0  0
  152.1062  146.3053  159.0277 H   0  0  0  0  0  0  0  0  0  0  0  0
  152.6947  145.3858  160.4687 H   0  0  0  0  0  0  0  0  0  0  0  0
  153.9598  144.1063  158.7982 H   0  0  0  0  0  0  0  0  0  0  0  0
  152.7574  144.4994  157.5155 H   0  0  0  0  0  0  0  0  0  0  0  0
  1  2  1  0  0  0  0
  1 19  1  0  0  0  0
  1 20  1  0  0  0  0
  1 21  1  0  0  0  0
  2  3  1  0  0  0  0
  2 22  1  0  0  0  0
  2 23  1  0  0  0  0
  3 18  1  0  0  0  0
  3  4  1  0  0  0  0
  3 16  1  0  0  0  0
  4  5  1  0  0  0  0
  4 24  1  0  0  0  0
  5  6  2  0  0  0  0
  5  7  1  0  0  0  0
  7  8  1  0  0  0  0
  7 25  1  0  0  0  0
  8 15  1  0  0  0  0
  8  9  2  0  0  0  0
  9 10  1  0  0  0  0
  9 26  1  0  0  0  0
 10 11  1  0  0  0  0
 10 13  2  0  0  0  0
 11 12  1  0  0  0  0
 12 27  1  0  0  0  0
 12 28  1  0  0  0  0
 12 29  1  0  0  0  0
 13 14  1  0  0  0  0
 14 15  2  0  0  0  0
 14 30  1  0  0  0  0
 16 17  1  0  0  0  0
 16 31  1  0  0  0  0
 16 32  1  0  0  0  0
 17 18  1  0  0  0  0
 17 33  1  0  0  0  0
 17 34  1  0  0  0  0
 18 35  1  0  0  0  0
 18 36  1  0  0  0  0
M  END
> <s_m_source_file>
AV-unprocessed.smi

> <i_m_source_file_index>
2436

> <i_lp_mmshare_version>
43012

> <i_f3d_flags>
0

> <s_epik_input>
W0NIMl0xW0NIMl1bQ0gyXUMxKFtDSDJdW0NIM10pW05IXUMoPU8pW05IXWMyW2NIXWMoT1tDSDNdKW5bY0hdbjI=

> <s_epik_cmdline>
J2VwaWtfcHl0aG9uJywgJy1waCcsICc3LjAnLCAnLXRuJywgJzgnLCAnLW1hJywgJzIwMCcsICctbWV0YWxfYmluZGluZycsICctaW1hZScsICc8aW5maWxlLm1hZT4nLCAnLW9tYWUnLCAnPG91dGZpbGUubWFlPic=

> <r_lp_tautomer_probability>
1

> <r_epik_Ionization_Penalty>
2.8431e-05

> <r_epik_Ionization_Penalty_Charging>
0

> <r_epik_Ionization_Penalty_Neutral>
2.8431e-05

> <r_epik_State_Penalty>
-0

> <r_epik_Charging_Adjusted_Penalty>
0

> <i_epik_Tot_Q>
0

> <i_epik_Tot_abs_Q>
0

> <r_epik_Metal_State_Penalty>
-0

> <b_epik_Metal_Only>
0

> <s_lp_Force_Field>
OPLS_2005

> <r_lp_Energy>
14.8333

> <b_lp_Chiralities_Consistent>
1

> <s_lp_Variant>
AV-unprocessed.smi:2436-1

> <Gold.Version>
5.8.1

> <Gold.Id.Protein>
6NUR|6NUR_protein|mol2

> <Gold.PLP.Fitness>
46.3901

> <Gold.PLP.PLP>
-35.5657

> <Gold.PLP.part.hbond>
-3.9986

> <Gold.PLP.part.metal>
0.0000

> <Gold.PLP.part.buried>
-2.8827

> <Gold.PLP.part.nonpolar>
-27.6382

> <Gold.PLP.part.repulsive>
0.3772

> <Gold.PLP.ligand.clash>
0.0000

> <Gold.PLP.ligand.torsion>
0.8664

> <Gold.PLP.Chemscore.Hbond>
3.0324

> <Gold.PLP.Chemscore.CHOScore>
1.0193

> <Gold.PLP.Chemscore.Metal>
0.0000

> <Gold.Chemscore.Hbonds>
donor molecule, donor type, donor heavy atom, donor atom, acceptor molecule, acceptor atom, score
      P1  H  7989  7998       L1    15  1.00
      P1  H  7997  8010       L1     6  0.46
      P1  H 10752 10763       L1    11  0.78
      P1  H 10752 10765       L1    13  0.51
      L1  C    14    30       P1  7949  1.00

> <Gold.PLP.Chemscore.Internal.Correction>
0.4020

> <Gold.Rescore>
     Score         DG    S(hbond)    S(metal)    S(lipo)     H(rot)  DE(clash)    DE(int)     intcor
     12.82     -17.90       2.08        0.00      81.13       1.57       1.23       3.85       ----

> <Gold.Chemscore.Fitness>
12.8206

> <Gold.Chemscore.DG>
-17.8986

> <Gold.Chemscore.ZeroCoef>
-5.4800

> <Gold.Chemscore.Hbond>
2.0821

> <Gold.Chemscore.Metal>
0.0000

> <Gold.Chemscore.Lipo>
81.1260

> <Gold.Chemscore.Internal_Hbond>
0.0000

> <Gold.Chemscore.DEClash>
1.2257

> <Gold.Chemscore.DEInternal>
3.8524

> <Gold.Chemscore.Rot>
1.5732

> <Gold.Chemscore.Internal.Correction>
   9.000000E+99

> <Gold.Chemscore.Hbonds>
donor molecule, donor type, donor heavy atom, donor atom, acceptor molecule, acceptor atom, score
      P1  H  7989  7998       L1    15  0.75
      P1  H  7997  8010       L1     6  0.44
      P1  H 10752 10763       L1    11  0.14
      P1  H 10752 10765       L1    13  0.37

> <Gold.Chemscore.Hbond.Weighted>
-6.9542

> <Gold.Chemscore.Metal.Weighted>
-0.0000

> <Gold.Chemscore.Lipo.Weighted>
-9.4917

> <Gold.Chemscore.Internal_Hbond.Weighted>
0.0000

> <Gold.Chemscore.DEClash.Weighted>
1.2257

> <Gold.Chemscore.DEInternal.Weighted>
3.8524

> <Gold.Chemscore.Rot.Weighted>
4.0274

> <Gold.Chemscore.Internal.Correction.Weighted>
   9.000000E+99

> <Gold.Protein.RotatedTorsions>
[ 6907 6896 6895 6894 ] final  127.54 input  -60.11 | X-H torsion
[ 7974 7965 7964 7962 ] final   46.69 input  175.53 | X-H torsion
[ 8008 7997 7996 7995 ] final   43.93 input   59.86 | X-H torsion
[ 10167 10162 10161 10158 ] final -152.74 input  -65.29 | X-H torsion
[ 10718 10713 10712 10709 ] final   -7.83 input   66.30 | X-H torsion
[ 10763 10752 10751 10750 ] final  133.98 input  -60.55 | X-H torsion
[ 11005 11000 10999 10996 ] final    1.65 input  -57.11 | X-H torsion

> <Gold.Protein.ActiveResidues>
 VAL166  LYS551  ARG553  GLY616  TRP617  ASP618  TYR619  PRO620  LYS621  CYS622 
 ASP623  PHE694  ASN695  SER759  ASP760  ASP761  ALA762  ILE779  LEU786  VAL792 
 PHE793  MET794  SER795  GLU796  ALA797  LYS798  CYS799  TRP800  GLU811  SER814 

> <Gold.Protein.RotatedAtoms>
  152.3803  133.6537  159.6155 H   0  0  0  0  0  0  0  0  0  0  0  0  # atno 6907 bound_to 6896
  150.7736  133.9125  159.3382 H   0  0  0  0  0  0  0  0  0  0  0  0  # atno 6908 bound_to 6896
  151.6932  135.0944  160.0288 H   0  0  0  0  0  0  0  0  0  0  0  0  # atno 6909 bound_to 6896
  146.0367  139.4829  142.9804 H   0  0  0  0  0  0  0  0  0  0  0  0  # atno 7974 bound_to 7965
  155.3110  140.3391  155.4244 H   0  0  0  0  0  0  0  0  0  0  0  0  # atno 8008 bound_to 7997
  156.1956  140.1713  156.8043 H   0  0  0  0  0  0  0  0  0  0  0  0  # atno 8009 bound_to 7997
  154.5494  140.0708  156.8627 H   0  0  0  0  0  0  0  0  0  0  0  0  # atno 8010 bound_to 7997
  139.7156  143.9038  152.2484 H   0  0  0  0  0  0  0  0  0  0  0  0  # atno 10167 bound_to 10162
  156.7115  130.5123  149.5891 H   0  0  0  0  0  0  0  0  0  0  0  0  # atno 10718 bound_to 10713
  153.8160  135.3122  155.3405 H   0  0  0  0  0  0  0  0  0  0  0  0  # atno 10763 bound_to 10752
  154.8032  135.4714  154.0330 H   0  0  0  0  0  0  0  0  0  0  0  0  # atno 10764 bound_to 10752
  153.1724  135.6880  153.8679 H   0  0  0  0  0  0  0  0  0  0  0  0  # atno 10765 bound_to 10752
  140.6131  133.9730  155.8187 H   0  0  0  0  0  0  0  0  0  0  0  0  # atno 11005 bound_to 11000
  145.6952  141.0152  143.1534 LP  0  0  0  0  0  0  0  0  0  0  0  0  # atno 17320 bound_to 7965
  144.7055  139.8579  143.7431 LP  0  0  0  0  0  0  0  0  0  0  0  0  # atno 17321 bound_to 7965
  139.8920  144.6960  150.8760 LP  0  0  0  0  0  0  0  0  0  0  0  0  # atno 17342 bound_to 10162
  140.7743  143.3579  151.1885 LP  0  0  0  0  0  0  0  0  0  0  0  0  # atno 17343 bound_to 10162
  156.1658  130.6404  151.0776 LP  0  0  0  0  0  0  0  0  0  0  0  0  # atno 17370 bound_to 10713
  157.6934  131.0802  150.7041 LP  0  0  0  0  0  0  0  0  0  0  0  0  # atno 17371 bound_to 10713
  141.0794  134.0085  157.3408 LP  0  0  0  0  0  0  0  0  0  0  0  0  # atno 17394 bound_to 11000
  139.9184  135.0199  156.7970 LP  0  0  0  0  0  0  0  0  0  0  0  0  # atno 17395 bound_to 11000

$$$$
