AV-unprocessed.smi:3175|AV-procd|sdf|12123|dock10
  -GOLD-   2272017563D 1   1.00000     0.00000
 Structure written by MMmdl.
 38 39  0  0  0  0  0  0  0  0  2 V2000
  153.0879  140.0225  158.2791 O   0  0  0  0  0  0  0  0  0  0  0  0
  152.4640  140.8472  158.9467 C   0  0  0  0  0  0  0  0  0  0  0  0
  153.1712  141.6474  160.0450 C   0  0  0  0  0  0  0  0  0  0  0  0
  152.9391  143.1684  159.9349 C   0  0  0  0  0  0  0  0  0  0  0  0
  151.7009  143.6512  160.6927 C   0  0  0  0  0  0  0  0  0  0  0  0
  151.3992  145.0316  160.1031 C   0  0  0  0  0  0  0  0  0  0  0  0
  151.9577  145.0150  158.6722 C   0  0  0  0  0  0  0  0  0  0  0  0
  152.6941  143.6791  158.5091 C   0  0  0  0  0  0  0  0  0  0  0  0
  151.1554  141.0905  158.7783 N   0  0  0  0  0  0  0  0  0  0  0  0
  150.3004  140.4391  157.7900 C   0  0  0  0  0  0  0  0  0  0  0  0
  150.9100  140.4343  156.3740 C   0  0  0  0  0  0  0  0  0  0  0  0
  149.8876  140.2093  155.2734 C   0  0  0  0  0  0  0  0  0  0  0  0
  148.9154  141.1922  154.9853 C   0  0  0  0  0  0  0  0  0  0  0  0
  147.9742  140.9549  153.9619 C   0  0  0  0  0  0  0  0  0  0  0  0
  148.0267  139.7394  153.2493 C   0  0  0  0  0  0  0  0  0  0  0  0
  148.9715  138.8223  153.5525 N   0  3  0  0  0  0  0  0  0  0  0  0
  149.8909  139.0122  154.5241 C   0  0  0  0  0  0  0  0  0  0  0  0
  152.8491  141.2933  161.0256 H   0  0  0  0  0  0  0  0  0  0  0  0
  154.2387  141.4354  159.9779 H   0  0  0  0  0  0  0  0  0  0  0  0
  153.8026  143.6965  160.3437 H   0  0  0  0  0  0  0  0  0  0  0  0
  150.8605  142.9825  160.5003 H   0  0  0  0  0  0  0  0  0  0  0  0
  151.8568  143.6848  161.7714 H   0  0  0  0  0  0  0  0  0  0  0  0
  150.3326  145.2571  160.1271 H   0  0  0  0  0  0  0  0  0  0  0  0
  151.9089  145.8008  160.6848 H   0  0  0  0  0  0  0  0  0  0  0  0
  151.1648  145.1146  157.9302 H   0  0  0  0  0  0  0  0  0  0  0  0
  152.6433  145.8510  158.5293 H   0  0  0  0  0  0  0  0  0  0  0  0
  153.6180  143.7848  157.9393 H   0  0  0  0  0  0  0  0  0  0  0  0
  152.0544  142.9793  157.9692 H   0  0  0  0  0  0  0  0  0  0  0  0
  150.7231  141.7870  159.3680 H   0  0  0  0  0  0  0  0  0  0  0  0
  150.1448  139.4122  158.1216 H   0  0  0  0  0  0  0  0  0  0  0  0
  149.3160  140.9095  157.7776 H   0  0  0  0  0  0  0  0  0  0  0  0
  151.4205  141.3810  156.1927 H   0  0  0  0  0  0  0  0  0  0  0  0
  151.6787  139.6636  156.3050 H   0  0  0  0  0  0  0  0  0  0  0  0
  148.8892  142.1173  155.5430 H   0  0  0  0  0  0  0  0  0  0  0  0
  147.2231  141.6949  153.7274 H   0  0  0  0  0  0  0  0  0  0  0  0
  147.3469  139.4753  152.4523 H   0  0  0  0  0  0  0  0  0  0  0  0
  150.5924  138.2043  154.6753 H   0  0  0  0  0  0  0  0  0  0  0  0
  148.9921  137.9490  153.0252 H   0  0  0  0  0  0  0  0  0  0  0  0
  1  2  2  0  0  0  0
  2  3  1  0  0  0  0
  2  9  1  0  0  0  0
  3  4  1  0  0  0  0
  3 18  1  0  0  0  0
  3 19  1  0  0  0  0
  4  8  1  0  0  0  0
  4  5  1  0  0  0  0
  4 20  1  0  0  0  0
  5  6  1  0  0  0  0
  5 21  1  0  0  0  0
  5 22  1  0  0  0  0
  6  7  1  0  0  0  0
  6 23  1  0  0  0  0
  6 24  1  0  0  0  0
  7  8  1  0  0  0  0
  7 25  1  0  0  0  0
  7 26  1  0  0  0  0
  8 27  1  0  0  0  0
  8 28  1  0  0  0  0
  9 10  1  0  0  0  0
  9 29  1  0  0  0  0
 10 11  1  0  0  0  0
 10 30  1  0  0  0  0
 10 31  1  0  0  0  0
 11 12  1  0  0  0  0
 11 32  1  0  0  0  0
 11 33  1  0  0  0  0
 12 17  1  0  0  0  0
 12 13  2  0  0  0  0
 13 14  1  0  0  0  0
 13 34  1  0  0  0  0
 14 15  2  0  0  0  0
 14 35  1  0  0  0  0
 15 16  1  0  0  0  0
 15 36  1  0  0  0  0
 16 17  2  0  0  0  0
 16 38  1  0  0  0  0
 17 37  1  0  0  0  0
M  CHG  1  16   1
M  END
> <s_m_source_file>
AV-unprocessed.smi

> <i_m_source_file_index>
3175

> <i_lp_mmshare_version>
43012

> <i_f3d_flags>
0

> <s_epik_input>
W0NIMl0xW0NIMl1bQ0gyXVtDSDJdW0NIXTFbQ0gyXUMoPU8pW05IXVtDSDJdW0NIMl1jMltjSF1bY0hdW2NIXW5bY0hdMg==

> <s_epik_cmdline>
J2VwaWtfcHl0aG9uJywgJy1waCcsICc3LjAnLCAnLXRuJywgJzgnLCAnLW1hJywgJzIwMCcsICctbWV0YWxfYmluZGluZycsICctaW1hZScsICc8aW5maWxlLm1hZT4nLCAnLW9tYWUnLCAnPG91dGZpbGUubWFlPic=

> <r_epik_Ionization_Penalty>
2.25127

> <r_epik_Ionization_Penalty_Charging>
2.25127

> <r_epik_Ionization_Penalty_Neutral>
2.03742e-08

> <r_epik_State_Penalty>
2.39841

> <r_epik_Charging_Adjusted_Penalty>
4.64968

> <i_epik_Tot_Q>
1

> <i_epik_Tot_abs_Q>
1

> <r_epik_Metal_State_Penalty>
2.41158

> <b_epik_Metal_Only>
0

> <s_lp_Force_Field>
OPLS_2005

> <r_lp_Energy>
27.035

> <b_lp_Chiralities_Consistent>
1

> <s_lp_Variant>
AV-unprocessed.smi:3175-2

> <Gold.Version>
5.8.1

> <Gold.Id.Protein>
6NUR|6NUR_protein|mol2

> <Gold.PLP.Fitness>
49.8170

> <Gold.PLP.PLP>
-42.1402

> <Gold.PLP.part.hbond>
-2.9486

> <Gold.PLP.part.metal>
0.0000

> <Gold.PLP.part.buried>
-0.3866

> <Gold.PLP.part.nonpolar>
-40.0980

> <Gold.PLP.part.repulsive>
0.2404

> <Gold.PLP.ligand.clash>
0.0000

> <Gold.PLP.ligand.torsion>
0.6674

> <Gold.PLP.Chemscore.Hbond>
3.0000

> <Gold.PLP.Chemscore.CHOScore>
0.0000

> <Gold.PLP.Chemscore.Metal>
0.0000

> <Gold.Chemscore.Hbonds>
donor molecule, donor type, donor heavy atom, donor atom, acceptor molecule, acceptor atom, score
      L1  H    16    38       P1  7948  1.92
      P1  H  7997  8010       L1     1  1.00

> <Gold.PLP.Chemscore.Internal.Correction>
0.0117

> <Gold.Rescore>
     Score         DG    S(hbond)    S(metal)    S(lipo)     H(rot)  DE(clash)    DE(int)     intcor
     19.15     -20.98       1.94        0.00     111.87       1.59       0.14       1.69       ----

> <Gold.Chemscore.Fitness>
19.1542

> <Gold.Chemscore.DG>
-20.9799

> <Gold.Chemscore.ZeroCoef>
-5.4800

> <Gold.Chemscore.Hbond>
1.9431

> <Gold.Chemscore.Metal>
0.0000

> <Gold.Chemscore.Lipo>
111.8706

> <Gold.Chemscore.Internal_Hbond>
0.0000

> <Gold.Chemscore.DEClash>
0.1381

> <Gold.Chemscore.DEInternal>
1.6876

> <Gold.Chemscore.Rot>
1.5933

> <Gold.Chemscore.Internal.Correction>
   9.000000E+99

> <Gold.Chemscore.Hbonds>
donor molecule, donor type, donor heavy atom, donor atom, acceptor molecule, acceptor atom, score
      L1  H    16    38       P1  7948  0.91
      P1  H  7997  8010       L1     1  0.95

> <Gold.Chemscore.Hbond.Weighted>
-6.4900

> <Gold.Chemscore.Metal.Weighted>
-0.0000

> <Gold.Chemscore.Lipo.Weighted>
-13.0889

> <Gold.Chemscore.Internal_Hbond.Weighted>
0.0000

> <Gold.Chemscore.DEClash.Weighted>
0.1381

> <Gold.Chemscore.DEInternal.Weighted>
1.6876

> <Gold.Chemscore.Rot.Weighted>
4.0789

> <Gold.Chemscore.Internal.Correction.Weighted>
   9.000000E+99

> <Gold.Protein.RotatedTorsions>
[ 6907 6896 6895 6894 ] final    1.84 input  -60.11 | X-H torsion
[ 7974 7965 7964 7962 ] final  -18.81 input  175.53 | X-H torsion
[ 8008 7997 7996 7995 ] final   29.97 input   59.86 | X-H torsion
[ 10167 10162 10161 10158 ] final  -48.53 input  -65.29 | X-H torsion
[ 10718 10713 10712 10709 ] final   25.79 input   66.30 | X-H torsion
[ 10763 10752 10751 10750 ] final  111.11 input  -60.55 | X-H torsion
[ 11005 11000 10999 10996 ] final  131.91 input  -57.11 | X-H torsion

> <Gold.Protein.ActiveResidues>
 VAL166  LYS551  ARG553  GLY616  TRP617  ASP618  TYR619  PRO620  LYS621  CYS622 
 ASP623  PHE694  ASN695  SER759  ASP760  ASP761  ALA762  ILE779  LEU786  VAL792 
 PHE793  MET794  SER795  GLU796  ALA797  LYS798  CYS799  TRP800  GLU811  SER814 

> <Gold.Protein.RotatedAtoms>
  151.5992  135.1048  160.0056 H   0  0  0  0  0  0  0  0  0  0  0  0  # atno 6907 bound_to 6896
  152.4266  133.7202  159.6540 H   0  0  0  0  0  0  0  0  0  0  0  0  # atno 6908 bound_to 6896
  150.8156  133.8272  159.3184 H   0  0  0  0  0  0  0  0  0  0  0  0  # atno 6909 bound_to 6896
  146.1873  140.3973  142.8471 H   0  0  0  0  0  0  0  0  0  0  0  0  # atno 7974 bound_to 7965
  155.0829  140.3212  155.4596 H   0  0  0  0  0  0  0  0  0  0  0  0  # atno 8008 bound_to 7997
  156.2762  140.2091  156.5903 H   0  0  0  0  0  0  0  0  0  0  0  0  # atno 8009 bound_to 7997
  154.6964  140.0511  157.0402 H   0  0  0  0  0  0  0  0  0  0  0  0  # atno 8010 bound_to 7997
  140.6726  143.2736  151.4084 H   0  0  0  0  0  0  0  0  0  0  0  0  # atno 10167 bound_to 10162
  157.1982  130.6877  149.6177 H   0  0  0  0  0  0  0  0  0  0  0  0  # atno 10718 bound_to 10713
  153.4586  135.3727  155.2325 H   0  0  0  0  0  0  0  0  0  0  0  0  # atno 10763 bound_to 10752
  154.8757  135.3903  154.3952 H   0  0  0  0  0  0  0  0  0  0  0  0  # atno 10764 bound_to 10752
  153.4522  135.7085  153.6166 H   0  0  0  0  0  0  0  0  0  0  0  0  # atno 10765 bound_to 10752
  139.9758  134.9564  156.9506 H   0  0  0  0  0  0  0  0  0  0  0  0  # atno 11005 bound_to 11000
  144.8421  140.6874  143.6222 LP  0  0  0  0  0  0  0  0  0  0  0  0  # atno 17320 bound_to 7965
  145.3899  139.1619  143.4235 LP  0  0  0  0  0  0  0  0  0  0  0  0  # atno 17321 bound_to 7965
  139.6002  144.1311  152.2190 LP  0  0  0  0  0  0  0  0  0  0  0  0  # atno 17342 bound_to 10162
  140.0693  144.5793  150.7204 LP  0  0  0  0  0  0  0  0  0  0  0  0  # atno 17343 bound_to 10162
  155.9703  130.4592  150.6026 LP  0  0  0  0  0  0  0  0  0  0  0  0  # atno 17370 bound_to 10713
  157.3794  131.0778  151.1490 LP  0  0  0  0  0  0  0  0  0  0  0  0  # atno 17371 bound_to 10713
  140.5197  134.0920  155.7289 LP  0  0  0  0  0  0  0  0  0  0  0  0  # atno 17394 bound_to 11000
  141.1435  133.9096  157.2270 LP  0  0  0  0  0  0  0  0  0  0  0  0  # atno 17395 bound_to 11000

$$$$
