#       Name:                AV-unprocessed.smi:1254
#       Creating user name   scv26
#       Creation time:       Fri Mar 27 04:39:02 2020


#       File generated by GOLD software.
#

@<TRIPOS>MOLECULE
AV-unprocessed.smi:1254
    53    54     1
SMALL
NO_CHARGES


@<TRIPOS>ATOM
      1 ****        -4.0876   6.0614   3.8786 C.3            1 S1                 0.0000
      2 ****        -3.9526   5.2524   2.6344 C.2            1 S1                 0.0000
      3 ****        -3.4417   4.0102   2.3842 C.2            1 S1                 0.0000
      4 ****        -3.6331   3.8631   0.9792 C.2            1 S1                 0.0000
      5 ****        -3.2792   2.7345   0.1955 N.am           1 S1                 0.0000
      6 ****        -2.6778   1.5997   0.5898 C.2            1 S1                 0.0000
      7 ****        -2.2971   1.3557   1.7347 O.2            1 S1                 0.0000
      8 ****        -2.5351   0.7467  -0.4349 N.am           1 S1                 0.0000
      9 ****        -1.9067  -0.5679  -0.3535 C.3            1 S1                 0.0000
     10 ****        -0.4243  -0.5113  -0.7581 C.3            1 S1                 0.0000
     11 ****         0.2056  -1.9168  -0.8177 C.3            1 S1                 0.0000
     12 ****         1.6268  -1.8729  -1.1464 N.3            1 S1                 0.0000
     13 ****         2.1889  -3.2231  -1.2079 C.3            1 S1                 0.0000
     14 ****         3.6355  -3.3214  -1.7468 C.3            1 S1                 0.0000
     15 ****         3.7679  -4.4644  -2.7655 C.3            1 S1                 0.0000
     16 ****         4.6559  -3.5128  -0.6115 C.3            1 S1                 0.0000
     17 ****         2.3106  -1.0168  -0.1807 C.3            1 S1                 0.0000
     18 ****         1.6766   0.3820  -0.1027 C.3            1 S1                 0.0000
     19 ****         0.2919   0.2615   0.2023 O.3            1 S1                 0.0000
     20 ****        -4.2074   4.9183   0.4313 N.2            1 S1                 0.0000
     21 ****        -4.4148   5.8152   1.4857 O.3            1 S1                 0.0000
     22 ****        -3.8431   5.4659   4.7583 H              1 S1                 0.0000
     23 ****        -5.1075   6.4289   3.9931 H              1 S1                 0.0000
     24 ****        -3.4178   6.9210   3.8543 H              1 S1                 0.0000
     25 ****        -3.0076   3.3310   3.1021 H              1 S1                 0.0000
     26 ****        -3.5197   2.7973  -0.7826 H              1 S1                 0.0000
     27 ****        -2.8747   1.0313  -1.3419 H              1 S1                 0.0000
     28 ****        -2.0176  -0.9975   0.6436 H              1 S1                 0.0000
     29 ****        -2.4453  -1.2293  -1.0326 H              1 S1                 0.0000
     30 ****        -0.3394  -0.0354  -1.7370 H              1 S1                 0.0000
     31 ****         0.0654  -2.4163   0.1424 H              1 S1                 0.0000
     32 ****        -0.3239  -2.5157  -1.5595 H              1 S1                 0.0000
     33 ****         2.1188  -3.7027  -0.2302 H              1 S1                 0.0000
     34 ****         1.5477  -3.8179  -1.8599 H              1 S1                 0.0000
     35 ****         3.8793  -2.3991  -2.2762 H              1 S1                 0.0000
     36 ****         3.5341  -5.4286  -2.3128 H              1 S1                 0.0000
     37 ****         4.7809  -4.5212  -3.1649 H              1 S1                 0.0000
     38 ****         3.0926  -4.3189  -3.6093 H              1 S1                 0.0000
     39 ****         4.4779  -4.4444  -0.0733 H              1 S1                 0.0000
     40 ****         4.6125  -2.7020   0.1145 H              1 S1                 0.0000
     41 ****         5.6738  -3.5458  -1.0011 H              1 S1                 0.0000
     42 ****         2.2873  -1.4797   0.8070 H              1 S1                 0.0000
     43 ****         3.3595  -0.9054  -0.4530 H              1 S1                 0.0000
     44 ****         2.1620   0.9759   0.6718 H              1 S1                 0.0000
     45 ****         1.8038   0.9175  -1.0448 H              1 S1                 0.0000
     46 ****        -2.4278   2.0318   2.4599 LP             1 S1                 0.0000
     47 ****        -1.8572   0.4813   1.9397 LP             1 S1                 0.0000
     48 ****         1.7578  -1.4784  -2.0559 LP             1 S1                 0.0000
     49 ****         0.1994  -0.1762   1.0967 LP             1 S1                 0.0000
     50 ****        -0.1079   1.1774   0.2366 LP             1 S1                 0.0000
     51 ****        -4.4438   5.0488  -0.5315 LP             1 S1                 0.0000
     52 ****        -3.9213   6.6661   1.3057 LP             1 S1                 0.0000
     53 ****        -5.3918   6.0090   1.5754 LP             1 S1                 0.0000
@<TRIPOS>BOND
    1    1    2 1     
    2    1   22 1     
    3    1   23 1     
    4    1   24 1     
    5    2   21 1     
    6    2    3 2     
    7    3    4 1     
    8    3   25 1     
    9    4    5 1     
   10    4   20 2     
   11    5    6 am    
   12    5   26 1     
   13    6    7 2     
   14    6    8 am    
   15    8    9 1     
   16    8   27 1     
   17    9   10 1     
   18    9   28 1     
   19    9   29 1     
   20   10   19 1     
   21   10   11 1     
   22   10   30 1     
   23   11   12 1     
   24   11   31 1     
   25   11   32 1     
   26   12   13 1     
   27   12   17 1     
   28   13   14 1     
   29   13   33 1     
   30   13   34 1     
   31   14   15 1     
   32   14   16 1     
   33   14   35 1     
   34   15   36 1     
   35   15   37 1     
   36   15   38 1     
   37   16   39 1     
   38   16   40 1     
   39   16   41 1     
   40   17   18 1     
   41   17   42 1     
   42   17   43 1     
   43   18   19 1     
   44   18   44 1     
   45   18   45 1     
   46   20   21 1     
   47    7   46 1     
   48    7   47 1     
   49   12   48 1     
   50   19   49 1     
   51   19   50 1     
   52   20   51 1     
   53   21   52 1     
   54   21   53 1     
@<TRIPOS>SUBSTRUCTURE
      1 S1             1
@<TRIPOS>SET
LONE_PAIRS      STATIC     ATOMS    <user>   **** ""
8 46 47 48 49 50 51 52 53
DONOR_HYDROGENS      STATIC     ATOMS    <user>   **** ""
2 26 27
ATOM$BLUE        STATIC     ATOMS    COLORGROUP SYSTEM
8 46 47 48 49 50 51 52 53
ATOM$RED        STATIC     ATOMS    COLORGROUP SYSTEM
2 26 27
