AV-unprocessed.smi:342|AV-procd|sdf|2385|dock9
  -GOLD-   2262022313D 1   1.00000     0.00000
 Structure written by MMmdl.
 41 43  0  0  0  0  0  0  0  0  1 V2000
  150.6639  143.0129  156.2364 O   0  0  0  0  0  0  0  0  0  0  0  0
  150.4372  142.0987  157.2912 C   0  0  1  0  0  0  0  0  0  0  0  0
  149.2202  141.2219  156.9319 C   0  0  0  0  0  0  0  0  0  0  0  0
  147.9253  141.7052  157.4144 N   0  0  0  0  0  0  0  0  0  0  0  0
  147.0306  140.5898  157.7060 C   0  0  0  0  0  0  0  0  0  0  0  0
  145.6599  141.0672  158.2152 C   0  0  0  0  0  0  0  0  0  0  0  0
  145.8393  141.8782  159.3712 O   0  0  0  0  0  0  0  0  0  0  0  0
  146.6693  143.0077  159.1231 C   0  0  0  0  0  0  0  0  0  0  0  0
  148.0426  142.5405  158.6092 C   0  0  0  0  0  0  0  0  0  0  0  0
  151.7013  141.2432  157.5127 C   0  0  0  0  0  0  0  0  0  0  0  0
  152.1673  141.2687  158.8940 N   0  0  0  0  0  0  0  0  0  0  0  0
  152.6488  140.2449  159.6477 C   0  0  0  0  0  0  0  0  0  0  0  0
  152.7591  138.8394  159.1240 C   0  0  0  0  0  0  0  0  0  0  0  0
  153.2892  138.0286  160.0411 F   0  0  0  0  0  0  0  0  0  0  0  0
  151.5550  138.3630  158.8070 F   0  0  0  0  0  0  0  0  0  0  0  0
  153.5381  138.7916  158.0435 F   0  0  0  0  0  0  0  0  0  0  0  0
  152.9983  140.5659  160.8957 N   0  0  0  0  0  0  0  0  0  0  0  0
  152.7131  141.9148  160.9592 C   0  0  0  0  0  0  0  0  0  0  0  0
  152.8619  142.8354  162.0210 C   0  0  0  0  0  0  0  0  0  0  0  0
  152.4890  144.1850  161.8532 C   0  0  0  0  0  0  0  0  0  0  0  0
  151.9613  144.6316  160.6245 C   0  0  0  0  0  0  0  0  0  0  0  0
  151.8055  143.7305  159.5538 C   0  0  0  0  0  0  0  0  0  0  0  0
  152.1837  142.3850  159.7251 C   0  0  0  0  0  0  0  0  0  0  0  0
  149.8506  143.4506  156.0373 H   0  0  0  0  0  0  0  0  0  0  0  0
  150.2468  142.6712  158.1969 H   0  0  0  0  0  0  0  0  0  0  0  0
  149.1870  141.1219  155.8457 H   0  0  0  0  0  0  0  0  0  0  0  0
  149.3825  140.2127  157.3136 H   0  0  0  0  0  0  0  0  0  0  0  0
  146.8881  139.9853  156.8094 H   0  0  0  0  0  0  0  0  0  0  0  0
  147.4841  139.9367  158.4531 H   0  0  0  0  0  0  0  0  0  0  0  0
  145.1349  141.6317  157.4429 H   0  0  0  0  0  0  0  0  0  0  0  0
  145.0322  140.2137  158.4716 H   0  0  0  0  0  0  0  0  0  0  0  0
  146.1901  143.6676  158.3981 H   0  0  0  0  0  0  0  0  0  0  0  0
  146.7835  143.5756  160.0466 H   0  0  0  0  0  0  0  0  0  0  0  0
  148.5529  141.9872  159.3991 H   0  0  0  0  0  0  0  0  0  0  0  0
  148.6484  143.4214  158.4031 H   0  0  0  0  0  0  0  0  0  0  0  0
  151.4939  140.2049  157.2513 H   0  0  0  0  0  0  0  0  0  0  0  0
  152.4985  141.5670  156.8453 H   0  0  0  0  0  0  0  0  0  0  0  0
  153.2624  142.5019  162.9668 H   0  0  0  0  0  0  0  0  0  0  0  0
  152.6068  144.8801  162.6715 H   0  0  0  0  0  0  0  0  0  0  0  0
  151.6761  145.6665  160.5041 H   0  0  0  0  0  0  0  0  0  0  0  0
  151.4010  144.0707  158.6123 H   0  0  0  0  0  0  0  0  0  0  0  0
  1  2  1  0  0  0  0
  1 24  1  0  0  0  0
  2  3  1  0  0  0  0
  2 10  1  0  0  0  0
  2 25  1  0  0  0  0
  3  4  1  0  0  0  0
  3 26  1  0  0  0  0
  3 27  1  0  0  0  0
  4  9  1  0  0  0  0
  4  5  1  0  0  0  0
  5  6  1  0  0  0  0
  5 28  1  0  0  0  0
  5 29  1  0  0  0  0
  6  7  1  0  0  0  0
  6 30  1  0  0  0  0
  6 31  1  0  0  0  0
  7  8  1  0  0  0  0
  8  9  1  0  0  0  0
  8 32  1  0  0  0  0
  8 33  1  0  0  0  0
  9 34  1  0  0  0  0
  9 35  1  0  0  0  0
 10 11  1  0  0  0  0
 10 36  1  0  0  0  0
 10 37  1  0  0  0  0
 11 23  1  0  0  0  0
 11 12  1  0  0  0  0
 12 13  1  0  0  0  0
 12 17  2  0  0  0  0
 13 14  1  0  0  0  0
 13 15  1  0  0  0  0
 13 16  1  0  0  0  0
 17 18  1  0  0  0  0
 18 23  2  0  0  0  0
 18 19  1  0  0  0  0
 19 20  2  0  0  0  0
 19 38  1  0  0  0  0
 20 21  1  0  0  0  0
 20 39  1  0  0  0  0
 21 22  2  0  0  0  0
 21 40  1  0  0  0  0
 22 23  1  0  0  0  0
 22 41  1  0  0  0  0
M  END
> <s_m_source_file>
AV-unprocessed.smi

> <i_m_source_file_index>
342

> <i_lp_mmshare_version>
43012

> <i_f3d_flags>
0

> <s_epik_input>
W2NIXTFbY0hdW2NIXVtjSF1jKGMxMiluKGMobjIpQyhGKShGKUYpW0NIMl1bQ0BIXShbT0hdKVtDSDJdTjNbQ0gyXVtDSDJdT1tDSDJdW0NIMl0z

> <s_epik_cmdline>
J2VwaWtfcHl0aG9uJywgJy1waCcsICc3LjAnLCAnLXRuJywgJzgnLCAnLW1hJywgJzIwMCcsICctbWV0YWxfYmluZGluZycsICctaW1hZScsICc8aW5maWxlLm1hZT4nLCAnLW9tYWUnLCAnPG91dGZpbGUubWFlPic=

> <r_epik_Ionization_Penalty>
0.263195

> <r_epik_Ionization_Penalty_Charging>
0

> <r_epik_Ionization_Penalty_Neutral>
0.263195

> <r_epik_State_Penalty>
0.254683

> <r_epik_Charging_Adjusted_Penalty>
0.254683

> <i_epik_Tot_Q>
0

> <i_epik_Tot_abs_Q>
0

> <r_epik_Metal_State_Penalty>
0.254691

> <b_epik_Metal_Only>
0

> <s_lp_Force_Field>
OPLS_2005

> <r_lp_Energy>
34.5572

> <b_lp_Chiralities_Consistent>
1

> <s_lp_Variant>
AV-unprocessed.smi:342-2

> <Gold.Version>
5.8.1

> <Gold.Id.Protein>
6NUR|6NUR_protein|mol2

> <Gold.PLP.Fitness>
39.2737

> <Gold.PLP.PLP>
-37.0095

> <Gold.PLP.part.hbond>
-2.0000

> <Gold.PLP.part.metal>
0.0000

> <Gold.PLP.part.buried>
-2.6982

> <Gold.PLP.part.nonpolar>
-32.4690

> <Gold.PLP.part.repulsive>
0.1154

> <Gold.PLP.ligand.clash>
0.0000

> <Gold.PLP.ligand.torsion>
1.8797

> <Gold.PLP.Chemscore.Hbond>
1.9913

> <Gold.PLP.Chemscore.CHOScore>
0.0000

> <Gold.PLP.Chemscore.Metal>
0.0000

> <Gold.Chemscore.Hbonds>
donor molecule, donor type, donor heavy atom, donor atom, acceptor molecule, acceptor atom, score
      L1  H     1    24       P1  8028  1.00
      P1  H  6934  6946       L1     7  1.00

> <Gold.PLP.Chemscore.Internal.Correction>
0.0498

> <Gold.Rescore>
     Score         DG    S(hbond)    S(metal)    S(lipo)     H(rot)  DE(clash)    DE(int)     intcor
     12.46     -15.52       1.40        0.00      94.84       2.24       1.09       1.97       ----

> <Gold.Chemscore.Fitness>
12.4627

> <Gold.Chemscore.DG>
-15.5170

> <Gold.Chemscore.ZeroCoef>
-5.4800

> <Gold.Chemscore.Hbond>
1.4015

> <Gold.Chemscore.Metal>
0.0000

> <Gold.Chemscore.Lipo>
94.8359

> <Gold.Chemscore.Internal_Hbond>
0.0000

> <Gold.Chemscore.DEClash>
1.0872

> <Gold.Chemscore.DEInternal>
1.9670

> <Gold.Chemscore.Rot>
2.2421

> <Gold.Chemscore.Internal.Correction>
   9.000000E+99

> <Gold.Chemscore.Hbonds>
donor molecule, donor type, donor heavy atom, donor atom, acceptor molecule, acceptor atom, score
      L1  H     1    24       P1  8028  0.98
      P1  H  6934  6946       L1     7  0.25

> <Gold.Chemscore.Hbond.Weighted>
-4.6810

> <Gold.Chemscore.Metal.Weighted>
-0.0000

> <Gold.Chemscore.Lipo.Weighted>
-11.0958

> <Gold.Chemscore.Internal_Hbond.Weighted>
0.0000

> <Gold.Chemscore.DEClash.Weighted>
1.0872

> <Gold.Chemscore.DEInternal.Weighted>
1.9670

> <Gold.Chemscore.Rot.Weighted>
5.7399

> <Gold.Chemscore.Internal.Correction.Weighted>
   9.000000E+99

> <Gold.Protein.RotatedTorsions>
[ 6907 6896 6895 6894 ] final -111.04 input  -60.11 | X-H torsion
[ 7974 7965 7964 7962 ] final   30.15 input  175.53 | X-H torsion
[ 8008 7997 7996 7995 ] final   61.05 input   59.86 | X-H torsion
[ 10167 10162 10161 10158 ] final -137.30 input  -65.29 | X-H torsion
[ 10718 10713 10712 10709 ] final   72.43 input   66.30 | X-H torsion
[ 10763 10752 10751 10750 ] final  -79.97 input  -60.55 | X-H torsion
[ 11005 11000 10999 10996 ] final -164.08 input  -57.11 | X-H torsion

> <Gold.Protein.ActiveResidues>
 VAL166  LYS551  ARG553  GLY616  TRP617  ASP618  TYR619  PRO620  LYS621  CYS622 
 ASP623  PHE694  ASN695  SER759  ASP760  ASP761  ALA762  ILE779  LEU786  VAL792 
 PHE793  MET794  SER795  GLU796  ALA797  LYS798  CYS799  TRP800  GLU811  SER814 

> <Gold.Protein.RotatedAtoms>
  150.7664  133.9293  159.3421 H   0  0  0  0  0  0  0  0  0  0  0  0  # atno 6907 bound_to 6896
  151.7190  135.0896  160.0290 H   0  0  0  0  0  0  0  0  0  0  0  0  # atno 6908 bound_to 6896
  152.3662  133.6322  159.6088 H   0  0  0  0  0  0  0  0  0  0  0  0  # atno 6909 bound_to 6896
  146.1629  139.6826  142.9021 H   0  0  0  0  0  0  0  0  0  0  0  0  # atno 7974 bound_to 7965
  155.5921  140.3493  155.4569 H   0  0  0  0  0  0  0  0  0  0  0  0  # atno 8008 bound_to 7997
  156.0293  140.1271  157.0300 H   0  0  0  0  0  0  0  0  0  0  0  0  # atno 8009 bound_to 7997
  154.4346  140.1046  156.6062 H   0  0  0  0  0  0  0  0  0  0  0  0  # atno 8010 bound_to 7997
  139.8591  143.7100  152.2651 H   0  0  0  0  0  0  0  0  0  0  0  0  # atno 10167 bound_to 10162
  157.6500  130.9578  150.0927 H   0  0  0  0  0  0  0  0  0  0  0  0  # atno 10718 bound_to 10713
  154.5453  135.5677  153.6875 H   0  0  0  0  0  0  0  0  0  0  0  0  # atno 10763 bound_to 10752
  152.9974  135.6238  154.2447 H   0  0  0  0  0  0  0  0  0  0  0  0  # atno 10764 bound_to 10752
  154.2379  135.2863  155.2845 H   0  0  0  0  0  0  0  0  0  0  0  0  # atno 10765 bound_to 10752
  140.5909  134.5045  157.5192 H   0  0  0  0  0  0  0  0  0  0  0  0  # atno 11005 bound_to 11000
  145.4543  141.0430  143.2787 LP  0  0  0  0  0  0  0  0  0  0  0  0  # atno 17320 bound_to 7965
  144.8051  139.6066  143.7054 LP  0  0  0  0  0  0  0  0  0  0  0  0  # atno 17321 bound_to 7965
  139.7391  144.7564  151.0681 LP  0  0  0  0  0  0  0  0  0  0  0  0  # atno 17342 bound_to 10162
  140.7777  143.4995  150.9790 LP  0  0  0  0  0  0  0  0  0  0  0  0  # atno 17343 bound_to 10162
  156.1872  130.3653  149.8958 LP  0  0  0  0  0  0  0  0  0  0  0  0  # atno 17370 bound_to 10713
  156.6895  130.8890  151.3586 LP  0  0  0  0  0  0  0  0  0  0  0  0  # atno 17371 bound_to 10713
  139.9274  134.8029  156.1028 LP  0  0  0  0  0  0  0  0  0  0  0  0  # atno 17394 bound_to 11000
  141.0935  133.6705  156.2593 LP  0  0  0  0  0  0  0  0  0  0  0  0  # atno 17395 bound_to 11000

$$$$
