AV-unprocessed.smi:107|AV-procd|sdf|1023|dock1
  -GOLD-   2262018 23D 1   1.00000     0.00000
 Structure written by MMmdl.
 30 31  0  0  0  0  0  0  0  0  2 V2000
  152.6912  137.9102  160.2732 C   0  0  0  0  0  0  0  0  0  0  0  0
  152.6810  137.9431  158.7548 C   0  0  0  0  0  0  0  0  0  0  0  0
  152.3226  139.0456  158.0595 C   0  0  0  0  0  0  0  0  0  0  0  0
  152.3160  139.0705  156.6746 N   0  0  0  0  0  0  0  0  0  0  0  0
  151.9152  140.3101  155.9001 C   0  0  2  0  0  0  0  0  0  0  0  0
  151.3861  141.3939  156.8518 C   0  0  0  0  0  0  0  0  0  0  0  0
  150.0972  141.8186  156.1751 C   0  0  2  0  0  0  0  0  0  0  0  0
  149.1611  142.2964  157.1196 O   0  0  0  0  0  0  0  0  0  0  0  0
  149.6443  140.5214  155.5058 C   0  0  1  0  0  0  0  0  0  0  0  0
  148.6646  140.7380  154.3426 C   0  0  0  0  0  0  0  0  0  0  0  0
  149.3459  141.2636  153.2235 O   0  0  0  0  0  0  0  0  0  0  0  0
  150.8771  140.0043  155.0127 O   0  0  0  0  0  0  0  0  0  0  0  0
  152.6938  137.9084  155.9523 C   0  0  0  0  0  0  0  0  0  0  0  0
  152.6804  137.9631  154.7221 O   0  0  0  0  0  0  0  0  0  0  0  0
  153.0554  136.7913  156.6453 N   0  5  0  0  0  0  0  0  0  0  0  0
  153.0719  136.7414  158.0079 C   0  0  0  0  0  0  0  0  0  0  0  0
  153.4026  135.7265  158.6208 O   0  0  0  0  0  0  0  0  0  0  0  0
  152.3808  138.8675  160.6930 H   0  0  0  0  0  0  0  0  0  0  0  0
  153.6929  137.6884  160.6423 H   0  0  0  0  0  0  0  0  0  0  0  0
  152.0098  137.1429  160.6419 H   0  0  0  0  0  0  0  0  0  0  0  0
  152.0353  139.9255  158.6140 H   0  0  0  0  0  0  0  0  0  0  0  0
  152.7971  140.6054  155.3292 H   0  0  0  0  0  0  0  0  0  0  0  0
  151.1874  140.9576  157.8327 H   0  0  0  0  0  0  0  0  0  0  0  0
  152.1062  142.2047  156.9650 H   0  0  0  0  0  0  0  0  0  0  0  0
  150.3028  142.5853  155.4266 H   0  0  0  0  0  0  0  0  0  0  0  0
  148.9073  143.1726  156.8727 H   0  0  0  0  0  0  0  0  0  0  0  0
  149.2291  139.8449  156.2557 H   0  0  0  0  0  0  0  0  0  0  0  0
  148.2262  139.7868  154.0397 H   0  0  0  0  0  0  0  0  0  0  0  0
  147.8440  141.3952  154.6321 H   0  0  0  0  0  0  0  0  0  0  0  0
  149.2748  140.6462  152.5116 H   0  0  0  0  0  0  0  0  0  0  0  0
  1  2  1  0  0  0  0
  1 18  1  0  0  0  0
  1 19  1  0  0  0  0
  1 20  1  0  0  0  0
  2 16  1  0  0  0  0
  2  3  2  0  0  0  0
  3  4  1  0  0  0  0
  3 21  1  0  0  0  0
  4  5  1  0  0  0  0
  4 13  1  0  0  0  0
  5 12  1  0  0  0  0
  5  6  1  0  0  0  0
  5 22  1  0  0  0  0
  6  7  1  0  0  0  0
  6 23  1  0  0  0  0
  6 24  1  0  0  0  0
  7  8  1  0  0  0  0
  7  9  1  0  0  0  0
  7 25  1  0  0  0  0
  8 26  1  0  0  0  0
  9 10  1  0  0  0  0
  9 12  1  0  0  0  0
  9 27  1  0  0  0  0
 10 11  1  0  0  0  0
 10 28  1  0  0  0  0
 10 29  1  0  0  0  0
 11 30  1  0  0  0  0
 13 14  2  0  0  0  0
 13 15  1  0  0  0  0
 15 16  1  0  0  0  0
 16 17  2  0  0  0  0
M  CHG  1  15  -1
M  END
> <s_m_source_file>
AV-unprocessed.smi

> <i_m_source_file_index>
107

> <i_lp_mmshare_version>
43012

> <i_f3d_flags>
0

> <s_epik_input>
Tz1jMVtuSF1jKD1PKW4oW2NIXWMxW0NIM10pW0NAQEhdMltDSDJdW0NAQEhdKFtPSF0pW0NASF0oTzIpW0NIMl1bT0hd

> <s_epik_cmdline>
J2VwaWtfcHl0aG9uJywgJy1waCcsICc3LjAnLCAnLXRuJywgJzgnLCAnLW1hJywgJzIwMCcsICctbWV0YWxfYmluZGluZycsICctaW1hZScsICc8aW5maWxlLm1hZT4nLCAnLW9tYWUnLCAnPG91dGZpbGUubWFlPic=

> <r_lp_tautomer_probability>
0.999537

> <r_epik_Ionization_Penalty>
3.66603

> <r_epik_Ionization_Penalty_Charging>
1.09773e-07

> <r_epik_Ionization_Penalty_Neutral>
3.66603

> <r_epik_State_Penalty>
3.66562

> <r_epik_Charging_Adjusted_Penalty>
3.66562

> <i_epik_Tot_Q>
-1

> <i_epik_Tot_abs_Q>
1

> <r_epik_Metal_State_Penalty>
0.234536

> <b_epik_Metal_Only>
1

> <s_epik_Chemistry_Notes>
This compound contains an acetal/aminal-like group ( X-CH(R)-Y where X, Y are N, S, or O) that may be acid/base labile, releasing an aldehyde.

> <s_lp_Force_Field>
OPLS_2005

> <r_lp_Energy>
36.1714

> <b_lp_Chiralities_Consistent>
1

> <s_lp_Variant>
AV-unprocessed.smi:107-11

> <Gold.Version>
5.8.1

> <Gold.Id.Protein>
6NUR|6NUR_protein|mol2

> <Gold.PLP.Fitness>
44.4984

> <Gold.PLP.PLP>
-26.9397

> <Gold.PLP.part.hbond>
-7.3653

> <Gold.PLP.part.metal>
0.0000

> <Gold.PLP.part.buried>
-4.7258

> <Gold.PLP.part.nonpolar>
-16.2612

> <Gold.PLP.part.repulsive>
0.1125

> <Gold.PLP.ligand.clash>
0.0000

> <Gold.PLP.ligand.torsion>
0.1988

> <Gold.PLP.Chemscore.Hbond>
5.9800

> <Gold.PLP.Chemscore.CHOScore>
0.0000

> <Gold.PLP.Chemscore.Metal>
0.0000

> <Gold.Chemscore.Hbonds>
donor molecule, donor type, donor heavy atom, donor atom, acceptor molecule, acceptor atom, score
      L1  H     8    26       P1  8028  1.00
      L1  H    11    30       P1  7957  0.96
      P1  H  6896  6909       L1    17  0.48
      P1  H  7989  7998       L1    12  0.80
      P1  H  8011  8017       L1    11  0.68
      P1  H 10752 10764       L1    15  1.86

> <Gold.PLP.Chemscore.Internal.Correction>
0.0163

> <Gold.Rescore>
     Score         DG    S(hbond)    S(metal)    S(lipo)     H(rot)  DE(clash)    DE(int)     intcor
     12.36     -13.95       3.12        0.00      42.21       2.69       0.13       1.46       ----

> <Gold.Chemscore.Fitness>
12.3571

> <Gold.Chemscore.DG>
-13.9511

> <Gold.Chemscore.ZeroCoef>
-5.4800

> <Gold.Chemscore.Hbond>
3.1171

> <Gold.Chemscore.Metal>
0.0000

> <Gold.Chemscore.Lipo>
42.2134

> <Gold.Chemscore.Internal_Hbond>
0.0000

> <Gold.Chemscore.DEClash>
0.1306

> <Gold.Chemscore.DEInternal>
1.4633

> <Gold.Chemscore.Rot>
2.6871

> <Gold.Chemscore.Internal.Correction>
   9.000000E+99

> <Gold.Chemscore.Hbonds>
donor molecule, donor type, donor heavy atom, donor atom, acceptor molecule, acceptor atom, score
      L1  H     8    26       P1  8028  0.82
      L1  H    11    30       P1  7957  0.88
      P1  H  6896  6909       L1    17  0.46
      P1  H  7989  7998       L1    12  0.11
      P1  H  8011  8017       L1    11  0.07
      P1  H 10752 10764       L1    15  0.54

> <Gold.Chemscore.Hbond.Weighted>
-10.4111

> <Gold.Chemscore.Metal.Weighted>
-0.0000

> <Gold.Chemscore.Lipo.Weighted>
-4.9390

> <Gold.Chemscore.Internal_Hbond.Weighted>
0.0000

> <Gold.Chemscore.DEClash.Weighted>
0.1306

> <Gold.Chemscore.DEInternal.Weighted>
1.4633

> <Gold.Chemscore.Rot.Weighted>
6.8791

> <Gold.Chemscore.Internal.Correction.Weighted>
   9.000000E+99

> <Gold.Protein.RotatedTorsions>
[ 6907 6896 6895 6894 ] final -157.09 input  -60.11 | X-H torsion
[ 7974 7965 7964 7962 ] final   69.96 input  175.53 | X-H torsion
[ 8008 7997 7996 7995 ] final -161.93 input   59.86 | X-H torsion
[ 10167 10162 10161 10158 ] final  -50.72 input  -65.29 | X-H torsion
[ 10718 10713 10712 10709 ] final -177.51 input   66.30 | X-H torsion
[ 10763 10752 10751 10750 ] final   -3.19 input  -60.55 | X-H torsion
[ 11005 11000 10999 10996 ] final -149.01 input  -57.11 | X-H torsion

> <Gold.Protein.ActiveResidues>
 VAL166  LYS551  ARG553  GLY616  TRP617  ASP618  TYR619  PRO620  LYS621  CYS622 
 ASP623  PHE694  ASN695  SER759  ASP760  ASP761  ALA762  ILE779  LEU786  VAL792 
 PHE793  MET794  SER795  GLU796  ALA797  LYS798  CYS799  TRP800  GLU811  SER814 

> <Gold.Protein.RotatedAtoms>
  151.2976  133.4137  159.2637 H   0  0  0  0  0  0  0  0  0  0  0  0  # atno 6907 bound_to 6896
  151.0223  134.9479  159.8077 H   0  0  0  0  0  0  0  0  0  0  0  0  # atno 6908 bound_to 6896
  152.5327  134.2938  159.9105 H   0  0  0  0  0  0  0  0  0  0  0  0  # atno 6909 bound_to 6896
  145.7841  139.2901  143.1249 H   0  0  0  0  0  0  0  0  0  0  0  0  # atno 7974 bound_to 7965
  155.7995  140.0890  157.1965 H   0  0  0  0  0  0  0  0  0  0  0  0  # atno 8008 bound_to 7997
  154.3982  140.1475  156.3316 H   0  0  0  0  0  0  0  0  0  0  0  0  # atno 8009 bound_to 7997
  155.8477  140.3436  155.5676 H   0  0  0  0  0  0  0  0  0  0  0  0  # atno 8010 bound_to 7997
  140.6624  143.2647  151.4400 H   0  0  0  0  0  0  0  0  0  0  0  0  # atno 10167 bound_to 10162
  156.8306  130.9652  151.3106 H   0  0  0  0  0  0  0  0  0  0  0  0  # atno 10718 bound_to 10713
  153.3680  135.6993  153.6660 H   0  0  0  0  0  0  0  0  0  0  0  0  # atno 10763 bound_to 10752
  153.5321  135.3590  155.2681 H   0  0  0  0  0  0  0  0  0  0  0  0  # atno 10764 bound_to 10752
  154.8677  135.4183  154.2952 H   0  0  0  0  0  0  0  0  0  0  0  0  # atno 10765 bound_to 10752
  140.7553  134.3360  157.5116 H   0  0  0  0  0  0  0  0  0  0  0  0  # atno 11005 bound_to 11000
  146.0044  140.8491  143.0002 LP  0  0  0  0  0  0  0  0  0  0  0  0  # atno 17320 bound_to 7965
  144.6792  140.2399  143.7345 LP  0  0  0  0  0  0  0  0  0  0  0  0  # atno 17321 bound_to 7965
  139.5861  144.1600  152.2031 LP  0  0  0  0  0  0  0  0  0  0  0  0  # atno 17342 bound_to 10162
  140.0941  144.5596  150.7034 LP  0  0  0  0  0  0  0  0  0  0  0  0  # atno 17343 bound_to 10162
  157.6409  130.8804  149.9446 LP  0  0  0  0  0  0  0  0  0  0  0  0  # atno 17370 bound_to 10713
  156.0936  130.3661  150.0348 LP  0  0  0  0  0  0  0  0  0  0  0  0  # atno 17371 bound_to 10713
  139.8780  134.9168  156.3162 LP  0  0  0  0  0  0  0  0  0  0  0  0  # atno 17394 bound_to 11000
  140.9713  133.7325  156.0539 LP  0  0  0  0  0  0  0  0  0  0  0  0  # atno 17395 bound_to 11000

$$$$
