AV-unprocessed.smi:2892|AV-procd|sdf|11118|dock7
  -GOLD-   2272015583D 1   1.00000     0.00000
 Structure written by MMmdl.
 42 42  0  0  0  0  0  0  0  0  2 V2000
  147.9535  137.5503  155.7815 C   0  0  0  0  0  0  0  0  0  0  0  0
  148.9195  138.0385  154.6915 C   0  0  0  0  0  0  0  0  0  0  0  0
  150.3961  137.6167  154.9083 C   0  0  2  0  0  0  0  0  0  0  0  0
  150.5107  136.0740  154.9008 C   0  0  0  0  0  0  0  0  0  0  0  0
  150.9854  138.2488  156.2084 C   0  0  2  0  0  0  0  0  0  0  0  0
  150.8985  139.7082  156.1215 N   0  0  0  0  0  0  0  0  0  0  0  0
  150.4499  140.5280  157.0854 C   0  0  0  0  0  0  0  0  0  0  0  0
  150.0262  140.1254  158.1701 O   0  0  0  0  0  0  0  0  0  0  0  0
  150.4977  142.0251  156.7556 C   0  0  0  0  0  0  0  0  0  0  0  0
  151.3821  142.7881  157.7082 C   0  0  0  0  0  0  0  0  0  0  0  0
  151.7954  144.1489  157.6279 C   0  0  0  0  0  0  0  0  0  0  0  0
  152.5713  144.3240  158.7374 C   0  0  0  0  0  0  0  0  0  0  0  0
  152.6048  143.1216  159.4115 N   0  0  0  0  0  0  0  0  0  0  0  0
  153.2926  142.8047  160.6543 C   0  0  0  0  0  0  0  0  0  0  0  0
  153.5019  141.2891  160.8038 C   0  0  0  0  0  0  0  0  0  0  0  0
  152.5558  143.4036  161.8632 C   0  0  0  0  0  0  0  0  0  0  0  0
  151.8786  142.1768  158.7739 N   0  0  0  0  0  0  0  0  0  0  0  0
  152.4706  137.8737  156.3752 C   0  0  0  0  0  0  0  0  0  0  0  0
  152.7381  136.6589  156.5014 O   0  0  0  0  0  0  0  0  0  0  0  0
  153.3102  138.8024  156.3684 O   0  5  0  0  0  0  0  0  0  0  0  0
  146.9249  137.7979  155.5187 H   0  0  0  0  0  0  0  0  0  0  0  0
  148.1583  138.0104  156.7475 H   0  0  0  0  0  0  0  0  0  0  0  0
  148.0111  136.4681  155.9025 H   0  0  0  0  0  0  0  0  0  0  0  0
  148.5481  137.6447  153.7459 H   0  0  0  0  0  0  0  0  0  0  0  0
  148.8547  139.1238  154.6033 H   0  0  0  0  0  0  0  0  0  0  0  0
  150.9726  137.9930  154.0610 H   0  0  0  0  0  0  0  0  0  0  0  0
  149.9612  135.6359  155.7344 H   0  0  0  0  0  0  0  0  0  0  0  0
  151.5437  135.7342  154.9714 H   0  0  0  0  0  0  0  0  0  0  0  0
  150.1166  135.6427  153.9817 H   0  0  0  0  0  0  0  0  0  0  0  0
  150.4212  137.8888  157.0714 H   0  0  0  0  0  0  0  0  0  0  0  0
  151.2438  140.1258  155.2701 H   0  0  0  0  0  0  0  0  0  0  0  0
  150.8438  142.1421  155.7274 H   0  0  0  0  0  0  0  0  0  0  0  0
  149.4852  142.4292  156.7892 H   0  0  0  0  0  0  0  0  0  0  0  0
  151.5512  144.8838  156.8755 H   0  0  0  0  0  0  0  0  0  0  0  0
  153.0953  145.1963  159.0993 H   0  0  0  0  0  0  0  0  0  0  0  0
  154.2773  143.2715  160.6029 H   0  0  0  0  0  0  0  0  0  0  0  0
  154.0856  141.0615  161.6960 H   0  0  0  0  0  0  0  0  0  0  0  0
  154.0383  140.8811  159.9466 H   0  0  0  0  0  0  0  0  0  0  0  0
  152.5524  140.7590  160.8860 H   0  0  0  0  0  0  0  0  0  0  0  0
  153.1114  143.2306  162.7850 H   0  0  0  0  0  0  0  0  0  0  0  0
  151.5653  142.9645  161.9869 H   0  0  0  0  0  0  0  0  0  0  0  0
  152.4300  144.4810  161.7515 H   0  0  0  0  0  0  0  0  0  0  0  0
  1  2  1  0  0  0  0
  1 21  1  0  0  0  0
  1 22  1  0  0  0  0
  1 23  1  0  0  0  0
  2  3  1  0  0  0  0
  2 24  1  0  0  0  0
  2 25  1  0  0  0  0
  3  4  1  0  0  0  0
  3  5  1  0  0  0  0
  3 26  1  0  0  0  0
  4 27  1  0  0  0  0
  4 28  1  0  0  0  0
  4 29  1  0  0  0  0
  5  6  1  0  0  0  0
  5 18  1  0  0  0  0
  5 30  1  0  0  0  0
  6  7  1  0  0  0  0
  6 31  1  0  0  0  0
  7  8  2  0  0  0  0
  7  9  1  0  0  0  0
  9 10  1  0  0  0  0
  9 32  1  0  0  0  0
  9 33  1  0  0  0  0
 10 17  2  0  0  0  0
 10 11  1  0  0  0  0
 11 12  2  0  0  0  0
 11 34  1  0  0  0  0
 12 13  1  0  0  0  0
 12 35  1  0  0  0  0
 13 14  1  0  0  0  0
 13 17  1  0  0  0  0
 14 15  1  0  0  0  0
 14 16  1  0  0  0  0
 14 36  1  0  0  0  0
 15 37  1  0  0  0  0
 15 38  1  0  0  0  0
 15 39  1  0  0  0  0
 16 40  1  0  0  0  0
 16 41  1  0  0  0  0
 16 42  1  0  0  0  0
 18 19  2  0  0  0  0
 18 20  1  0  0  0  0
M  CHG  1  20  -1
M  END
> <s_m_source_file>
AV-unprocessed.smi

> <i_m_source_file_index>
2892

> <i_lp_mmshare_version>
43012

> <i_f3d_flags>
0

> <s_epik_input>
W0NIM11bQ0gyXVtDQEhdKFtDSDNdKVtDQEBIXShDKD1PKVtPSF0pW05IXUMoPU8pW0NIMl1jMVtjSF1bY0hdbihuMSlbQ0hdKFtDSDNdKVtDSDNd

> <s_epik_cmdline>
J2VwaWtfcHl0aG9uJywgJy1waCcsICc3LjAnLCAnLXRuJywgJzgnLCAnLW1hJywgJzIwMCcsICctbWV0YWxfYmluZGluZycsICctaW1hZScsICc8aW5maWxlLm1hZT4nLCAnLW9tYWUnLCAnPG91dGZpbGUubWFlPic=

> <r_lp_tautomer_probability>
1

> <r_epik_Ionization_Penalty>
0.000286846

> <r_epik_Ionization_Penalty_Charging>
0.000224481

> <r_epik_Ionization_Penalty_Neutral>
6.23655e-05

> <r_epik_State_Penalty>
-0

> <r_epik_Charging_Adjusted_Penalty>
0.000224481

> <i_epik_Tot_Q>
-1

> <i_epik_Tot_abs_Q>
1

> <r_epik_Metal_State_Penalty>
-0

> <b_epik_Metal_Only>
0

> <s_lp_Force_Field>
OPLS_2005

> <r_lp_Energy>
15.4928

> <b_lp_Chiralities_Consistent>
1

> <s_lp_Variant>
AV-unprocessed.smi:2892-1

> <Gold.Version>
5.8.1

> <Gold.Id.Protein>
6NUR|6NUR_protein|mol2

> <Gold.PLP.Fitness>
50.5587

> <Gold.PLP.PLP>
-40.1141

> <Gold.PLP.part.hbond>
-1.9035

> <Gold.PLP.part.metal>
0.0000

> <Gold.PLP.part.buried>
-5.2803

> <Gold.PLP.part.nonpolar>
-34.6357

> <Gold.PLP.part.repulsive>
0.0903

> <Gold.PLP.ligand.clash>
0.0000

> <Gold.PLP.ligand.torsion>
0.7192

> <Gold.PLP.Chemscore.Hbond>
3.9200

> <Gold.PLP.Chemscore.CHOScore>
0.0000

> <Gold.PLP.Chemscore.Metal>
0.0000

> <Gold.Chemscore.Hbonds>
donor molecule, donor type, donor heavy atom, donor atom, acceptor molecule, acceptor atom, score
      P1  H  7997  8010       L1    20  2.00
      P1  H 10752 10765       L1    19  2.00

> <Gold.PLP.Chemscore.Internal.Correction>
0.1229

> <Gold.Rescore>
     Score         DG    S(hbond)    S(metal)    S(lipo)     H(rot)  DE(clash)    DE(int)     intcor
     14.03     -17.61       1.93        0.00     100.87       2.39       0.57       3.02       ----

> <Gold.Chemscore.Fitness>
14.0312

> <Gold.Chemscore.DG>
-17.6142

> <Gold.Chemscore.ZeroCoef>
-5.4800

> <Gold.Chemscore.Hbond>
1.9285

> <Gold.Chemscore.Metal>
0.0000

> <Gold.Chemscore.Lipo>
100.8736

> <Gold.Chemscore.Internal_Hbond>
0.0000

> <Gold.Chemscore.DEClash>
0.5657

> <Gold.Chemscore.DEInternal>
3.0173

> <Gold.Chemscore.Rot>
2.3865

> <Gold.Chemscore.Internal.Correction>
   9.000000E+99

> <Gold.Chemscore.Hbonds>
donor molecule, donor type, donor heavy atom, donor atom, acceptor molecule, acceptor atom, score
      P1  H  7997  8010       L1    20  0.96
      P1  H 10752 10765       L1    19  0.96

> <Gold.Chemscore.Hbond.Weighted>
-6.4413

> <Gold.Chemscore.Metal.Weighted>
-0.0000

> <Gold.Chemscore.Lipo.Weighted>
-11.8022

> <Gold.Chemscore.Internal_Hbond.Weighted>
0.0000

> <Gold.Chemscore.DEClash.Weighted>
0.5657

> <Gold.Chemscore.DEInternal.Weighted>
3.0173

> <Gold.Chemscore.Rot.Weighted>
6.1093

> <Gold.Chemscore.Internal.Correction.Weighted>
   9.000000E+99

> <Gold.Protein.RotatedTorsions>
[ 6907 6896 6895 6894 ] final  109.01 input  -60.11 | X-H torsion
[ 7974 7965 7964 7962 ] final   12.87 input  175.53 | X-H torsion
[ 8008 7997 7996 7995 ] final   72.03 input   59.86 | X-H torsion
[ 10167 10162 10161 10158 ] final   98.16 input  -65.29 | X-H torsion
[ 10718 10713 10712 10709 ] final  -25.85 input   66.30 | X-H torsion
[ 10763 10752 10751 10750 ] final -140.14 input  -60.55 | X-H torsion
[ 11005 11000 10999 10996 ] final   76.82 input  -57.11 | X-H torsion

> <Gold.Protein.ActiveResidues>
 VAL166  LYS551  ARG553  GLY616  TRP617  ASP618  TYR619  PRO620  LYS621  CYS622 
 ASP623  PHE694  ASN695  SER759  ASP760  ASP761  ALA762  ILE779  LEU786  VAL792 
 PHE793  MET794  SER795  GLU796  ALA797  LYS798  CYS799  TRP800  GLU811  SER814 

> <Gold.Protein.RotatedAtoms>
  152.5086  133.9005  159.7438 H   0  0  0  0  0  0  0  0  0  0  0  0  # atno 6907 bound_to 6896
  150.9422  133.6635  159.2795 H   0  0  0  0  0  0  0  0  0  0  0  0  # atno 6908 bound_to 6896
  151.3942  135.0966  159.9588 H   0  0  0  0  0  0  0  0  0  0  0  0  # atno 6909 bound_to 6896
  146.2342  139.9273  142.8501 H   0  0  0  0  0  0  0  0  0  0  0  0  # atno 7974 bound_to 7965
  155.7627  140.3486  155.5206 H   0  0  0  0  0  0  0  0  0  0  0  0  # atno 8008 bound_to 7997
  155.8898  140.1016  157.1448 H   0  0  0  0  0  0  0  0  0  0  0  0  # atno 8009 bound_to 7997
  154.4032  140.1306  156.4288 H   0  0  0  0  0  0  0  0  0  0  0  0  # atno 8010 bound_to 7997
  139.7734  144.6914  151.0124 H   0  0  0  0  0  0  0  0  0  0  0  0  # atno 10167 bound_to 10162
  156.4590  130.4500  149.6941 H   0  0  0  0  0  0  0  0  0  0  0  0  # atno 10718 bound_to 10713
  154.8588  135.3562  154.5659 H   0  0  0  0  0  0  0  0  0  0  0  0  # atno 10763 bound_to 10752
  153.6273  135.7003  153.5293 H   0  0  0  0  0  0  0  0  0  0  0  0  # atno 10764 bound_to 10752
  153.3079  135.4187  155.1270 H   0  0  0  0  0  0  0  0  0  0  0  0  # atno 10765 bound_to 10752
  139.9281  134.7633  156.1444 H   0  0  0  0  0  0  0  0  0  0  0  0  # atno 11005 bound_to 11000
  145.2078  140.9882  143.4118 LP  0  0  0  0  0  0  0  0  0  0  0  0  # atno 17320 bound_to 7965
  144.9717  139.3873  143.6305 LP  0  0  0  0  0  0  0  0  0  0  0  0  # atno 17321 bound_to 7965
  140.7815  143.4563  151.0341 LP  0  0  0  0  0  0  0  0  0  0  0  0  # atno 17342 bound_to 10162
  139.8246  143.7773  152.3178 LP  0  0  0  0  0  0  0  0  0  0  0  0  # atno 17343 bound_to 10162
  156.3736  130.7543  151.2529 LP  0  0  0  0  0  0  0  0  0  0  0  0  # atno 17370 bound_to 10713
  157.7499  131.0316  150.4188 LP  0  0  0  0  0  0  0  0  0  0  0  0  # atno 17371 bound_to 10713
  141.0852  133.6737  156.2422 LP  0  0  0  0  0  0  0  0  0  0  0  0  # atno 17394 bound_to 11000
  140.6278  134.5295  157.5556 LP  0  0  0  0  0  0  0  0  0  0  0  0  # atno 17395 bound_to 11000

$$$$
