AV-unprocessed.smi:3134|AV-procd|sdf|11942|dock10
  -GOLD-   2272017333D 1   1.00000     0.00000
 Structure written by MMmdl.
 37 37  0  0  0  0  0  0  0  0  2 V2000
  149.8320  140.3286  154.7555 C   0  0  0  0  0  0  0  0  0  0  0  0
  149.4910  138.8544  154.4849 C   0  0  0  0  0  0  0  0  0  0  0  0
  150.7331  138.0494  154.0812 C   0  0  0  0  0  0  0  0  0  0  0  0
  148.4813  138.7492  153.4354 N   0  0  0  0  0  0  0  0  0  0  0  0
  147.2135  138.3491  153.6187 C   0  0  0  0  0  0  0  0  0  0  0  0
  146.7644  138.0052  154.7129 O   0  0  0  0  0  0  0  0  0  0  0  0
  146.3134  138.3292  152.3753 C   0  0  1  0  0  0  0  0  0  0  0  0
  146.5863  139.5677  151.5086 C   0  0  0  0  0  0  0  0  0  0  0  0
  146.5370  137.1007  151.5821 N   0  3  0  0  0  0  0  0  0  0  0  0
  145.6923  135.9480  151.9653 C   0  0  0  0  0  0  0  0  0  0  0  0
  144.8546  135.4529  150.7753 C   0  0  0  0  0  0  0  0  0  0  0  0
  144.9041  134.0075  150.6332 N   0  0  0  0  0  0  0  0  0  0  0  0
  143.8597  133.1069  150.6527 C   0  0  0  0  0  0  0  0  0  0  0  0
  144.3932  131.8621  150.4788 C   0  0  0  0  0  0  0  0  0  0  0  0
  145.7912  132.1042  150.3727 C   0  0  0  0  0  0  0  0  0  0  0  0
  146.0940  133.3883  150.4727 N   0  0  0  0  0  0  0  0  0  0  0  0
  150.5824  140.4176  155.5415 H   0  0  0  0  0  0  0  0  0  0  0  0
  148.9530  140.8874  155.0792 H   0  0  0  0  0  0  0  0  0  0  0  0
  150.2263  140.8160  153.8632 H   0  0  0  0  0  0  0  0  0  0  0  0
  149.0967  138.4155  155.4032 H   0  0  0  0  0  0  0  0  0  0  0  0
  151.4925  138.0844  154.8628 H   0  0  0  0  0  0  0  0  0  0  0  0
  151.1806  138.4389  153.1661 H   0  0  0  0  0  0  0  0  0  0  0  0
  150.4846  137.0011  153.9118 H   0  0  0  0  0  0  0  0  0  0  0  0
  148.7694  139.0070  152.5024 H   0  0  0  0  0  0  0  0  0  0  0  0
  145.2668  138.3532  152.6848 H   0  0  0  0  0  0  0  0  0  0  0  0
  146.4044  140.4884  152.0647 H   0  0  0  0  0  0  0  0  0  0  0  0
  145.9363  139.5833  150.6332 H   0  0  0  0  0  0  0  0  0  0  0  0
  147.6182  139.5913  151.1547 H   0  0  0  0  0  0  0  0  0  0  0  0
  146.3668  137.3032  150.6076 H   0  0  0  0  0  0  0  0  0  0  0  0
  146.3090  135.1311  152.3428 H   0  0  0  0  0  0  0  0  0  0  0  0
  145.0415  136.2490  152.7869 H   0  0  0  0  0  0  0  0  0  0  0  0
  143.8120  135.7465  150.9032 H   0  0  0  0  0  0  0  0  0  0  0  0
  145.2000  135.9118  149.8479 H   0  0  0  0  0  0  0  0  0  0  0  0
  142.8346  133.4217  150.7821 H   0  0  0  0  0  0  0  0  0  0  0  0
  143.8657  130.9207  150.4366 H   0  0  0  0  0  0  0  0  0  0  0  0
  146.5891  131.3906  150.2287 H   0  0  0  0  0  0  0  0  0  0  0  0
  147.5072  136.8416  151.6947 H   0  0  0  0  0  0  0  0  0  0  0  0
  1  2  1  0  0  0  0
  1 17  1  0  0  0  0
  1 18  1  0  0  0  0
  1 19  1  0  0  0  0
  2  3  1  0  0  0  0
  2  4  1  0  0  0  0
  2 20  1  0  0  0  0
  3 21  1  0  0  0  0
  3 22  1  0  0  0  0
  3 23  1  0  0  0  0
  4  5  1  0  0  0  0
  4 24  1  0  0  0  0
  5  6  2  0  0  0  0
  5  7  1  0  0  0  0
  7  8  1  0  0  0  0
  7  9  1  0  0  0  0
  7 25  1  0  0  0  0
  8 26  1  0  0  0  0
  8 27  1  0  0  0  0
  8 28  1  0  0  0  0
  9 10  1  0  0  0  0
  9 29  1  0  0  0  0
  9 37  1  0  0  0  0
 10 11  1  0  0  0  0
 10 30  1  0  0  0  0
 10 31  1  0  0  0  0
 11 12  1  0  0  0  0
 11 32  1  0  0  0  0
 11 33  1  0  0  0  0
 12 16  1  0  0  0  0
 12 13  1  0  0  0  0
 13 14  2  0  0  0  0
 13 34  1  0  0  0  0
 14 15  1  0  0  0  0
 14 35  1  0  0  0  0
 15 16  2  0  0  0  0
 15 36  1  0  0  0  0
M  CHG  1   9   1
M  END
> <s_m_source_file>
AV-unprocessed.smi

> <i_m_source_file_index>
3134

> <i_lp_mmshare_version>
43012

> <i_f3d_flags>
0

> <s_epik_input>
W0NIM11bQ0hdKFtDSDNdKVtOSF1DKD1PKVtDQEhdKFtDSDNdKVtOSF1bQ0gyXVtDSDJdbjFbY0hdW2NIXVtjSF1uMQ==

> <s_epik_cmdline>
J2VwaWtfcHl0aG9uJywgJy1waCcsICc3LjAnLCAnLXRuJywgJzgnLCAnLW1hJywgJzIwMCcsICctbWV0YWxfYmluZGluZycsICctaW1hZScsICc8aW5maWxlLm1hZT4nLCAnLW9tYWUnLCAnPG91dGZpbGUubWFlPic=

> <r_lp_tautomer_probability>
1

> <r_epik_Ionization_Penalty>
0.20398

> <r_epik_Ionization_Penalty_Charging>
0.203977

> <r_epik_Ionization_Penalty_Neutral>
3.23345e-06

> <r_epik_State_Penalty>
0.193898

> <r_epik_Charging_Adjusted_Penalty>
0.397875

> <i_epik_Tot_Q>
1

> <i_epik_Tot_abs_Q>
1

> <r_epik_Metal_State_Penalty>
0.194184

> <b_epik_Metal_Only>
0

> <s_lp_Force_Field>
OPLS_2005

> <r_lp_Energy>
4.47428

> <b_lp_Chiralities_Consistent>
1

> <s_lp_Variant>
AV-unprocessed.smi:3134-2

> <Gold.Version>
5.8.1

> <Gold.Id.Protein>
6NUR|6NUR_protein|mol2

> <Gold.PLP.Fitness>
45.4975

> <Gold.PLP.PLP>
-33.8548

> <Gold.PLP.part.hbond>
-3.0000

> <Gold.PLP.part.metal>
0.0000

> <Gold.PLP.part.buried>
-1.9337

> <Gold.PLP.part.nonpolar>
-30.9541

> <Gold.PLP.part.repulsive>
0.4222

> <Gold.PLP.ligand.clash>
0.0000

> <Gold.PLP.ligand.torsion>
1.7179

> <Gold.PLP.Chemscore.Hbond>
3.0000

> <Gold.PLP.Chemscore.CHOScore>
2.0000

> <Gold.PLP.Chemscore.Metal>
0.0000

> <Gold.Chemscore.Hbonds>
donor molecule, donor type, donor heavy atom, donor atom, acceptor molecule, acceptor atom, score
      L1  H     4    24       P1  7957  1.00
      L1  H     9    37       P1  7948  2.00
      L1  C    13    34       P1 10186  1.00
      L1  C    15    36       P1 10747  1.00

> <Gold.PLP.Chemscore.Internal.Correction>
0.0786

> <Gold.Rescore>
     Score         DG    S(hbond)    S(metal)    S(lipo)     H(rot)  DE(clash)    DE(int)     intcor
     14.15     -16.47       1.99        0.00      83.81       2.13       0.65       1.67       ----

> <Gold.Chemscore.Fitness>
14.1509

> <Gold.Chemscore.DG>
-16.4695

> <Gold.Chemscore.ZeroCoef>
-5.4800

> <Gold.Chemscore.Hbond>
1.9897

> <Gold.Chemscore.Metal>
0.0000

> <Gold.Chemscore.Lipo>
83.8065

> <Gold.Chemscore.Internal_Hbond>
0.0000

> <Gold.Chemscore.DEClash>
0.6497

> <Gold.Chemscore.DEInternal>
1.6690

> <Gold.Chemscore.Rot>
2.1334

> <Gold.Chemscore.Internal.Correction>
   9.000000E+99

> <Gold.Chemscore.Hbonds>
donor molecule, donor type, donor heavy atom, donor atom, acceptor molecule, acceptor atom, score
      L1  H     4    24       P1  7957  0.99
      L1  H     9    37       P1  7948  0.95

> <Gold.Chemscore.Hbond.Weighted>
-6.6457

> <Gold.Chemscore.Metal.Weighted>
-0.0000

> <Gold.Chemscore.Lipo.Weighted>
-9.8054

> <Gold.Chemscore.Internal_Hbond.Weighted>
0.0000

> <Gold.Chemscore.DEClash.Weighted>
0.6497

> <Gold.Chemscore.DEInternal.Weighted>
1.6690

> <Gold.Chemscore.Rot.Weighted>
5.4615

> <Gold.Chemscore.Internal.Correction.Weighted>
   9.000000E+99

> <Gold.Protein.RotatedTorsions>
[ 6907 6896 6895 6894 ] final  169.53 input  -60.11 | X-H torsion
[ 7974 7965 7964 7962 ] final -156.04 input  175.53 | X-H torsion
[ 8008 7997 7996 7995 ] final  -13.75 input   59.86 | X-H torsion
[ 10167 10162 10161 10158 ] final  -11.36 input  -65.29 | X-H torsion
[ 10718 10713 10712 10709 ] final  101.13 input   66.30 | X-H torsion
[ 10763 10752 10751 10750 ] final  152.41 input  -60.55 | X-H torsion
[ 11005 11000 10999 10996 ] final   30.91 input  -57.11 | X-H torsion

> <Gold.Protein.ActiveResidues>
 VAL166  LYS551  ARG553  GLY616  TRP617  ASP618  TYR619  PRO620  LYS621  CYS622 
 ASP623  PHE694  ASN695  SER759  ASP760  ASP761  ALA762  ILE779  LEU786  VAL792 
 PHE793  MET794  SER795  GLU796  ALA797  LYS798  CYS799  TRP800  GLU811  SER814 

> <Gold.Protein.RotatedAtoms>
  151.8305  133.3408  159.3611 H   0  0  0  0  0  0  0  0  0  0  0  0  # atno 6907 bound_to 6896
  150.7266  134.5488  159.5793 H   0  0  0  0  0  0  0  0  0  0  0  0  # atno 6908 bound_to 6896
  152.2939  134.7690  160.0423 H   0  0  0  0  0  0  0  0  0  0  0  0  # atno 6909 bound_to 6896
  144.7612  140.4165  143.5975 H   0  0  0  0  0  0  0  0  0  0  0  0  # atno 7974 bound_to 7965
  154.5266  140.2241  155.8879 H   0  0  0  0  0  0  0  0  0  0  0  0  # atno 8008 bound_to 7997
  156.1720  140.3119  155.8954 H   0  0  0  0  0  0  0  0  0  0  0  0  # atno 8009 bound_to 7997
  155.3539  140.0457  157.3037 H   0  0  0  0  0  0  0  0  0  0  0  0  # atno 8010 bound_to 7997
  140.7136  143.5648  150.9156 H   0  0  0  0  0  0  0  0  0  0  0  0  # atno 10167 bound_to 10162
  157.6837  131.0718  150.5206 H   0  0  0  0  0  0  0  0  0  0  0  0  # atno 10718 bound_to 10713
  154.1196  135.2833  155.3211 H   0  0  0  0  0  0  0  0  0  0  0  0  # atno 10763 bound_to 10752
  154.6432  135.5395  153.7817 H   0  0  0  0  0  0  0  0  0  0  0  0  # atno 10764 bound_to 10752
  153.0317  135.6491  154.1351 H   0  0  0  0  0  0  0  0  0  0  0  0  # atno 10765 bound_to 10752
  140.2894  134.2882  155.7780 H   0  0  0  0  0  0  0  0  0  0  0  0  # atno 11005 bound_to 11000
  145.6615  139.1582  143.2806 LP  0  0  0  0  0  0  0  0  0  0  0  0  # atno 17320 bound_to 7965
  146.1676  140.6695  142.9248 LP  0  0  0  0  0  0  0  0  0  0  0  0  # atno 17321 bound_to 7965
  139.9374  143.6422  152.3062 LP  0  0  0  0  0  0  0  0  0  0  0  0  # atno 17342 bound_to 10162
  139.6894  144.7648  151.1465 LP  0  0  0  0  0  0  0  0  0  0  0  0  # atno 17343 bound_to 10162
  156.5520  130.4234  149.6103 LP  0  0  0  0  0  0  0  0  0  0  0  0  # atno 17370 bound_to 10713
  156.2895  130.7116  151.1961 LP  0  0  0  0  0  0  0  0  0  0  0  0  # atno 17371 bound_to 10713
  141.2149  133.7575  156.9601 LP  0  0  0  0  0  0  0  0  0  0  0  0  # atno 17394 bound_to 11000
  140.1210  134.9417  157.2203 LP  0  0  0  0  0  0  0  0  0  0  0  0  # atno 17395 bound_to 11000

$$$$
