AV-unprocessed.smi:2655|AV-procd|sdf|10303|dock1
  -GOLD-   2272014313D 1   1.00000     0.00000
 Structure written by MMmdl.
 33 34  0  0  0  0  0  0  0  0  2 V2000
  148.6639  139.3942  154.5847 C   0  0  0  0  0  0  0  0  0  0  0  0
  150.1208  139.1005  154.2992 C   0  0  0  0  0  0  0  0  0  0  0  0
  150.4929  138.2109  153.3333 N   0  0  0  0  0  0  0  0  0  0  0  0
  151.8605  138.1020  153.3454 N   0  0  0  0  0  0  0  0  0  0  0  0
  152.3749  138.9236  154.2750 C   0  0  0  0  0  0  0  0  0  0  0  0
  153.5694  139.0686  154.5260 O   0  0  0  0  0  0  0  0  0  0  0  0
  151.2245  139.5742  154.8929 C   0  0  0  0  0  0  0  0  0  0  0  0
  151.3232  140.5546  156.0463 C   0  0  0  0  0  0  0  0  0  0  0  0
  150.1713  141.5729  156.0406 C   0  0  0  0  0  0  0  0  0  0  0  0
  150.4385  142.6886  156.9412 N   0  0  0  0  0  0  0  0  0  0  0  0
  150.3575  142.6536  158.2791 C   0  0  0  0  0  0  0  0  0  0  0  0
  150.0354  141.6081  158.8486 O   0  0  0  0  0  0  0  0  0  0  0  0
  150.6520  143.8329  158.8740 N   0  5  0  0  0  0  0  0  0  0  0  0
  151.4105  143.8596  159.9806 C   0  0  0  0  0  0  0  0  0  0  0  0
  152.4547  142.9493  160.3012 C   0  0  0  0  0  0  0  0  0  0  0  0
  152.8946  143.3937  161.5157 C   0  0  0  0  0  0  0  0  0  0  0  0
  153.9671  142.9229  162.4375 C   0  0  0  0  0  0  0  0  0  0  0  0
  152.1733  144.4771  161.9113 O   0  0  0  0  0  0  0  0  0  0  0  0
  151.2215  144.7652  160.9259 N   0  0  0  0  0  0  0  0  0  0  0  0
  148.4649  140.4595  154.4659 H   0  0  0  0  0  0  0  0  0  0  0  0
  148.4145  139.1089  155.6068 H   0  0  0  0  0  0  0  0  0  0  0  0
  148.0120  138.8446  153.9051 H   0  0  0  0  0  0  0  0  0  0  0  0
  152.3235  137.4804  152.6983 H   0  0  0  0  0  0  0  0  0  0  0  0
  152.2864  141.0635  155.9918 H   0  0  0  0  0  0  0  0  0  0  0  0
  151.3192  140.0015  156.9859 H   0  0  0  0  0  0  0  0  0  0  0  0
  149.9858  141.9429  155.0306 H   0  0  0  0  0  0  0  0  0  0  0  0
  149.2499  141.0904  156.3677 H   0  0  0  0  0  0  0  0  0  0  0  0
  150.7079  143.5638  156.5165 H   0  0  0  0  0  0  0  0  0  0  0  0
  152.8229  142.1108  159.7295 H   0  0  0  0  0  0  0  0  0  0  0  0
  153.7369  141.9285  162.8197 H   0  0  0  0  0  0  0  0  0  0  0  0
  154.0776  143.5948  163.2889 H   0  0  0  0  0  0  0  0  0  0  0  0
  154.9252  142.8738  161.9201 H   0  0  0  0  0  0  0  0  0  0  0  0
  149.8990  137.5763  152.8188 H   0  0  0  0  0  0  0  0  0  0  0  0
  1 20  1  0  0  0  0
  1 21  1  0  0  0  0
  1 22  1  0  0  0  0
  1  2  1  0  0  0  0
  2  7  2  0  0  0  0
  2  3  1  0  0  0  0
  3  4  1  0  0  0  0
  3 33  1  0  0  0  0
  4 23  1  0  0  0  0
  4  5  1  0  0  0  0
  5  7  1  0  0  0  0
  5  6  2  0  0  0  0
  7  8  1  0  0  0  0
  8  9  1  0  0  0  0
  8 24  1  0  0  0  0
  8 25  1  0  0  0  0
  9 10  1  0  0  0  0
  9 26  1  0  0  0  0
  9 27  1  0  0  0  0
 10 11  1  0  0  0  0
 10 28  1  0  0  0  0
 11 12  2  0  0  0  0
 11 13  1  0  0  0  0
 13 14  1  0  0  0  0
 14 19  2  0  0  0  0
 14 15  1  0  0  0  0
 15 16  2  0  0  0  0
 15 29  1  0  0  0  0
 16 17  1  0  0  0  0
 16 18  1  0  0  0  0
 17 30  1  0  0  0  0
 17 31  1  0  0  0  0
 17 32  1  0  0  0  0
 18 19  1  0  0  0  0
M  CHG  1  13  -1
M  END
> <s_m_source_file>
AV-unprocessed.smi

> <i_m_source_file_index>
2655

> <i_lp_mmshare_version>
43012

> <i_f3d_flags>
0

> <s_epik_input>
W0NIM11DMT1OW05IXUMoPU8pW0NASF0xW0NIMl1bQ0gyXVtOSF1DKD1PKVtOSF1jMltjSF1jKFtDSDNdKW9uMg==

> <s_epik_cmdline>
J2VwaWtfcHl0aG9uJywgJy1waCcsICc3LjAnLCAnLXRuJywgJzgnLCAnLW1hJywgJzIwMCcsICctbWV0YWxfYmluZGluZycsICctaW1hZScsICc8aW5maWxlLm1hZT4nLCAnLW9tYWUnLCAnPG91dGZpbGUubWFlPic=

> <r_lp_tautomer_probability>
0.00220696

> <r_epik_Ionization_Penalty>
6.47655

> <r_epik_Ionization_Penalty_Charging>
6.44485

> <r_epik_Ionization_Penalty_Neutral>
0.0316949

> <r_epik_State_Penalty>
7.07162

> <r_epik_Charging_Adjusted_Penalty>
13.5165

> <i_epik_Tot_Q>
-1

> <i_epik_Tot_abs_Q>
1

> <r_epik_Metal_State_Penalty>
4.39363

> <b_epik_Metal_Only>
1

> <s_lp_Force_Field>
OPLS_2005

> <r_lp_Energy>
11.561

> <b_lp_Chiralities_Consistent>
1

> <s_lp_Variant>
AV-unprocessed.smi:2655-6

> <Gold.Version>
5.8.1

> <Gold.Id.Protein>
6NUR|6NUR_protein|mol2

> <Gold.PLP.Fitness>
44.3766

> <Gold.PLP.PLP>
-41.3722

> <Gold.PLP.part.hbond>
-5.7901

> <Gold.PLP.part.metal>
0.0000

> <Gold.PLP.part.buried>
-6.8836

> <Gold.PLP.part.nonpolar>
-31.5811

> <Gold.PLP.part.repulsive>
2.1949

> <Gold.PLP.ligand.clash>
0.0000

> <Gold.PLP.ligand.torsion>
1.0690

> <Gold.PLP.Chemscore.Hbond>
1.6400

> <Gold.PLP.Chemscore.CHOScore>
0.0000

> <Gold.PLP.Chemscore.Metal>
0.0000

> <Gold.Chemscore.Hbonds>
donor molecule, donor type, donor heavy atom, donor atom, acceptor molecule, acceptor atom, score
      L1  H     3    33       P1  7948  1.00
      L1  H     4    23       P1  7949  0.23
      L1  H    10    28       P1  8028  0.08
      P1  H  7997  8010       L1     6  0.16

> <Gold.PLP.Chemscore.Internal.Correction>
0.2224

> <Gold.Rescore>
     Score         DG    S(hbond)    S(metal)    S(lipo)     H(rot)  DE(clash)    DE(int)     intcor
     12.66     -14.28       1.62        0.00      69.75       1.86       0.32       1.31       ----

> <Gold.Chemscore.Fitness>
12.6577

> <Gold.Chemscore.DG>
-14.2814

> <Gold.Chemscore.ZeroCoef>
-5.4800

> <Gold.Chemscore.Hbond>
1.6206

> <Gold.Chemscore.Metal>
0.0000

> <Gold.Chemscore.Lipo>
69.7482

> <Gold.Chemscore.Internal_Hbond>
0.0000

> <Gold.Chemscore.DEClash>
0.3183

> <Gold.Chemscore.DEInternal>
1.3055

> <Gold.Chemscore.Rot>
1.8640

> <Gold.Chemscore.Internal.Correction>
   9.000000E+99

> <Gold.Chemscore.Hbonds>
donor molecule, donor type, donor heavy atom, donor atom, acceptor molecule, acceptor atom, score
      L1  H     3    33       P1  7948  0.26
      L1  H     4    23       P1  7949  0.23
      L1  H    10    28       P1  8028  0.08
      P1  H  7997  8010       L1     6  0.17

> <Gold.Chemscore.Hbond.Weighted>
-5.4127

> <Gold.Chemscore.Metal.Weighted>
-0.0000

> <Gold.Chemscore.Lipo.Weighted>
-8.1605

> <Gold.Chemscore.Internal_Hbond.Weighted>
0.0000

> <Gold.Chemscore.DEClash.Weighted>
0.3183

> <Gold.Chemscore.DEInternal.Weighted>
1.3055

> <Gold.Chemscore.Rot.Weighted>
4.7719

> <Gold.Chemscore.Internal.Correction.Weighted>
   9.000000E+99

> <Gold.Protein.RotatedTorsions>
[ 6907 6896 6895 6894 ] final   94.77 input  -60.11 | X-H torsion
[ 7974 7965 7964 7962 ] final  141.85 input  175.53 | X-H torsion
[ 8008 7997 7996 7995 ] final  164.26 input   59.86 | X-H torsion
[ 10167 10162 10161 10158 ] final   -5.33 input  -65.29 | X-H torsion
[ 10718 10713 10712 10709 ] final  -87.13 input   66.30 | X-H torsion
[ 10763 10752 10751 10750 ] final   39.46 input  -60.55 | X-H torsion
[ 11005 11000 10999 10996 ] final  -94.76 input  -57.11 | X-H torsion

> <Gold.Protein.ActiveResidues>
 VAL166  LYS551  ARG553  GLY616  TRP617  ASP618  TYR619  PRO620  LYS621  CYS622 
 ASP623  PHE694  ASN695  SER759  ASP760  ASP761  ALA762  ILE779  LEU786  VAL792 
 PHE793  MET794  SER795  GLU796  ALA797  LYS798  CYS799  TRP800  GLU811  SER814 

> <Gold.Protein.RotatedAtoms>
  152.5448  134.1142  159.8371 H   0  0  0  0  0  0  0  0  0  0  0  0  # atno 6907 bound_to 6896
  151.1205  133.5100  159.2609 H   0  0  0  0  0  0  0  0  0  0  0  0  # atno 6908 bound_to 6896
  151.1784  135.0359  159.8836 H   0  0  0  0  0  0  0  0  0  0  0  0  # atno 6909 bound_to 6896
  144.9059  139.5358  143.5731 H   0  0  0  0  0  0  0  0  0  0  0  0  # atno 7974 bound_to 7965
  156.1893  140.1701  156.8123 H   0  0  0  0  0  0  0  0  0  0  0  0  # atno 8008 bound_to 7997
  154.5452  140.0728  156.8609 H   0  0  0  0  0  0  0  0  0  0  0  0  # atno 8009 bound_to 7997
  155.3136  140.3369  155.4245 H   0  0  0  0  0  0  0  0  0  0  0  0  # atno 8010 bound_to 7997
  140.6959  143.6320  150.8514 H   0  0  0  0  0  0  0  0  0  0  0  0  # atno 10167 bound_to 10162
  155.9986  130.4789  150.4820 H   0  0  0  0  0  0  0  0  0  0  0  0  # atno 10718 bound_to 10713
  152.9967  135.6220  154.2468 H   0  0  0  0  0  0  0  0  0  0  0  0  # atno 10763 bound_to 10752
  154.2208  135.2796  155.2927 H   0  0  0  0  0  0  0  0  0  0  0  0  # atno 10764 bound_to 10752
  154.5530  135.5727  153.6998 H   0  0  0  0  0  0  0  0  0  0  0  0  # atno 10765 bound_to 10752
  141.1461  133.7978  157.0342 H   0  0  0  0  0  0  0  0  0  0  0  0  # atno 11005 bound_to 11000
  146.3133  139.7827  142.9003 LP  0  0  0  0  0  0  0  0  0  0  0  0  # atno 17320 bound_to 7965
  145.3536  141.0312  143.3324 LP  0  0  0  0  0  0  0  0  0  0  0  0  # atno 17321 bound_to 7965
  140.0038  143.5716  152.2865 LP  0  0  0  0  0  0  0  0  0  0  0  0  # atno 17342 bound_to 10162
  139.6415  144.7655  151.2330 LP  0  0  0  0  0  0  0  0  0  0  0  0  # atno 17343 bound_to 10162
  157.2824  131.0609  151.2189 LP  0  0  0  0  0  0  0  0  0  0  0  0  # atno 17370 bound_to 10713
  157.3230  130.6947  149.6280 LP  0  0  0  0  0  0  0  0  0  0  0  0  # atno 17371 bound_to 10713
  140.0734  134.9689  157.1506 LP  0  0  0  0  0  0  0  0  0  0  0  0  # atno 17394 bound_to 11000
  140.3678  134.2424  155.7180 LP  0  0  0  0  0  0  0  0  0  0  0  0  # atno 17395 bound_to 11000

$$$$
