AV-unprocessed.smi:1172|AV-procd|sdf|4943|dock5
  -GOLD-   22720 3533D 1   1.00000     0.00000
 Structure written by MMmdl.
 36 37  0  0  0  0  0  0  0  0  1 V2000
  147.6386  139.1160  152.6860 N   0  0  0  0  0  0  0  0  0  0  0  0
  148.0592  139.4377  153.9122 C   0  0  0  0  0  0  0  0  0  0  0  0
  147.9997  138.6507  154.8544 O   0  0  0  0  0  0  0  0  0  0  0  0
  148.6307  140.8432  154.1096 C   0  0  0  0  0  0  0  0  0  0  0  0
  149.8073  140.8151  154.9603 N   0  0  0  0  0  0  0  0  0  0  0  0
  150.0975  141.6235  156.0423 C   0  0  0  0  0  0  0  0  0  0  0  0
  151.3144  141.2056  156.5015 C   0  0  0  0  0  0  0  0  0  0  0  0
  152.0821  141.6892  157.5912 N   0  0  0  0  0  0  0  0  0  0  0  0
  151.8195  142.7474  158.3821 C   0  0  0  0  0  0  0  0  0  0  0  0
  150.8584  143.4967  158.2038 O   0  0  0  0  0  0  0  0  0  0  0  0
  152.7321  142.9476  159.3676 N   0  0  0  0  0  0  0  0  0  0  0  0
  153.7843  142.0025  159.7838 C   0  0  0  0  0  0  0  0  0  0  0  0
  153.3582  141.3367  161.1054 C   0  0  0  0  0  0  0  0  0  0  0  0
  153.0779  142.3959  162.1880 C   0  0  0  0  0  0  0  0  0  0  0  0
  152.1208  143.4908  161.6746 C   0  0  1  0  0  0  0  0  0  0  0  0
  152.0402  144.5307  162.6257 O   0  0  0  0  0  0  0  0  0  0  0  0
  152.6067  144.0551  160.3252 C   0  0  0  0  0  0  0  0  0  0  0  0
  151.7027  140.1379  155.6514 C   0  0  0  0  0  0  0  0  0  0  0  0
  150.7868  139.9065  154.7236 N   0  0  0  0  0  0  0  0  0  0  0  0
  147.2546  138.1979  152.5148 H   0  0  0  0  0  0  0  0  0  0  0  0
  147.7044  139.7879  151.9351 H   0  0  0  0  0  0  0  0  0  0  0  0
  148.9023  141.2861  153.1503 H   0  0  0  0  0  0  0  0  0  0  0  0
  147.8720  141.4882  154.5560 H   0  0  0  0  0  0  0  0  0  0  0  0
  149.4247  142.4016  156.3714 H   0  0  0  0  0  0  0  0  0  0  0  0
  152.9149  141.1619  157.8095 H   0  0  0  0  0  0  0  0  0  0  0  0
  154.0131  141.2367  159.0429 H   0  0  0  0  0  0  0  0  0  0  0  0
  154.7177  142.5485  159.9280 H   0  0  0  0  0  0  0  0  0  0  0  0
  152.4628  140.7364  160.9392 H   0  0  0  0  0  0  0  0  0  0  0  0
  154.1328  140.6501  161.4476 H   0  0  0  0  0  0  0  0  0  0  0  0
  152.6701  141.9219  163.0815 H   0  0  0  0  0  0  0  0  0  0  0  0
  154.0241  142.8511  162.4847 H   0  0  0  0  0  0  0  0  0  0  0  0
  151.1218  143.0700  161.5504 H   0  0  0  0  0  0  0  0  0  0  0  0
  152.8425  144.5454  163.1246 H   0  0  0  0  0  0  0  0  0  0  0  0
  153.5779  144.5389  160.4429 H   0  0  0  0  0  0  0  0  0  0  0  0
  151.9301  144.8369  159.9762 H   0  0  0  0  0  0  0  0  0  0  0  0
  152.5986  139.5352  155.6754 H   0  0  0  0  0  0  0  0  0  0  0  0
  1  2  1  0  0  0  0
  1 20  1  0  0  0  0
  1 21  1  0  0  0  0
  2  3  2  0  0  0  0
  2  4  1  0  0  0  0
  4  5  1  0  0  0  0
  4 22  1  0  0  0  0
  4 23  1  0  0  0  0
  5 19  1  0  0  0  0
  5  6  1  0  0  0  0
  6  7  2  0  0  0  0
  6 24  1  0  0  0  0
  7  8  1  0  0  0  0
  7 18  1  0  0  0  0
  8  9  1  0  0  0  0
  8 25  1  0  0  0  0
  9 10  2  0  0  0  0
  9 11  1  0  0  0  0
 11 17  1  0  0  0  0
 11 12  1  0  0  0  0
 12 13  1  0  0  0  0
 12 26  1  0  0  0  0
 12 27  1  0  0  0  0
 13 14  1  0  0  0  0
 13 28  1  0  0  0  0
 13 29  1  0  0  0  0
 14 15  1  0  0  0  0
 14 30  1  0  0  0  0
 14 31  1  0  0  0  0
 15 16  1  0  0  0  0
 15 17  1  0  0  0  0
 15 32  1  0  0  0  0
 16 33  1  0  0  0  0
 17 34  1  0  0  0  0
 17 35  1  0  0  0  0
 18 19  2  0  0  0  0
 18 36  1  0  0  0  0
M  END
> <s_m_source_file>
AV-unprocessed.smi

> <i_m_source_file_index>
1172

> <i_lp_mmshare_version>
43012

> <i_f3d_flags>
0

> <s_epik_input>
W05IMl1DKD1PKVtDSDJdbjFbY0hdYyhbY0hdbjEpW05IXUMoPU8pTjJbQ0gyXVtDSDJdW0NIMl1bQ0BASF0oW09IXSlbQ0gyXTI=

> <s_epik_cmdline>
J2VwaWtfcHl0aG9uJywgJy1waCcsICc3LjAnLCAnLXRuJywgJzgnLCAnLW1hJywgJzIwMCcsICctbWV0YWxfYmluZGluZycsICctaW1hZScsICc8aW5maWxlLm1hZT4nLCAnLW9tYWUnLCAnPG91dGZpbGUubWFlPic=

> <r_lp_tautomer_probability>
1

> <r_epik_Ionization_Penalty>
4.44977e-05

> <r_epik_Ionization_Penalty_Charging>
0

> <r_epik_Ionization_Penalty_Neutral>
4.44977e-05

> <r_epik_State_Penalty>
-0

> <r_epik_Charging_Adjusted_Penalty>
0

> <i_epik_Tot_Q>
0

> <i_epik_Tot_abs_Q>
0

> <r_epik_Metal_State_Penalty>
-0

> <b_epik_Metal_Only>
0

> <s_lp_Force_Field>
OPLS_2005

> <r_lp_Energy>
33.3056

> <b_lp_Chiralities_Consistent>
1

> <s_lp_Variant>
AV-unprocessed.smi:1172-1

> <Gold.Version>
5.8.1

> <Gold.Id.Protein>
6NUR|6NUR_protein|mol2

> <Gold.PLP.Fitness>
47.9386

> <Gold.PLP.PLP>
-43.1375

> <Gold.PLP.part.hbond>
-4.2049

> <Gold.PLP.part.metal>
0.0000

> <Gold.PLP.part.buried>
-1.4112

> <Gold.PLP.part.nonpolar>
-36.1906

> <Gold.PLP.part.repulsive>
0.4433

> <Gold.PLP.ligand.clash>
0.0000

> <Gold.PLP.ligand.torsion>
0.4291

> <Gold.PLP.Chemscore.Hbond>
0.8720

> <Gold.PLP.Chemscore.CHOScore>
1.0000

> <Gold.PLP.Chemscore.Metal>
0.0000

> <Gold.Chemscore.Hbonds>
donor molecule, donor type, donor heavy atom, donor atom, acceptor molecule, acceptor atom, score
      L1  H     1    21       P1  7957  0.31
      P1  H  7989  7998       L1    19  0.56
      L1  C     6    24       P1  8028  1.00

> <Gold.PLP.Chemscore.Internal.Correction>
0.0434

> <Gold.Rescore>
     Score         DG    S(hbond)    S(metal)    S(lipo)     H(rot)  DE(clash)    DE(int)     intcor
     11.04     -12.64       0.99        0.00      80.86       2.20       0.15       1.45       ----

> <Gold.Chemscore.Fitness>
11.0433

> <Gold.Chemscore.DG>
-12.6386

> <Gold.Chemscore.ZeroCoef>
-5.4800

> <Gold.Chemscore.Hbond>
0.9944

> <Gold.Chemscore.Metal>
0.0000

> <Gold.Chemscore.Lipo>
80.8600

> <Gold.Chemscore.Internal_Hbond>
0.0000

> <Gold.Chemscore.DEClash>
0.1484

> <Gold.Chemscore.DEInternal>
1.4469

> <Gold.Chemscore.Rot>
2.1966

> <Gold.Chemscore.Internal.Correction>
   9.000000E+99

> <Gold.Chemscore.Hbonds>
donor molecule, donor type, donor heavy atom, donor atom, acceptor molecule, acceptor atom, score
      L1  H     1    21       P1  7957  0.29
      P1  H  7989  7998       L1    19  0.01

> <Gold.Chemscore.Hbond.Weighted>
-3.3212

> <Gold.Chemscore.Metal.Weighted>
-0.0000

> <Gold.Chemscore.Lipo.Weighted>
-9.4606

> <Gold.Chemscore.Internal_Hbond.Weighted>
0.0000

> <Gold.Chemscore.DEClash.Weighted>
0.1484

> <Gold.Chemscore.DEInternal.Weighted>
1.4469

> <Gold.Chemscore.Rot.Weighted>
5.6232

> <Gold.Chemscore.Internal.Correction.Weighted>
   9.000000E+99

> <Gold.Protein.RotatedTorsions>
[ 6907 6896 6895 6894 ] final   27.04 input  -60.11 | X-H torsion
[ 7974 7965 7964 7962 ] final  -48.31 input  175.53 | X-H torsion
[ 8008 7997 7996 7995 ] final  -41.38 input   59.86 | X-H torsion
[ 10167 10162 10161 10158 ] final  111.16 input  -65.29 | X-H torsion
[ 10718 10713 10712 10709 ] final  -63.39 input   66.30 | X-H torsion
[ 10763 10752 10751 10750 ] final  144.06 input  -60.55 | X-H torsion
[ 11005 11000 10999 10996 ] final -128.06 input  -57.11 | X-H torsion

> <Gold.Protein.ActiveResidues>
 VAL166  LYS551  ARG553  GLY616  TRP617  ASP618  TYR619  PRO620  LYS621  CYS622 
 ASP623  PHE694  ASN695  SER759  ASP760  ASP761  ALA762  ILE779  LEU786  VAL792 
 PHE793  MET794  SER795  GLU796  ALA797  LYS798  CYS799  TRP800  GLU811  SER814 

> <Gold.Protein.RotatedAtoms>
  151.9963  134.9952  160.0563 H   0  0  0  0  0  0  0  0  0  0  0  0  # atno 6907 bound_to 6896
  152.1561  133.4547  159.4846 H   0  0  0  0  0  0  0  0  0  0  0  0  # atno 6908 bound_to 6896
  150.6881  134.2047  159.4379 H   0  0  0  0  0  0  0  0  0  0  0  0  # atno 6909 bound_to 6896
  145.9525  140.7559  142.9498 H   0  0  0  0  0  0  0  0  0  0  0  0  # atno 7974 bound_to 7965
  154.4004  140.1501  156.3182 H   0  0  0  0  0  0  0  0  0  0  0  0  # atno 8008 bound_to 7997
  155.8554  140.3456  155.5699 H   0  0  0  0  0  0  0  0  0  0  0  0  # atno 8009 bound_to 7997
  155.7939  140.0860  157.1985 H   0  0  0  0  0  0  0  0  0  0  0  0  # atno 8010 bound_to 7997
  139.6632  144.7128  151.1825 H   0  0  0  0  0  0  0  0  0  0  0  0  # atno 10167 bound_to 10162
  156.0794  130.4220  150.1271 H   0  0  0  0  0  0  0  0  0  0  0  0  # atno 10718 bound_to 10713
  153.9827  135.2940  155.3419 H   0  0  0  0  0  0  0  0  0  0  0  0  # atno 10763 bound_to 10752
  154.7260  135.5088  153.8890 H   0  0  0  0  0  0  0  0  0  0  0  0  # atno 10764 bound_to 10752
  153.0847  135.6689  154.0088 H   0  0  0  0  0  0  0  0  0  0  0  0  # atno 10765 bound_to 10752
  140.9548  134.1017  157.4027 H   0  0  0  0  0  0  0  0  0  0  0  0  # atno 11005 bound_to 11000
  144.6798  140.2457  143.7338 LP  0  0  0  0  0  0  0  0  0  0  0  0  # atno 17320 bound_to 7965
  145.8152  139.2020  143.1970 LP  0  0  0  0  0  0  0  0  0  0  0  0  # atno 17321 bound_to 7965
  140.7589  143.5961  150.8747 LP  0  0  0  0  0  0  0  0  0  0  0  0  # atno 17342 bound_to 10162
  139.9620  143.6153  152.2999 LP  0  0  0  0  0  0  0  0  0  0  0  0  # atno 17343 bound_to 10162
  156.9305  130.9712  151.3533 LP  0  0  0  0  0  0  0  0  0  0  0  0  # atno 17370 bound_to 10713
  157.5904  130.8439  149.8650 LP  0  0  0  0  0  0  0  0  0  0  0  0  # atno 17371 bound_to 10713
  139.8858  135.0076  156.6461 LP  0  0  0  0  0  0  0  0  0  0  0  0  # atno 17394 bound_to 11000
  140.7552  133.8864  155.8377 LP  0  0  0  0  0  0  0  0  0  0  0  0  # atno 17395 bound_to 11000

$$$$
