AV-unprocessed.smi:2622|AV-procd|sdf|10228|dock3
  -GOLD-   2272014233D 1   1.00000     0.00000
 Structure written by MMmdl.
 27 28  0  0  0  0  0  0  0  0  3 V2000
  151.3288  139.6496  158.3494 O   0  0  0  0  0  0  0  0  0  0  0  0
  152.2919  140.4419  158.4476 C   0  0  0  0  0  0  0  0  0  0  0  0
  153.4518  140.0294  158.6675 O   0  5  0  0  0  0  0  0  0  0  0  0
  152.0219  141.9238  158.2934 C   0  0  0  0  0  0  0  0  0  0  0  0
  152.8985  142.8455  158.9206 C   0  0  0  0  0  0  0  0  0  0  0  0
  152.6838  144.2324  158.8024 C   0  0  0  0  0  0  0  0  0  0  0  0
  151.5872  144.6900  158.0530 C   0  0  0  0  0  0  0  0  0  0  0  0
  150.7652  143.7988  157.4642 N   0  3  0  0  0  0  0  0  0  0  0  0
  150.9256  142.4537  157.5458 C   0  0  0  0  0  0  0  0  0  0  0  0
  149.9784  141.6623  156.8753 N   0  0  0  0  0  0  0  0  0  0  0  0
  148.6178  141.8120  157.3727 C   0  0  0  0  0  0  0  0  0  0  0  0
  147.7006  140.7786  156.6973 C   0  0  0  0  0  0  0  0  0  0  0  0
  147.7895  140.9153  155.2813 O   0  0  0  0  0  0  0  0  0  0  0  0
  149.1122  140.6846  154.8032 C   0  0  0  0  0  0  0  0  0  0  0  0
  150.0699  141.7162  155.4227 C   0  0  0  0  0  0  0  0  0  0  0  0
  153.7442  142.5020  159.4986 H   0  0  0  0  0  0  0  0  0  0  0  0
  153.3526  144.9326  159.2811 H   0  0  0  0  0  0  0  0  0  0  0  0
  151.3429  145.7320  157.9072 H   0  0  0  0  0  0  0  0  0  0  0  0
  148.6031  141.6772  158.4549 H   0  0  0  0  0  0  0  0  0  0  0  0
  148.2576  142.8206  157.1658 H   0  0  0  0  0  0  0  0  0  0  0  0
  147.9740  139.7643  156.9931 H   0  0  0  0  0  0  0  0  0  0  0  0
  146.6670  140.9337  157.0067 H   0  0  0  0  0  0  0  0  0  0  0  0
  149.4259  139.6678  155.0465 H   0  0  0  0  0  0  0  0  0  0  0  0
  149.1190  140.7694  153.7166 H   0  0  0  0  0  0  0  0  0  0  0  0
  149.8150  142.7172  155.0723 H   0  0  0  0  0  0  0  0  0  0  0  0
  151.0949  141.5132  155.1097 H   0  0  0  0  0  0  0  0  0  0  0  0
  149.9757  144.1562  156.9261 H   0  0  0  0  0  0  0  0  0  0  0  0
  1  2  2  0  0  0  0
  2  3  1  0  0  0  0
  2  4  1  0  0  0  0
  4  9  1  0  0  0  0
  4  5  2  0  0  0  0
  5  6  1  0  0  0  0
  5 16  1  0  0  0  0
  6  7  2  0  0  0  0
  6 17  1  0  0  0  0
  7  8  1  0  0  0  0
  7 18  1  0  0  0  0
  8  9  2  0  0  0  0
  8 27  1  0  0  0  0
  9 10  1  0  0  0  0
 10 15  1  0  0  0  0
 10 11  1  0  0  0  0
 11 12  1  0  0  0  0
 11 19  1  0  0  0  0
 11 20  1  0  0  0  0
 12 13  1  0  0  0  0
 12 21  1  0  0  0  0
 12 22  1  0  0  0  0
 13 14  1  0  0  0  0
 14 15  1  0  0  0  0
 14 23  1  0  0  0  0
 14 24  1  0  0  0  0
 15 25  1  0  0  0  0
 15 26  1  0  0  0  0
M  CHG  1   3  -1
M  CHG  1   8   1
M  END
> <s_m_source_file>
AV-unprocessed.smi

> <i_m_source_file_index>
2622

> <i_lp_mmshare_version>
43012

> <i_f3d_flags>
0

> <s_epik_input>
Tz1DKFtPSF0pYzFbY0hdW2NIXVtjSF1uYzFOMltDSDJdW0NIMl1PW0NIMl1bQ0gyXTI=

> <s_epik_cmdline>
J2VwaWtfcHl0aG9uJywgJy1waCcsICc3LjAnLCAnLXRuJywgJzgnLCAnLW1hJywgJzIwMCcsICctbWV0YWxfYmluZGluZycsICctaW1hZScsICc8aW5maWxlLm1hZT4nLCAnLW9tYWUnLCAnPG91dGZpbGUubWFlPic=

> <r_epik_Ionization_Penalty>
2.51472

> <r_epik_Ionization_Penalty_Charging>
2.51472

> <r_epik_Ionization_Penalty_Neutral>
3.20239e-12

> <r_epik_State_Penalty>
2.68069

> <r_epik_Charging_Adjusted_Penalty>
5.19542

> <i_epik_Tot_Q>
0

> <i_epik_Tot_abs_Q>
2

> <r_epik_Metal_State_Penalty>
6.76699

> <b_epik_Metal_Only>
0

> <s_lp_Force_Field>
OPLS_2005

> <r_lp_Energy>
23.1971

> <b_lp_Chiralities_Consistent>
1

> <s_lp_Variant>
AV-unprocessed.smi:2622-2

> <Gold.Version>
5.8.1

> <Gold.Id.Protein>
6NUR|6NUR_protein|mol2

> <Gold.PLP.Fitness>
39.3597

> <Gold.PLP.PLP>
-27.9751

> <Gold.PLP.part.hbond>
-2.0000

> <Gold.PLP.part.metal>
0.0000

> <Gold.PLP.part.buried>
-3.8040

> <Gold.PLP.part.nonpolar>
-21.3111

> <Gold.PLP.part.repulsive>
0.1705

> <Gold.PLP.ligand.clash>
0.0000

> <Gold.PLP.ligand.torsion>
0.3886

> <Gold.PLP.Chemscore.Hbond>
4.0000

> <Gold.PLP.Chemscore.CHOScore>
0.0000

> <Gold.PLP.Chemscore.Metal>
0.0000

> <Gold.Chemscore.Hbonds>
donor molecule, donor type, donor heavy atom, donor atom, acceptor molecule, acceptor atom, score
      L1  H     8    27       P1  8028  2.00
      P1  H  7997  8009       L1     3  2.00

> <Gold.PLP.Chemscore.Internal.Correction>
0.1618

> <Gold.Rescore>
     Score         DG    S(hbond)    S(metal)    S(lipo)     H(rot)  DE(clash)    DE(int)     intcor
     15.68     -17.62       1.94        0.00      70.22       1.00       0.14       1.80       ----

> <Gold.Chemscore.Fitness>
15.6801

> <Gold.Chemscore.DG>
-17.6212

> <Gold.Chemscore.ZeroCoef>
-5.4800

> <Gold.Chemscore.Hbond>
1.9419

> <Gold.Chemscore.Metal>
0.0000

> <Gold.Chemscore.Lipo>
70.2152

> <Gold.Chemscore.Internal_Hbond>
0.0000

> <Gold.Chemscore.DEClash>
0.1372

> <Gold.Chemscore.DEInternal>
1.8039

> <Gold.Chemscore.Rot>
1.0000

> <Gold.Chemscore.Internal.Correction>
   9.000000E+99

> <Gold.Chemscore.Hbonds>
donor molecule, donor type, donor heavy atom, donor atom, acceptor molecule, acceptor atom, score
      L1  H     8    27       P1  8028  0.91
      P1  H  7997  8009       L1     3  0.85

> <Gold.Chemscore.Hbond.Weighted>
-6.4861

> <Gold.Chemscore.Metal.Weighted>
-0.0000

> <Gold.Chemscore.Lipo.Weighted>
-8.2152

> <Gold.Chemscore.Internal_Hbond.Weighted>
0.0000

> <Gold.Chemscore.DEClash.Weighted>
0.1372

> <Gold.Chemscore.DEInternal.Weighted>
1.8039

> <Gold.Chemscore.Rot.Weighted>
2.5600

> <Gold.Chemscore.Internal.Correction.Weighted>
   9.000000E+99

> <Gold.Protein.RotatedTorsions>
[ 6907 6896 6895 6894 ] final  173.05 input  -60.11 | X-H torsion
[ 7974 7965 7964 7962 ] final  -20.56 input  175.53 | X-H torsion
[ 8008 7997 7996 7995 ] final  150.17 input   59.86 | X-H torsion
[ 10167 10162 10161 10158 ] final  -91.94 input  -65.29 | X-H torsion
[ 10718 10713 10712 10709 ] final  -65.21 input   66.30 | X-H torsion
[ 10763 10752 10751 10750 ] final  139.77 input  -60.55 | X-H torsion
[ 11005 11000 10999 10996 ] final  161.36 input  -57.11 | X-H torsion

> <Gold.Protein.ActiveResidues>
 VAL166  LYS551  ARG553  GLY616  TRP617  ASP618  TYR619  PRO620  LYS621  CYS622 
 ASP623  PHE694  ASN695  SER759  ASP760  ASP761  ALA762  ILE779  LEU786  VAL792 
 PHE793  MET794  SER795  GLU796  ALA797  LYS798  CYS799  TRP800  GLU811  SER814 

> <Gold.Protein.RotatedAtoms>
  151.7744  133.3344  159.3453 H   0  0  0  0  0  0  0  0  0  0  0  0  # atno 6907 bound_to 6896
  150.7449  134.5988  159.6035 H   0  0  0  0  0  0  0  0  0  0  0  0  # atno 6908 bound_to 6896
  152.3319  134.7250  160.0338 H   0  0  0  0  0  0  0  0  0  0  0  0  # atno 6909 bound_to 6896
  146.1781  140.4219  142.8505 H   0  0  0  0  0  0  0  0  0  0  0  0  # atno 7974 bound_to 7965
  156.2726  140.2082  156.5975 H   0  0  0  0  0  0  0  0  0  0  0  0  # atno 8008 bound_to 7997
  154.6933  140.0528  157.0409 H   0  0  0  0  0  0  0  0  0  0  0  0  # atno 8009 bound_to 7997
  155.0836  140.3189  155.4597 H   0  0  0  0  0  0  0  0  0  0  0  0  # atno 8010 bound_to 7997
  140.3398  143.2948  151.9848 H   0  0  0  0  0  0  0  0  0  0  0  0  # atno 10167 bound_to 10162
  156.0683  130.4244  150.1531 H   0  0  0  0  0  0  0  0  0  0  0  0  # atno 10718 bound_to 10713
  153.9116  135.3010  155.3448 H   0  0  0  0  0  0  0  0  0  0  0  0  # atno 10763 bound_to 10752
  154.7620  135.4929  153.9486 H   0  0  0  0  0  0  0  0  0  0  0  0  # atno 10764 bound_to 10752
  153.1189  135.6777  153.9471 H   0  0  0  0  0  0  0  0  0  0  0  0  # atno 10765 bound_to 10752
  140.2150  134.8239  157.3161 H   0  0  0  0  0  0  0  0  0  0  0  0  # atno 11005 bound_to 11000
  144.8270  140.6644  143.6316 LP  0  0  0  0  0  0  0  0  0  0  0  0  # atno 17320 bound_to 7965
  145.4153  139.1573  143.4103 LP  0  0  0  0  0  0  0  0  0  0  0  0  # atno 17321 bound_to 7965
  139.4842  144.6166  151.7334 LP  0  0  0  0  0  0  0  0  0  0  0  0  # atno 17342 bound_to 10162
  140.5320  144.0716  150.6057 LP  0  0  0  0  0  0  0  0  0  0  0  0  # atno 17343 bound_to 10162
  156.9587  130.9798  151.3483 LP  0  0  0  0  0  0  0  0  0  0  0  0  # atno 17370 bound_to 10713
  157.5738  130.8329  149.8428 LP  0  0  0  0  0  0  0  0  0  0  0  0  # atno 17371 bound_to 10713
  140.1910  134.4372  155.7716 LP  0  0  0  0  0  0  0  0  0  0  0  0  # atno 17394 bound_to 11000
  141.2225  133.7027  156.8026 LP  0  0  0  0  0  0  0  0  0  0  0  0  # atno 17395 bound_to 11000

$$$$
