AV-unprocessed.smi:1420|AV-procd|sdf|5786|dock1
  -GOLD-   22720 5433D 1   1.00000     0.00000
 Structure written by MMmdl.
 38 39  0  0  0  0  0  0  0  0  1 V2000
  151.1423  138.7816  154.8228 C   0  0  0  0  0  0  0  0  0  0  0  0
  151.1472  139.9943  155.7897 C   0  0  2  0  0  0  0  0  0  0  0  0
  151.5395  139.5006  157.2131 C   0  0  0  0  0  0  0  0  0  0  0  0
  151.6985  140.5896  158.1712 N   0  0  0  0  0  0  0  0  0  0  0  0
  152.7826  140.7938  158.9348 C   0  0  0  0  0  0  0  0  0  0  0  0
  153.8077  140.1169  158.8570 O   0  0  0  0  0  0  0  0  0  0  0  0
  152.6831  141.9187  159.9645 C   0  0  0  0  0  0  0  0  0  0  0  0
  152.3038  143.1646  159.3231 N   0  0  0  0  0  0  0  0  0  0  0  0
  152.4132  144.4486  159.8151 C   0  0  0  0  0  0  0  0  0  0  0  0
  151.9094  145.2916  158.8664 C   0  0  0  0  0  0  0  0  0  0  0  0
  151.5096  144.4187  157.8161 C   0  0  0  0  0  0  0  0  0  0  0  0
  151.7477  143.1463  158.0912 N   0  0  0  0  0  0  0  0  0  0  0  0
  149.8758  140.7544  155.7664 N   0  0  0  0  0  0  0  0  0  0  0  0
  148.8098  140.0950  156.5298 C   0  0  0  0  0  0  0  0  0  0  0  0
  147.4785  140.8644  156.4853 C   0  0  0  0  0  0  0  0  0  0  0  0
  147.0719  141.0380  155.1352 O   0  0  0  0  0  0  0  0  0  0  0  0
  148.0422  141.7437  154.3743 C   0  0  0  0  0  0  0  0  0  0  0  0
  149.3796  140.9837  154.4040 C   0  0  0  0  0  0  0  0  0  0  0  0
  152.0625  138.2010  154.8755 H   0  0  0  0  0  0  0  0  0  0  0  0
  151.0632  139.0855  153.7800 H   0  0  0  0  0  0  0  0  0  0  0  0
  150.3153  138.1058  155.0423 H   0  0  0  0  0  0  0  0  0  0  0  0
  151.9403  140.6632  155.4515 H   0  0  0  0  0  0  0  0  0  0  0  0
  150.8022  138.8163  157.6303 H   0  0  0  0  0  0  0  0  0  0  0  0
  152.4794  138.9496  157.1674 H   0  0  0  0  0  0  0  0  0  0  0  0
  150.9023  141.1959  158.3081 H   0  0  0  0  0  0  0  0  0  0  0  0
  151.9368  141.6691  160.7197 H   0  0  0  0  0  0  0  0  0  0  0  0
  153.6349  142.0487  160.4825 H   0  0  0  0  0  0  0  0  0  0  0  0
  152.8323  144.6519  160.7897 H   0  0  0  0  0  0  0  0  0  0  0  0
  151.8356  146.3676  158.9165 H   0  0  0  0  0  0  0  0  0  0  0  0
  151.0559  144.6700  156.8688 H   0  0  0  0  0  0  0  0  0  0  0  0
  148.6562  139.0824  156.1535 H   0  0  0  0  0  0  0  0  0  0  0  0
  149.0882  140.0054  157.5785 H   0  0  0  0  0  0  0  0  0  0  0  0
  146.7053  140.3146  157.0221 H   0  0  0  0  0  0  0  0  0  0  0  0
  147.5772  141.8358  156.9724 H   0  0  0  0  0  0  0  0  0  0  0  0
  147.6859  141.8434  153.3488 H   0  0  0  0  0  0  0  0  0  0  0  0
  148.1629  142.7532  154.7702 H   0  0  0  0  0  0  0  0  0  0  0  0
  150.0886  141.5737  153.8274 H   0  0  0  0  0  0  0  0  0  0  0  0
  149.2652  140.0299  153.8865 H   0  0  0  0  0  0  0  0  0  0  0  0
  1  2  1  0  0  0  0
  1 19  1  0  0  0  0
  1 20  1  0  0  0  0
  1 21  1  0  0  0  0
  2  3  1  0  0  0  0
  2 13  1  0  0  0  0
  2 22  1  0  0  0  0
  3  4  1  0  0  0  0
  3 23  1  0  0  0  0
  3 24  1  0  0  0  0
  4  5  1  0  0  0  0
  4 25  1  0  0  0  0
  5  6  2  0  0  0  0
  5  7  1  0  0  0  0
  7  8  1  0  0  0  0
  7 26  1  0  0  0  0
  7 27  1  0  0  0  0
  8 12  1  0  0  0  0
  8  9  1  0  0  0  0
  9 10  2  0  0  0  0
  9 28  1  0  0  0  0
 10 11  1  0  0  0  0
 10 29  1  0  0  0  0
 11 12  2  0  0  0  0
 11 30  1  0  0  0  0
 13 18  1  0  0  0  0
 13 14  1  0  0  0  0
 14 15  1  0  0  0  0
 14 31  1  0  0  0  0
 14 32  1  0  0  0  0
 15 16  1  0  0  0  0
 15 33  1  0  0  0  0
 15 34  1  0  0  0  0
 16 17  1  0  0  0  0
 17 18  1  0  0  0  0
 17 35  1  0  0  0  0
 17 36  1  0  0  0  0
 18 37  1  0  0  0  0
 18 38  1  0  0  0  0
M  END
> <s_m_source_file>
AV-unprocessed.smi

> <i_m_source_file_index>
1420

> <i_lp_mmshare_version>
43012

> <i_f3d_flags>
0

> <s_epik_input>
W0NIMl0xW0NIMl1PW0NIMl1bQ0gyXU4xW0NASF0oW0NIM10pW0NIMl1bTkhdQyg9TylbQ0gyXW4yW2NIXVtjSF1bY0hdbjI=

> <s_epik_cmdline>
J2VwaWtfcHl0aG9uJywgJy1waCcsICc3LjAnLCAnLXRuJywgJzgnLCAnLW1hJywgJzIwMCcsICctbWV0YWxfYmluZGluZycsICctaW1hZScsICc8aW5maWxlLm1hZT4nLCAnLW9tYWUnLCAnPG91dGZpbGUubWFlPic=

> <r_lp_tautomer_probability>
1

> <r_epik_Ionization_Penalty>
0.196927

> <r_epik_Ionization_Penalty_Charging>
0

> <r_epik_Ionization_Penalty_Neutral>
0.196927

> <r_epik_State_Penalty>
0.186684

> <r_epik_Charging_Adjusted_Penalty>
0.186684

> <i_epik_Tot_Q>
0

> <i_epik_Tot_abs_Q>
0

> <r_epik_Metal_State_Penalty>
0.186682

> <b_epik_Metal_Only>
0

> <s_lp_Force_Field>
OPLS_2005

> <r_lp_Energy>
27.7246

> <b_lp_Chiralities_Consistent>
1

> <s_lp_Variant>
AV-unprocessed.smi:1420-1

> <Gold.Version>
5.8.1

> <Gold.Id.Protein>
6NUR|6NUR_protein|mol2

> <Gold.PLP.Fitness>
42.6445

> <Gold.PLP.PLP>
-37.8652

> <Gold.PLP.part.hbond>
-1.0000

> <Gold.PLP.part.metal>
0.0000

> <Gold.PLP.part.buried>
-3.2904

> <Gold.PLP.part.nonpolar>
-33.4553

> <Gold.PLP.part.repulsive>
0.2797

> <Gold.PLP.ligand.clash>
0.0000

> <Gold.PLP.ligand.torsion>
0.5133

> <Gold.PLP.Chemscore.Hbond>
0.9120

> <Gold.PLP.Chemscore.CHOScore>
1.0000

> <Gold.PLP.Chemscore.Metal>
0.0000

> <Gold.Chemscore.Hbonds>
donor molecule, donor type, donor heavy atom, donor atom, acceptor molecule, acceptor atom, score
      P1  H  7997  8009       L1     6  0.88
      L1  C    11    30       P1  8028  1.00

> <Gold.PLP.Chemscore.Internal.Correction>
0.0698

> <Gold.Rescore>
     Score         DG    S(hbond)    S(metal)    S(lipo)     H(rot)  DE(clash)    DE(int)     intcor
     11.76     -13.94       0.93        0.00      86.61       1.87       0.00       2.17       ----

> <Gold.Chemscore.Fitness>
11.7626

> <Gold.Chemscore.DG>
-13.9393

> <Gold.Chemscore.ZeroCoef>
-5.4800

> <Gold.Chemscore.Hbond>
0.9296

> <Gold.Chemscore.Metal>
0.0000

> <Gold.Chemscore.Lipo>
86.6113

> <Gold.Chemscore.Internal_Hbond>
0.0000

> <Gold.Chemscore.DEClash>
0.0021

> <Gold.Chemscore.DEInternal>
2.1745

> <Gold.Chemscore.Rot>
1.8669

> <Gold.Chemscore.Internal.Correction>
   9.000000E+99

> <Gold.Chemscore.Hbonds>
donor molecule, donor type, donor heavy atom, donor atom, acceptor molecule, acceptor atom, score
      P1  H  7997  8009       L1     6  0.85

> <Gold.Chemscore.Hbond.Weighted>
-3.1049

> <Gold.Chemscore.Metal.Weighted>
-0.0000

> <Gold.Chemscore.Lipo.Weighted>
-10.1335

> <Gold.Chemscore.Internal_Hbond.Weighted>
0.0000

> <Gold.Chemscore.DEClash.Weighted>
0.0021

> <Gold.Chemscore.DEInternal.Weighted>
2.1745

> <Gold.Chemscore.Rot.Weighted>
4.7792

> <Gold.Chemscore.Internal.Correction.Weighted>
   9.000000E+99

> <Gold.Protein.RotatedTorsions>
[ 6907 6896 6895 6894 ] final -100.87 input  -60.11 | X-H torsion
[ 7974 7965 7964 7962 ] final  -61.08 input  175.53 | X-H torsion
[ 8008 7997 7996 7995 ] final  124.87 input   59.86 | X-H torsion
[ 10167 10162 10161 10158 ] final -122.42 input  -65.29 | X-H torsion
[ 10718 10713 10712 10709 ] final  -40.03 input   66.30 | X-H torsion
[ 10763 10752 10751 10750 ] final  -28.28 input  -60.55 | X-H torsion
[ 11005 11000 10999 10996 ] final  -22.97 input  -57.11 | X-H torsion

> <Gold.Protein.ActiveResidues>
 VAL166  LYS551  ARG553  GLY616  TRP617  ASP618  TYR619  PRO620  LYS621  CYS622 
 ASP623  PHE694  ASN695  SER759  ASP760  ASP761  ALA762  ILE779  LEU786  VAL792 
 PHE793  MET794  SER795  GLU796  ALA797  LYS798  CYS799  TRP800  GLU811  SER814 

> <Gold.Protein.RotatedAtoms>
  150.7132  134.0821  159.3901 H   0  0  0  0  0  0  0  0  0  0  0  0  # atno 6907 bound_to 6896
  151.8805  135.0453  160.0497 H   0  0  0  0  0  0  0  0  0  0  0  0  # atno 6908 bound_to 6896
  152.2571  133.5230  159.5396 H   0  0  0  0  0  0  0  0  0  0  0  0  # atno 6909 bound_to 6896
  145.8078  140.8617  143.0198 H   0  0  0  0  0  0  0  0  0  0  0  0  # atno 7974 bound_to 7965
  156.2816  140.2729  156.1859 H   0  0  0  0  0  0  0  0  0  0  0  0  # atno 8008 bound_to 7997
  155.0509  140.0386  157.2561 H   0  0  0  0  0  0  0  0  0  0  0  0  # atno 8009 bound_to 7997
  154.7196  140.2685  155.6559 H   0  0  0  0  0  0  0  0  0  0  0  0  # atno 8010 bound_to 7997
  140.0145  143.5408  152.2248 H   0  0  0  0  0  0  0  0  0  0  0  0  # atno 10167 bound_to 10162
  156.2858  130.4222  149.8289 H   0  0  0  0  0  0  0  0  0  0  0  0  # atno 10718 bound_to 10713
  153.7457  135.6929  153.4957 H   0  0  0  0  0  0  0  0  0  0  0  0  # atno 10763 bound_to 10752
  153.2038  135.4427  155.0297 H   0  0  0  0  0  0  0  0  0  0  0  0  # atno 10764 bound_to 10752
  154.8205  135.3419  154.6980 H   0  0  0  0  0  0  0  0  0  0  0  0  # atno 10765 bound_to 10752
  140.8708  133.7722  156.0184 H   0  0  0  0  0  0  0  0  0  0  0  0  # atno 11005 bound_to 11000
  144.6761  140.0351  143.7482 LP  0  0  0  0  0  0  0  0  0  0  0  0  # atno 17320 bound_to 7965
  145.9810  139.2941  143.1042 LP  0  0  0  0  0  0  0  0  0  0  0  0  # atno 17321 bound_to 7965
  139.6182  144.7624  151.2799 LP  0  0  0  0  0  0  0  0  0  0  0  0  # atno 17342 bound_to 10162
  140.7368  143.6697  150.8092 LP  0  0  0  0  0  0  0  0  0  0  0  0  # atno 17343 bound_to 10162
  156.5720  130.8429  151.3359 LP  0  0  0  0  0  0  0  0  0  0  0  0  # atno 17370 bound_to 10713
  157.7328  130.9721  150.1947 LP  0  0  0  0  0  0  0  0  0  0  0  0  # atno 17371 bound_to 10713
  140.8576  134.2880  157.5249 LP  0  0  0  0  0  0  0  0  0  0  0  0  # atno 17394 bound_to 11000
  139.8712  134.9501  156.4045 LP  0  0  0  0  0  0  0  0  0  0  0  0  # atno 17395 bound_to 11000

$$$$
