AV-unprocessed.smi:1554|AV-procd|sdf|6262|dock5
  -GOLD-   22720 6453D 1   1.00000     0.00000
 Structure written by MMmdl.
 49 51  0  0  0  0  0  0  0  0  3 V2000
  152.8531  142.7337  160.3109 C   0  0  0  0  0  0  0  0  0  0  0  0
  152.3138  142.0419  159.0705 C   0  0  0  0  0  0  0  0  0  0  0  0
  151.4361  142.7584  158.2263 C   0  0  0  0  0  0  0  0  0  0  0  0
  150.9614  142.0995  157.0985 C   0  0  0  0  0  0  0  0  0  0  0  0
  150.0997  142.5267  156.0864 N   0  3  0  0  0  0  0  0  0  0  0  0
  149.9238  141.5219  155.1848 C   0  0  0  0  0  0  0  0  0  0  0  0
  150.6643  140.4591  155.6033 N   0  0  0  0  0  0  0  0  0  0  0  0
  150.8158  139.1293  154.9954 C   0  0  0  0  0  0  0  0  0  0  0  0
  149.4712  138.4023  154.7952 C   0  0  2  0  0  0  0  0  0  0  0  0
  149.7577  137.0896  154.3576 O   0  0  0  0  0  0  0  0  0  0  0  0
  148.5417  139.0798  153.7642 C   0  0  0  0  0  0  0  0  0  0  0  0
  147.6370  138.1156  153.0877 N   0  3  2  0  0  0  0  0  0  0  0  0
  146.8897  138.7320  151.9662 C   0  0  0  0  0  0  0  0  0  0  0  0
  146.0143  137.6824  151.2619 C   0  0  0  0  0  0  0  0  0  0  0  0
  145.1339  137.0867  152.2067 O   0  0  0  0  0  0  0  0  0  0  0  0
  145.8343  136.4096  153.2443 C   0  0  2  0  0  0  0  0  0  0  0  0
  144.8044  135.7279  154.1521 C   0  0  0  0  0  0  0  0  0  0  0  0
  146.7031  137.4250  154.0119 C   0  0  0  0  0  0  0  0  0  0  0  0
  151.3272  140.7727  156.7969 C   0  0  0  0  0  0  0  0  0  0  0  0
  152.1912  140.0526  157.6195 C   0  0  0  0  0  0  0  0  0  0  0  0
  152.6870  140.7064  158.7702 C   0  0  0  0  0  0  0  0  0  0  0  0
  153.6332  139.9458  159.6838 C   0  0  0  0  0  0  0  0  0  0  0  0
  152.4556  143.7443  160.4090 H   0  0  0  0  0  0  0  0  0  0  0  0
  153.9398  142.8059  160.2667 H   0  0  0  0  0  0  0  0  0  0  0  0
  152.5786  142.1803  161.2094 H   0  0  0  0  0  0  0  0  0  0  0  0
  151.1475  143.7756  158.4488 H   0  0  0  0  0  0  0  0  0  0  0  0
  149.3064  141.5612  154.2987 H   0  0  0  0  0  0  0  0  0  0  0  0
  151.3624  139.2178  154.0567 H   0  0  0  0  0  0  0  0  0  0  0  0
  151.4546  138.5489  155.6631 H   0  0  0  0  0  0  0  0  0  0  0  0
  148.9761  138.3308  155.7631 H   0  0  0  0  0  0  0  0  0  0  0  0
  149.5007  137.0073  153.4515 H   0  0  0  0  0  0  0  0  0  0  0  0
  147.9345  139.8555  154.2320 H   0  0  0  0  0  0  0  0  0  0  0  0
  149.1608  139.5849  153.0207 H   0  0  0  0  0  0  0  0  0  0  0  0
  146.2674  139.5454  152.3431 H   0  0  0  0  0  0  0  0  0  0  0  0
  147.5868  139.1662  151.2484 H   0  0  0  0  0  0  0  0  0  0  0  0
  145.4234  138.1523  150.4756 H   0  0  0  0  0  0  0  0  0  0  0  0
  146.6291  136.9176  150.7846 H   0  0  0  0  0  0  0  0  0  0  0  0
  146.4713  135.6401  152.8041 H   0  0  0  0  0  0  0  0  0  0  0  0
  145.2926  135.1855  154.9622 H   0  0  0  0  0  0  0  0  0  0  0  0
  144.2026  135.0130  153.5905 H   0  0  0  0  0  0  0  0  0  0  0  0
  144.1258  136.4559  154.5978 H   0  0  0  0  0  0  0  0  0  0  0  0
  147.2566  136.9049  154.7927 H   0  0  0  0  0  0  0  0  0  0  0  0
  146.0693  138.1624  154.5077 H   0  0  0  0  0  0  0  0  0  0  0  0
  152.4792  139.0364  157.3963 H   0  0  0  0  0  0  0  0  0  0  0  0
  153.8174  138.9356  159.3170 H   0  0  0  0  0  0  0  0  0  0  0  0
  153.2141  139.8637  160.6869 H   0  0  0  0  0  0  0  0  0  0  0  0
  154.5945  140.4561  159.7499 H   0  0  0  0  0  0  0  0  0  0  0  0
  148.2293  137.4065  152.6786 H   0  0  0  0  0  0  0  0  0  0  0  0
  149.6595  143.4355  156.0161 H   0  0  0  0  0  0  0  0  0  0  0  0
  1  2  1  0  0  0  0
  1 23  1  0  0  0  0
  1 24  1  0  0  0  0
  1 25  1  0  0  0  0
  2 21  1  0  0  0  0
  2  3  2  0  0  0  0
  3  4  1  0  0  0  0
  3 26  1  0  0  0  0
  4 19  2  0  0  0  0
  4  5  1  0  0  0  0
  5  6  2  0  0  0  0
  5 49  1  0  0  0  0
  6  7  1  0  0  0  0
  6 27  1  0  0  0  0
  7  8  1  0  0  0  0
  7 19  1  0  0  0  0
  8  9  1  0  0  0  0
  8 28  1  0  0  0  0
  8 29  1  0  0  0  0
  9 10  1  0  0  0  0
  9 11  1  0  0  0  0
  9 30  1  0  0  0  0
 10 31  1  0  0  0  0
 11 12  1  0  0  0  0
 11 32  1  0  0  0  0
 11 33  1  0  0  0  0
 12 18  1  0  0  0  0
 12 13  1  0  0  0  0
 12 48  1  0  0  0  0
 13 14  1  0  0  0  0
 13 34  1  0  0  0  0
 13 35  1  0  0  0  0
 14 15  1  0  0  0  0
 14 36  1  0  0  0  0
 14 37  1  0  0  0  0
 15 16  1  0  0  0  0
 16 17  1  0  0  0  0
 16 18  1  0  0  0  0
 16 38  1  0  0  0  0
 17 39  1  0  0  0  0
 17 40  1  0  0  0  0
 17 41  1  0  0  0  0
 18 42  1  0  0  0  0
 18 43  1  0  0  0  0
 19 20  1  0  0  0  0
 20 21  2  0  0  0  0
 20 44  1  0  0  0  0
 21 22  1  0  0  0  0
 22 45  1  0  0  0  0
 22 46  1  0  0  0  0
 22 47  1  0  0  0  0
M  CHG  1   5   1
M  CHG  1  12   1
M  END
> <s_m_source_file>
AV-unprocessed.smi

> <i_m_source_file_index>
1554

> <i_lp_mmshare_version>
43012

> <i_f3d_flags>
0

> <s_epik_input>
W0NIM11jKFtjSF0xKWMoW0NIM10pW2NIXWMoYzEyKW4oW2NIXW4yKVtDSDJdW0NASF0oW09IXSlbQ0gyXU4zW0NIMl1bQ0gyXU9bQ0BASF0oW0NIM10pW0NIMl0z

> <s_epik_cmdline>
J2VwaWtfcHl0aG9uJywgJy1waCcsICc3LjAnLCAnLXRuJywgJzgnLCAnLW1hJywgJzIwMCcsICctbWV0YWxfYmluZGluZycsICctaW1hZScsICc8aW5maWxlLm1hZT4nLCAnLW9tYWUnLCAnPG91dGZpbGUubWFlPic=

> <r_epik_Ionization_Penalty>
1.8848

> <r_epik_Ionization_Penalty_Charging>
1.88479

> <r_epik_Ionization_Penalty_Neutral>
1.42224e-05

> <r_epik_State_Penalty>
1.94551

> <r_epik_Charging_Adjusted_Penalty>
3.8303

> <i_epik_Tot_Q>
2

> <i_epik_Tot_abs_Q>
2

> <r_epik_Metal_State_Penalty>
5.95849

> <b_epik_Metal_Only>
0

> <s_lp_Force_Field>
OPLS_2005

> <r_lp_Energy>
32.1421

> <b_lp_Chiralities_Consistent>
1

> <s_lp_Variant>
AV-unprocessed.smi:1554-23

> <Gold.Version>
5.8.1

> <Gold.Id.Protein>
6NUR|6NUR_protein|mol2

> <Gold.PLP.Fitness>
53.1774

> <Gold.PLP.PLP>
-38.9156

> <Gold.PLP.part.hbond>
-3.0000

> <Gold.PLP.part.metal>
0.0000

> <Gold.PLP.part.buried>
0.4388

> <Gold.PLP.part.nonpolar>
-36.7712

> <Gold.PLP.part.repulsive>
0.3854

> <Gold.PLP.ligand.clash>
0.0000

> <Gold.PLP.ligand.torsion>
0.3997

> <Gold.PLP.Chemscore.Hbond>
5.0000

> <Gold.PLP.Chemscore.CHOScore>
0.0000

> <Gold.PLP.Chemscore.Metal>
0.0000

> <Gold.Chemscore.Hbonds>
donor molecule, donor type, donor heavy atom, donor atom, acceptor molecule, acceptor atom, score
      L1  H     5    49       P1  8028  2.00
      L1  H    10    31       P1  7948  1.00
      L1  H    12    48       P1  7948  2.00

> <Gold.PLP.Chemscore.Internal.Correction>
0.0611

> <Gold.Rescore>
     Score         DG    S(hbond)    S(metal)    S(lipo)     H(rot)  DE(clash)    DE(int)     intcor
     20.45     -22.05       2.95        0.00     103.60       2.11       1.18       0.43       ----

> <Gold.Chemscore.Fitness>
20.4502

> <Gold.Chemscore.DG>
-22.0514

> <Gold.Chemscore.ZeroCoef>
-5.4800

> <Gold.Chemscore.Hbond>
2.9513

> <Gold.Chemscore.Metal>
0.0000

> <Gold.Chemscore.Lipo>
103.5998

> <Gold.Chemscore.Internal_Hbond>
0.0000

> <Gold.Chemscore.DEClash>
1.1753

> <Gold.Chemscore.DEInternal>
0.4260

> <Gold.Chemscore.Rot>
2.1122

> <Gold.Chemscore.Internal.Correction>
   9.000000E+99

> <Gold.Chemscore.Hbonds>
donor molecule, donor type, donor heavy atom, donor atom, acceptor molecule, acceptor atom, score
      L1  H     5    49       P1  8028  0.94
      L1  H    10    31       P1  7948  0.85
      L1  H    12    48       P1  7948  0.98

> <Gold.Chemscore.Hbond.Weighted>
-9.8575

> <Gold.Chemscore.Metal.Weighted>
-0.0000

> <Gold.Chemscore.Lipo.Weighted>
-12.1212

> <Gold.Chemscore.Internal_Hbond.Weighted>
0.0000

> <Gold.Chemscore.DEClash.Weighted>
1.1753

> <Gold.Chemscore.DEInternal.Weighted>
0.4260

> <Gold.Chemscore.Rot.Weighted>
5.4073

> <Gold.Chemscore.Internal.Correction.Weighted>
   9.000000E+99

> <Gold.Protein.RotatedTorsions>
[ 6907 6896 6895 6894 ] final  126.35 input  -60.11 | X-H torsion
[ 7974 7965 7964 7962 ] final  -77.85 input  175.53 | X-H torsion
[ 8008 7997 7996 7995 ] final -159.16 input   59.86 | X-H torsion
[ 10167 10162 10161 10158 ] final   66.23 input  -65.29 | X-H torsion
[ 10718 10713 10712 10709 ] final   45.22 input   66.30 | X-H torsion
[ 10763 10752 10751 10750 ] final   54.03 input  -60.55 | X-H torsion
[ 11005 11000 10999 10996 ] final -126.65 input  -57.11 | X-H torsion

> <Gold.Protein.ActiveResidues>
 VAL166  LYS551  ARG553  GLY616  TRP617  ASP618  TYR619  PRO620  LYS621  CYS622 
 ASP623  PHE694  ASN695  SER759  ASP760  ASP761  ALA762  ILE779  LEU786  VAL792 
 PHE793  MET794  SER795  GLU796  ALA797  LYS798  CYS799  TRP800  GLU811  SER814 

> <Gold.Protein.RotatedAtoms>
  152.3911  133.6680  159.6238 H   0  0  0  0  0  0  0  0  0  0  0  0  # atno 6907 bound_to 6896
  150.7819  133.8953  159.3334 H   0  0  0  0  0  0  0  0  0  0  0  0  # atno 6908 bound_to 6896
  151.6739  135.0973  160.0254 H   0  0  0  0  0  0  0  0  0  0  0  0  # atno 6909 bound_to 6896
  145.5943  140.9423  143.1275 H   0  0  0  0  0  0  0  0  0  0  0  0  # atno 7974 bound_to 7965
  155.7585  140.0836  157.2167 H   0  0  0  0  0  0  0  0  0  0  0  0  # atno 8008 bound_to 7997
  154.4005  140.1547  156.2861 H   0  0  0  0  0  0  0  0  0  0  0  0  # atno 8009 bound_to 7997
  155.8863  140.3418  155.5926 H   0  0  0  0  0  0  0  0  0  0  0  0  # atno 8010 bound_to 7997
  140.1027  144.4889  150.7027 H   0  0  0  0  0  0  0  0  0  0  0  0  # atno 10167 bound_to 10162
  157.4352  130.8048  149.7641 H   0  0  0  0  0  0  0  0  0  0  0  0  # atno 10718 bound_to 10713
  152.9800  135.5759  154.4837 H   0  0  0  0  0  0  0  0  0  0  0  0  # atno 10763 bound_to 10752
  154.4382  135.2775  155.1868 H   0  0  0  0  0  0  0  0  0  0  0  0  # atno 10764 bound_to 10752
  154.3547  135.6201  153.5714 H   0  0  0  0  0  0  0  0  0  0  0  0  # atno 10765 bound_to 10752
  140.9664  134.0865  157.3915 H   0  0  0  0  0  0  0  0  0  0  0  0  # atno 11005 bound_to 11000
  144.7338  139.7647  143.7337 LP  0  0  0  0  0  0  0  0  0  0  0  0  # atno 17320 bound_to 7965
  146.1624  139.4743  142.9980 LP  0  0  0  0  0  0  0  0  0  0  0  0  # atno 17321 bound_to 7965
  140.6969  143.2409  151.4976 LP  0  0  0  0  0  0  0  0  0  0  0  0  # atno 17342 bound_to 10162
  139.5662  144.2036  152.1768 LP  0  0  0  0  0  0  0  0  0  0  0  0  # atno 17343 bound_to 10162
  155.9928  130.3928  150.2928 LP  0  0  0  0  0  0  0  0  0  0  0  0  # atno 17370 bound_to 10713
  157.1088  131.0215  151.3056 LP  0  0  0  0  0  0  0  0  0  0  0  0  # atno 17371 bound_to 10713
  139.8896  135.0106  156.6689 LP  0  0  0  0  0  0  0  0  0  0  0  0  # atno 17394 bound_to 11000
  140.7393  133.8992  155.8266 LP  0  0  0  0  0  0  0  0  0  0  0  0  # atno 17395 bound_to 11000

$$$$
