AV-unprocessed.smi:2629|AV-procd|sdf|10244|dock6
  -GOLD-   2272014253D 1   1.00000     0.00000
 Structure written by MMmdl.
 24 25  0  0  0  0  0  0  0  0  3 V2000
  150.4245  139.6763  154.2222 O   0  0  0  0  0  0  0  0  0  0  0  0
  150.6504  140.3398  155.2313 C   0  0  0  0  0  0  0  0  0  0  0  0
  149.8545  141.5924  155.5055 N   0  0  0  0  0  0  0  0  0  0  0  0
  150.0990  142.2594  156.5415 N   0  3  0  0  0  0  0  0  0  0  0  0
  151.0936  141.9360  157.5211 C   0  0  0  0  0  0  0  0  0  0  0  0
  151.2694  142.7530  158.6219 N   0  0  0  0  0  0  0  0  0  0  0  0
  150.2537  143.6934  159.0680 C   0  0  0  0  0  0  0  0  0  0  0  0
  150.7132  145.1354  158.7908 C   0  0  0  0  0  0  0  0  0  0  0  0
  151.9777  145.3602  159.4084 O   0  0  0  0  0  0  0  0  0  0  0  0
  152.9843  144.4817  158.9126 C   0  0  0  0  0  0  0  0  0  0  0  0
  152.5795  143.0239  159.1922 C   0  0  0  0  0  0  0  0  0  0  0  0
  151.8314  140.7863  157.2802 C   0  0  0  0  0  0  0  0  0  0  0  0
  152.7553  140.1953  157.8809 O   0  5  0  0  0  0  0  0  0  0  0  0
  151.5871  140.0217  156.1416 N   0  0  0  0  0  0  0  0  0  0  0  0
  149.5457  143.0956  156.6942 H   0  0  0  0  0  0  0  0  0  0  0  0
  150.0821  143.5492  160.1352 H   0  0  0  0  0  0  0  0  0  0  0  0
  149.3082  143.4918  158.5628 H   0  0  0  0  0  0  0  0  0  0  0  0
  150.7831  145.3207  157.7177 H   0  0  0  0  0  0  0  0  0  0  0  0
  149.9895  145.8454  159.1913 H   0  0  0  0  0  0  0  0  0  0  0  0
  153.1302  144.6456  157.8436 H   0  0  0  0  0  0  0  0  0  0  0  0
  153.9304  144.7109  159.4031 H   0  0  0  0  0  0  0  0  0  0  0  0
  153.3184  142.3379  158.7764 H   0  0  0  0  0  0  0  0  0  0  0  0
  152.5428  142.8403  160.2665 H   0  0  0  0  0  0  0  0  0  0  0  0
  152.1500  139.1937  156.0104 H   0  0  0  0  0  0  0  0  0  0  0  0
  1  2  2  0  0  0  0
  2 14  1  0  0  0  0
  2  3  1  0  0  0  0
  3  4  2  0  0  0  0
  4 15  1  0  0  0  0
  4  5  1  0  0  0  0
  5 12  2  0  0  0  0
  5  6  1  0  0  0  0
  6 11  1  0  0  0  0
  6  7  1  0  0  0  0
  7  8  1  0  0  0  0
  7 16  1  0  0  0  0
  7 17  1  0  0  0  0
  8  9  1  0  0  0  0
  8 18  1  0  0  0  0
  8 19  1  0  0  0  0
  9 10  1  0  0  0  0
 10 11  1  0  0  0  0
 10 20  1  0  0  0  0
 10 21  1  0  0  0  0
 11 22  1  0  0  0  0
 11 23  1  0  0  0  0
 12 13  1  0  0  0  0
 12 14  1  0  0  0  0
 14 24  1  0  0  0  0
M  CHG  1   4   1
M  CHG  1  13  -1
M  END
> <s_m_source_file>
AV-unprocessed.smi

> <i_m_source_file_index>
2629

> <i_lp_mmshare_version>
43012

> <i_f3d_flags>
0

> <s_epik_input>
Tz1jMVtuSF1uYyhjKD1PKVtuSF0xKU4yW0NIMl1bQ0gyXU9bQ0gyXVtDSDJdMg==

> <s_epik_cmdline>
J2VwaWtfcHl0aG9uJywgJy1waCcsICc3LjAnLCAnLXRuJywgJzgnLCAnLW1hJywgJzIwMCcsICctbWV0YWxfYmluZGluZycsICctaW1hZScsICc8aW5maWxlLm1hZT4nLCAnLW9tYWUnLCAnPG91dGZpbGUubWFlPic=

> <r_lp_tautomer_probability>
1

> <r_epik_Ionization_Penalty>
6.1095

> <r_epik_Ionization_Penalty_Charging>
6.1095

> <r_epik_Ionization_Penalty_Neutral>
3.71443e-10

> <r_epik_State_Penalty>
-0

> <r_epik_Charging_Adjusted_Penalty>
6.1095

> <i_epik_Tot_Q>
0

> <i_epik_Tot_abs_Q>
2

> <r_epik_Metal_State_Penalty>
6.62767

> <b_epik_Metal_Only>
0

> <s_lp_Force_Field>
OPLS_2005

> <r_lp_Energy>
17.9127

> <b_lp_Chiralities_Consistent>
1

> <s_lp_Variant>
AV-unprocessed.smi:2629-1

> <Gold.Version>
5.8.1

> <Gold.Id.Protein>
6NUR|6NUR_protein|mol2

> <Gold.PLP.Fitness>
32.2455

> <Gold.PLP.PLP>
-23.9847

> <Gold.PLP.part.hbond>
-3.0000

> <Gold.PLP.part.metal>
0.0000

> <Gold.PLP.part.buried>
-4.2408

> <Gold.PLP.part.nonpolar>
-16.9474

> <Gold.PLP.part.repulsive>
0.5510

> <Gold.PLP.ligand.clash>
0.0000

> <Gold.PLP.ligand.torsion>
0.3546

> <Gold.PLP.Chemscore.Hbond>
2.9660

> <Gold.PLP.Chemscore.CHOScore>
0.0000

> <Gold.PLP.Chemscore.Metal>
0.0000

> <Gold.Chemscore.Hbonds>
donor molecule, donor type, donor heavy atom, donor atom, acceptor molecule, acceptor atom, score
      L1  H     4    15       P1  8028  0.79
      P1  H  7989  7998       L1     1  0.10
      P1  H  7997  8009       L1    13  1.98

> <Gold.PLP.Chemscore.Internal.Correction>
0.0720

> <Gold.Rescore>
     Score         DG    S(hbond)    S(metal)    S(lipo)     H(rot)  DE(clash)    DE(int)     intcor
     16.25     -16.82       1.79        0.00      45.79       0.00       0.22       0.36       ----

> <Gold.Chemscore.Fitness>
16.2456

> <Gold.Chemscore.DG>
-16.8202

> <Gold.Chemscore.ZeroCoef>
-5.4800

> <Gold.Chemscore.Hbond>
1.7914

> <Gold.Chemscore.Metal>
0.0000

> <Gold.Chemscore.Lipo>
45.7868

> <Gold.Chemscore.Internal_Hbond>
0.0000

> <Gold.Chemscore.DEClash>
0.2180

> <Gold.Chemscore.DEInternal>
0.3567

> <Gold.Chemscore.Rot>
0.0000

> <Gold.Chemscore.Internal.Correction>
   9.000000E+99

> <Gold.Chemscore.Hbonds>
donor molecule, donor type, donor heavy atom, donor atom, acceptor molecule, acceptor atom, score
      L1  H     4    15       P1  8028  0.73
      P1  H  7997  8009       L1    13  0.85

> <Gold.Chemscore.Hbond.Weighted>
-5.9832

> <Gold.Chemscore.Metal.Weighted>
-0.0000

> <Gold.Chemscore.Lipo.Weighted>
-5.3571

> <Gold.Chemscore.Internal_Hbond.Weighted>
0.0000

> <Gold.Chemscore.DEClash.Weighted>
0.2180

> <Gold.Chemscore.DEInternal.Weighted>
0.3567

> <Gold.Chemscore.Rot.Weighted>
0.0000

> <Gold.Chemscore.Internal.Correction.Weighted>
   9.000000E+99

> <Gold.Protein.RotatedTorsions>
[ 6907 6896 6895 6894 ] final -112.20 input  -60.11 | X-H torsion
[ 7974 7965 7964 7962 ] final  -14.55 input  175.53 | X-H torsion
[ 8008 7997 7996 7995 ] final  162.26 input   59.86 | X-H torsion
[ 10167 10162 10161 10158 ] final -147.45 input  -65.29 | X-H torsion
[ 10718 10713 10712 10709 ] final   45.61 input   66.30 | X-H torsion
[ 10763 10752 10751 10750 ] final -127.69 input  -60.55 | X-H torsion
[ 11005 11000 10999 10996 ] final   43.55 input  -57.11 | X-H torsion

> <Gold.Protein.ActiveResidues>
 VAL166  LYS551  ARG553  GLY616  TRP617  ASP618  TYR619  PRO620  LYS621  CYS622 
 ASP623  PHE694  ASN695  SER759  ASP760  ASP761  ALA762  ILE779  LEU786  VAL792 
 PHE793  MET794  SER795  GLU796  ALA797  LYS798  CYS799  TRP800  GLU811  SER814 

> <Gold.Protein.RotatedAtoms>
  150.7742  133.9123  159.3373 H   0  0  0  0  0  0  0  0  0  0  0  0  # atno 6907 bound_to 6896
  151.7002  135.0929  160.0259 H   0  0  0  0  0  0  0  0  0  0  0  0  # atno 6908 bound_to 6896
  152.3772  133.6459  159.6168 H   0  0  0  0  0  0  0  0  0  0  0  0  # atno 6909 bound_to 6896
  146.2069  140.3365  142.8404 H   0  0  0  0  0  0  0  0  0  0  0  0  # atno 7974 bound_to 7965
  156.2044  140.1755  156.7831 H   0  0  0  0  0  0  0  0  0  0  0  0  # atno 8008 bound_to 7997
  154.5635  140.0695  156.8886 H   0  0  0  0  0  0  0  0  0  0  0  0  # atno 8009 bound_to 7997
  155.2804  140.3348  155.4261 H   0  0  0  0  0  0  0  0  0  0  0  0  # atno 8010 bound_to 7997
  139.7621  143.8362  152.2609 H   0  0  0  0  0  0  0  0  0  0  0  0  # atno 10167 bound_to 10162
  157.4394  130.8072  149.7679 H   0  0  0  0  0  0  0  0  0  0  0  0  # atno 10718 bound_to 10713
  154.8753  135.3953  154.3635 H   0  0  0  0  0  0  0  0  0  0  0  0  # atno 10763 bound_to 10752
  153.4405  135.7026  153.6177 H   0  0  0  0  0  0  0  0  0  0  0  0  # atno 10764 bound_to 10752
  153.4761  135.3779  155.2386 H   0  0  0  0  0  0  0  0  0  0  0  0  # atno 10765 bound_to 10752
  140.1634  134.4312  155.8302 H   0  0  0  0  0  0  0  0  0  0  0  0  # atno 11005 bound_to 11000
  144.8816  140.7407  143.5983 LP  0  0  0  0  0  0  0  0  0  0  0  0  # atno 17320 bound_to 7965
  145.3285  139.1766  143.4549 LP  0  0  0  0  0  0  0  0  0  0  0  0  # atno 17321 bound_to 7965
  139.8371  144.7227  150.9377 LP  0  0  0  0  0  0  0  0  0  0  0  0  # atno 17342 bound_to 10162
  140.7808  143.4017  151.1138 LP  0  0  0  0  0  0  0  0  0  0  0  0  # atno 17343 bound_to 10162
  155.9943  130.3919  150.2865 LP  0  0  0  0  0  0  0  0  0  0  0  0  # atno 17370 bound_to 10713
  157.1029  131.0200  151.3078 LP  0  0  0  0  0  0  0  0  0  0  0  0  # atno 17371 bound_to 10713
  141.2211  133.6923  156.7635 LP  0  0  0  0  0  0  0  0  0  0  0  0  # atno 17394 bound_to 11000
  140.2462  134.8575  157.3622 LP  0  0  0  0  0  0  0  0  0  0  0  0  # atno 17395 bound_to 11000

$$$$
