#       Name:                AV-unprocessed.smi:62
#       Creating user name   scv26
#       Creation time:       Thu Mar 26 16:49:45 2020


#       File generated by GOLD software.
#

@<TRIPOS>MOLECULE
AV-unprocessed.smi:62
    38    39     1
SMALL
NO_CHARGES


@<TRIPOS>ATOM
      1 ****        -4.2660   1.2303   1.4845 C.3            1 S1                 0.0000
      2 ****        -3.0338   0.4838   1.3488 N.pl3          1 S1                 0.0000
      3 ****        -1.7389   0.9490   1.3594 C.2            1 S1                 0.0000
      4 ****        -0.9042  -0.1226   1.1997 C.2            1 S1                 0.0000
      5 ****         0.6050  -0.0765   1.1522 C.3            1 S1                 0.0000
      6 ****         1.1143  -0.3548  -0.2112 N.4            1 S1                 1.0000
      7 ****         0.6639   0.5866  -1.2602 C.3            1 S1                 0.0000
      8 ****         1.7514   0.5415  -2.3289 C.3            1 S1                 0.0000
      9 ****         3.0201   0.3987  -1.4943 C.3            1 S1                 0.0000
     10 ****         4.0765  -0.1811  -2.2303 O.3            1 S1                 0.0000
     11 ****         2.5885  -0.4718  -0.3059 C.3            1 S1                 0.0000
     12 ****        -1.8137  -1.2296   1.0951 C.2            1 S1                 0.0000
     13 ****        -1.3423  -2.6451   0.8902 C.2            1 S1                 0.0000
     14 ****        -0.1206  -2.8863   0.7713 O.co2          1 S1                 0.0000
     15 ****        -2.2063  -3.5469   0.8341 O.co2          1 S1                -1.0000
     16 ****        -3.0814  -0.8514   1.1874 N.2            1 S1                 0.0000
     17 ****        -4.0501   2.2941   1.5875 H              1 S1                 0.0000
     18 ****        -4.8074   0.8910   2.3683 H              1 S1                 0.0000
     19 ****        -4.8889   1.0785   0.6024 H              1 S1                 0.0000
     20 ****        -1.5167   1.9991   1.4800 H              1 S1                 0.0000
     21 ****         0.9768   0.8978   1.4730 H              1 S1                 0.0000
     22 ****         1.0354  -0.7984   1.8471 H              1 S1                 0.0000
     23 ****        -0.3175   0.3143  -1.6502 H              1 S1                 0.0000
     24 ****         0.5968   1.5955  -0.8495 H              1 S1                 0.0000
     25 ****         1.6075  -0.3368  -2.9606 H              1 S1                 0.0000
     26 ****         1.7579   1.4238  -2.9696 H              1 S1                 0.0000
     27 ****         3.3278   1.3811  -1.1333 H              1 S1                 0.0000
     28 ****         4.2892   0.3878  -2.9546 H              1 S1                 0.0000
     29 ****         3.0956  -0.1638   0.6098 H              1 S1                 0.0000
     30 ****         2.8257  -1.5232  -0.4748 H              1 S1                 0.0000
     31 ****         0.7541  -1.2640  -0.4686 H              1 S1                 0.0000
     32 ****         3.7940  -1.0756  -2.5767 LP             1 S1                 0.0000
     33 ****         4.8773  -0.2895  -1.6411 LP             1 S1                 0.0000
     34 ****         0.1920  -3.8251   0.6263 LP             1 S1                 0.0000
     35 ****         0.5436  -2.1404   0.8214 LP             1 S1                 0.0000
     36 ****        -1.9289  -4.4968   0.6901 LP             1 S1                 0.0000
     37 ****        -3.1747  -3.3184   0.9333 LP             1 S1                 0.0000
     38 ****        -3.8948  -1.4316   1.1461 LP             1 S1                 0.0000
@<TRIPOS>BOND
    1    1    2 1     
    2    1   17 1     
    3    1   18 1     
    4    1   19 1     
    5    2   16 1     
    6    2    3 1     
    7    3    4 2     
    8    3   20 1     
    9    4    5 1     
   10    4   12 1     
   11    5    6 1     
   12    5   21 1     
   13    5   22 1     
   14    6   11 1     
   15    6    7 1     
   16    6   31 1     
   17    7    8 1     
   18    7   23 1     
   19    7   24 1     
   20    8    9 1     
   21    8   25 1     
   22    8   26 1     
   23    9   10 1     
   24    9   11 1     
   25    9   27 1     
   26   10   28 1     
   27   11   29 1     
   28   11   30 1     
   29   12   13 1     
   30   12   16 2     
   31   13   14 ar    
   32   13   15 ar    
   33   10   32 1     
   34   10   33 1     
   35   14   34 1     
   36   14   35 1     
   37   15   36 1     
   38   15   37 1     
   39   16   38 1     
@<TRIPOS>SUBSTRUCTURE
      1 S1             1
@<TRIPOS>SET
LONE_PAIRS      STATIC     ATOMS    <user>   **** ""
7 32 33 34 35 36 37 38
DONOR_HYDROGENS      STATIC     ATOMS    <user>   **** ""
2 31 28
ATOM$BLUE        STATIC     ATOMS    COLORGROUP SYSTEM
7 32 33 34 35 36 37 38
ATOM$RED        STATIC     ATOMS    COLORGROUP SYSTEM
2 31 28
