#       Name:                AV-unprocessed.smi:2254
#       Creating user name   scv26
#       Creation time:       Fri Mar 27 12:32:43 2020


#       File generated by GOLD software.
#

@<TRIPOS>MOLECULE
AV-unprocessed.smi:2254
    48    49     1
SMALL
NO_CHARGES


@<TRIPOS>ATOM
      1 ****        -2.0856   5.3887  -0.7097 C.3            1 S1                 0.0000
      2 ****        -1.5358   4.0025  -0.9963 C.2            1 S1                 0.0000
      3 ****        -1.1257   3.7757  -2.3134 N.2            1 S1                 0.0000
      4 ****        -0.6564   2.6197  -2.6526 C.2            1 S1                 0.0000
      5 ****        -0.5447   1.5694  -1.7277 N.am           1 S1                 0.0000
      6 ****        -0.0010   0.3027  -2.2422 C.3            1 S1                 0.0000
      7 ****         1.5063   0.1506  -1.9311 C.3            1 S1                 0.0000
      8 ****         2.2513   0.5746  -3.0549 O.3            1 S1                 0.0000
      9 ****         1.8970  -1.3071  -1.6451 C.3            1 S1                 0.0000
     10 ****         1.3244  -1.6863  -0.4051 O.3            1 S1                 0.0000
     11 ****         1.6347  -3.0170  -0.0276 C.3            1 S1                 0.0000
     12 ****         1.0061  -3.3966   1.3007 C.ar           1 S1                 0.0000
     13 ****         0.7298  -2.4123   2.2750 C.ar           1 S1                 0.0000
     14 ****         0.1606  -2.7779   3.5103 C.ar           1 S1                 0.0000
     15 ****        -0.1292  -4.1293   3.7809 C.ar           1 S1                 0.0000
     16 ****        -0.8252  -4.5771   5.2950 Cl             1 S1                 0.0000
     17 ****         0.1528  -5.1155   2.8157 C.ar           1 S1                 0.0000
     18 ****         0.7217  -4.7500   1.5799 C.ar           1 S1                 0.0000
     19 ****        -0.9002   1.7118  -0.4179 C.2            1 S1                 0.0000
     20 ****        -0.7711   0.7911   0.3916 O.2            1 S1                 0.0000
     21 ****        -1.4405   3.0301  -0.0485 C.2            1 S1                 0.0000
     22 ****        -1.8735   3.2187   1.4001 C.3            1 S1                 0.0000
     23 ****        -1.4760   5.8938   0.0398 H              1 S1                 0.0000
     24 ****        -3.1101   5.3250  -0.3420 H              1 S1                 0.0000
     25 ****        -2.0919   6.0072  -1.6081 H              1 S1                 0.0000
     26 ****        -0.3191   2.3921  -3.6653 H              1 S1                 0.0000
     27 ****        -0.5581  -0.5152  -1.7813 H              1 S1                 0.0000
     28 ****        -0.1930   0.1734  -3.3097 H              1 S1                 0.0000
     29 ****         1.7984   0.7624  -1.0764 H              1 S1                 0.0000
     30 ****         2.0885   1.4950  -3.1939 H              1 S1                 0.0000
     31 ****         1.5540  -1.9645  -2.4460 H              1 S1                 0.0000
     32 ****         2.9826  -1.4005  -1.5824 H              1 S1                 0.0000
     33 ****         1.2852  -3.7057  -0.7987 H              1 S1                 0.0000
     34 ****         2.7157  -3.1387   0.0551 H              1 S1                 0.0000
     35 ****         0.9515  -1.3729   2.0818 H              1 S1                 0.0000
     36 ****        -0.0511  -2.0197   4.2499 H              1 S1                 0.0000
     37 ****        -0.0654  -6.1530   3.0221 H              1 S1                 0.0000
     38 ****         0.9382  -5.5126   0.8461 H              1 S1                 0.0000
     39 ****        -2.6837   2.5299   1.6417 H              1 S1                 0.0000
     40 ****        -2.2222   4.2269   1.6173 H              1 S1                 0.0000
     41 ****        -1.0408   3.0095   2.0723 H              1 S1                 0.0000
     42 ****        -1.1952   4.5066  -2.9923 LP             1 S1                 0.0000
     43 ****         1.9682   0.0566  -3.8620 LP             1 S1                 0.0000
     44 ****         3.2262   0.4261  -2.8886 LP             1 S1                 0.0000
     45 ****         0.3306  -1.5997  -0.4747 LP             1 S1                 0.0000
     46 ****         1.6641  -1.0679   0.3036 LP             1 S1                 0.0000
     47 ****        -0.3977  -0.0875   0.0941 LP             1 S1                 0.0000
     48 ****        -1.0397   0.9229   1.3458 LP             1 S1                 0.0000
@<TRIPOS>BOND
    1    1    2 1     
    2    1   23 1     
    3    1   24 1     
    4    1   25 1     
    5    2   21 2     
    6    2    3 1     
    7    3    4 2     
    8    4    5 1     
    9    4   26 1     
   10    5    6 1     
   11    5   19 am    
   12    6    7 1     
   13    6   27 1     
   14    6   28 1     
   15    7    8 1     
   16    7    9 1     
   17    7   29 1     
   18    8   30 1     
   19    9   10 1     
   20    9   31 1     
   21    9   32 1     
   22   10   11 1     
   23   11   12 1     
   24   11   33 1     
   25   11   34 1     
   26   12   18 ar    
   27   12   13 ar    
   28   13   14 ar    
   29   13   35 1     
   30   14   15 ar    
   31   14   36 1     
   32   15   16 1     
   33   15   17 ar    
   34   17   18 ar    
   35   17   37 1     
   36   18   38 1     
   37   19   20 2     
   38   19   21 1     
   39   21   22 1     
   40   22   39 1     
   41   22   40 1     
   42   22   41 1     
   43    3   42 1     
   44    8   43 1     
   45    8   44 1     
   46   10   45 1     
   47   10   46 1     
   48   20   47 1     
   49   20   48 1     
@<TRIPOS>SUBSTRUCTURE
      1 S1             1
@<TRIPOS>SET
LONE_PAIRS      STATIC     ATOMS    <user>   **** ""
7 42 43 44 45 46 47 48
DONOR_HYDROGENS      STATIC     ATOMS    <user>   **** ""
1 30
ATOM$BLUE        STATIC     ATOMS    COLORGROUP SYSTEM
7 42 43 44 45 46 47 48
ATOM$RED        STATIC     ATOMS    COLORGROUP SYSTEM
1 30
