AV-unprocessed.smi:675|AV-procd|sdf|3305|dock3
  -GOLD-   22720 0263D 1   1.00000     0.00000
 Structure written by MMmdl.
 28 29  0  0  0  0  0  0  0  0  2 V2000
  146.3604  141.5845  153.6872 O   0  0  0  0  0  0  0  0  0  0  0  0
  147.2948  141.4770  154.4799 C   0  0  0  0  0  0  0  0  0  0  0  0
  148.5594  141.1452  154.0874 N   0  5  0  0  0  0  0  0  0  0  0  0
  149.6108  141.0165  154.9539 C   0  0  0  0  0  0  0  0  0  0  0  0
  150.7401  140.7099  154.5721 O   0  0  0  0  0  0  0  0  0  0  0  0
  149.3948  141.2298  156.2869 N   0  0  0  0  0  0  0  0  0  0  0  0
  150.4490  141.0923  157.3046 C   0  0  0  0  0  0  0  0  0  0  0  0
  150.5824  142.3493  158.1943 C   0  0  2  0  0  0  0  0  0  0  0  0
  150.8020  143.4607  157.3485 O   0  0  0  0  0  0  0  0  0  0  0  0
  151.6655  142.2136  159.2650 C   0  0  0  0  0  0  0  0  0  0  0  0
  152.4769  141.0560  159.2761 C   0  0  0  0  0  0  0  0  0  0  0  0
  153.4678  140.8807  160.2599 C   0  0  0  0  0  0  0  0  0  0  0  0
  153.6586  141.8637  161.2469 C   0  0  0  0  0  0  0  0  0  0  0  0
  152.8559  143.0189  161.2482 C   0  0  0  0  0  0  0  0  0  0  0  0
  151.8610  143.2002  160.2665 C   0  0  0  0  0  0  0  0  0  0  0  0
  150.9007  144.6369  160.3370 Cl  0  0  0  0  0  0  0  0  0  0  0  0
  148.1128  141.5815  156.7416 C   0  0  0  0  0  0  0  0  0  0  0  0
  147.0657  141.7100  155.9042 C   0  0  0  0  0  0  0  0  0  0  0  0
  145.4980  142.1301  156.4960 Cl  0  0  0  0  0  0  0  0  0  0  0  0
  150.2851  140.2119  157.9280 H   0  0  0  0  0  0  0  0  0  0  0  0
  151.3975  140.9018  156.7995 H   0  0  0  0  0  0  0  0  0  0  0  0
  149.6203  142.5420  158.6659 H   0  0  0  0  0  0  0  0  0  0  0  0
  149.9628  143.8063  157.0861 H   0  0  0  0  0  0  0  0  0  0  0  0
  152.3321  140.2863  158.5321 H   0  0  0  0  0  0  0  0  0  0  0  0
  154.0771  139.9891  160.2600 H   0  0  0  0  0  0  0  0  0  0  0  0
  154.4163  141.7303  162.0050 H   0  0  0  0  0  0  0  0  0  0  0  0
  153.0014  143.7692  162.0113 H   0  0  0  0  0  0  0  0  0  0  0  0
  148.0338  141.7281  157.8090 H   0  0  0  0  0  0  0  0  0  0  0  0
  1  2  2  0  0  0  0
  2 18  1  0  0  0  0
  2  3  1  0  0  0  0
  3  4  1  0  0  0  0
  4  5  2  0  0  0  0
  4  6  1  0  0  0  0
  6  7  1  0  0  0  0
  6 17  1  0  0  0  0
  7  8  1  0  0  0  0
  7 20  1  0  0  0  0
  7 21  1  0  0  0  0
  8  9  1  0  0  0  0
  8 10  1  0  0  0  0
  8 22  1  0  0  0  0
  9 23  1  0  0  0  0
 10 15  1  0  0  0  0
 10 11  2  0  0  0  0
 11 12  1  0  0  0  0
 11 24  1  0  0  0  0
 12 13  2  0  0  0  0
 12 25  1  0  0  0  0
 13 14  1  0  0  0  0
 13 26  1  0  0  0  0
 14 15  2  0  0  0  0
 14 27  1  0  0  0  0
 15 16  1  0  0  0  0
 17 18  2  0  0  0  0
 17 28  1  0  0  0  0
 18 19  1  0  0  0  0
M  CHG  1   3  -1
M  END
> <s_m_source_file>
AV-unprocessed.smi

> <i_m_source_file_index>
675

> <i_lp_mmshare_version>
43012

> <i_f3d_flags>
0

> <s_epik_input>
Tz1jMVtuSF1jKD1PKW4oW2NIXWMxQ2wpW0NIMl1bQ0BIXShbT0hdKWMyW2NIXVtjSF1bY0hdW2NIXWMyQ2w=

> <s_epik_cmdline>
J2VwaWtfcHl0aG9uJywgJy1waCcsICc3LjAnLCAnLXRuJywgJzgnLCAnLW1hJywgJzIwMCcsICctbWV0YWxfYmluZGluZycsICctaW1hZScsICc8aW5maWxlLm1hZT4nLCAnLW9tYWUnLCAnPG91dGZpbGUubWFlPic=

> <r_epik_Ionization_Penalty>
1.79791

> <r_epik_Ionization_Penalty_Charging>
3.23819e-08

> <r_epik_Ionization_Penalty_Neutral>
1.79791

> <r_epik_State_Penalty>
1.91135

> <r_epik_Charging_Adjusted_Penalty>
1.91135

> <i_epik_Tot_Q>
-1

> <i_epik_Tot_abs_Q>
1

> <r_epik_Metal_State_Penalty>
0.014155

> <b_epik_Metal_Only>
0

> <s_lp_Force_Field>
OPLS_2005

> <r_lp_Energy>
20.012

> <b_lp_Chiralities_Consistent>
1

> <s_lp_Variant>
AV-unprocessed.smi:675-3

> <Gold.Version>
5.8.1

> <Gold.Id.Protein>
6NUR|6NUR_protein|mol2

> <Gold.PLP.Fitness>
44.1285

> <Gold.PLP.PLP>
-38.2862

> <Gold.PLP.part.hbond>
-1.9890

> <Gold.PLP.part.metal>
0.0000

> <Gold.PLP.part.buried>
-5.0120

> <Gold.PLP.part.nonpolar>
-30.4673

> <Gold.PLP.part.repulsive>
0.4452

> <Gold.PLP.ligand.clash>
0.0000

> <Gold.PLP.ligand.torsion>
0.0873

> <Gold.PLP.Chemscore.Hbond>
2.0000

> <Gold.PLP.Chemscore.CHOScore>
0.0000

> <Gold.PLP.Chemscore.Metal>
0.0000

> <Gold.Chemscore.Hbonds>
donor molecule, donor type, donor heavy atom, donor atom, acceptor molecule, acceptor atom, score
      L1  H     9    23       P1  8028  0.94
      P1  H  7989  7998       L1     5  0.61

> <Gold.PLP.Chemscore.Internal.Correction>
0.0168

> <Gold.Rescore>
     Score         DG    S(hbond)    S(metal)    S(lipo)     H(rot)  DE(clash)    DE(int)     intcor
     17.04     -17.68       1.98        0.00      94.34       2.13       0.42       0.21       ----

> <Gold.Chemscore.Fitness>
17.0437

> <Gold.Chemscore.DG>
-17.6785

> <Gold.Chemscore.ZeroCoef>
-5.4800

> <Gold.Chemscore.Hbond>
1.9782

> <Gold.Chemscore.Metal>
0.0000

> <Gold.Chemscore.Lipo>
94.3438

> <Gold.Chemscore.Internal_Hbond>
0.0000

> <Gold.Chemscore.DEClash>
0.4229

> <Gold.Chemscore.DEInternal>
0.2118

> <Gold.Chemscore.Rot>
2.1278

> <Gold.Chemscore.Internal.Correction>
   9.000000E+99

> <Gold.Chemscore.Hbonds>
donor molecule, donor type, donor heavy atom, donor atom, acceptor molecule, acceptor atom, score
      L1  H     9    23       P1  8028  0.83
      P1  H  7989  7998       L1     5  0.60

> <Gold.Chemscore.Hbond.Weighted>
-6.6073

> <Gold.Chemscore.Metal.Weighted>
-0.0000

> <Gold.Chemscore.Lipo.Weighted>
-11.0382

> <Gold.Chemscore.Internal_Hbond.Weighted>
0.0000

> <Gold.Chemscore.DEClash.Weighted>
0.4229

> <Gold.Chemscore.DEInternal.Weighted>
0.2118

> <Gold.Chemscore.Rot.Weighted>
5.4470

> <Gold.Chemscore.Internal.Correction.Weighted>
   9.000000E+99

> <Gold.Protein.RotatedTorsions>
[ 6907 6896 6895 6894 ] final -100.57 input  -60.11 | X-H torsion
[ 7974 7965 7964 7962 ] final  165.06 input  175.53 | X-H torsion
[ 8008 7997 7996 7995 ] final   88.22 input   59.86 | X-H torsion
[ 10167 10162 10161 10158 ] final  -63.27 input  -65.29 | X-H torsion
[ 10718 10713 10712 10709 ] final -154.88 input   66.30 | X-H torsion
[ 10763 10752 10751 10750 ] final   16.69 input  -60.55 | X-H torsion
[ 11005 11000 10999 10996 ] final  176.02 input  -57.11 | X-H torsion

> <Gold.Protein.ActiveResidues>
 VAL166  LYS551  ARG553  GLY616  TRP617  ASP618  TYR619  PRO620  LYS621  CYS622 
 ASP623  PHE694  ASN695  SER759  ASP760  ASP761  ALA762  ILE779  LEU786  VAL792 
 PHE793  MET794  SER795  GLU796  ALA797  LYS798  CYS799  TRP800  GLU811  SER814 

> <Gold.Protein.RotatedAtoms>
  150.7121  134.0867  159.3916 H   0  0  0  0  0  0  0  0  0  0  0  0  # atno 6907 bound_to 6896
  151.8852  135.0436  160.0502 H   0  0  0  0  0  0  0  0  0  0  0  0  # atno 6908 bound_to 6896
  152.2536  133.5200  159.5376 H   0  0  0  0  0  0  0  0  0  0  0  0  # atno 6909 bound_to 6896
  144.7518  139.8415  143.6363 H   0  0  0  0  0  0  0  0  0  0  0  0  # atno 7974 bound_to 7965
  155.9851  140.3374  155.6700 H   0  0  0  0  0  0  0  0  0  0  0  0  # atno 8008 bound_to 7997
  155.6496  140.0704  157.2609 H   0  0  0  0  0  0  0  0  0  0  0  0  # atno 8009 bound_to 7997
  154.4203  140.1728  156.1648 H   0  0  0  0  0  0  0  0  0  0  0  0  # atno 8010 bound_to 7997
  140.5882  143.2337  151.6197 H   0  0  0  0  0  0  0  0  0  0  0  0  # atno 10167 bound_to 10162
  156.5052  130.8410  151.2625 H   0  0  0  0  0  0  0  0  0  0  0  0  # atno 10718 bound_to 10713
  153.1408  135.6759  153.9031 H   0  0  0  0  0  0  0  0  0  0  0  0  # atno 10763 bound_to 10752
  153.8488  135.3096  155.3432 H   0  0  0  0  0  0  0  0  0  0  0  0  # atno 10764 bound_to 10752
  154.7785  135.4901  153.9879 H   0  0  0  0  0  0  0  0  0  0  0  0  # atno 10765 bound_to 10752
  140.3686  134.7050  157.4377 H   0  0  0  0  0  0  0  0  0  0  0  0  # atno 11005 bound_to 11000
  146.1479  139.4554  143.0067 LP  0  0  0  0  0  0  0  0  0  0  0  0  # atno 17320 bound_to 7965
  145.6916  141.0162  143.1552 LP  0  0  0  0  0  0  0  0  0  0  0  0  # atno 17321 bound_to 7965
  139.5211  144.3204  152.0915 LP  0  0  0  0  0  0  0  0  0  0  0  0  # atno 17342 bound_to 10162
  140.2364  144.4315  150.6278 LP  0  0  0  0  0  0  0  0  0  0  0  0  # atno 17343 bound_to 10162
  157.7458  130.9968  150.2793 LP  0  0  0  0  0  0  0  0  0  0  0  0  # atno 17370 bound_to 10713
  156.3293  130.3798  149.7505 LP  0  0  0  0  0  0  0  0  0  0  0  0  # atno 17371 bound_to 10713
  140.0570  134.6050  155.8793 LP  0  0  0  0  0  0  0  0  0  0  0  0  # atno 17394 bound_to 11000
  141.1962  133.6590  156.5679 LP  0  0  0  0  0  0  0  0  0  0  0  0  # atno 17395 bound_to 11000

$$$$
