#       Name:                AV-unprocessed.smi:2049
#       Creating user name   scv26
#       Creation time:       Fri Mar 27 10:58:56 2020


#       File generated by GOLD software.
#

@<TRIPOS>MOLECULE
AV-unprocessed.smi:2049
    58    60     1
SMALL
NO_CHARGES


@<TRIPOS>ATOM
      1 ****        -1.0049   2.5368   0.8193 O.2            1 S1                 0.0000
      2 ****        -1.3471   1.4169   1.1993 C.2            1 S1                 0.0000
      3 ****        -2.8336   1.0578   1.3111 C.3            1 S1                 0.0000
      4 ****        -3.6021   1.5014   0.1376 N.am           1 S1                 0.0000
      5 ****        -4.3712   2.6702   0.2653 C.2            1 S1                 0.0000
      6 ****        -5.0905   3.1363  -0.7656 C.2            1 S1                 0.0000
      7 ****        -5.0237   2.3619  -2.0117 C.2            1 S1                 0.0000
      8 ****        -4.3208   1.2981  -2.1328 N.2            1 S1                 0.0000
      9 ****        -3.5640   0.8120  -1.0498 C.2            1 S1                 0.0000
     10 ****        -2.8821  -0.2077  -1.1604 O.2            1 S1                 0.0000
     11 ****        -0.4813   0.4501   1.5360 N.am           1 S1                 0.0000
     12 ****         0.9747   0.5186   1.4177 C.3            1 S1                 0.0000
     13 ****         1.5176  -0.3117   0.2045 C.3            1 S1                 0.0000
     14 ****         0.9412  -1.6956   0.2416 N.3            1 S1                 0.0000
     15 ****         1.2354  -2.4525   1.4673 C.3            1 S1                 0.0000
     16 ****         0.4972  -3.8002   1.5151 C.3            1 S1                 0.0000
     17 ****         0.8418  -4.5722   0.3731 O.3            1 S1                 0.0000
     18 ****         0.5123  -3.9092  -0.8401 C.3            1 S1                 0.0000
     19 ****         1.2408  -2.5559  -0.9130 C.3            1 S1                 0.0000
     20 ****         1.1118   0.4315  -1.1142 C.3            1 S1                 0.0000
     21 ****         1.7511   1.8208  -1.3003 C.3            1 S1                 0.0000
     22 ****         3.2801   1.7348  -1.2226 C.3            1 S1                 0.0000
     23 ****         3.7315   1.0634   0.0807 C.3            1 S1                 0.0000
     24 ****         3.0778  -0.3203   0.2672 C.3            1 S1                 0.0000
     25 ****        -2.9530  -0.0192   1.4459 H              1 S1                 0.0000
     26 ****        -3.2240   1.5080   2.2247 H              1 S1                 0.0000
     27 ****        -4.3326   3.1527   1.2311 H              1 S1                 0.0000
     28 ****        -5.6995   4.0276  -0.7362 H              1 S1                 0.0000
     29 ****        -5.6195   2.7559  -2.8389 H              1 S1                 0.0000
     30 ****        -0.8635  -0.4346   1.8368 H              1 S1                 0.0000
     31 ****         1.2944   1.5582   1.3830 H              1 S1                 0.0000
     32 ****         1.3980   0.1584   2.3544 H              1 S1                 0.0000
     33 ****         2.3065  -2.6388   1.5462 H              1 S1                 0.0000
     34 ****         0.9453  -1.8961   2.3557 H              1 S1                 0.0000
     35 ****         0.7736  -4.3518   2.4136 H              1 S1                 0.0000
     36 ****        -0.5826  -3.6481   1.5516 H              1 S1                 0.0000
     37 ****         0.8036  -4.5408  -1.6795 H              1 S1                 0.0000
     38 ****        -0.5680  -3.7693  -0.9051 H              1 S1                 0.0000
     39 ****         0.9301  -2.0918  -1.8452 H              1 S1                 0.0000
     40 ****         2.3126  -2.7384  -0.9852 H              1 S1                 0.0000
     41 ****         1.4314  -0.1335  -1.9867 H              1 S1                 0.0000
     42 ****         0.0276   0.5095  -1.1970 H              1 S1                 0.0000
     43 ****         1.4608   2.2245  -2.2706 H              1 S1                 0.0000
     44 ****         1.3758   2.5314  -0.5657 H              1 S1                 0.0000
     45 ****         3.6563   1.1662  -2.0740 H              1 S1                 0.0000
     46 ****         3.7151   2.7317  -1.3003 H              1 S1                 0.0000
     47 ****         4.8164   0.9544   0.0751 H              1 S1                 0.0000
     48 ****         3.5033   1.7093   0.9282 H              1 S1                 0.0000
     49 ****         3.4198  -0.7338   1.2160 H              1 S1                 0.0000
     50 ****         3.4803  -0.9745  -0.5053 H              1 S1                 0.0000
     51 ****        -1.6978   3.2175   0.5818 LP             1 S1                 0.0000
     52 ****        -0.0340   2.7656   0.7483 LP             1 S1                 0.0000
     53 ****        -4.3095   0.8083  -3.0045 LP             1 S1                 0.0000
     54 ****        -2.3500  -0.5403  -0.3817 LP             1 S1                 0.0000
     55 ****        -2.8605  -0.7031  -2.0288 LP             1 S1                 0.0000
     56 ****        -0.0341  -1.4767   0.2122 LP             1 S1                 0.0000
     57 ****         0.3479  -5.4410   0.4102 LP             1 S1                 0.0000
     58 ****         1.8262  -4.7476   0.3876 LP             1 S1                 0.0000
@<TRIPOS>BOND
    1    1    2 2     
    2    2    3 1     
    3    2   11 am    
    4    3    4 1     
    5    3   25 1     
    6    3   26 1     
    7    4    9 am    
    8    4    5 1     
    9    5    6 2     
   10    5   27 1     
   11    6    7 1     
   12    6   28 1     
   13    7    8 2     
   14    7   29 1     
   15    8    9 1     
   16    9   10 2     
   17   11   12 1     
   18   11   30 1     
   19   12   13 1     
   20   12   31 1     
   21   12   32 1     
   22   13   24 1     
   23   13   14 1     
   24   13   20 1     
   25   14   19 1     
   26   14   15 1     
   27   15   16 1     
   28   15   33 1     
   29   15   34 1     
   30   16   17 1     
   31   16   35 1     
   32   16   36 1     
   33   17   18 1     
   34   18   19 1     
   35   18   37 1     
   36   18   38 1     
   37   19   39 1     
   38   19   40 1     
   39   20   21 1     
   40   20   41 1     
   41   20   42 1     
   42   21   22 1     
   43   21   43 1     
   44   21   44 1     
   45   22   23 1     
   46   22   45 1     
   47   22   46 1     
   48   23   24 1     
   49   23   47 1     
   50   23   48 1     
   51   24   49 1     
   52   24   50 1     
   53    1   51 1     
   54    1   52 1     
   55    8   53 1     
   56   10   54 1     
   57   10   55 1     
   58   14   56 1     
   59   17   57 1     
   60   17   58 1     
@<TRIPOS>SUBSTRUCTURE
      1 S1             1
@<TRIPOS>SET
LONE_PAIRS      STATIC     ATOMS    <user>   **** ""
8 51 52 53 54 55 56 57 58
DONOR_HYDROGENS      STATIC     ATOMS    <user>   **** ""
1 30
ATOM$BLUE        STATIC     ATOMS    COLORGROUP SYSTEM
8 51 52 53 54 55 56 57 58
ATOM$RED        STATIC     ATOMS    COLORGROUP SYSTEM
1 30
