AV-unprocessed.smi:703|AV-procd|sdf|3429|dock5
  -GOLD-   22720 0413D 1   1.00000     0.00000
 Structure written by MMmdl.
 38 39  0  0  0  0  0  0  0  0  2 V2000
  145.1351  134.6944  151.9791 C   0  0  0  0  0  0  0  0  0  0  0  0
  145.7391  135.0056  153.3550 C   0  0  0  0  0  0  0  0  0  0  0  0
  147.1998  134.7611  153.3936 N   0  3  2  0  0  0  0  0  0  0  0  0
  147.6045  133.3463  153.2899 C   0  0  0  0  0  0  0  0  0  0  0  0
  149.0671  133.3240  153.7407 C   0  0  2  0  0  0  0  0  0  0  0  0
  149.5199  131.9687  154.3000 C   0  0  0  0  0  0  0  0  0  0  0  0
  149.1738  134.4837  154.7487 C   0  0  1  0  0  0  0  0  0  0  0  0
  150.3338  135.3254  154.4402 N   0  0  0  0  0  0  0  0  0  0  0  0
  150.6979  136.6366  155.4984 S   0  0  0  0  0  0  0  0  0  0  0  0
  149.4327  137.0670  156.1125 O   0  0  0  0  0  0  0  0  0  0  0  0
  151.8229  136.2192  156.3494 O   0  0  0  0  0  0  0  0  0  0  0  0
  151.2868  137.9411  154.3384 C   0  0  0  0  0  0  0  0  0  0  0  0
  150.3855  139.1392  154.4294 C   0  0  0  0  0  0  0  0  0  0  0  0
  148.9890  139.2169  154.1711 C   0  0  0  0  0  0  0  0  0  0  0  0
  148.6942  140.5293  154.4051 C   0  0  0  0  0  0  0  0  0  0  0  0
  149.8099  141.2082  154.7730 O   0  0  0  0  0  0  0  0  0  0  0  0
  150.8851  140.3125  154.7841 N   0  0  0  0  0  0  0  0  0  0  0  0
  147.8671  135.2808  154.6038 C   0  0  0  0  0  0  0  0  0  0  0  0
  144.0740  134.9438  151.9598 H   0  0  0  0  0  0  0  0  0  0  0  0
  145.2252  133.6371  151.7289 H   0  0  0  0  0  0  0  0  0  0  0  0
  145.6242  135.2703  151.1929 H   0  0  0  0  0  0  0  0  0  0  0  0
  145.5571  136.0560  153.5862 H   0  0  0  0  0  0  0  0  0  0  0  0
  145.2401  134.4226  154.1303 H   0  0  0  0  0  0  0  0  0  0  0  0
  146.9904  132.7422  153.9603 H   0  0  0  0  0  0  0  0  0  0  0  0
  147.4815  132.9599  152.2776 H   0  0  0  0  0  0  0  0  0  0  0  0
  149.6775  133.5528  152.8648 H   0  0  0  0  0  0  0  0  0  0  0  0
  148.9381  131.6846  155.1774 H   0  0  0  0  0  0  0  0  0  0  0  0
  150.5698  132.0011  154.5933 H   0  0  0  0  0  0  0  0  0  0  0  0
  149.4076  131.1806  153.5552 H   0  0  0  0  0  0  0  0  0  0  0  0
  149.2526  134.1098  155.7710 H   0  0  0  0  0  0  0  0  0  0  0  0
  150.3269  135.6295  153.4668 H   0  0  0  0  0  0  0  0  0  0  0  0
  152.3150  138.1944  154.5993 H   0  0  0  0  0  0  0  0  0  0  0  0
  151.2903  137.5317  153.3285 H   0  0  0  0  0  0  0  0  0  0  0  0
  148.3109  138.4339  153.8662 H   0  0  0  0  0  0  0  0  0  0  0  0
  147.7825  141.1060  154.3548 H   0  0  0  0  0  0  0  0  0  0  0  0
  148.0206  136.3589  154.5368 H   0  0  0  0  0  0  0  0  0  0  0  0
  147.2356  135.0945  155.4744 H   0  0  0  0  0  0  0  0  0  0  0  0
  147.6156  135.2423  152.6089 H   0  0  0  0  0  0  0  0  0  0  0  0
  1  2  1  0  0  0  0
  1 19  1  0  0  0  0
  1 20  1  0  0  0  0
  1 21  1  0  0  0  0
  2  3  1  0  0  0  0
  2 22  1  0  0  0  0
  2 23  1  0  0  0  0
  3 18  1  0  0  0  0
  3  4  1  0  0  0  0
  3 38  1  0  0  0  0
  4  5  1  0  0  0  0
  4 24  1  0  0  0  0
  4 25  1  0  0  0  0
  5  6  1  0  0  0  0
  5  7  1  0  0  0  0
  5 26  1  0  0  0  0
  6 27  1  0  0  0  0
  6 28  1  0  0  0  0
  6 29  1  0  0  0  0
  7  8  1  0  0  0  0
  7 18  1  0  0  0  0
  7 30  1  0  0  0  0
  8  9  1  0  0  0  0
  8 31  1  0  0  0  0
  9 10  2  0  0  0  0
  9 11  2  0  0  0  0
  9 12  1  0  0  0  0
 12 13  1  0  0  0  0
 12 32  1  0  0  0  0
 12 33  1  0  0  0  0
 13 17  2  0  0  0  0
 13 14  1  0  0  0  0
 14 15  2  0  0  0  0
 14 34  1  0  0  0  0
 15 16  1  0  0  0  0
 15 35  1  0  0  0  0
 16 17  1  0  0  0  0
 18 36  1  0  0  0  0
 18 37  1  0  0  0  0
M  CHG  1   3   1
M  END
> <s_m_source_file>
AV-unprocessed.smi

> <i_m_source_file_index>
703

> <i_lp_mmshare_version>
43012

> <i_f3d_flags>
0

> <s_epik_input>
W0NIM11bQ0gyXU4xW0NIMl1bQ0BASF0oW0NIM10pW0NASF0oW0NIMl0xKVtOSF1TKD1PKSg9TylbQ0gyXWMyW2NIXVtjSF1vbjI=

> <s_epik_cmdline>
J2VwaWtfcHl0aG9uJywgJy1waCcsICc3LjAnLCAnLXRuJywgJzgnLCAnLW1hJywgJzIwMCcsICctbWV0YWxfYmluZGluZycsICctaW1hZScsICc8aW5maWxlLm1hZT4nLCAnLW9tYWUnLCAnPG91dGZpbGUubWFlPic=

> <r_epik_Ionization_Penalty>
0.00324529

> <r_epik_Ionization_Penalty_Charging>
0.0019384

> <r_epik_Ionization_Penalty_Neutral>
0.00130689

> <r_epik_State_Penalty>
0.00218682

> <r_epik_Charging_Adjusted_Penalty>
0.00412522

> <i_epik_Tot_Q>
1

> <i_epik_Tot_abs_Q>
1

> <r_epik_Metal_State_Penalty>
0.310831

> <b_epik_Metal_Only>
0

> <s_lp_Force_Field>
OPLS_2005

> <r_lp_Energy>
19.0381

> <b_lp_Chiralities_Consistent>
1

> <s_lp_Variant>
AV-unprocessed.smi:703-4

> <Gold.Version>
5.8.1

> <Gold.Id.Protein>
6NUR|6NUR_protein|mol2

> <Gold.PLP.Fitness>
41.1690

> <Gold.PLP.PLP>
-30.1501

> <Gold.PLP.part.hbond>
-5.8881

> <Gold.PLP.part.metal>
0.0000

> <Gold.PLP.part.buried>
-1.4741

> <Gold.PLP.part.nonpolar>
-23.1590

> <Gold.PLP.part.repulsive>
0.2499

> <Gold.PLP.ligand.clash>
0.0000

> <Gold.PLP.ligand.torsion>
0.5740

> <Gold.PLP.Chemscore.Hbond>
4.0000

> <Gold.PLP.Chemscore.CHOScore>
0.0000

> <Gold.PLP.Chemscore.Metal>
0.0000

> <Gold.Chemscore.Hbonds>
donor molecule, donor type, donor heavy atom, donor atom, acceptor molecule, acceptor atom, score
      L1  H     3    38       P1  7948  2.00
      P1  H  7989  7998       L1    17  0.85
      P1  H 10752 10763       L1    11  0.90

> <Gold.PLP.Chemscore.Internal.Correction>
0.1669

> <Gold.Rescore>
     Score         DG    S(hbond)    S(metal)    S(lipo)     H(rot)  DE(clash)    DE(int)     intcor
     11.75     -15.22       2.33        0.00      59.22       1.94       0.11       3.36       ----

> <Gold.Chemscore.Fitness>
11.7507

> <Gold.Chemscore.DG>
-15.2233

> <Gold.Chemscore.ZeroCoef>
-5.4800

> <Gold.Chemscore.Hbond>
2.3296

> <Gold.Chemscore.Metal>
0.0000

> <Gold.Chemscore.Lipo>
59.2203

> <Gold.Chemscore.Internal_Hbond>
0.0000

> <Gold.Chemscore.DEClash>
0.1094

> <Gold.Chemscore.DEInternal>
3.3631

> <Gold.Chemscore.Rot>
1.9400

> <Gold.Chemscore.Internal.Correction>
   9.000000E+99

> <Gold.Chemscore.Hbonds>
donor molecule, donor type, donor heavy atom, donor atom, acceptor molecule, acceptor atom, score
      L1  H     3    38       P1  7948  0.96
      P1  H  7989  7998       L1    17  0.08
      P1  H 10752 10763       L1    11  0.17

> <Gold.Chemscore.Hbond.Weighted>
-7.7810

> <Gold.Chemscore.Metal.Weighted>
-0.0000

> <Gold.Chemscore.Lipo.Weighted>
-6.9288

> <Gold.Chemscore.Internal_Hbond.Weighted>
0.0000

> <Gold.Chemscore.DEClash.Weighted>
0.1094

> <Gold.Chemscore.DEInternal.Weighted>
3.3631

> <Gold.Chemscore.Rot.Weighted>
4.9665

> <Gold.Chemscore.Internal.Correction.Weighted>
   9.000000E+99

> <Gold.Protein.RotatedTorsions>
[ 6907 6896 6895 6894 ] final   -4.89 input  -60.11 | X-H torsion
[ 7974 7965 7964 7962 ] final  157.21 input  175.53 | X-H torsion
[ 8008 7997 7996 7995 ] final   82.82 input   59.86 | X-H torsion
[ 10167 10162 10161 10158 ] final  161.29 input  -65.29 | X-H torsion
[ 10718 10713 10712 10709 ] final    9.49 input   66.30 | X-H torsion
[ 10763 10752 10751 10750 ] final   77.96 input  -60.55 | X-H torsion
[ 11005 11000 10999 10996 ] final -150.92 input  -57.11 | X-H torsion

> <Gold.Protein.ActiveResidues>
 VAL166  LYS551  ARG553  GLY616  TRP617  ASP618  TYR619  PRO620  LYS621  CYS622 
 ASP623  PHE694  ASN695  SER759  ASP760  ASP761  ALA762  ILE779  LEU786  VAL792 
 PHE793  MET794  SER795  GLU796  ALA797  LYS798  CYS799  TRP800  GLU811  SER814 

> <Gold.Protein.RotatedAtoms>
  151.4904  135.1057  159.9801 H   0  0  0  0  0  0  0  0  0  0  0  0  # atno 6907 bound_to 6896
  152.4743  133.8098  159.7008 H   0  0  0  0  0  0  0  0  0  0  0  0  # atno 6908 bound_to 6896
  150.8771  133.7361  159.2969 H   0  0  0  0  0  0  0  0  0  0  0  0  # atno 6909 bound_to 6896
  144.7916  139.7310  143.6219 H   0  0  0  0  0  0  0  0  0  0  0  0  # atno 7974 bound_to 7965
  155.9157  140.3424  155.6133 H   0  0  0  0  0  0  0  0  0  0  0  0  # atno 8008 bound_to 7997
  155.7334  140.0798  157.2297 H   0  0  0  0  0  0  0  0  0  0  0  0  # atno 8009 bound_to 7997
  154.4062  140.1584  156.2522 H   0  0  0  0  0  0  0  0  0  0  0  0  # atno 8010 bound_to 7997
  139.4848  144.4551  151.8779 H   0  0  0  0  0  0  0  0  0  0  0  0  # atno 10167 bound_to 10162
  156.9671  130.5955  149.5666 H   0  0  0  0  0  0  0  0  0  0  0  0  # atno 10718 bound_to 10713
  153.0838  135.4895  154.8556 H   0  0  0  0  0  0  0  0  0  0  0  0  # atno 10763 bound_to 10752
  154.7184  135.3034  154.9088 H   0  0  0  0  0  0  0  0  0  0  0  0  # atno 10764 bound_to 10752
  153.9760  135.6795  153.4801 H   0  0  0  0  0  0  0  0  0  0  0  0  # atno 10765 bound_to 10752
  140.7350  134.3578  157.5159 H   0  0  0  0  0  0  0  0  0  0  0  0  # atno 11005 bound_to 11000
  146.2171  139.5568  142.9643 LP  0  0  0  0  0  0  0  0  0  0  0  0  # atno 17320 bound_to 7965
  145.5779  141.0386  143.2138 LP  0  0  0  0  0  0  0  0  0  0  0  0  # atno 17321 bound_to 7965
  140.4010  144.2494  150.5893 LP  0  0  0  0  0  0  0  0  0  0  0  0  # atno 17342 bound_to 10162
  140.5057  143.2305  151.8611 LP  0  0  0  0  0  0  0  0  0  0  0  0  # atno 17343 bound_to 10162
  156.0298  130.5390  150.8504 LP  0  0  0  0  0  0  0  0  0  0  0  0  # atno 17370 bound_to 10713
  157.5618  131.0946  150.9548 LP  0  0  0  0  0  0  0  0  0  0  0  0  # atno 17371 bound_to 10713
  139.8818  134.9043  156.2875 LP  0  0  0  0  0  0  0  0  0  0  0  0  # atno 17394 bound_to 11000
  140.9887  133.7222  156.0781 LP  0  0  0  0  0  0  0  0  0  0  0  0  # atno 17395 bound_to 11000

$$$$
