#       Name:                AV-unprocessed.smi:1644
#       Creating user name   scv26
#       Creation time:       Fri Mar 27 07:29:23 2020


#       File generated by GOLD software.
#

@<TRIPOS>MOLECULE
AV-unprocessed.smi:1644
    56    58     1
SMALL
NO_CHARGES


@<TRIPOS>ATOM
      1 ****        -2.0715   2.1192  -2.8131 C.3            1 S1                 0.0000
      2 ****        -1.8631   2.6490  -1.3901 C.3            1 S1                 0.0000
      3 ****        -1.3059   1.5748  -0.4442 C.3            1 S1                 0.0000
      4 ****        -1.0885   2.0789   0.9963 C.3            1 S1                 0.0000
      5 ****         0.0980   2.9026   1.0996 N.pl3          1 S1                -1.0000
      6 ****         0.9156   2.3677   2.0362 C.2            1 S1                 0.0000
      7 ****         1.9945   2.8230   2.4137 O.2            1 S1                 0.0000
      8 ****         0.3973   1.2323   2.5430 N.am           1 S1                 0.0000
      9 ****         0.9881   0.4451   3.6333 C.3            1 S1                 0.0000
     10 ****         2.2971  -0.2885   3.2628 C.3            1 S1                 0.0000
     11 ****         2.7984  -0.8628   4.4523 O.3            1 S1                 0.0000
     12 ****         2.1466  -1.4224   2.2250 C.3            1 S1                 0.0000
     13 ****         2.1167  -0.9598   0.8477 N.pl3          1 S1                 0.0000
     14 ****         3.0586  -0.2303   0.2172 C.2            1 S1                 0.0000
     15 ****         2.8671   0.0338  -1.0715 N.2            1 S1                 0.0000
     16 ****         1.6627  -0.6039  -1.3088 C.ar           1 S1                 0.0000
     17 ****         0.9015  -0.7085  -2.4939 C.ar           1 S1                 0.0000
     18 ****        -0.3255  -1.4088  -2.5071 C.ar           1 S1                 0.0000
     19 ****        -1.1219  -1.4782  -3.7978 C.3            1 S1                 0.0000
     20 ****        -0.8016  -2.0294  -1.3245 C.ar           1 S1                 0.0000
     21 ****        -2.1231  -2.7759  -1.3107 C.3            1 S1                 0.0000
     22 ****        -0.0462  -1.9475  -0.1363 C.ar           1 S1                 0.0000
     23 ****         1.1665  -1.2354  -0.1304 C.ar           1 S1                 0.0000
     24 ****        -0.7802   0.9595   1.9703 C.2            1 S1                 0.0000
     25 ****        -1.5184  -0.0033   2.1836 O.2            1 S1                 0.0000
     26 ****        -2.4633   2.9002  -3.4647 H              1 S1                 0.0000
     27 ****        -2.7785   1.2894  -2.8239 H              1 S1                 0.0000
     28 ****        -1.1332   1.7660  -3.2418 H              1 S1                 0.0000
     29 ****        -1.1830   3.5008  -1.4211 H              1 S1                 0.0000
     30 ****        -2.8106   3.0236  -1.0016 H              1 S1                 0.0000
     31 ****        -1.9939   0.7279  -0.4383 H              1 S1                 0.0000
     32 ****        -0.3670   1.1995  -0.8467 H              1 S1                 0.0000
     33 ****        -1.9842   2.5917   1.3494 H              1 S1                 0.0000
     34 ****         1.1800   1.1282   4.4629 H              1 S1                 0.0000
     35 ****         0.2661  -0.2766   4.0197 H              1 S1                 0.0000
     36 ****         3.0510   0.4266   2.9343 H              1 S1                 0.0000
     37 ****         2.1589  -1.4762   4.7802 H              1 S1                 0.0000
     38 ****         2.9928  -2.1070   2.3007 H              1 S1                 0.0000
     39 ****         1.2548  -2.0146   2.4322 H              1 S1                 0.0000
     40 ****         3.9431   0.1175   0.7303 H              1 S1                 0.0000
     41 ****         1.2640  -0.2324  -3.3927 H              1 S1                 0.0000
     42 ****        -1.2220  -2.5118  -4.1293 H              1 S1                 0.0000
     43 ****        -0.6367  -0.9146  -4.5952 H              1 S1                 0.0000
     44 ****        -2.1190  -1.0614  -3.6551 H              1 S1                 0.0000
     45 ****        -2.3307  -3.1979  -0.3270 H              1 S1                 0.0000
     46 ****        -2.1088  -3.5943  -2.0306 H              1 S1                 0.0000
     47 ****        -2.9423  -2.1027  -1.5646 H              1 S1                 0.0000
     48 ****        -0.4022  -2.4112   0.7716 H              1 S1                 0.0000
     49 ****         0.2826   3.7289   0.5675 LP             1 S1                 0.0000
     50 ****         2.3449   3.6719   2.0180 LP             1 S1                 0.0000
     51 ****         2.5210   2.3441   3.1162 LP             1 S1                 0.0000
     52 ****         2.9587  -0.1467   5.1316 LP             1 S1                 0.0000
     53 ****         3.6566  -1.3394   4.2616 LP             1 S1                 0.0000
     54 ****         3.4416   0.5553  -1.7024 LP             1 S1                 0.0000
     55 ****        -2.3888  -0.0833   1.6978 LP             1 S1                 0.0000
     56 ****        -1.2472  -0.7050   2.8425 LP             1 S1                 0.0000
@<TRIPOS>BOND
    1    1    2 1     
    2    1   26 1     
    3    1   27 1     
    4    1   28 1     
    5    2    3 1     
    6    2   29 1     
    7    2   30 1     
    8    3    4 1     
    9    3   31 1     
   10    3   32 1     
   11    4   24 1     
   12    4    5 1     
   13    4   33 1     
   14    5    6 1     
   15    6    7 2     
   16    6    8 am    
   17    8    9 1     
   18    8   24 am    
   19    9   10 1     
   20    9   34 1     
   21    9   35 1     
   22   10   11 1     
   23   10   12 1     
   24   10   36 1     
   25   11   37 1     
   26   12   13 1     
   27   12   38 1     
   28   12   39 1     
   29   13   23 1     
   30   13   14 1     
   31   14   15 2     
   32   14   40 1     
   33   15   16 1     
   34   16   23 ar    
   35   16   17 ar    
   36   17   18 ar    
   37   17   41 1     
   38   18   19 1     
   39   18   20 ar    
   40   19   42 1     
   41   19   43 1     
   42   19   44 1     
   43   20   21 1     
   44   20   22 ar    
   45   21   45 1     
   46   21   46 1     
   47   21   47 1     
   48   22   23 ar    
   49   22   48 1     
   50   24   25 2     
   51    5   49 1     
   52    7   50 1     
   53    7   51 1     
   54   11   52 1     
   55   11   53 1     
   56   15   54 1     
   57   25   55 1     
   58   25   56 1     
@<TRIPOS>SUBSTRUCTURE
      1 S1             1
@<TRIPOS>SET
LONE_PAIRS      STATIC     ATOMS    <user>   **** ""
8 49 50 51 52 53 54 55 56
DONOR_HYDROGENS      STATIC     ATOMS    <user>   **** ""
1 37
ATOM$BLUE        STATIC     ATOMS    COLORGROUP SYSTEM
8 49 50 51 52 53 54 55 56
ATOM$RED        STATIC     ATOMS    COLORGROUP SYSTEM
1 37
