AV-unprocessed.smi:1324|AV-procd|sdf|5470|dock1
  -GOLD-   22720 5 43D 1   1.00000     0.00000
 Structure written by MMmdl.
 43 44  0  0  0  0  0  0  0  0  1 V2000
  146.3833  136.5490  152.9744 C   0  0  0  0  0  0  0  0  0  0  0  0
  146.9668  137.8554  153.4679 C   0  0  0  0  0  0  0  0  0  0  0  0
  148.3516  137.8782  153.4766 N   0  0  0  0  0  0  0  0  0  0  0  0
  148.9772  139.0360  153.9036 C   0  0  0  0  0  0  0  0  0  0  0  0
  150.4946  138.9800  153.8774 C   0  0  0  0  0  0  0  0  0  0  0  0
  148.2591  140.1139  154.3097 C   0  0  0  0  0  0  0  0  0  0  0  0
  148.9098  141.4112  154.7901 C   0  0  0  0  0  0  0  0  0  0  0  0
  149.7372  141.3226  156.0755 C   0  0  0  0  0  0  0  0  0  0  0  0
  149.9880  140.2317  156.5888 O   0  0  0  0  0  0  0  0  0  0  0  0
  150.1539  142.4917  156.5858 N   0  0  0  0  0  0  0  0  0  0  0  0
  150.9522  142.6544  157.7993 C   0  0  0  0  0  0  0  0  0  0  0  0
  151.4901  144.1030  157.8597 C   0  0  0  0  0  0  0  0  0  0  0  0
  152.6571  144.3811  158.8242 C   0  0  0  0  0  0  0  0  0  0  0  0
  152.6299  143.6033  160.1488 C   0  0  0  0  0  0  0  0  0  0  0  0
  153.2831  142.2163  160.0319 C   0  0  0  0  0  0  0  0  0  0  0  0
  152.4447  141.1730  159.2797 C   0  0  0  0  0  0  0  0  0  0  0  0
  152.0407  141.5624  157.8458 C   0  0  0  0  0  0  0  0  0  0  0  0
  146.7800  140.0235  154.2937 C   0  0  0  0  0  0  0  0  0  0  0  0
  146.0739  140.9578  154.6709 O   0  0  0  0  0  0  0  0  0  0  0  0
  146.1942  138.8308  153.8387 N   0  0  0  0  0  0  0  0  0  0  0  0
  148.9240  137.0990  153.1846 H   0  0  0  0  0  0  0  0  0  0  0  0
  145.3084  136.6387  152.8126 H   0  0  0  0  0  0  0  0  0  0  0  0
  146.5540  135.7587  153.7061 H   0  0  0  0  0  0  0  0  0  0  0  0
  146.8448  136.2554  152.0309 H   0  0  0  0  0  0  0  0  0  0  0  0
  150.8913  139.7244  153.1869 H   0  0  0  0  0  0  0  0  0  0  0  0
  150.8556  138.0015  153.5578 H   0  0  0  0  0  0  0  0  0  0  0  0
  150.8998  139.1775  154.8701 H   0  0  0  0  0  0  0  0  0  0  0  0
  148.1550  142.1887  154.9132 H   0  0  0  0  0  0  0  0  0  0  0  0
  149.5645  141.7836  154.0021 H   0  0  0  0  0  0  0  0  0  0  0  0
  149.8975  143.3370  156.0967 H   0  0  0  0  0  0  0  0  0  0  0  0
  150.2901  142.4948  158.6524 H   0  0  0  0  0  0  0  0  0  0  0  0
  151.8020  144.4219  156.8640 H   0  0  0  0  0  0  0  0  0  0  0  0
  150.6600  144.7588  158.1256 H   0  0  0  0  0  0  0  0  0  0  0  0
  153.6021  144.1908  158.3138 H   0  0  0  0  0  0  0  0  0  0  0  0
  152.6622  145.4498  159.0412 H   0  0  0  0  0  0  0  0  0  0  0  0
  153.1987  144.1735  160.8840 H   0  0  0  0  0  0  0  0  0  0  0  0
  151.6162  143.5333  160.5452 H   0  0  0  0  0  0  0  0  0  0  0  0
  154.2634  142.3077  159.5630 H   0  0  0  0  0  0  0  0  0  0  0  0
  153.4734  141.8368  161.0362 H   0  0  0  0  0  0  0  0  0  0  0  0
  153.0180  140.2464  159.2381 H   0  0  0  0  0  0  0  0  0  0  0  0
  151.5517  140.9362  159.8593 H   0  0  0  0  0  0  0  0  0  0  0  0
  151.6551  140.6586  157.3714 H   0  0  0  0  0  0  0  0  0  0  0  0
  152.9124  141.8550  157.2592 H   0  0  0  0  0  0  0  0  0  0  0  0
  1 22  1  0  0  0  0
  1 23  1  0  0  0  0
  1 24  1  0  0  0  0
  1  2  1  0  0  0  0
  2  3  1  0  0  0  0
  2 20  2  0  0  0  0
  3  4  1  0  0  0  0
  3 21  1  0  0  0  0
  4  6  2  0  0  0  0
  4  5  1  0  0  0  0
  5 25  1  0  0  0  0
  5 26  1  0  0  0  0
  5 27  1  0  0  0  0
  6 18  1  0  0  0  0
  6  7  1  0  0  0  0
  7  8  1  0  0  0  0
  7 28  1  0  0  0  0
  7 29  1  0  0  0  0
  8  9  2  0  0  0  0
  8 10  1  0  0  0  0
 10 11  1  0  0  0  0
 10 30  1  0  0  0  0
 11 17  1  0  0  0  0
 11 12  1  0  0  0  0
 11 31  1  0  0  0  0
 12 13  1  0  0  0  0
 12 32  1  0  0  0  0
 12 33  1  0  0  0  0
 13 14  1  0  0  0  0
 13 34  1  0  0  0  0
 13 35  1  0  0  0  0
 14 15  1  0  0  0  0
 14 36  1  0  0  0  0
 14 37  1  0  0  0  0
 15 16  1  0  0  0  0
 15 38  1  0  0  0  0
 15 39  1  0  0  0  0
 16 17  1  0  0  0  0
 16 40  1  0  0  0  0
 16 41  1  0  0  0  0
 17 42  1  0  0  0  0
 17 43  1  0  0  0  0
 18 19  2  0  0  0  0
 18 20  1  0  0  0  0
M  END
> <s_m_source_file>
AV-unprocessed.smi

> <i_m_source_file_index>
1324

> <i_lp_mmshare_version>
43012

> <i_f3d_flags>
0

> <s_epik_input>
W0NIM11jMW5jKFtDSDNdKWMoYyg9TylbbkhdMSlbQ0gyXUMoPU8pW05IXVtDSF0yW0NIMl1bQ0gyXVtDSDJdW0NIMl1bQ0gyXVtDSDJdMg==

> <s_epik_cmdline>
J2VwaWtfcHl0aG9uJywgJy1waCcsICc3LjAnLCAnLXRuJywgJzgnLCAnLW1hJywgJzIwMCcsICctbWV0YWxfYmluZGluZycsICctaW1hZScsICc8aW5maWxlLm1hZT4nLCAnLW9tYWUnLCAnPG91dGZpbGUubWFlPic=

> <r_lp_tautomer_probability>
0.156392

> <r_epik_Ionization_Penalty>
0.0140222

> <r_epik_Ionization_Penalty_Charging>
0.0138986

> <r_epik_Ionization_Penalty_Neutral>
0.000123575

> <r_epik_State_Penalty>
1.53084

> <r_epik_Charging_Adjusted_Penalty>
1.54474

> <i_epik_Tot_Q>
0

> <i_epik_Tot_abs_Q>
0

> <r_epik_Metal_State_Penalty>
1.70646

> <b_epik_Metal_Only>
0

> <s_lp_Force_Field>
OPLS_2005

> <r_lp_Energy>
20.3035

> <b_lp_Chiralities_Consistent>
1

> <s_lp_Variant>
AV-unprocessed.smi:1324-2

> <Gold.Version>
5.8.1

> <Gold.Id.Protein>
6NUR|6NUR_protein|mol2

> <Gold.PLP.Fitness>
42.2905

> <Gold.PLP.PLP>
-37.8815

> <Gold.PLP.part.hbond>
-2.0000

> <Gold.PLP.part.metal>
0.0000

> <Gold.PLP.part.buried>
-5.5965

> <Gold.PLP.part.nonpolar>
-32.3964

> <Gold.PLP.part.repulsive>
0.7849

> <Gold.PLP.ligand.clash>
0.0000

> <Gold.PLP.ligand.torsion>
0.3012

> <Gold.PLP.Chemscore.Hbond>
1.6640

> <Gold.PLP.Chemscore.CHOScore>
0.0000

> <Gold.PLP.Chemscore.Metal>
0.0000

> <Gold.Chemscore.Hbonds>
donor molecule, donor type, donor heavy atom, donor atom, acceptor molecule, acceptor atom, score
      L1  H     3    21       P1  7948  0.66
      L1  H    10    30       P1  8028  1.00

> <Gold.PLP.Chemscore.Internal.Correction>
0.0195

> <Gold.Rescore>
     Score         DG    S(hbond)    S(metal)    S(lipo)     H(rot)  DE(clash)    DE(int)     intcor
     18.22     -19.82       1.87        0.00     101.55       1.48       0.08       1.53       ----

> <Gold.Chemscore.Fitness>
18.2227

> <Gold.Chemscore.DG>
-19.8249

> <Gold.Chemscore.ZeroCoef>
-5.4800

> <Gold.Chemscore.Hbond>
1.8720

> <Gold.Chemscore.Metal>
0.0000

> <Gold.Chemscore.Lipo>
101.5511

> <Gold.Chemscore.Internal_Hbond>
0.0000

> <Gold.Chemscore.DEClash>
0.0767

> <Gold.Chemscore.DEInternal>
1.5255

> <Gold.Chemscore.Rot>
1.4801

> <Gold.Chemscore.Internal.Correction>
   9.000000E+99

> <Gold.Chemscore.Hbonds>
donor molecule, donor type, donor heavy atom, donor atom, acceptor molecule, acceptor atom, score
      L1  H     3    21       P1  7948  0.64
      L1  H    10    30       P1  8028  0.99

> <Gold.Chemscore.Hbond.Weighted>
-6.2526

> <Gold.Chemscore.Metal.Weighted>
-0.0000

> <Gold.Chemscore.Lipo.Weighted>
-11.8815

> <Gold.Chemscore.Internal_Hbond.Weighted>
0.0000

> <Gold.Chemscore.DEClash.Weighted>
0.0767

> <Gold.Chemscore.DEInternal.Weighted>
1.5255

> <Gold.Chemscore.Rot.Weighted>
3.7891

> <Gold.Chemscore.Internal.Correction.Weighted>
   9.000000E+99

> <Gold.Protein.RotatedTorsions>
[ 6907 6896 6895 6894 ] final  -32.62 input  -60.11 | X-H torsion
[ 7974 7965 7964 7962 ] final -146.42 input  175.53 | X-H torsion
[ 8008 7997 7996 7995 ] final   15.24 input   59.86 | X-H torsion
[ 10167 10162 10161 10158 ] final  -89.40 input  -65.29 | X-H torsion
[ 10718 10713 10712 10709 ] final   -7.36 input   66.30 | X-H torsion
[ 10763 10752 10751 10750 ] final  128.61 input  -60.55 | X-H torsion
[ 11005 11000 10999 10996 ] final  -74.70 input  -57.11 | X-H torsion

> <Gold.Protein.ActiveResidues>
 VAL166  LYS551  ARG553  GLY616  TRP617  ASP618  TYR619  PRO620  LYS621  CYS622 
 ASP623  PHE694  ASN695  SER759  ASP760  ASP761  ALA762  ILE779  LEU786  VAL792 
 PHE793  MET794  SER795  GLU796  ALA797  LYS798  CYS799  TRP800  GLU811  SER814 

> <Gold.Protein.RotatedAtoms>
  151.0763  134.9830  159.8333 H   0  0  0  0  0  0  0  0  0  0  0  0  # atno 6907 bound_to 6896
  152.5414  134.2236  159.8807 H   0  0  0  0  0  0  0  0  0  0  0  0  # atno 6908 bound_to 6896
  151.2264  133.4430  159.2636 H   0  0  0  0  0  0  0  0  0  0  0  0  # atno 6909 bound_to 6896
  144.8161  140.5459  143.5610 H   0  0  0  0  0  0  0  0  0  0  0  0  # atno 7974 bound_to 7965
  154.8598  140.2942  155.5546 H   0  0  0  0  0  0  0  0  0  0  0  0  # atno 8008 bound_to 7997
  156.3019  140.2480  156.3503 H   0  0  0  0  0  0  0  0  0  0  0  0  # atno 8009 bound_to 7997
  154.8931  140.0394  157.1839 H   0  0  0  0  0  0  0  0  0  0  0  0  # atno 8010 bound_to 7997
  140.3652  143.2822  151.9567 H   0  0  0  0  0  0  0  0  0  0  0  0  # atno 10167 bound_to 10162
  156.7184  130.5143  149.5874 H   0  0  0  0  0  0  0  0  0  0  0  0  # atno 10718 bound_to 10713
  153.7283  135.3242  155.3281 H   0  0  0  0  0  0  0  0  0  0  0  0  # atno 10763 bound_to 10752
  154.8334  135.4516  154.1147 H   0  0  0  0  0  0  0  0  0  0  0  0  # atno 10764 bound_to 10752
  153.2287  135.6957  153.7995 H   0  0  0  0  0  0  0  0  0  0  0  0  # atno 10765 bound_to 10752
  141.1638  133.6920  156.7405 H   0  0  0  0  0  0  0  0  0  0  0  0  # atno 11005 bound_to 11000
  145.5212  139.1476  143.3551 LP  0  0  0  0  0  0  0  0  0  0  0  0  # atno 17320 bound_to 7965
  146.2464  140.5352  142.8912 LP  0  0  0  0  0  0  0  0  0  0  0  0  # atno 17321 bound_to 7965
  139.4809  144.5957  151.7694 LP  0  0  0  0  0  0  0  0  0  0  0  0  # atno 17342 bound_to 10162
  140.5088  144.1056  150.5989 LP  0  0  0  0  0  0  0  0  0  0  0  0  # atno 17343 bound_to 10162
  156.1612  130.6375  151.0720 LP  0  0  0  0  0  0  0  0  0  0  0  0  # atno 17370 bound_to 10713
  157.6908  131.0810  150.7113 LP  0  0  0  0  0  0  0  0  0  0  0  0  # atno 17371 bound_to 10713
  140.2678  134.8416  157.3819 LP  0  0  0  0  0  0  0  0  0  0  0  0  # atno 17394 bound_to 11000
  140.1550  134.4801  155.7934 LP  0  0  0  0  0  0  0  0  0  0  0  0  # atno 17395 bound_to 11000

$$$$
