AV-unprocessed.smi:203|AV-procd|sdf|1594|dock1
  -GOLD-   2262019493D 1   1.00000     0.00000
 Structure written by MMmdl.
 57 61  0  0  0  0  0  0  0  0  1 V2000
  143.2235  131.9654  161.0569 O   0  0  0  0  0  0  0  0  0  0  0  0
  144.4435  131.8329  160.9956 C   0  0  0  0  0  0  0  0  0  0  0  0
  145.3027  132.4617  159.9121 C   0  0  0  0  0  0  0  0  0  0  0  0
  146.7439  132.2186  160.4052 C   0  0  1  0  0  0  0  0  0  0  0  0
  147.4970  133.5070  160.8665 C   0  0  2  0  0  0  0  0  0  0  0  0
  146.8725  134.1465  162.1353 C   0  0  0  0  0  0  0  0  0  0  0  0
  147.6322  135.4066  162.5701 C   0  0  0  0  0  0  0  0  0  0  0  0
  147.6937  136.4050  161.4092 C   0  0  0  0  0  0  0  0  0  0  0  0
  148.3206  135.7470  160.1729 C   0  0  0  0  0  0  0  0  0  0  0  0
  147.6112  134.5223  159.8035 N   0  0  0  0  0  0  0  0  0  0  0  0
  148.0277  134.0846  158.5943 C   0  0  0  0  0  0  0  0  0  0  0  0
  149.2550  133.5127  158.5328 N   0  0  0  0  0  0  0  0  0  0  0  0
  149.7274  133.0716  157.3630 C   0  0  0  0  0  0  0  0  0  0  0  0
  149.1454  133.1021  156.1619 N   0  0  0  0  0  0  0  0  0  0  0  0
  147.9066  133.6693  156.2248 C   0  0  0  0  0  0  0  0  0  0  0  0
  147.2732  134.1823  157.3912 C   0  0  0  0  0  0  0  0  0  0  0  0
  146.0170  134.6819  157.0684 N   0  0  0  0  0  0  0  0  0  0  0  0
  145.9154  134.4799  155.7830 C   0  0  0  0  0  0  0  0  0  0  0  0
  147.0063  133.8805  155.1957 N   0  0  0  0  0  0  0  0  0  0  0  0
  147.1584  133.5495  153.7894 C   0  0  0  0  0  0  0  0  0  0  0  0
  145.9758  134.0559  152.9360 C   0  0  1  0  0  0  0  0  0  0  0  0
  146.3090  135.3385  152.4404 O   0  0  0  0  0  0  0  0  0  0  0  0
  145.6661  133.1507  151.7265 C   0  0  1  0  0  0  0  0  0  0  0  0
  145.3312  131.6990  152.0770 C   0  0  0  0  0  0  0  0  0  0  0  0
  144.4967  131.2273  150.8980 C   0  0  0  0  0  0  0  0  0  0  0  0
  144.0343  132.5259  150.2337 C   0  0  0  0  0  0  0  0  0  0  0  0
  144.4533  133.5612  151.1119 O   0  0  0  0  0  0  0  0  0  0  0  0
  146.6073  131.1606  161.5212 C   0  0  0  0  0  0  0  0  0  0  0  0
  145.1941  131.1343  161.8449 N   0  0  0  0  0  0  0  0  0  0  0  0
  145.1200  131.9479  158.9678 H   0  0  0  0  0  0  0  0  0  0  0  0
  145.0636  133.5164  159.7734 H   0  0  0  0  0  0  0  0  0  0  0  0
  147.3093  131.7458  159.6017 H   0  0  0  0  0  0  0  0  0  0  0  0
  148.5130  133.2106  161.1295 H   0  0  0  0  0  0  0  0  0  0  0  0
  145.8318  134.4137  161.9513 H   0  0  0  0  0  0  0  0  0  0  0  0
  146.8626  133.4392  162.9638 H   0  0  0  0  0  0  0  0  0  0  0  0
  147.1441  135.8616  163.4325 H   0  0  0  0  0  0  0  0  0  0  0  0
  148.6420  135.1401  162.8842 H   0  0  0  0  0  0  0  0  0  0  0  0
  146.6887  136.7552  161.1693 H   0  0  0  0  0  0  0  0  0  0  0  0
  148.2701  137.2839  161.6990 H   0  0  0  0  0  0  0  0  0  0  0  0
  148.3065  136.4521  159.3404 H   0  0  0  0  0  0  0  0  0  0  0  0
  149.3673  135.5130  160.3731 H   0  0  0  0  0  0  0  0  0  0  0  0
  150.7139  132.6330  157.3936 H   0  0  0  0  0  0  0  0  0  0  0  0
  145.0380  134.7678  155.2219 H   0  0  0  0  0  0  0  0  0  0  0  0
  148.0988  133.9671  153.4271 H   0  0  0  0  0  0  0  0  0  0  0  0
  147.2512  132.4659  153.7149 H   0  0  0  0  0  0  0  0  0  0  0  0
  145.0894  134.1417  153.5660 H   0  0  0  0  0  0  0  0  0  0  0  0
  147.2091  135.3245  152.1524 H   0  0  0  0  0  0  0  0  0  0  0  0
  146.4789  133.1750  150.9975 H   0  0  0  0  0  0  0  0  0  0  0  0
  146.2190  131.0862  152.2360 H   0  0  0  0  0  0  0  0  0  0  0  0
  144.7281  131.6622  152.9854 H   0  0  0  0  0  0  0  0  0  0  0  0
  145.0915  130.6345  150.2021 H   0  0  0  0  0  0  0  0  0  0  0  0
  143.6567  130.6162  151.2295 H   0  0  0  0  0  0  0  0  0  0  0  0
  144.5185  132.6566  149.2648 H   0  0  0  0  0  0  0  0  0  0  0  0
  142.9550  132.5567  150.0826 H   0  0  0  0  0  0  0  0  0  0  0  0
  146.8998  130.1745  161.1580 H   0  0  0  0  0  0  0  0  0  0  0  0
  147.2133  131.3786  162.4006 H   0  0  0  0  0  0  0  0  0  0  0  0
  144.8283  130.6336  162.6419 H   0  0  0  0  0  0  0  0  0  0  0  0
  1  2  2  0  0  0  0
  2 29  1  0  0  0  0
  2  3  1  0  0  0  0
  3  4  1  0  0  0  0
  3 30  1  0  0  0  0
  3 31  1  0  0  0  0
  4  5  1  0  0  0  0
  4 28  1  0  0  0  0
  4 32  1  0  0  0  0
  5 10  1  0  0  0  0
  5  6  1  0  0  0  0
  5 33  1  0  0  0  0
  6  7  1  0  0  0  0
  6 34  1  0  0  0  0
  6 35  1  0  0  0  0
  7  8  1  0  0  0  0
  7 36  1  0  0  0  0
  7 37  1  0  0  0  0
  8  9  1  0  0  0  0
  8 38  1  0  0  0  0
  8 39  1  0  0  0  0
  9 10  1  0  0  0  0
  9 40  1  0  0  0  0
  9 41  1  0  0  0  0
 10 11  1  0  0  0  0
 11 16  1  0  0  0  0
 11 12  2  0  0  0  0
 12 13  1  0  0  0  0
 13 14  2  0  0  0  0
 13 42  1  0  0  0  0
 14 15  1  0  0  0  0
 15 19  1  0  0  0  0
 15 16  2  0  0  0  0
 16 17  1  0  0  0  0
 17 18  2  0  0  0  0
 18 19  1  0  0  0  0
 18 43  1  0  0  0  0
 19 20  1  0  0  0  0
 20 21  1  0  0  0  0
 20 44  1  0  0  0  0
 20 45  1  0  0  0  0
 21 22  1  0  0  0  0
 21 23  1  0  0  0  0
 21 46  1  0  0  0  0
 22 47  1  0  0  0  0
 23 27  1  0  0  0  0
 23 24  1  0  0  0  0
 23 48  1  0  0  0  0
 24 25  1  0  0  0  0
 24 49  1  0  0  0  0
 24 50  1  0  0  0  0
 25 26  1  0  0  0  0
 25 51  1  0  0  0  0
 25 52  1  0  0  0  0
 26 27  1  0  0  0  0
 26 53  1  0  0  0  0
 26 54  1  0  0  0  0
 28 29  1  0  0  0  0
 28 55  1  0  0  0  0
 28 56  1  0  0  0  0
 29 57  1  0  0  0  0
M  END
> <s_m_source_file>
AV-unprocessed.smi

> <i_m_source_file_index>
203

> <i_lp_mmshare_version>
43012

> <i_f3d_flags>
0

> <s_epik_input>
Tz1DMVtDSDJdW0NASF0oW0NIMl1bTkhdMSlbQ0BASF0yW0NIMl1bQ0gyXVtDSDJdW0NIMl1OMmMobltjSF1uMyljKGMzNCluW2NIXW40W0NIMl1bQ0BIXShbT0hdKVtDQEBIXTVbQ0gyXVtDSDJdW0NIMl1PNQ==

> <s_epik_cmdline>
J2VwaWtfcHl0aG9uJywgJy1waCcsICc3LjAnLCAnLXRuJywgJzgnLCAnLW1hJywgJzIwMCcsICctbWV0YWxfYmluZGluZycsICctaW1hZScsICc8aW5maWxlLm1hZT4nLCAnLW9tYWUnLCAnPG91dGZpbGUubWFlPic=

> <r_lp_tautomer_probability>
1

> <r_epik_Ionization_Penalty>
0.00175146

> <r_epik_Ionization_Penalty_Charging>
0

> <r_epik_Ionization_Penalty_Neutral>
0.00175146

> <r_epik_State_Penalty>
0.00109045

> <r_epik_Charging_Adjusted_Penalty>
0.00109045

> <i_epik_Tot_Q>
0

> <i_epik_Tot_abs_Q>
0

> <r_epik_Metal_State_Penalty>
-0

> <b_epik_Metal_Only>
0

> <s_lp_Force_Field>
OPLS_2005

> <r_lp_Energy>
57.3178

> <b_lp_Chiralities_Consistent>
1

> <s_lp_Variant>
AV-unprocessed.smi:203-13

> <Gold.Version>
5.8.1

> <Gold.Id.Protein>
6NUR|6NUR_protein|mol2

> <Gold.PLP.Fitness>
41.1519

> <Gold.PLP.PLP>
-36.2172

> <Gold.PLP.part.hbond>
-3.0000

> <Gold.PLP.part.metal>
0.0000

> <Gold.PLP.part.buried>
-5.9794

> <Gold.PLP.part.nonpolar>
-27.9351

> <Gold.PLP.part.repulsive>
0.2293

> <Gold.PLP.ligand.clash>
0.0000

> <Gold.PLP.ligand.torsion>
0.6679

> <Gold.PLP.Chemscore.Hbond>
2.0000

> <Gold.PLP.Chemscore.CHOScore>
0.0000

> <Gold.PLP.Chemscore.Metal>
0.0000

> <Gold.Chemscore.Hbonds>
donor molecule, donor type, donor heavy atom, donor atom, acceptor molecule, acceptor atom, score
      L1  H    22    47       P1  7948  1.00
      P1  H  6896  6908       L1    12  1.00

> <Gold.PLP.Chemscore.Internal.Correction>
0.2705

> <Gold.Rescore>
     Score         DG    S(hbond)    S(metal)    S(lipo)     H(rot)  DE(clash)    DE(int)     intcor
     14.16     -14.70       1.86        0.00      85.08       2.72       0.01       0.53       ----

> <Gold.Chemscore.Fitness>
14.1611

> <Gold.Chemscore.DG>
-14.7015

> <Gold.Chemscore.ZeroCoef>
-5.4800

> <Gold.Chemscore.Hbond>
1.8630

> <Gold.Chemscore.Metal>
0.0000

> <Gold.Chemscore.Lipo>
85.0828

> <Gold.Chemscore.Internal_Hbond>
0.0000

> <Gold.Chemscore.DEClash>
0.0075

> <Gold.Chemscore.DEInternal>
0.5329

> <Gold.Chemscore.Rot>
2.7171

> <Gold.Chemscore.Internal.Correction>
   9.000000E+99

> <Gold.Chemscore.Hbonds>
donor molecule, donor type, donor heavy atom, donor atom, acceptor molecule, acceptor atom, score
      L1  H    22    47       P1  7948  0.95
      P1  H  6896  6908       L1    12  0.30

> <Gold.Chemscore.Hbond.Weighted>
-6.2225

> <Gold.Chemscore.Metal.Weighted>
-0.0000

> <Gold.Chemscore.Lipo.Weighted>
-9.9547

> <Gold.Chemscore.Internal_Hbond.Weighted>
0.0000

> <Gold.Chemscore.DEClash.Weighted>
0.0075

> <Gold.Chemscore.DEInternal.Weighted>
0.5329

> <Gold.Chemscore.Rot.Weighted>
6.9557

> <Gold.Chemscore.Internal.Correction.Weighted>
   9.000000E+99

> <Gold.Protein.RotatedTorsions>
[ 6907 6896 6895 6894 ] final  131.02 input  -60.11 | X-H torsion
[ 7974 7965 7964 7962 ] final   87.65 input  175.53 | X-H torsion
[ 8008 7997 7996 7995 ] final -162.11 input   59.86 | X-H torsion
[ 10167 10162 10161 10158 ] final   92.82 input  -65.29 | X-H torsion
[ 10718 10713 10712 10709 ] final   93.63 input   66.30 | X-H torsion
[ 10763 10752 10751 10750 ] final   34.43 input  -60.55 | X-H torsion
[ 11005 11000 10999 10996 ] final   54.50 input  -57.11 | X-H torsion

> <Gold.Protein.ActiveResidues>
 VAL166  LYS551  ARG553  GLY616  TRP617  ASP618  TYR619  PRO620  LYS621  CYS622 
 ASP623  PHE694  ASN695  SER759  ASP760  ASP761  ALA762  ILE779  LEU786  VAL792 
 PHE793  MET794  SER795  GLU796  ALA797  LYS798  CYS799  TRP800  GLU811  SER814 

> <Gold.Protein.RotatedAtoms>
  152.3468  133.6132  159.5915 H   0  0  0  0  0  0  0  0  0  0  0  0  # atno 6907 bound_to 6896
  150.7512  133.9637  159.3532 H   0  0  0  0  0  0  0  0  0  0  0  0  # atno 6908 bound_to 6896
  151.7494  135.0837  160.0379 H   0  0  0  0  0  0  0  0  0  0  0  0  # atno 6909 bound_to 6896
  145.5562  139.2299  143.2485 H   0  0  0  0  0  0  0  0  0  0  0  0  # atno 7974 bound_to 7965
  155.8020  140.0893  157.1952 H   0  0  0  0  0  0  0  0  0  0  0  0  # atno 8008 bound_to 7997
  154.3982  140.1470  156.3344 H   0  0  0  0  0  0  0  0  0  0  0  0  # atno 8009 bound_to 7997
  155.8453  140.3437  155.5661 H   0  0  0  0  0  0  0  0  0  0  0  0  # atno 8010 bound_to 7997
  139.8240  144.6718  150.9483 H   0  0  0  0  0  0  0  0  0  0  0  0  # atno 10167 bound_to 10162
  157.6953  131.0485  150.4063 H   0  0  0  0  0  0  0  0  0  0  0  0  # atno 10718 bound_to 10713
  153.0164  135.6360  154.1668 H   0  0  0  0  0  0  0  0  0  0  0  0  # atno 10763 bound_to 10752
  154.1407  135.2835  155.3163 H   0  0  0  0  0  0  0  0  0  0  0  0  # atno 10764 bound_to 10752
  154.6127  135.5551  153.7551 H   0  0  0  0  0  0  0  0  0  0  0  0  # atno 10765 bound_to 10752
  140.0681  134.5507  155.9076 H   0  0  0  0  0  0  0  0  0  0  0  0  # atno 11005 bound_to 11000
  146.1883  140.6386  142.9157 LP  0  0  0  0  0  0  0  0  0  0  0  0  # atno 17320 bound_to 7965
  144.7505  140.5179  143.6805 LP  0  0  0  0  0  0  0  0  0  0  0  0  # atno 17321 bound_to 7965
  140.7811  143.4064  151.1063 LP  0  0  0  0  0  0  0  0  0  0  0  0  # atno 17342 bound_to 10162
  139.7723  143.8476  152.3123 LP  0  0  0  0  0  0  0  0  0  0  0  0  # atno 17343 bound_to 10162
  156.4451  130.4000  149.6672 LP  0  0  0  0  0  0  0  0  0  0  0  0  # atno 17370 bound_to 10713
  156.3841  130.7594  151.2589 LP  0  0  0  0  0  0  0  0  0  0  0  0  # atno 17371 bound_to 10713
  141.2001  133.6610  156.5879 LP  0  0  0  0  0  0  0  0  0  0  0  0  # atno 17394 bound_to 11000
  140.3668  134.7640  157.4571 LP  0  0  0  0  0  0  0  0  0  0  0  0  # atno 17395 bound_to 11000

$$$$
