#       Name:                AV-unprocessed.smi:2083
#       Creating user name   scv26
#       Creation time:       Fri Mar 27 11:20:05 2020


#       File generated by GOLD software.
#

@<TRIPOS>MOLECULE
AV-unprocessed.smi:2083
    50    51     1
SMALL
NO_CHARGES


@<TRIPOS>ATOM
      1 ****        -3.5064   7.2562   2.1560 C.3            1 S1                 0.0000
      2 ****        -3.0069   5.8844   1.8558 C.2            1 S1                 0.0000
      3 ****        -2.9442   5.1466   0.7069 C.2            1 S1                 0.0000
      4 ****        -2.3597   3.9274   1.1419 C.2            1 S1                 0.0000
      5 ****        -2.1211   2.8676   0.2300 N.am           1 S1                 0.0000
      6 ****        -1.6081   1.6555   0.5014 C.2            1 S1                 0.0000
      7 ****        -1.2551   1.2656   1.6149 O.2            1 S1                 0.0000
      8 ****        -1.5233   0.9006  -0.6038 N.am           1 S1                 0.0000
      9 ****        -1.0333  -0.4747  -0.6389 C.3            1 S1                 0.0000
     10 ****         0.5149  -0.5776  -0.5314 C.3            1 S1                 0.0000
     11 ****         1.1835   0.2602  -1.6451 C.3            1 S1                 0.0000
     12 ****         1.0428  -1.9820  -0.5644 N.4            1 S1                 1.0000
     13 ****         0.1388  -3.0348  -0.0151 C.3            1 S1                 0.0000
     14 ****         0.7130  -4.4454  -0.2290 C.3            1 S1                 0.0000
     15 ****         2.1225  -4.5744   0.3591 C.3            1 S1                 0.0000
     16 ****         3.0436  -3.4658  -0.1753 C.3            1 S1                 0.0000
     17 ****         3.4626  -3.6840  -1.6400 C.3            1 S1                 0.0000
     18 ****         2.3998  -2.0833   0.0490 C.3            1 S1                 0.0000
     19 ****        -2.0872   3.9222   2.4377 N.2            1 S1                 0.0000
     20 ****        -2.5011   5.1763   2.9018 O.3            1 S1                 0.0000
     21 ****        -3.7158   7.8051   1.2378 H              1 S1                 0.0000
     22 ****        -2.7685   7.8211   2.7257 H              1 S1                 0.0000
     23 ****        -4.4250   7.2124   2.7412 H              1 S1                 0.0000
     24 ****        -3.2681   5.4350  -0.2821 H              1 S1                 0.0000
     25 ****        -2.3755   3.0504  -0.7293 H              1 S1                 0.0000
     26 ****        -1.8324   1.2983  -1.4792 H              1 S1                 0.0000
     27 ****        -1.5251  -1.0119   0.1733 H              1 S1                 0.0000
     28 ****        -1.3762  -0.9262  -1.5706 H              1 S1                 0.0000
     29 ****         0.7961  -0.1509   0.4329 H              1 S1                 0.0000
     30 ****         0.8729   1.3042  -1.6074 H              1 S1                 0.0000
     31 ****         0.9255  -0.1240  -2.6324 H              1 S1                 0.0000
     32 ****         2.2696   0.2683  -1.5721 H              1 S1                 0.0000
     33 ****        -0.0358  -2.8515   1.0464 H              1 S1                 0.0000
     34 ****        -0.8296  -3.0172  -0.5129 H              1 S1                 0.0000
     35 ****         0.0548  -5.1850   0.2278 H              1 S1                 0.0000
     36 ****         0.7324  -4.6753  -1.2947 H              1 S1                 0.0000
     37 ****         2.0631  -4.5007   1.4458 H              1 S1                 0.0000
     38 ****         2.5376  -5.5592   0.1415 H              1 S1                 0.0000
     39 ****         3.9613  -3.4976   0.4136 H              1 S1                 0.0000
     40 ****         2.6115  -3.6422  -2.3196 H              1 S1                 0.0000
     41 ****         3.9433  -4.6540  -1.7696 H              1 S1                 0.0000
     42 ****         4.1744  -2.9222  -1.9596 H              1 S1                 0.0000
     43 ****         3.0697  -1.3202  -0.3429 H              1 S1                 0.0000
     44 ****         2.3161  -1.8898   1.1197 H              1 S1                 0.0000
     45 ****         1.1506  -2.2087  -1.5427 H              1 S1                 0.0000
     46 ****        -1.3411   1.8702   2.4068 LP             1 S1                 0.0000
     47 ****        -0.8825   0.3445   1.7271 LP             1 S1                 0.0000
     48 ****        -1.6750   3.1825   2.9695 LP             1 S1                 0.0000
     49 ****        -3.2060   5.0602   3.6015 LP             1 S1                 0.0000
     50 ****        -1.7209   5.6646   3.2925 LP             1 S1                 0.0000
@<TRIPOS>BOND
    1    1    2 1     
    2    1   21 1     
    3    1   22 1     
    4    1   23 1     
    5    2   20 1     
    6    2    3 2     
    7    3    4 1     
    8    3   24 1     
    9    4    5 1     
   10    4   19 2     
   11    5    6 am    
   12    5   25 1     
   13    6    7 2     
   14    6    8 am    
   15    8    9 1     
   16    8   26 1     
   17    9   10 1     
   18    9   27 1     
   19    9   28 1     
   20   10   11 1     
   21   10   12 1     
   22   10   29 1     
   23   11   30 1     
   24   11   31 1     
   25   11   32 1     
   26   12   18 1     
   27   12   13 1     
   28   12   45 1     
   29   13   14 1     
   30   13   33 1     
   31   13   34 1     
   32   14   15 1     
   33   14   35 1     
   34   14   36 1     
   35   15   16 1     
   36   15   37 1     
   37   15   38 1     
   38   16   17 1     
   39   16   18 1     
   40   16   39 1     
   41   17   40 1     
   42   17   41 1     
   43   17   42 1     
   44   18   43 1     
   45   18   44 1     
   46   19   20 1     
   47    7   46 1     
   48    7   47 1     
   49   19   48 1     
   50   20   49 1     
   51   20   50 1     
@<TRIPOS>SUBSTRUCTURE
      1 S1             1
@<TRIPOS>SET
LONE_PAIRS      STATIC     ATOMS    <user>   **** ""
5 46 47 48 49 50
DONOR_HYDROGENS      STATIC     ATOMS    <user>   **** ""
3 25 26 45
ATOM$BLUE        STATIC     ATOMS    COLORGROUP SYSTEM
5 46 47 48 49 50
ATOM$RED        STATIC     ATOMS    COLORGROUP SYSTEM
3 25 26 45
