AV-unprocessed.smi:837|AV-procd|sdf|3897|dock9
  -GOLD-   22720 1353D 1   1.00000     0.00000
 Structure written by MMmdl.
 50 52  0  0  0  0  0  0  0  0  2 V2000
  148.4282  142.2359  158.1215 C   0  0  0  0  0  0  0  0  0  0  0  0
  149.6792  141.7372  157.3680 C   0  0  1  0  0  0  0  0  0  0  0  0
  150.5125  140.7907  158.2591 C   0  0  0  0  0  0  0  0  0  0  0  0
  151.8135  140.3573  157.5659 C   0  0  0  0  0  0  0  0  0  0  0  0
  151.5348  139.7011  156.2065 C   0  0  0  0  0  0  0  0  0  0  0  0
  150.7048  140.6283  155.3007 C   0  0  0  0  0  0  0  0  0  0  0  0
  149.3911  141.1121  155.9660 C   0  0  2  0  0  0  0  0  0  0  0  0
  148.7265  142.0643  155.0930 N   0  0  0  0  0  0  0  0  0  0  0  0
  147.5351  141.6387  154.6564 C   0  0  0  0  0  0  0  0  0  0  0  0
  146.7957  142.2601  153.8941 O   0  0  0  0  0  0  0  0  0  0  0  0
  147.2971  140.4283  155.1909 N   0  0  0  0  0  0  0  0  0  0  0  0
  146.0936  139.6319  154.9195 C   0  0  0  0  0  0  0  0  0  0  0  0
  146.3969  138.3417  154.1460 C   0  0  0  0  0  0  0  0  0  0  0  0
  147.1027  137.4611  154.6392 O   0  0  0  0  0  0  0  0  0  0  0  0
  145.8507  138.2461  152.9247 N   0  0  0  0  0  0  0  0  0  0  0  0
  146.0299  137.1249  152.0064 C   0  0  0  0  0  0  0  0  0  0  0  0
  145.9297  135.7490  152.6975 C   0  0  0  0  0  0  0  0  0  0  0  0
  145.4763  134.6315  151.7731 C   0  0  0  0  0  0  0  0  0  0  0  0
  146.2837  133.4890  151.5752 C   0  0  0  0  0  0  0  0  0  0  0  0
  145.8422  132.4722  150.7036 C   0  0  0  0  0  0  0  0  0  0  0  0
  144.6005  132.6178  150.0526 C   0  0  0  0  0  0  0  0  0  0  0  0
  143.8537  133.7229  150.2688 N   0  3  0  0  0  0  0  0  0  0  0  0
  144.2421  134.7201  151.0937 C   0  0  0  0  0  0  0  0  0  0  0  0
  148.3140  140.0250  155.9652 C   0  0  0  0  0  0  0  0  0  0  0  0
  148.3925  138.9611  156.5800 O   0  0  0  0  0  0  0  0  0  0  0  0
  147.7601  141.4159  158.3855 H   0  0  0  0  0  0  0  0  0  0  0  0
  147.8603  142.9534  157.5293 H   0  0  0  0  0  0  0  0  0  0  0  0
  148.7087  142.7360  159.0487 H   0  0  0  0  0  0  0  0  0  0  0  0
  150.2944  142.6215  157.1937 H   0  0  0  0  0  0  0  0  0  0  0  0
  150.7581  141.2888  159.1976 H   0  0  0  0  0  0  0  0  0  0  0  0
  149.9294  139.9103  158.5301 H   0  0  0  0  0  0  0  0  0  0  0  0
  152.4579  141.2261  157.4255 H   0  0  0  0  0  0  0  0  0  0  0  0
  152.3626  139.6664  158.2061 H   0  0  0  0  0  0  0  0  0  0  0  0
  152.4773  139.4560  155.7164 H   0  0  0  0  0  0  0  0  0  0  0  0
  151.0169  138.7535  156.3543 H   0  0  0  0  0  0  0  0  0  0  0  0
  151.3124  141.4943  155.0341 H   0  0  0  0  0  0  0  0  0  0  0  0
  150.4911  140.1157  154.3613 H   0  0  0  0  0  0  0  0  0  0  0  0
  149.1414  142.9488  154.8386 H   0  0  0  0  0  0  0  0  0  0  0  0
  145.5906  139.3666  155.8508 H   0  0  0  0  0  0  0  0  0  0  0  0
  145.3780  140.2356  154.3578 H   0  0  0  0  0  0  0  0  0  0  0  0
  145.2736  139.0104  152.6042 H   0  0  0  0  0  0  0  0  0  0  0  0
  145.3122  137.1930  151.1873 H   0  0  0  0  0  0  0  0  0  0  0  0
  147.0181  137.2318  151.5584 H   0  0  0  0  0  0  0  0  0  0  0  0
  146.8957  135.4806  153.1268 H   0  0  0  0  0  0  0  0  0  0  0  0
  145.2395  135.8124  153.5394 H   0  0  0  0  0  0  0  0  0  0  0  0
  147.2356  133.3948  152.0778 H   0  0  0  0  0  0  0  0  0  0  0  0
  146.4504  131.5951  150.5359 H   0  0  0  0  0  0  0  0  0  0  0  0
  144.1859  131.8899  149.3704 H   0  0  0  0  0  0  0  0  0  0  0  0
  143.5598  135.5530  151.1825 H   0  0  0  0  0  0  0  0  0  0  0  0
  142.9577  133.8080  149.7881 H   0  0  0  0  0  0  0  0  0  0  0  0
  1  2  1  0  0  0  0
  1 26  1  0  0  0  0
  1 27  1  0  0  0  0
  1 28  1  0  0  0  0
  2  7  1  0  0  0  0
  2  3  1  0  0  0  0
  2 29  1  0  0  0  0
  3  4  1  0  0  0  0
  3 30  1  0  0  0  0
  3 31  1  0  0  0  0
  4  5  1  0  0  0  0
  4 32  1  0  0  0  0
  4 33  1  0  0  0  0
  5  6  1  0  0  0  0
  5 34  1  0  0  0  0
  5 35  1  0  0  0  0
  6  7  1  0  0  0  0
  6 36  1  0  0  0  0
  6 37  1  0  0  0  0
  7 24  1  0  0  0  0
  7  8  1  0  0  0  0
  8  9  1  0  0  0  0
  8 38  1  0  0  0  0
  9 10  2  0  0  0  0
  9 11  1  0  0  0  0
 11 12  1  0  0  0  0
 11 24  1  0  0  0  0
 12 13  1  0  0  0  0
 12 39  1  0  0  0  0
 12 40  1  0  0  0  0
 13 14  2  0  0  0  0
 13 15  1  0  0  0  0
 15 16  1  0  0  0  0
 15 41  1  0  0  0  0
 16 17  1  0  0  0  0
 16 42  1  0  0  0  0
 16 43  1  0  0  0  0
 17 18  1  0  0  0  0
 17 44  1  0  0  0  0
 17 45  1  0  0  0  0
 18 23  1  0  0  0  0
 18 19  2  0  0  0  0
 19 20  1  0  0  0  0
 19 46  1  0  0  0  0
 20 21  2  0  0  0  0
 20 47  1  0  0  0  0
 21 22  1  0  0  0  0
 21 48  1  0  0  0  0
 22 23  2  0  0  0  0
 22 50  1  0  0  0  0
 23 49  1  0  0  0  0
 24 25  2  0  0  0  0
M  CHG  1  22   1
M  END
> <s_m_source_file>
AV-unprocessed.smi

> <i_m_source_file_index>
837

> <i_lp_mmshare_version>
43012

> <i_f3d_flags>
0

> <s_epik_input>
W0NIMl0xW0NIMl1bQ0gyXVtDSDJdW0NAQEhdKFtDSDNdKVtDQEBdMTJbTkhdQyg9TylOKEMyPU8pW0NIMl1DKD1PKVtOSF1bQ0gyXVtDSDJdYzNbY0hdW2NIXVtjSF1uW2NIXTM=

> <s_epik_cmdline>
J2VwaWtfcHl0aG9uJywgJy1waCcsICc3LjAnLCAnLXRuJywgJzgnLCAnLW1hJywgJzIwMCcsICctbWV0YWxfYmluZGluZycsICctaW1hZScsICc8aW5maWxlLm1hZT4nLCAnLW9tYWUnLCAnPG91dGZpbGUubWFlPic=

> <r_lp_tautomer_probability>
1

> <r_epik_Ionization_Penalty>
2.28139

> <r_epik_Ionization_Penalty_Charging>
2.28135

> <r_epik_Ionization_Penalty_Neutral>
4.65525e-05

> <r_epik_State_Penalty>
2.43066

> <r_epik_Charging_Adjusted_Penalty>
4.71201

> <i_epik_Tot_Q>
1

> <i_epik_Tot_abs_Q>
1

> <r_epik_Metal_State_Penalty>
2.4646

> <b_epik_Metal_Only>
0

> <s_lp_Force_Field>
OPLS_2005

> <r_lp_Energy>
25.3405

> <b_lp_Chiralities_Consistent>
1

> <s_lp_Variant>
AV-unprocessed.smi:837-6

> <Gold.Version>
5.8.1

> <Gold.Id.Protein>
6NUR|6NUR_protein|mol2

> <Gold.PLP.Fitness>
45.4934

> <Gold.PLP.PLP>
-34.8797

> <Gold.PLP.part.hbond>
-3.0000

> <Gold.PLP.part.metal>
0.0000

> <Gold.PLP.part.buried>
-2.7803

> <Gold.PLP.part.nonpolar>
-29.5352

> <Gold.PLP.part.repulsive>
0.4765

> <Gold.PLP.ligand.clash>
0.0000

> <Gold.PLP.ligand.torsion>
0.3118

> <Gold.PLP.Chemscore.Hbond>
3.7360

> <Gold.PLP.Chemscore.CHOScore>
0.0000

> <Gold.PLP.Chemscore.Metal>
0.0000

> <Gold.Chemscore.Hbonds>
donor molecule, donor type, donor heavy atom, donor atom, acceptor molecule, acceptor atom, score
      L1  H     8    38       P1  8028  0.59
      L1  H    15    41       P1 10175  0.68
      L1  H    22    50       P1 10186  1.85

> <Gold.PLP.Chemscore.Internal.Correction>
0.0293

> <Gold.Rescore>
     Score         DG    S(hbond)    S(metal)    S(lipo)     H(rot)  DE(clash)    DE(int)     intcor
     16.12     -19.66       2.91        0.00      81.12       1.96       0.36       3.18       ----

> <Gold.Chemscore.Fitness>
16.1242

> <Gold.Chemscore.DG>
-19.6636

> <Gold.Chemscore.ZeroCoef>
-5.4800

> <Gold.Chemscore.Hbond>
2.9103

> <Gold.Chemscore.Metal>
0.0000

> <Gold.Chemscore.Lipo>
81.1169

> <Gold.Chemscore.Internal_Hbond>
0.0000

> <Gold.Chemscore.DEClash>
0.3603

> <Gold.Chemscore.DEInternal>
3.1791

> <Gold.Chemscore.Rot>
1.9638

> <Gold.Chemscore.Internal.Correction>
   9.000000E+99

> <Gold.Chemscore.Hbonds>
donor molecule, donor type, donor heavy atom, donor atom, acceptor molecule, acceptor atom, score
      L1  H     8    38       P1  8028  0.59
      L1  H    15    41       P1 10175  0.67
      L1  H    22    50       P1 10186  0.87

> <Gold.Chemscore.Hbond.Weighted>
-9.7203

> <Gold.Chemscore.Metal.Weighted>
-0.0000

> <Gold.Chemscore.Lipo.Weighted>
-9.4907

> <Gold.Chemscore.Internal_Hbond.Weighted>
0.0000

> <Gold.Chemscore.DEClash.Weighted>
0.3603

> <Gold.Chemscore.DEInternal.Weighted>
3.1791

> <Gold.Chemscore.Rot.Weighted>
5.0274

> <Gold.Chemscore.Internal.Correction.Weighted>
   9.000000E+99

> <Gold.Protein.RotatedTorsions>
[ 6907 6896 6895 6894 ] final -112.34 input  -60.11 | X-H torsion
[ 7974 7965 7964 7962 ] final  -72.53 input  175.53 | X-H torsion
[ 8008 7997 7996 7995 ] final -118.18 input   59.86 | X-H torsion
[ 10167 10162 10161 10158 ] final    0.03 input  -65.29 | X-H torsion
[ 10718 10713 10712 10709 ] final  157.89 input   66.30 | X-H torsion
[ 10763 10752 10751 10750 ] final  106.30 input  -60.55 | X-H torsion
[ 11005 11000 10999 10996 ] final  151.39 input  -57.11 | X-H torsion

> <Gold.Protein.ActiveResidues>
 VAL166  LYS551  ARG553  GLY616  TRP617  ASP618  TYR619  PRO620  LYS621  CYS622 
 ASP623  PHE694  ASN695  SER759  ASP760  ASP761  ALA762  ILE779  LEU786  VAL792 
 PHE793  MET794  SER795  GLU796  ALA797  LYS798  CYS799  TRP800  GLU811  SER814 

> <Gold.Protein.RotatedAtoms>
  150.7751  133.9104  159.3367 H   0  0  0  0  0  0  0  0  0  0  0  0  # atno 6907 bound_to 6896
  151.6981  135.0933  160.0255 H   0  0  0  0  0  0  0  0  0  0  0  0  # atno 6908 bound_to 6896
  152.3784  133.6475  159.6177 H   0  0  0  0  0  0  0  0  0  0  0  0  # atno 6909 bound_to 6896
  145.6640  140.9243  143.0918 H   0  0  0  0  0  0  0  0  0  0  0  0  # atno 7974 bound_to 7965
  155.0955  140.0395  157.2681 H   0  0  0  0  0  0  0  0  0  0  0  0  # atno 8008 bound_to 7997
  154.6798  140.2630  155.6895 H   0  0  0  0  0  0  0  0  0  0  0  0  # atno 8009 bound_to 7997
  156.2690  140.2781  156.1338 H   0  0  0  0  0  0  0  0  0  0  0  0  # atno 8010 bound_to 7997
  140.6747  143.6951  150.7996 H   0  0  0  0  0  0  0  0  0  0  0  0  # atno 10167 bound_to 10162
  157.1853  131.0642  151.2109 H   0  0  0  0  0  0  0  0  0  0  0  0  # atno 10718 bound_to 10713
  153.3910  135.3881  155.1923 H   0  0  0  0  0  0  0  0  0  0  0  0  # atno 10763 bound_to 10752
  154.8719  135.3748  154.4737 H   0  0  0  0  0  0  0  0  0  0  0  0  # atno 10764 bound_to 10752
  153.5224  135.7086  153.5786 H   0  0  0  0  0  0  0  0  0  0  0  0  # atno 10765 bound_to 10752
  140.1214  134.8861  157.2078 H   0  0  0  0  0  0  0  0  0  0  0  0  # atno 11005 bound_to 11000
  144.7079  139.8486  143.7424 LP  0  0  0  0  0  0  0  0  0  0  0  0  # atno 17320 bound_to 7965
  146.1101  139.4105  143.0293 LP  0  0  0  0  0  0  0  0  0  0  0  0  # atno 17321 bound_to 7965
  140.0642  143.5125  152.2612 LP  0  0  0  0  0  0  0  0  0  0  0  0  # atno 17342 bound_to 10162
  139.6032  144.7589  151.3122 LP  0  0  0  0  0  0  0  0  0  0  0  0  # atno 17343 bound_to 10162
  157.3913  130.7283  149.6699 LP  0  0  0  0  0  0  0  0  0  0  0  0  # atno 17370 bound_to 10713
  155.9719  130.4146  150.4139 LP  0  0  0  0  0  0  0  0  0  0  0  0  # atno 17371 bound_to 10713
  140.2960  134.3186  155.7302 LP  0  0  0  0  0  0  0  0  0  0  0  0  # atno 17394 bound_to 11000
  141.2152  133.7563  156.9572 LP  0  0  0  0  0  0  0  0  0  0  0  0  # atno 17395 bound_to 11000

$$$$
