AV-unprocessed.smi:837|AV-procd|sdf|3904|dock5
  -GOLD-   22720 1363D 1   1.00000     0.00000
 Structure written by MMmdl.
 49 51  0  0  0  0  0  0  0  0  3 V2000
  152.7070  139.0585  158.6135 C   0  0  0  0  0  0  0  0  0  0  0  0
  152.4057  140.4789  158.0873 C   0  0  2  0  0  0  0  0  0  0  0  0
  152.1152  141.4461  159.2557 C   0  0  0  0  0  0  0  0  0  0  0  0
  151.9214  142.8898  158.7679 C   0  0  0  0  0  0  0  0  0  0  0  0
  150.8043  142.9750  157.7196 C   0  0  0  0  0  0  0  0  0  0  0  0
  151.0781  142.0258  156.5406 C   0  0  0  0  0  0  0  0  0  0  0  0
  151.2934  140.5575  156.9912 C   0  0  2  0  0  0  0  0  0  0  0  0
  150.0391  139.9814  157.4517 N   0  5  0  0  0  0  0  0  0  0  0  0
  149.7019  138.9562  156.6367 C   0  0  0  0  0  0  0  0  0  0  0  0
  148.6956  138.2524  156.7213 O   0  0  0  0  0  0  0  0  0  0  0  0
  150.6179  138.7885  155.6636 N   0  0  0  0  0  0  0  0  0  0  0  0
  150.5160  137.8041  154.5800 C   0  0  0  0  0  0  0  0  0  0  0  0
  150.3238  136.3947  155.1460 C   0  0  0  0  0  0  0  0  0  0  0  0
  151.1560  135.9153  155.9156 O   0  0  0  0  0  0  0  0  0  0  0  0
  149.2272  135.7398  154.7375 N   0  0  0  0  0  0  0  0  0  0  0  0
  148.8927  134.3568  155.0619 C   0  0  0  0  0  0  0  0  0  0  0  0
  149.3238  133.3477  153.9731 C   0  0  0  0  0  0  0  0  0  0  0  0
  148.2081  132.4402  153.4743 C   0  0  0  0  0  0  0  0  0  0  0  0
  147.1412  132.9679  152.7121 C   0  0  0  0  0  0  0  0  0  0  0  0
  146.1142  132.1091  152.2693 C   0  0  0  0  0  0  0  0  0  0  0  0
  146.1674  130.7430  152.6095 C   0  0  0  0  0  0  0  0  0  0  0  0
  147.2021  130.2728  153.3394 N   0  3  0  0  0  0  0  0  0  0  0  0
  148.2114  131.0598  153.7723 C   0  0  0  0  0  0  0  0  0  0  0  0
  151.6005  139.6882  155.7799 C   0  0  0  0  0  0  0  0  0  0  0  0
  152.5836  139.8247  155.0507 O   0  0  0  0  0  0  0  0  0  0  0  0
  151.8407  138.6218  159.1109 H   0  0  0  0  0  0  0  0  0  0  0  0
  153.5221  139.0788  159.3370 H   0  0  0  0  0  0  0  0  0  0  0  0
  153.0078  138.3827  157.8132 H   0  0  0  0  0  0  0  0  0  0  0  0
  153.3302  140.8288  157.6244 H   0  0  0  0  0  0  0  0  0  0  0  0
  151.2255  141.1201  159.7960 H   0  0  0  0  0  0  0  0  0  0  0  0
  152.9350  141.4176  159.9739 H   0  0  0  0  0  0  0  0  0  0  0  0
  151.6892  143.5396  159.6121 H   0  0  0  0  0  0  0  0  0  0  0  0
  152.8540  143.2593  158.3396 H   0  0  0  0  0  0  0  0  0  0  0  0
  149.8477  142.7275  158.1815 H   0  0  0  0  0  0  0  0  0  0  0  0
  150.7141  143.9992  157.3570 H   0  0  0  0  0  0  0  0  0  0  0  0
  150.2645  142.0937  155.8171 H   0  0  0  0  0  0  0  0  0  0  0  0
  151.9679  142.3788  156.0168 H   0  0  0  0  0  0  0  0  0  0  0  0
  149.6758  138.0393  153.9246 H   0  0  0  0  0  0  0  0  0  0  0  0
  151.4047  137.8429  153.9473 H   0  0  0  0  0  0  0  0  0  0  0  0
  148.6023  136.2230  154.1082 H   0  0  0  0  0  0  0  0  0  0  0  0
  149.3145  134.0818  156.0296 H   0  0  0  0  0  0  0  0  0  0  0  0
  147.8095  134.3169  155.1773 H   0  0  0  0  0  0  0  0  0  0  0  0
  149.7364  133.8941  153.1242 H   0  0  0  0  0  0  0  0  0  0  0  0
  150.1372  132.7271  154.3498 H   0  0  0  0  0  0  0  0  0  0  0  0
  147.1008  134.0208  152.4742 H   0  0  0  0  0  0  0  0  0  0  0  0
  145.2857  132.4963  151.6947 H   0  0  0  0  0  0  0  0  0  0  0  0
  145.4151  130.0207  152.3288 H   0  0  0  0  0  0  0  0  0  0  0  0
  148.9775  130.5669  154.3522 H   0  0  0  0  0  0  0  0  0  0  0  0
  147.2178  129.2815  153.5798 H   0  0  0  0  0  0  0  0  0  0  0  0
  1  2  1  0  0  0  0
  1 26  1  0  0  0  0
  1 27  1  0  0  0  0
  1 28  1  0  0  0  0
  2  7  1  0  0  0  0
  2  3  1  0  0  0  0
  2 29  1  0  0  0  0
  3  4  1  0  0  0  0
  3 30  1  0  0  0  0
  3 31  1  0  0  0  0
  4  5  1  0  0  0  0
  4 32  1  0  0  0  0
  4 33  1  0  0  0  0
  5  6  1  0  0  0  0
  5 34  1  0  0  0  0
  5 35  1  0  0  0  0
  6  7  1  0  0  0  0
  6 36  1  0  0  0  0
  6 37  1  0  0  0  0
  7 24  1  0  0  0  0
  7  8  1  0  0  0  0
  8  9  1  0  0  0  0
  9 10  2  0  0  0  0
  9 11  1  0  0  0  0
 11 12  1  0  0  0  0
 11 24  1  0  0  0  0
 12 13  1  0  0  0  0
 12 38  1  0  0  0  0
 12 39  1  0  0  0  0
 13 14  2  0  0  0  0
 13 15  1  0  0  0  0
 15 16  1  0  0  0  0
 15 40  1  0  0  0  0
 16 17  1  0  0  0  0
 16 41  1  0  0  0  0
 16 42  1  0  0  0  0
 17 18  1  0  0  0  0
 17 43  1  0  0  0  0
 17 44  1  0  0  0  0
 18 23  1  0  0  0  0
 18 19  2  0  0  0  0
 19 20  1  0  0  0  0
 19 45  1  0  0  0  0
 20 21  2  0  0  0  0
 20 46  1  0  0  0  0
 21 22  1  0  0  0  0
 21 47  1  0  0  0  0
 22 23  2  0  0  0  0
 22 49  1  0  0  0  0
 23 48  1  0  0  0  0
 24 25  2  0  0  0  0
M  CHG  1   8  -1
M  CHG  1  22   1
M  END
> <s_m_source_file>
AV-unprocessed.smi

> <i_m_source_file_index>
837

> <i_lp_mmshare_version>
43012

> <i_f3d_flags>
0

> <s_epik_input>
W0NIMl0xW0NIMl1bQ0gyXVtDSDJdW0NAQEhdKFtDSDNdKVtDQEBdMTJbTkhdQyg9TylOKEMyPU8pW0NIMl1DKD1PKVtOSF1bQ0gyXVtDSDJdYzNbY0hdW2NIXVtjSF1uW2NIXTM=

> <s_epik_cmdline>
J2VwaWtfcHl0aG9uJywgJy1waCcsICc3LjAnLCAnLXRuJywgJzgnLCAnLW1hJywgJzIwMCcsICctbWV0YWxfYmluZGluZycsICctaW1hZScsICc8aW5maWxlLm1hZT4nLCAnLW9tYWUnLCAnPG91dGZpbGUubWFlPic=

> <r_lp_tautomer_probability>
1

> <r_epik_Ionization_Penalty>
8.27169

> <r_epik_Ionization_Penalty_Charging>
8.27169

> <r_epik_Ionization_Penalty_Neutral>
1.56557e-07

> <r_epik_State_Penalty>
8.42098

> <r_epik_Charging_Adjusted_Penalty>
16.6927

> <i_epik_Tot_Q>
0

> <i_epik_Tot_abs_Q>
2

> <r_epik_Metal_State_Penalty>
4.38565

> <b_epik_Metal_Only>
1

> <s_lp_Force_Field>
OPLS_2005

> <r_lp_Energy>
17.0357

> <b_lp_Chiralities_Consistent>
1

> <s_lp_Variant>
AV-unprocessed.smi:837-13

> <Gold.Version>
5.8.1

> <Gold.Id.Protein>
6NUR|6NUR_protein|mol2

> <Gold.PLP.Fitness>
50.3504

> <Gold.PLP.PLP>
-43.0367

> <Gold.PLP.part.hbond>
-4.5203

> <Gold.PLP.part.metal>
0.0000

> <Gold.PLP.part.buried>
-3.9298

> <Gold.PLP.part.nonpolar>
-34.4207

> <Gold.PLP.part.repulsive>
0.1066

> <Gold.PLP.ligand.clash>
0.0000

> <Gold.PLP.ligand.torsion>
0.6617

> <Gold.PLP.Chemscore.Hbond>
2.8710

> <Gold.PLP.Chemscore.CHOScore>
0.0000

> <Gold.PLP.Chemscore.Metal>
0.0000

> <Gold.Chemscore.Hbonds>
donor molecule, donor type, donor heavy atom, donor atom, acceptor molecule, acceptor atom, score
      L1  H    15    40       P1  7948  0.18
      P1  H  7989  7998       L1    25  0.49
      P1  H  7997  8009       L1    25  0.89
      P1  H 10752 10764       L1    14  0.62

> <Gold.PLP.Chemscore.Internal.Correction>
0.0240

> <Gold.Rescore>
     Score         DG    S(hbond)    S(metal)    S(lipo)     H(rot)  DE(clash)    DE(int)     intcor
     18.20     -20.10       2.26        0.00     102.51       1.92       0.20       1.70       ----

> <Gold.Chemscore.Fitness>
18.2024

> <Gold.Chemscore.DG>
-20.1022

> <Gold.Chemscore.ZeroCoef>
-5.4800

> <Gold.Chemscore.Hbond>
2.2567

> <Gold.Chemscore.Metal>
0.0000

> <Gold.Chemscore.Lipo>
102.5075

> <Gold.Chemscore.Internal_Hbond>
0.0000

> <Gold.Chemscore.DEClash>
0.2013

> <Gold.Chemscore.DEInternal>
1.6985

> <Gold.Chemscore.Rot>
1.9175

> <Gold.Chemscore.Internal.Correction>
   9.000000E+99

> <Gold.Chemscore.Hbonds>
donor molecule, donor type, donor heavy atom, donor atom, acceptor molecule, acceptor atom, score
      L1  H    15    40       P1  7948  0.17
      P1  H  7989  7998       L1    25  0.11
      P1  H  7997  8009       L1    25  0.82
      P1  H 10752 10764       L1    14  0.41

> <Gold.Chemscore.Hbond.Weighted>
-7.5375

> <Gold.Chemscore.Metal.Weighted>
-0.0000

> <Gold.Chemscore.Lipo.Weighted>
-11.9934

> <Gold.Chemscore.Internal_Hbond.Weighted>
0.0000

> <Gold.Chemscore.DEClash.Weighted>
0.2013

> <Gold.Chemscore.DEInternal.Weighted>
1.6985

> <Gold.Chemscore.Rot.Weighted>
4.9087

> <Gold.Chemscore.Internal.Correction.Weighted>
   9.000000E+99

> <Gold.Protein.RotatedTorsions>
[ 6907 6896 6895 6894 ] final -151.78 input  -60.11 | X-H torsion
[ 7974 7965 7964 7962 ] final  134.09 input  175.53 | X-H torsion
[ 8008 7997 7996 7995 ] final -140.22 input   59.86 | X-H torsion
[ 10167 10162 10161 10158 ] final  -48.12 input  -65.29 | X-H torsion
[ 10718 10713 10712 10709 ] final   60.83 input   66.30 | X-H torsion
[ 10763 10752 10751 10750 ] final  -49.85 input  -60.55 | X-H torsion
[ 11005 11000 10999 10996 ] final   76.16 input  -57.11 | X-H torsion

> <Gold.Protein.ActiveResidues>
 VAL166  LYS551  ARG553  GLY616  TRP617  ASP618  TYR619  PRO620  LYS621  CYS622 
 ASP623  PHE694  ASN695  SER759  ASP760  ASP761  ALA762  ILE779  LEU786  VAL792 
 PHE793  MET794  SER795  GLU796  ALA797  LYS798  CYS799  TRP800  GLU811  SER814 

> <Gold.Protein.RotatedAtoms>
  151.2182  133.4517  159.2599 H   0  0  0  0  0  0  0  0  0  0  0  0  # atno 6907 bound_to 6896
  151.0910  134.9916  159.8413 H   0  0  0  0  0  0  0  0  0  0  0  0  # atno 6908 bound_to 6896
  152.5434  134.2115  159.8805 H   0  0  0  0  0  0  0  0  0  0  0  0  # atno 6909 bound_to 6896
  144.9799  139.4516  143.5391 H   0  0  0  0  0  0  0  0  0  0  0  0  # atno 7974 bound_to 7965
  155.4578  140.0543  157.2994 H   0  0  0  0  0  0  0  0  0  0  0  0  # atno 8008 bound_to 7997
  154.4750  140.2057  155.9856 H   0  0  0  0  0  0  0  0  0  0  0  0  # atno 8009 bound_to 7997
  156.1117  140.3203  155.8087 H   0  0  0  0  0  0  0  0  0  0  0  0  # atno 8010 bound_to 7997
  140.6745  143.2754  151.4026 H   0  0  0  0  0  0  0  0  0  0  0  0  # atno 10167 bound_to 10162
  157.5782  130.8960  149.9384 H   0  0  0  0  0  0  0  0  0  0  0  0  # atno 10718 bound_to 10713
  154.1008  135.6563  153.4868 H   0  0  0  0  0  0  0  0  0  0  0  0  # atno 10763 bound_to 10752
  153.0289  135.5224  154.7288 H   0  0  0  0  0  0  0  0  0  0  0  0  # atno 10764 bound_to 10752
  154.6440  135.2992  155.0038 H   0  0  0  0  0  0  0  0  0  0  0  0  # atno 10765 bound_to 10752
  139.9311  134.7577  156.1360 H   0  0  0  0  0  0  0  0  0  0  0  0  # atno 11005 bound_to 11000
  146.3405  139.9065  142.8786 LP  0  0  0  0  0  0  0  0  0  0  0  0  # atno 17320 bound_to 7965
  145.2436  141.0018  143.3921 LP  0  0  0  0  0  0  0  0  0  0  0  0  # atno 17321 bound_to 7965
  139.6030  144.1256  152.2218 LP  0  0  0  0  0  0  0  0  0  0  0  0  # atno 17342 bound_to 10162
  140.0646  144.5828  150.7237 LP  0  0  0  0  0  0  0  0  0  0  0  0  # atno 17343 bound_to 10162
  156.0827  130.3671  150.0548 LP  0  0  0  0  0  0  0  0  0  0  0  0  # atno 17370 bound_to 10713
  156.8691  130.9518  151.3611 LP  0  0  0  0  0  0  0  0  0  0  0  0  # atno 17371 bound_to 10713
  141.0900  133.6718  156.2519 LP  0  0  0  0  0  0  0  0  0  0  0  0  # atno 17394 bound_to 11000
  140.6200  134.5371  157.5546 LP  0  0  0  0  0  0  0  0  0  0  0  0  # atno 17395 bound_to 11000

$$$$
