AV-unprocessed.smi:527|AV-procd|sdf|2816|dock1
  -GOLD-   2262023293D 1   1.00000     0.00000
 Structure written by MMmdl.
 42 43  0  0  0  0  0  0  0  0  1 V2000
  149.8630  141.0919  156.2792 C   0  0  0  0  0  0  0  0  0  0  0  0
  148.6801  140.6158  155.4197 C   0  0  1  0  0  0  0  0  0  0  0  0
  148.3955  141.5830  154.2525 C   0  0  0  0  0  0  0  0  0  0  0  0
  147.1532  141.1545  153.4555 C   0  0  0  0  0  0  0  0  0  0  0  0
  147.2650  139.7010  152.9708 C   0  0  0  0  0  0  0  0  0  0  0  0
  147.5415  138.7434  154.1456 C   0  0  1  0  0  0  0  0  0  0  0  0
  147.6047  137.3663  153.6604 N   0  0  0  0  0  0  0  0  0  0  0  0
  146.7172  136.4015  153.9434 C   0  0  0  0  0  0  0  0  0  0  0  0
  145.8515  136.5109  154.8145 O   0  0  0  0  0  0  0  0  0  0  0  0
  146.9114  135.3241  153.1592 N   0  0  0  0  0  0  0  0  0  0  0  0
  146.1261  134.2323  153.0526 C   0  0  0  0  0  0  0  0  0  0  0  0
  145.0683  134.0544  153.6594 O   0  0  0  0  0  0  0  0  0  0  0  0
  146.6268  133.1509  152.0943 C   0  0  0  0  0  0  0  0  0  0  0  0
  145.5914  132.7769  151.1497 N   0  0  0  0  0  0  0  0  0  0  0  0
  144.2441  133.1103  151.2065 C   0  0  0  0  0  0  0  0  0  0  0  0
  143.6482  132.5277  150.1107 C   0  0  0  0  0  0  0  0  0  0  0  0
  144.6037  131.8352  149.3704 N   0  0  0  0  0  0  0  0  0  0  0  0
  145.7287  132.0282  150.0462 C   0  0  0  0  0  0  0  0  0  0  0  0
  148.8202  139.1502  154.9280 C   0  0  1  0  0  0  0  0  0  0  0  0
  150.1252  138.8839  154.1417 C   0  0  0  0  0  0  0  0  0  0  0  0
  150.7735  141.2026  155.6906 H   0  0  0  0  0  0  0  0  0  0  0  0
  150.0677  140.3925  157.0899 H   0  0  0  0  0  0  0  0  0  0  0  0
  149.6493  142.0618  156.7292 H   0  0  0  0  0  0  0  0  0  0  0  0
  147.8059  140.6433  156.0723 H   0  0  0  0  0  0  0  0  0  0  0  0
  148.2453  142.5926  154.6362 H   0  0  0  0  0  0  0  0  0  0  0  0
  149.2589  141.6370  153.5887 H   0  0  0  0  0  0  0  0  0  0  0  0
  146.2671  141.2592  154.0829 H   0  0  0  0  0  0  0  0  0  0  0  0
  147.0081  141.8211  152.6052 H   0  0  0  0  0  0  0  0  0  0  0  0
  146.3402  139.4158  152.4678 H   0  0  0  0  0  0  0  0  0  0  0  0
  148.0548  139.6230  152.2230 H   0  0  0  0  0  0  0  0  0  0  0  0
  146.6899  138.8209  154.8248 H   0  0  0  0  0  0  0  0  0  0  0  0
  148.3914  137.1316  153.0732 H   0  0  0  0  0  0  0  0  0  0  0  0
  147.7449  135.3296  152.5903 H   0  0  0  0  0  0  0  0  0  0  0  0
  147.4961  133.5121  151.5430 H   0  0  0  0  0  0  0  0  0  0  0  0
  146.9422  132.2662  152.6493 H   0  0  0  0  0  0  0  0  0  0  0  0
  143.8321  133.7148  152.0014 H   0  0  0  0  0  0  0  0  0  0  0  0
  142.6137  132.5523  149.8019 H   0  0  0  0  0  0  0  0  0  0  0  0
  146.6750  131.6111  149.7339 H   0  0  0  0  0  0  0  0  0  0  0  0
  148.8671  138.5201  155.8175 H   0  0  0  0  0  0  0  0  0  0  0  0
  150.1901  139.4874  153.2372 H   0  0  0  0  0  0  0  0  0  0  0  0
  150.2081  137.8386  153.8445 H   0  0  0  0  0  0  0  0  0  0  0  0
  151.0062  139.1001  154.7450 H   0  0  0  0  0  0  0  0  0  0  0  0
  1  2  1  0  0  0  0
  1 21  1  0  0  0  0
  1 22  1  0  0  0  0
  1 23  1  0  0  0  0
  2 19  1  0  0  0  0
  2  3  1  0  0  0  0
  2 24  1  0  0  0  0
  3  4  1  0  0  0  0
  3 25  1  0  0  0  0
  3 26  1  0  0  0  0
  4  5  1  0  0  0  0
  4 27  1  0  0  0  0
  4 28  1  0  0  0  0
  5  6  1  0  0  0  0
  5 29  1  0  0  0  0
  5 30  1  0  0  0  0
  6  7  1  0  0  0  0
  6 19  1  0  0  0  0
  6 31  1  0  0  0  0
  7  8  1  0  0  0  0
  7 32  1  0  0  0  0
  8  9  2  0  0  0  0
  8 10  1  0  0  0  0
 10 11  1  0  0  0  0
 10 33  1  0  0  0  0
 11 12  2  0  0  0  0
 11 13  1  0  0  0  0
 13 14  1  0  0  0  0
 13 34  1  0  0  0  0
 13 35  1  0  0  0  0
 14 18  1  0  0  0  0
 14 15  1  0  0  0  0
 15 16  2  0  0  0  0
 15 36  1  0  0  0  0
 16 17  1  0  0  0  0
 16 37  1  0  0  0  0
 17 18  2  0  0  0  0
 18 38  1  0  0  0  0
 19 20  1  0  0  0  0
 19 39  1  0  0  0  0
 20 40  1  0  0  0  0
 20 41  1  0  0  0  0
 20 42  1  0  0  0  0
M  END
> <s_m_source_file>
AV-unprocessed.smi

> <i_m_source_file_index>
527

> <i_lp_mmshare_version>
43012

> <i_f3d_flags>
0

> <s_epik_input>
W0NIM11bQ0BASF0xW0NIMl1bQ0gyXVtDSDJdW0NASF0oW0NASF0xW0NIM10pW05IXUMoPU8pW05IXUMoPU8pW0NIMl1uMltjSF1bY0hdbltjSF0y

> <s_epik_cmdline>
J2VwaWtfcHl0aG9uJywgJy1waCcsICc3LjAnLCAnLXRuJywgJzgnLCAnLW1hJywgJzIwMCcsICctbWV0YWxfYmluZGluZycsICctaW1hZScsICc8aW5maWxlLm1hZT4nLCAnLW9tYWUnLCAnPG91dGZpbGUubWFlPic=

> <r_lp_tautomer_probability>
1

> <r_epik_Ionization_Penalty>
0.172132

> <r_epik_Ionization_Penalty_Charging>
0.172105

> <r_epik_Ionization_Penalty_Neutral>
2.71747e-05

> <r_epik_State_Penalty>
0.161503

> <r_epik_Charging_Adjusted_Penalty>
0.333607

> <i_epik_Tot_Q>
0

> <i_epik_Tot_abs_Q>
0

> <r_epik_Metal_State_Penalty>
0.124763

> <b_epik_Metal_Only>
0

> <s_lp_Force_Field>
OPLS_2005

> <r_lp_Energy>
16.646

> <b_lp_Chiralities_Consistent>
1

> <s_lp_Variant>
AV-unprocessed.smi:527-2

> <Gold.Version>
5.8.1

> <Gold.Id.Protein>
6NUR|6NUR_protein|mol2

> <Gold.PLP.Fitness>
46.0118

> <Gold.PLP.PLP>
-31.9651

> <Gold.PLP.part.hbond>
-3.0000

> <Gold.PLP.part.metal>
0.0000

> <Gold.PLP.part.buried>
-2.6933

> <Gold.PLP.part.nonpolar>
-27.1310

> <Gold.PLP.part.repulsive>
0.2868

> <Gold.PLP.ligand.clash>
0.0000

> <Gold.PLP.ligand.torsion>
0.2680

> <Gold.PLP.Chemscore.Hbond>
2.2998

> <Gold.PLP.Chemscore.CHOScore>
2.5297

> <Gold.PLP.Chemscore.Metal>
0.0000

> <Gold.Chemscore.Hbonds>
donor molecule, donor type, donor heavy atom, donor atom, acceptor molecule, acceptor atom, score
      L1  H     7    32       P1  7948  0.96
      L1  H    10    33       P1  7948  0.99
      P1  H 10785 10796       L1    17  0.14
      L1  C    16    37       P1 10186  1.00
      L1  C    16    37       P1 10952  0.21
      L1  C    18    38       P1 10747  1.00

> <Gold.PLP.Chemscore.Internal.Correction>
0.0941

> <Gold.Rescore>
     Score         DG    S(hbond)    S(metal)    S(lipo)     H(rot)  DE(clash)    DE(int)     intcor
     13.21     -15.77       1.88        0.00      70.59       1.66       0.06       2.50       ----

> <Gold.Chemscore.Fitness>
13.2092

> <Gold.Chemscore.DG>
-15.7729

> <Gold.Chemscore.ZeroCoef>
-5.4800

> <Gold.Chemscore.Hbond>
1.8836

> <Gold.Chemscore.Metal>
0.0000

> <Gold.Chemscore.Lipo>
70.5862

> <Gold.Chemscore.Internal_Hbond>
0.0000

> <Gold.Chemscore.DEClash>
0.0635

> <Gold.Chemscore.DEInternal>
2.5002

> <Gold.Chemscore.Rot>
1.6629

> <Gold.Chemscore.Internal.Correction>
   9.000000E+99

> <Gold.Chemscore.Hbonds>
donor molecule, donor type, donor heavy atom, donor atom, acceptor molecule, acceptor atom, score
      L1  H     7    32       P1  7948  0.91
      L1  H    10    33       P1  7948  0.93
      P1  H 10785 10796       L1    17  0.02

> <Gold.Chemscore.Hbond.Weighted>
-6.2912

> <Gold.Chemscore.Metal.Weighted>
-0.0000

> <Gold.Chemscore.Lipo.Weighted>
-8.2586

> <Gold.Chemscore.Internal_Hbond.Weighted>
0.0000

> <Gold.Chemscore.DEClash.Weighted>
0.0635

> <Gold.Chemscore.DEInternal.Weighted>
2.5002

> <Gold.Chemscore.Rot.Weighted>
4.2569

> <Gold.Chemscore.Internal.Correction.Weighted>
   9.000000E+99

> <Gold.Protein.RotatedTorsions>
[ 6907 6896 6895 6894 ] final  113.81 input  -60.11 | X-H torsion
[ 7974 7965 7964 7962 ] final   71.02 input  175.53 | X-H torsion
[ 8008 7997 7996 7995 ] final  104.60 input   59.86 | X-H torsion
[ 10167 10162 10161 10158 ] final  -16.30 input  -65.29 | X-H torsion
[ 10718 10713 10712 10709 ] final  -56.67 input   66.30 | X-H torsion
[ 10763 10752 10751 10750 ] final   57.60 input  -60.55 | X-H torsion
[ 11005 11000 10999 10996 ] final  152.63 input  -57.11 | X-H torsion

> <Gold.Protein.ActiveResidues>
 VAL166  LYS551  ARG553  GLY616  TRP617  ASP618  TYR619  PRO620  LYS621  CYS622 
 ASP623  PHE694  ASN695  SER759  ASP760  ASP761  ALA762  ILE779  LEU786  VAL792 
 PHE793  MET794  SER795  GLU796  ALA797  LYS798  CYS799  TRP800  GLU811  SER814 

> <Gold.Protein.RotatedAtoms>
  152.4839  133.8323  159.7109 H   0  0  0  0  0  0  0  0  0  0  0  0  # atno 6907 bound_to 6896
  150.8910  133.7234  159.2911 H   0  0  0  0  0  0  0  0  0  0  0  0  # atno 6908 bound_to 6896
  151.4707  135.1049  159.9803 H   0  0  0  0  0  0  0  0  0  0  0  0  # atno 6909 bound_to 6896
  145.7710  139.2843  143.1321 H   0  0  0  0  0  0  0  0  0  0  0  0  # atno 7974 bound_to 7965
  156.1587  140.3145  155.8770 H   0  0  0  0  0  0  0  0  0  0  0  0  # atno 8008 bound_to 7997
  155.3826  140.0488  157.3060 H   0  0  0  0  0  0  0  0  0  0  0  0  # atno 8009 bound_to 7997
  154.5126  140.2170  155.9139 H   0  0  0  0  0  0  0  0  0  0  0  0  # atno 8010 bound_to 7997
  140.7232  143.5130  150.9727 H   0  0  0  0  0  0  0  0  0  0  0  0  # atno 10167 bound_to 10162
  156.1270  130.4162  150.0336 H   0  0  0  0  0  0  0  0  0  0  0  0  # atno 10718 bound_to 10713
  152.9853  135.5636  154.5417 H   0  0  0  0  0  0  0  0  0  0  0  0  # atno 10763 bound_to 10752
  154.4870  135.2791  155.1528 H   0  0  0  0  0  0  0  0  0  0  0  0  # atno 10764 bound_to 10752
  154.3013  135.6307  153.5479 H   0  0  0  0  0  0  0  0  0  0  0  0  # atno 10765 bound_to 10752
  140.1325  134.8792  157.2223 H   0  0  0  0  0  0  0  0  0  0  0  0  # atno 11005 bound_to 11000
  146.0170  140.8383  142.9942 LP  0  0  0  0  0  0  0  0  0  0  0  0  # atno 17320 bound_to 7965
  144.6813  140.2573  143.7323 LP  0  0  0  0  0  0  0  0  0  0  0  0  # atno 17321 bound_to 7965
  139.8844  143.7031  152.3153 LP  0  0  0  0  0  0  0  0  0  0  0  0  # atno 17342 bound_to 10162
  139.7325  144.7579  151.0779 LP  0  0  0  0  0  0  0  0  0  0  0  0  # atno 17343 bound_to 10162
  156.8259  130.9375  151.3639 LP  0  0  0  0  0  0  0  0  0  0  0  0  # atno 17370 bound_to 10713
  157.6451  130.8838  149.9523 LP  0  0  0  0  0  0  0  0  0  0  0  0  # atno 17371 bound_to 10713
  140.2824  134.3334  155.7339 LP  0  0  0  0  0  0  0  0  0  0  0  0  # atno 17394 bound_to 11000
  141.2172  133.7486  156.9383 LP  0  0  0  0  0  0  0  0  0  0  0  0  # atno 17395 bound_to 11000

$$$$
