AV-unprocessed.smi:158|AV-procd|sdf|1337|dock7
  -GOLD-   2262019 33D 1   1.00000     0.00000
 Structure written by MMmdl.
 31 33  0  0  0  0  0  0  0  0  1 V2000
  150.2434  133.1255  155.9366 N   0  0  0  0  0  0  0  0  0  0  0  0
  149.5428  132.4923  154.9854 C   0  0  0  0  0  0  0  0  0  0  0  0
  149.7346  131.1623  154.8223 N   0  0  0  0  0  0  0  0  0  0  0  0
  149.0547  130.4914  153.8839 C   0  0  0  0  0  0  0  0  0  0  0  0
  149.3772  128.8018  153.7629 Cl  0  0  0  0  0  0  0  0  0  0  0  0
  148.1537  130.9840  153.0276 N   0  0  0  0  0  0  0  0  0  0  0  0
  147.9597  132.3248  153.1887 C   0  0  0  0  0  0  0  0  0  0  0  0
  148.6125  133.1488  154.1433 C   0  0  0  0  0  0  0  0  0  0  0  0
  148.1662  134.4582  154.0225 N   0  0  0  0  0  0  0  0  0  0  0  0
  147.2960  134.4047  153.0491 C   0  0  0  0  0  0  0  0  0  0  0  0
  147.1170  133.1603  152.4858 N   0  0  0  0  0  0  0  0  0  0  0  0
  146.1982  132.7770  151.3742 C   0  0  2  0  0  0  0  0  0  0  0  0
  145.7040  133.9455  150.8034 O   0  0  0  0  0  0  0  0  0  0  0  0
  144.3851  133.7253  150.3162 C   0  0  1  0  0  0  0  0  0  0  0  0
  144.4606  133.1972  148.8695 C   0  0  0  0  0  0  0  0  0  0  0  0
  143.3505  133.6566  148.1284 O   0  0  0  0  0  0  0  0  0  0  0  0
  143.7977  132.6969  151.2960 C   0  0  2  0  0  0  0  0  0  0  0  0
  143.0539  133.3446  152.3094 O   0  0  0  0  0  0  0  0  0  0  0  0
  145.0001  131.9715  151.8907 C   0  0  1  0  0  0  0  0  0  0  0  0
  145.0742  130.7282  151.4140 F   0  0  0  0  0  0  0  0  0  0  0  0
  146.8167  132.2302  150.6611 H   0  0  0  0  0  0  0  0  0  0  0  0
  143.8122  134.6543  150.3353 H   0  0  0  0  0  0  0  0  0  0  0  0
  143.1181  132.0055  150.7961 H   0  0  0  0  0  0  0  0  0  0  0  0
  144.9783  131.9156  152.9806 H   0  0  0  0  0  0  0  0  0  0  0  0
  150.1180  134.1177  156.0771 H   0  0  0  0  0  0  0  0  0  0  0  0
  150.8954  132.6100  156.5102 H   0  0  0  0  0  0  0  0  0  0  0  0
  146.7589  135.2793  152.7115 H   0  0  0  0  0  0  0  0  0  0  0  0
  145.3891  133.4839  148.3756 H   0  0  0  0  0  0  0  0  0  0  0  0
  144.4184  132.1078  148.8635 H   0  0  0  0  0  0  0  0  0  0  0  0
  142.7933  134.1611  148.7009 H   0  0  0  0  0  0  0  0  0  0  0  0
  142.9485  132.7478  153.0345 H   0  0  0  0  0  0  0  0  0  0  0  0
  1  2  1  0  0  0  0
  1 25  1  0  0  0  0
  1 26  1  0  0  0  0
  2  8  1  0  0  0  0
  2  3  2  0  0  0  0
  3  4  1  0  0  0  0
  4  5  1  0  0  0  0
  4  6  2  0  0  0  0
  6  7  1  0  0  0  0
  7 11  1  0  0  0  0
  7  8  2  0  0  0  0
  8  9  1  0  0  0  0
  9 10  2  0  0  0  0
 10 11  1  0  0  0  0
 10 27  1  0  0  0  0
 11 12  1  0  0  0  0
 12 21  1  0  0  0  0
 12 19  1  0  0  0  0
 12 13  1  0  0  0  0
 13 14  1  0  0  0  0
 14 22  1  0  0  0  0
 14 15  1  0  0  0  0
 14 17  1  0  0  0  0
 15 16  1  0  0  0  0
 15 28  1  0  0  0  0
 15 29  1  0  0  0  0
 16 30  1  0  0  0  0
 17 23  1  0  0  0  0
 17 18  1  0  0  0  0
 17 19  1  0  0  0  0
 18 31  1  0  0  0  0
 19 24  1  0  0  0  0
 19 20  1  0  0  0  0
M  END
> <s_m_source_file>
AV-unprocessed.smi

> <i_m_source_file_index>
158

> <i_lp_mmshare_version>
43012

> <i_f3d_flags>
0

> <s_epik_input>
Q2xjKG4xKW5jKFtOSDJdKWMoYzEyKW5bY0hdbjJbQ0BASF0zT1tDQEhdKFtDSDJdW09IXSlbQ0BASF0oW09IXSlbQ0BASF0zRg==

> <s_epik_cmdline>
J2VwaWtfcHl0aG9uJywgJy1waCcsICc3LjAnLCAnLXRuJywgJzgnLCAnLW1hJywgJzIwMCcsICctbWV0YWxfYmluZGluZycsICctaW1hZScsICc8aW5maWxlLm1hZT4nLCAnLW9tYWUnLCAnPG91dGZpbGUubWFlPic=

> <r_lp_tautomer_probability>
1

> <r_epik_Ionization_Penalty>
6.51543e-05

> <r_epik_Ionization_Penalty_Charging>
0

> <r_epik_Ionization_Penalty_Neutral>
6.51543e-05

> <r_epik_State_Penalty>
-0

> <r_epik_Charging_Adjusted_Penalty>
0

> <i_epik_Tot_Q>
0

> <i_epik_Tot_abs_Q>
0

> <r_epik_Metal_State_Penalty>
-0

> <b_epik_Metal_Only>
0

> <s_epik_Chemistry_Notes>
This compound contains an acetal/aminal-like group ( X-CH(R)-Y where X, Y are N, S, or O) that may be acid/base labile, releasing an aldehyde.

> <s_lp_Force_Field>
OPLS_2005

> <r_lp_Energy>
33.5879

> <b_lp_Chiralities_Consistent>
1

> <s_lp_Variant>
AV-unprocessed.smi:158-15

> <Gold.Version>
5.8.1

> <Gold.Id.Protein>
6NUR|6NUR_protein|mol2

> <Gold.PLP.Fitness>
34.9365

> <Gold.PLP.PLP>
-29.9208

> <Gold.PLP.part.hbond>
-4.2341

> <Gold.PLP.part.metal>
0.0000

> <Gold.PLP.part.buried>
-0.9352

> <Gold.PLP.part.nonpolar>
-27.0215

> <Gold.PLP.part.repulsive>
3.1175

> <Gold.PLP.ligand.clash>
0.0000

> <Gold.PLP.ligand.torsion>
0.7178

> <Gold.PLP.Chemscore.Hbond>
1.9920

> <Gold.PLP.Chemscore.CHOScore>
0.1542

> <Gold.PLP.Chemscore.Metal>
0.0000

> <Gold.Chemscore.Hbonds>
donor molecule, donor type, donor heavy atom, donor atom, acceptor molecule, acceptor atom, score
      L1  H    16    30       P1 10186  0.98
      L1  H    18    31       P1 10957  1.00
      L1  C    10    27       P1  7948  0.17

> <Gold.PLP.Chemscore.Internal.Correction>
0.0128

> <Gold.Rescore>
     Score         DG    S(hbond)    S(metal)    S(lipo)     H(rot)  DE(clash)    DE(int)     intcor
      6.65      -7.63       1.81        0.00      34.89       3.12       0.33       0.65       ----

> <Gold.Chemscore.Fitness>
6.6545

> <Gold.Chemscore.DG>
-7.6284

> <Gold.Chemscore.ZeroCoef>
-5.4800

> <Gold.Chemscore.Hbond>
1.8146

> <Gold.Chemscore.Metal>
0.0000

> <Gold.Chemscore.Lipo>
34.8926

> <Gold.Chemscore.Internal_Hbond>
0.0000

> <Gold.Chemscore.DEClash>
0.3271

> <Gold.Chemscore.DEInternal>
0.6468

> <Gold.Chemscore.Rot>
3.1230

> <Gold.Chemscore.Internal.Correction>
   9.000000E+99

> <Gold.Chemscore.Hbonds>
donor molecule, donor type, donor heavy atom, donor atom, acceptor molecule, acceptor atom, score
      L1  H    16    30       P1 10186  0.91
      L1  H    18    31       P1 10957  0.29

> <Gold.Chemscore.Hbond.Weighted>
-6.0609

> <Gold.Chemscore.Metal.Weighted>
-0.0000

> <Gold.Chemscore.Lipo.Weighted>
-4.0824

> <Gold.Chemscore.Internal_Hbond.Weighted>
0.0000

> <Gold.Chemscore.DEClash.Weighted>
0.3271

> <Gold.Chemscore.DEInternal.Weighted>
0.6468

> <Gold.Chemscore.Rot.Weighted>
7.9950

> <Gold.Chemscore.Internal.Correction.Weighted>
   9.000000E+99

> <Gold.Protein.RotatedTorsions>
[ 6907 6896 6895 6894 ] final  173.15 input  -60.11 | X-H torsion
[ 7974 7965 7964 7962 ] final  -16.32 input  175.53 | X-H torsion
[ 8008 7997 7996 7995 ] final -109.67 input   59.86 | X-H torsion
[ 10167 10162 10161 10158 ] final -176.81 input  -65.29 | X-H torsion
[ 10718 10713 10712 10709 ] final  -79.43 input   66.30 | X-H torsion
[ 10763 10752 10751 10750 ] final   62.52 input  -60.55 | X-H torsion
[ 11005 11000 10999 10996 ] final  -75.74 input  -57.11 | X-H torsion

> <Gold.Protein.ActiveResidues>
 VAL166  LYS551  ARG553  GLY616  TRP617  ASP618  TYR619  PRO620  LYS621  CYS622 
 ASP623  PHE694  ASN695  SER759  ASP760  ASP761  ALA762  ILE779  LEU786  VAL792 
 PHE793  MET794  SER795  GLU796  ALA797  LYS798  CYS799  TRP800  GLU811  SER814 

> <Gold.Protein.RotatedAtoms>
  151.7729  133.3343  159.3449 H   0  0  0  0  0  0  0  0  0  0  0  0  # atno 6907 bound_to 6896
  150.7455  134.6002  159.6042 H   0  0  0  0  0  0  0  0  0  0  0  0  # atno 6908 bound_to 6896
  152.3329  134.7238  160.0336 H   0  0  0  0  0  0  0  0  0  0  0  0  # atno 6909 bound_to 6896
  146.1993  140.3619  142.8429 H   0  0  0  0  0  0  0  0  0  0  0  0  # atno 7974 bound_to 7965
  154.9628  140.0399  157.2198 H   0  0  0  0  0  0  0  0  0  0  0  0  # atno 8008 bound_to 7997
  154.7873  140.2829  155.5996 H   0  0  0  0  0  0  0  0  0  0  0  0  # atno 8009 bound_to 7997
  156.2945  140.2580  156.2712 H   0  0  0  0  0  0  0  0  0  0  0  0  # atno 8010 bound_to 7997
  139.5511  144.2108  152.1078 H   0  0  0  0  0  0  0  0  0  0  0  0  # atno 10167 bound_to 10162
  156.0093  130.4545  150.3647 H   0  0  0  0  0  0  0  0  0  0  0  0  # atno 10718 bound_to 10713
  152.9986  135.5462  154.6207 H   0  0  0  0  0  0  0  0  0  0  0  0  # atno 10763 bound_to 10752
  154.5507  135.2826  155.1013 H   0  0  0  0  0  0  0  0  0  0  0  0  # atno 10764 bound_to 10752
  154.2255  135.6443  153.5211 H   0  0  0  0  0  0  0  0  0  0  0  0  # atno 10765 bound_to 10752
  141.1648  133.6958  156.7563 H   0  0  0  0  0  0  0  0  0  0  0  0  # atno 11005 bound_to 11000
  144.8648  140.7190  143.6084 LP  0  0  0  0  0  0  0  0  0  0  0  0  # atno 17320 bound_to 7965
  145.3538  139.1699  143.4420 LP  0  0  0  0  0  0  0  0  0  0  0  0  # atno 17321 bound_to 7965
  140.1603  144.5032  150.6636 LP  0  0  0  0  0  0  0  0  0  0  0  0  # atno 17342 bound_to 10162
  140.6773  143.2311  151.5474 LP  0  0  0  0  0  0  0  0  0  0  0  0  # atno 17343 bound_to 10162
  157.1734  131.0374  151.2784 LP  0  0  0  0  0  0  0  0  0  0  0  0  # atno 17370 bound_to 10713
  157.4209  130.7437  149.6913 LP  0  0  0  0  0  0  0  0  0  0  0  0  # atno 17371 bound_to 10713
  140.2567  134.8499  157.3719 LP  0  0  0  0  0  0  0  0  0  0  0  0  # atno 17394 bound_to 11000
  140.1651  134.4680  155.7869 LP  0  0  0  0  0  0  0  0  0  0  0  0  # atno 17395 bound_to 11000

$$$$
