AV-unprocessed.smi:462|AV-procd|sdf|2632|dock1
  -GOLD-   2262023 43D 1   1.00000     0.00000
 Structure written by MMmdl.
 46 48  0  0  0  0  0  0  0  0  1 V2000
  155.8268  140.0188  165.0016 C   0  0  0  0  0  0  0  0  0  0  0  0
  155.5254  140.0260  163.6145 O   0  0  0  0  0  0  0  0  0  0  0  0
  155.0147  138.8761  163.0478 C   0  0  0  0  0  0  0  0  0  0  0  0
  154.8363  137.6615  163.7570 C   0  0  0  0  0  0  0  0  0  0  0  0
  154.3071  136.5292  163.1110 C   0  0  0  0  0  0  0  0  0  0  0  0
  153.9520  136.5963  161.7528 C   0  0  0  0  0  0  0  0  0  0  0  0
  154.1251  137.7962  161.0394 C   0  0  0  0  0  0  0  0  0  0  0  0
  154.6556  138.9427  161.6822 C   0  0  0  0  0  0  0  0  0  0  0  0
  154.8520  140.1514  161.0506 O   0  0  0  0  0  0  0  0  0  0  0  0
  154.3973  140.3126  159.7148 C   0  0  0  0  0  0  0  0  0  0  0  0
  152.8666  140.1718  159.6941 C   0  0  0  0  0  0  0  0  0  0  0  0
  152.2144  141.3127  159.0594 N   0  0  0  0  0  0  0  0  0  0  0  0
  151.5481  141.3911  157.8689 C   0  0  0  0  0  0  0  0  0  0  0  0
  151.3994  140.2426  156.8850 C   0  0  0  0  0  0  0  0  0  0  0  0
  150.6309  139.0558  157.5042 C   0  0  0  0  0  0  0  0  0  0  0  0
  150.7009  140.7214  155.6014 C   0  0  0  0  0  0  0  0  0  0  0  0
  152.6328  139.6641  156.5053 O   0  0  0  0  0  0  0  0  0  0  0  0
  151.1316  142.6191  157.5427 N   0  0  0  0  0  0  0  0  0  0  0  0
  151.4906  143.3819  158.6326 C   0  0  0  0  0  0  0  0  0  0  0  0
  151.2900  144.7555  158.8976 C   0  0  0  0  0  0  0  0  0  0  0  0
  151.7599  145.3268  160.0981 C   0  0  0  0  0  0  0  0  0  0  0  0
  152.4395  144.5345  161.0453 C   0  0  0  0  0  0  0  0  0  0  0  0
  152.6535  143.1655  160.7957 C   0  0  0  0  0  0  0  0  0  0  0  0
  152.1746  142.5973  159.5989 C   0  0  0  0  0  0  0  0  0  0  0  0
  156.1994  141.0013  165.2916 H   0  0  0  0  0  0  0  0  0  0  0  0
  156.6024  139.2890  165.2376 H   0  0  0  0  0  0  0  0  0  0  0  0
  154.9398  139.8128  165.6021 H   0  0  0  0  0  0  0  0  0  0  0  0
  155.0981  137.5723  164.8003 H   0  0  0  0  0  0  0  0  0  0  0  0
  154.1737  135.6081  163.6588 H   0  0  0  0  0  0  0  0  0  0  0  0
  153.5465  135.7266  161.2572 H   0  0  0  0  0  0  0  0  0  0  0  0
  153.8434  137.8122  159.9975 H   0  0  0  0  0  0  0  0  0  0  0  0
  154.6803  141.2966  159.3388 H   0  0  0  0  0  0  0  0  0  0  0  0
  154.8517  139.5604  159.0692 H   0  0  0  0  0  0  0  0  0  0  0  0
  152.5934  139.2720  159.1421 H   0  0  0  0  0  0  0  0  0  0  0  0
  152.4694  140.0246  160.6969 H   0  0  0  0  0  0  0  0  0  0  0  0
  149.6131  139.3341  157.7798 H   0  0  0  0  0  0  0  0  0  0  0  0
  151.1266  138.6869  158.4034 H   0  0  0  0  0  0  0  0  0  0  0  0
  150.5524  138.2208  156.8067 H   0  0  0  0  0  0  0  0  0  0  0  0
  149.7107  141.1226  155.8205 H   0  0  0  0  0  0  0  0  0  0  0  0
  150.5745  139.9078  154.8862 H   0  0  0  0  0  0  0  0  0  0  0  0
  151.2707  141.5089  155.1073 H   0  0  0  0  0  0  0  0  0  0  0  0
  152.4589  138.8304  156.0964 H   0  0  0  0  0  0  0  0  0  0  0  0
  150.7719  145.3699  158.1762 H   0  0  0  0  0  0  0  0  0  0  0  0
  151.5989  146.3771  160.2922 H   0  0  0  0  0  0  0  0  0  0  0  0
  152.7962  144.9773  161.9636 H   0  0  0  0  0  0  0  0  0  0  0  0
  153.1713  142.5572  161.5223 H   0  0  0  0  0  0  0  0  0  0  0  0
  1  2  1  0  0  0  0
  1 25  1  0  0  0  0
  1 26  1  0  0  0  0
  1 27  1  0  0  0  0
  2  3  1  0  0  0  0
  3  8  1  0  0  0  0
  3  4  2  0  0  0  0
  4  5  1  0  0  0  0
  4 28  1  0  0  0  0
  5  6  2  0  0  0  0
  5 29  1  0  0  0  0
  6  7  1  0  0  0  0
  6 30  1  0  0  0  0
  7  8  2  0  0  0  0
  7 31  1  0  0  0  0
  8  9  1  0  0  0  0
  9 10  1  0  0  0  0
 10 11  1  0  0  0  0
 10 32  1  0  0  0  0
 10 33  1  0  0  0  0
 11 12  1  0  0  0  0
 11 34  1  0  0  0  0
 11 35  1  0  0  0  0
 12 24  1  0  0  0  0
 12 13  1  0  0  0  0
 13 14  1  0  0  0  0
 13 18  2  0  0  0  0
 14 15  1  0  0  0  0
 14 16  1  0  0  0  0
 14 17  1  0  0  0  0
 15 36  1  0  0  0  0
 15 37  1  0  0  0  0
 15 38  1  0  0  0  0
 16 39  1  0  0  0  0
 16 40  1  0  0  0  0
 16 41  1  0  0  0  0
 17 42  1  0  0  0  0
 18 19  1  0  0  0  0
 19 24  2  0  0  0  0
 19 20  1  0  0  0  0
 20 21  2  0  0  0  0
 20 43  1  0  0  0  0
 21 22  1  0  0  0  0
 21 44  1  0  0  0  0
 22 23  2  0  0  0  0
 22 45  1  0  0  0  0
 23 24  1  0  0  0  0
 23 46  1  0  0  0  0
M  END
> <s_m_source_file>
AV-unprocessed.smi

> <i_m_source_file_index>
462

> <i_lp_mmshare_version>
43012

> <i_f3d_flags>
0

> <s_epik_input>
W0NIM11PYzFbY0hdW2NIXVtjSF1bY0hdYzFPW0NIMl1bQ0gyXW4oYyhuMilDKFtDSDNdKShbQ0gzXSlbT0hdKWMoYzIzKVtjSF1bY0hdW2NIXVtjSF0z

> <s_epik_cmdline>
J2VwaWtfcHl0aG9uJywgJy1waCcsICc3LjAnLCAnLXRuJywgJzgnLCAnLW1hJywgJzIwMCcsICctbWV0YWxfYmluZGluZycsICctaW1hZScsICc8aW5maWxlLm1hZT4nLCAnLW9tYWUnLCAnPG91dGZpbGUubWFlPic=

> <r_lp_tautomer_probability>
1

> <r_epik_Ionization_Penalty>
0.0665975

> <r_epik_Ionization_Penalty_Charging>
0

> <r_epik_Ionization_Penalty_Neutral>
0.0665975

> <r_epik_State_Penalty>
0.0581545

> <r_epik_Charging_Adjusted_Penalty>
0.0581545

> <i_epik_Tot_Q>
0

> <i_epik_Tot_abs_Q>
0

> <r_epik_Metal_State_Penalty>
6.11011e-05

> <b_epik_Metal_Only>
0

> <s_lp_Force_Field>
OPLS_2005

> <r_lp_Energy>
19.5197

> <b_lp_Chiralities_Consistent>
1

> <s_lp_Variant>
AV-unprocessed.smi:462-1

> <Gold.Version>
5.8.1

> <Gold.Id.Protein>
6NUR|6NUR_protein|mol2

> <Gold.PLP.Fitness>
51.5482

> <Gold.PLP.PLP>
-49.4096

> <Gold.PLP.part.hbond>
-1.0000

> <Gold.PLP.part.metal>
0.0000

> <Gold.PLP.part.buried>
-7.2119

> <Gold.PLP.part.nonpolar>
-41.4433

> <Gold.PLP.part.repulsive>
0.0854

> <Gold.PLP.ligand.clash>
0.0000

> <Gold.PLP.ligand.torsion>
0.5387

> <Gold.PLP.Chemscore.Hbond>
1.0000

> <Gold.PLP.Chemscore.CHOScore>
0.0000

> <Gold.PLP.Chemscore.Metal>
0.0000

> <Gold.Chemscore.Hbonds>
donor molecule, donor type, donor heavy atom, donor atom, acceptor molecule, acceptor atom, score
      P1  H  7997  8009       L1    17  1.00

> <Gold.PLP.Chemscore.Internal.Correction>
0.2160

> <Gold.Rescore>
     Score         DG    S(hbond)    S(metal)    S(lipo)     H(rot)  DE(clash)    DE(int)     intcor
     18.76     -19.78       0.98        0.00     143.64       2.25       0.15       0.86       ----

> <Gold.Chemscore.Fitness>
18.7634

> <Gold.Chemscore.DG>
-19.7773

> <Gold.Chemscore.ZeroCoef>
-5.4800

> <Gold.Chemscore.Hbond>
0.9765

> <Gold.Chemscore.Metal>
0.0000

> <Gold.Chemscore.Lipo>
143.6420

> <Gold.Chemscore.Internal_Hbond>
0.0000

> <Gold.Chemscore.DEClash>
0.1507

> <Gold.Chemscore.DEInternal>
0.8632

> <Gold.Chemscore.Rot>
2.2541

> <Gold.Chemscore.Internal.Correction>
   9.000000E+99

> <Gold.Chemscore.Hbonds>
donor molecule, donor type, donor heavy atom, donor atom, acceptor molecule, acceptor atom, score
      P1  H  7997  8009       L1    17  0.88

> <Gold.Chemscore.Hbond.Weighted>
-3.2616

> <Gold.Chemscore.Metal.Weighted>
-0.0000

> <Gold.Chemscore.Lipo.Weighted>
-16.8061

> <Gold.Chemscore.Internal_Hbond.Weighted>
0.0000

> <Gold.Chemscore.DEClash.Weighted>
0.1507

> <Gold.Chemscore.DEInternal.Weighted>
0.8632

> <Gold.Chemscore.Rot.Weighted>
5.7705

> <Gold.Chemscore.Internal.Correction.Weighted>
   9.000000E+99

> <Gold.Protein.RotatedTorsions>
[ 6907 6896 6895 6894 ] final -153.98 input  -60.11 | X-H torsion
[ 7974 7965 7964 7962 ] final -156.95 input  175.53 | X-H torsion
[ 8008 7997 7996 7995 ] final -179.72 input   59.86 | X-H torsion
[ 10167 10162 10161 10158 ] final   99.95 input  -65.29 | X-H torsion
[ 10718 10713 10712 10709 ] final   -5.26 input   66.30 | X-H torsion
[ 10763 10752 10751 10750 ] final   39.36 input  -60.55 | X-H torsion
[ 11005 11000 10999 10996 ] final  112.53 input  -57.11 | X-H torsion

> <Gold.Protein.ActiveResidues>
 VAL166  LYS551  ARG553  GLY616  TRP617  ASP618  TYR619  PRO620  LYS621  CYS622 
 ASP623  PHE694  ASN695  SER759  ASP760  ASP761  ALA762  ILE779  LEU786  VAL792 
 PHE793  MET794  SER795  GLU796  ALA797  LYS798  CYS799  TRP800  GLU811  SER814 

> <Gold.Protein.RotatedAtoms>
  151.2506  133.4352  159.2611 H   0  0  0  0  0  0  0  0  0  0  0  0  # atno 6907 bound_to 6896
  151.0621  134.9743  159.8276 H   0  0  0  0  0  0  0  0  0  0  0  0  # atno 6908 bound_to 6896
  152.5400  134.2456  159.8931 H   0  0  0  0  0  0  0  0  0  0  0  0  # atno 6909 bound_to 6896
  144.7570  140.4038  143.6005 H   0  0  0  0  0  0  0  0  0  0  0  0  # atno 7974 bound_to 7965
  156.0338  140.1288  157.0230 H   0  0  0  0  0  0  0  0  0  0  0  0  # atno 8008 bound_to 7997
  154.4361  140.1044  156.6208 H   0  0  0  0  0  0  0  0  0  0  0  0  # atno 8009 bound_to 7997
  155.5768  140.3467  155.4532 H   0  0  0  0  0  0  0  0  0  0  0  0  # atno 8010 bound_to 7997
  139.7571  144.6966  151.0346 H   0  0  0  0  0  0  0  0  0  0  0  0  # atno 10167 bound_to 10162
  156.7492  130.5234  149.5807 H   0  0  0  0  0  0  0  0  0  0  0  0  # atno 10718 bound_to 10713
  152.9970  135.6222  154.2453 H   0  0  0  0  0  0  0  0  0  0  0  0  # atno 10763 bound_to 10752
  154.2193  135.2796  155.2932 H   0  0  0  0  0  0  0  0  0  0  0  0  # atno 10764 bound_to 10752
  154.5542  135.5724  153.7007 H   0  0  0  0  0  0  0  0  0  0  0  0  # atno 10765 bound_to 10752
  139.8929  134.9531  156.6599 H   0  0  0  0  0  0  0  0  0  0  0  0  # atno 11005 bound_to 11000
  145.6746  139.1606  143.2735 LP  0  0  0  0  0  0  0  0  0  0  0  0  # atno 17320 bound_to 7965
  146.1591  140.6814  142.9286 LP  0  0  0  0  0  0  0  0  0  0  0  0  # atno 17321 bound_to 7965
  140.7804  143.4740  151.0107 LP  0  0  0  0  0  0  0  0  0  0  0  0  # atno 17342 bound_to 10162
  139.8427  143.7543  152.3180 LP  0  0  0  0  0  0  0  0  0  0  0  0  # atno 17343 bound_to 10162
  156.1413  130.6246  151.0470 LP  0  0  0  0  0  0  0  0  0  0  0  0  # atno 17370 bound_to 10713
  157.6785  131.0844  150.7433 LP  0  0  0  0  0  0  0  0  0  0  0  0  # atno 17371 bound_to 10713
  140.7455  133.8941  155.8309 LP  0  0  0  0  0  0  0  0  0  0  0  0  # atno 17394 bound_to 11000
  141.0043  134.1107  157.4286 LP  0  0  0  0  0  0  0  0  0  0  0  0  # atno 17395 bound_to 11000

$$$$
