AV-unprocessed.smi:1337|AV-procd|sdf|5498|dock3
  -GOLD-   22720 5 83D 1   1.00000     0.00000
 Structure written by MMmdl.
 38 39  0  0  0  0  0  0  0  0  1 V2000
  152.4816  140.0090  155.2334 O   0  0  0  0  0  0  0  0  0  0  0  0
  151.4136  139.5025  155.5804 C   0  0  0  0  0  0  0  0  0  0  0  0
  150.5619  138.7049  154.5825 C   0  0  0  0  0  0  0  0  0  0  0  0
  149.1925  139.2267  154.4432 N   0  0  0  0  0  0  0  0  0  0  0  0
  149.0440  140.5960  154.1657 C   0  0  0  0  0  0  0  0  0  0  0  0
  147.8277  141.1404  154.0179 C   0  0  0  0  0  0  0  0  0  0  0  0
  146.6836  140.2309  154.1619 C   0  0  0  0  0  0  0  0  0  0  0  0
  146.8155  138.9817  154.4119 N   0  0  0  0  0  0  0  0  0  0  0  0
  148.0940  138.4119  154.5631 C   0  0  0  0  0  0  0  0  0  0  0  0
  148.2283  137.2107  154.7972 O   0  0  0  0  0  0  0  0  0  0  0  0
  150.9125  139.6226  156.8190 N   0  0  0  0  0  0  0  0  0  0  0  0
  151.5562  140.3364  157.9153 C   0  0  0  0  0  0  0  0  0  0  0  0
  151.4422  141.8607  157.7399 C   0  0  0  0  0  0  0  0  0  0  0  0
  151.8487  142.6283  158.9871 C   0  0  0  0  0  0  0  0  0  0  0  0
  152.5511  142.0504  159.9812 C   0  0  0  0  0  0  0  0  0  0  0  0
  152.9701  142.7614  161.2560 C   0  0  0  0  0  0  0  0  0  0  0  0
  152.2218  144.0894  161.4582 C   0  0  0  0  0  0  0  0  0  0  0  0
  152.1431  144.8845  160.1489 C   0  0  0  0  0  0  0  0  0  0  0  0
  151.4142  144.0885  159.0514 C   0  0  0  0  0  0  0  0  0  0  0  0
  151.0562  138.6889  153.6092 H   0  0  0  0  0  0  0  0  0  0  0  0
  150.5415  137.6648  154.9107 H   0  0  0  0  0  0  0  0  0  0  0  0
  149.9628  141.1571  154.0767 H   0  0  0  0  0  0  0  0  0  0  0  0
  147.6434  142.1822  153.8009 H   0  0  0  0  0  0  0  0  0  0  0  0
  145.7007  140.6932  154.0404 H   0  0  0  0  0  0  0  0  0  0  0  0
  150.0258  139.1823  157.0177 H   0  0  0  0  0  0  0  0  0  0  0  0
  151.0756  140.0258  158.8431 H   0  0  0  0  0  0  0  0  0  0  0  0
  152.6032  140.0381  157.9934 H   0  0  0  0  0  0  0  0  0  0  0  0
  152.0676  142.1821  156.9058 H   0  0  0  0  0  0  0  0  0  0  0  0
  150.4193  142.1331  157.4779 H   0  0  0  0  0  0  0  0  0  0  0  0
  152.8579  141.0184  159.8931 H   0  0  0  0  0  0  0  0  0  0  0  0
  152.7962  142.1042  162.1086 H   0  0  0  0  0  0  0  0  0  0  0  0
  154.0448  142.9381  161.2055 H   0  0  0  0  0  0  0  0  0  0  0  0
  151.2109  143.8874  161.8151 H   0  0  0  0  0  0  0  0  0  0  0  0
  152.7112  144.6793  162.2336 H   0  0  0  0  0  0  0  0  0  0  0  0
  151.6393  145.8373  160.3138 H   0  0  0  0  0  0  0  0  0  0  0  0
  153.1535  145.1237  159.8147 H   0  0  0  0  0  0  0  0  0  0  0  0
  151.5828  144.5635  158.0844 H   0  0  0  0  0  0  0  0  0  0  0  0
  150.3395  144.1156  159.2331 H   0  0  0  0  0  0  0  0  0  0  0  0
  1  2  2  0  0  0  0
  2  3  1  0  0  0  0
  2 11  1  0  0  0  0
  3  4  1  0  0  0  0
  3 20  1  0  0  0  0
  3 21  1  0  0  0  0
  4  9  1  0  0  0  0
  4  5  1  0  0  0  0
  5  6  2  0  0  0  0
  5 22  1  0  0  0  0
  6  7  1  0  0  0  0
  6 23  1  0  0  0  0
  7  8  2  0  0  0  0
  7 24  1  0  0  0  0
  8  9  1  0  0  0  0
  9 10  2  0  0  0  0
 11 12  1  0  0  0  0
 11 25  1  0  0  0  0
 12 13  1  0  0  0  0
 12 26  1  0  0  0  0
 12 27  1  0  0  0  0
 13 14  1  0  0  0  0
 13 28  1  0  0  0  0
 13 29  1  0  0  0  0
 14 19  1  0  0  0  0
 14 15  2  0  0  0  0
 15 16  1  0  0  0  0
 15 30  1  0  0  0  0
 16 17  1  0  0  0  0
 16 31  1  0  0  0  0
 16 32  1  0  0  0  0
 17 18  1  0  0  0  0
 17 33  1  0  0  0  0
 17 34  1  0  0  0  0
 18 19  1  0  0  0  0
 18 35  1  0  0  0  0
 18 36  1  0  0  0  0
 19 37  1  0  0  0  0
 19 38  1  0  0  0  0
M  END
> <s_m_source_file>
AV-unprocessed.smi

> <i_m_source_file_index>
1337

> <i_lp_mmshare_version>
43012

> <i_f3d_flags>
0

> <s_epik_input>
Tz1jMW5bY0hdW2NIXVtjSF1uMVtDSDJdQyg9TylbTkhdW0NIMl1bQ0gyXUMyPVtDSF1bQ0gyXVtDSDJdW0NIMl1bQ0gyXTI=

> <s_epik_cmdline>
J2VwaWtfcHl0aG9uJywgJy1waCcsICc3LjAnLCAnLXRuJywgJzgnLCAnLW1hJywgJzIwMCcsICctbWV0YWxfYmluZGluZycsICctaW1hZScsICc8aW5maWxlLm1hZT4nLCAnLW9tYWUnLCAnPG91dGZpbGUubWFlPic=

> <r_lp_tautomer_probability>
1

> <r_epik_Ionization_Penalty>
7.10509e-06

> <r_epik_Ionization_Penalty_Charging>
1.70435e-08

> <r_epik_Ionization_Penalty_Neutral>
7.08805e-06

> <r_epik_State_Penalty>
-0

> <r_epik_Charging_Adjusted_Penalty>
1.70435e-08

> <i_epik_Tot_Q>
0

> <i_epik_Tot_abs_Q>
0

> <r_epik_Metal_State_Penalty>
-0

> <b_epik_Metal_Only>
0

> <s_lp_Force_Field>
OPLS_2005

> <r_lp_Energy>
9.56824

> <b_lp_Chiralities_Consistent>
1

> <s_lp_Variant>
AV-unprocessed.smi:1337-1

> <Gold.Version>
5.8.1

> <Gold.Id.Protein>
6NUR|6NUR_protein|mol2

> <Gold.PLP.Fitness>
48.0675

> <Gold.PLP.PLP>
-42.2173

> <Gold.PLP.part.hbond>
-2.0000

> <Gold.PLP.part.metal>
0.0000

> <Gold.PLP.part.buried>
-3.3706

> <Gold.PLP.part.nonpolar>
-37.2184

> <Gold.PLP.part.repulsive>
0.3208

> <Gold.PLP.ligand.clash>
0.0000

> <Gold.PLP.ligand.torsion>
0.4199

> <Gold.PLP.Chemscore.Hbond>
1.2741

> <Gold.PLP.Chemscore.CHOScore>
0.9387

> <Gold.PLP.Chemscore.Metal>
0.0000

> <Gold.Chemscore.Hbonds>
donor molecule, donor type, donor heavy atom, donor atom, acceptor molecule, acceptor atom, score
      P1  H  7989  7998       L1     1  0.35
      P1  H  7997  8009       L1     1  0.91
      L1  C     7    24       P1 10175  0.93

> <Gold.PLP.Chemscore.Internal.Correction>
0.0515

> <Gold.Rescore>
     Score         DG    S(hbond)    S(metal)    S(lipo)     H(rot)  DE(clash)    DE(int)     intcor
     15.67     -16.26       0.97        0.00     105.99       1.89       0.14       0.46       ----

> <Gold.Chemscore.Fitness>
15.6661

> <Gold.Chemscore.DG>
-16.2635

> <Gold.Chemscore.ZeroCoef>
-5.4800

> <Gold.Chemscore.Hbond>
0.9657

> <Gold.Chemscore.Metal>
0.0000

> <Gold.Chemscore.Lipo>
105.9878

> <Gold.Chemscore.Internal_Hbond>
0.0000

> <Gold.Chemscore.DEClash>
0.1400

> <Gold.Chemscore.DEInternal>
0.4573

> <Gold.Chemscore.Rot>
1.8916

> <Gold.Chemscore.Internal.Correction>
   9.000000E+99

> <Gold.Chemscore.Hbonds>
donor molecule, donor type, donor heavy atom, donor atom, acceptor molecule, acceptor atom, score
      P1  H  7989  7998       L1     1  0.04
      P1  H  7997  8009       L1     1  0.87

> <Gold.Chemscore.Hbond.Weighted>
-3.2253

> <Gold.Chemscore.Metal.Weighted>
-0.0000

> <Gold.Chemscore.Lipo.Weighted>
-12.4006

> <Gold.Chemscore.Internal_Hbond.Weighted>
0.0000

> <Gold.Chemscore.DEClash.Weighted>
0.1400

> <Gold.Chemscore.DEInternal.Weighted>
0.4573

> <Gold.Chemscore.Rot.Weighted>
4.8425

> <Gold.Chemscore.Internal.Correction.Weighted>
   9.000000E+99

> <Gold.Protein.RotatedTorsions>
[ 6907 6896 6895 6894 ] final -126.52 input  -60.11 | X-H torsion
[ 7974 7965 7964 7962 ] final -108.60 input  175.53 | X-H torsion
[ 8008 7997 7996 7995 ] final -143.42 input   59.86 | X-H torsion
[ 10167 10162 10161 10158 ] final   38.16 input  -65.29 | X-H torsion
[ 10718 10713 10712 10709 ] final  171.65 input   66.30 | X-H torsion
[ 10763 10752 10751 10750 ] final  -23.99 input  -60.55 | X-H torsion
[ 11005 11000 10999 10996 ] final   87.68 input  -57.11 | X-H torsion

> <Gold.Protein.ActiveResidues>
 VAL166  LYS551  ARG553  GLY616  TRP617  ASP618  TYR619  PRO620  LYS621  CYS622 
 ASP623  PHE694  ASN695  SER759  ASP760  ASP761  ALA762  ILE779  LEU786  VAL792 
 PHE793  MET794  SER795  GLU796  ALA797  LYS798  CYS799  TRP800  GLU811  SER814 

> <Gold.Protein.RotatedAtoms>
  150.8978  133.7158  159.2886 H   0  0  0  0  0  0  0  0  0  0  0  0  # atno 6907 bound_to 6896
  151.4687  135.1043  159.9755 H   0  0  0  0  0  0  0  0  0  0  0  0  # atno 6908 bound_to 6896
  152.4859  133.8323  159.7165 H   0  0  0  0  0  0  0  0  0  0  0  0  # atno 6909 bound_to 6896
  145.1908  140.9014  143.3425 H   0  0  0  0  0  0  0  0  0  0  0  0  # atno 7974 bound_to 7965
  155.5103  140.0583  157.2924 H   0  0  0  0  0  0  0  0  0  0  0  0  # atno 8008 bound_to 7997
  154.4554  140.1970  156.0343 H   0  0  0  0  0  0  0  0  0  0  0  0  # atno 8009 bound_to 7997
  156.0789  140.3250  155.7672 H   0  0  0  0  0  0  0  0  0  0  0  0  # atno 8010 bound_to 7997
  140.3963  144.1784  150.6132 H   0  0  0  0  0  0  0  0  0  0  0  0  # atno 10167 bound_to 10162
  156.9904  131.0146  151.2858 H   0  0  0  0  0  0  0  0  0  0  0  0  # atno 10718 bound_to 10713
  153.6767  135.6969  153.5130 H   0  0  0  0  0  0  0  0  0  0  0  0  # atno 10763 bound_to 10752
  153.2516  135.4273  155.0802 H   0  0  0  0  0  0  0  0  0  0  0  0  # atno 10764 bound_to 10752
  154.8411  135.3533  154.6311 H   0  0  0  0  0  0  0  0  0  0  0  0  # atno 10765 bound_to 10752
  139.8914  134.8438  156.2894 H   0  0  0  0  0  0  0  0  0  0  0  0  # atno 11005 bound_to 11000
  145.0043  139.3569  143.6152 LP  0  0  0  0  0  0  0  0  0  0  0  0  # atno 17320 bound_to 7965
  146.3436  139.9279  142.8757 LP  0  0  0  0  0  0  0  0  0  0  0  0  # atno 17321 bound_to 7965
  140.4787  143.2387  151.8987 LP  0  0  0  0  0  0  0  0  0  0  0  0  # atno 17342 bound_to 10162
  139.4786  144.5293  151.8690 LP  0  0  0  0  0  0  0  0  0  0  0  0  # atno 17343 bound_to 10162
  157.5463  130.8152  149.8089 LP  0  0  0  0  0  0  0  0  0  0  0  0  # atno 17370 bound_to 10713
  156.0209  130.3796  150.1965 LP  0  0  0  0  0  0  0  0  0  0  0  0  # atno 17371 bound_to 10713
  140.9986  133.7165  156.0925 LP  0  0  0  0  0  0  0  0  0  0  0  0  # atno 17394 bound_to 11000
  140.7528  134.4025  157.5538 LP  0  0  0  0  0  0  0  0  0  0  0  0  # atno 17395 bound_to 11000

$$$$
