AV-unprocessed.smi:260|AV-procd|sdf|1981|dock6
  -GOLD-   2262021153D 1   1.00000     0.00000
 Structure written by MMmdl.
 53 56  0  0  0  0  0  0  0  0  1 V2000
  147.7864  131.0166  158.4302 C   0  0  0  0  0  0  0  0  0  0  0  0
  148.7070  131.2076  157.3209 N   0  0  0  0  0  0  0  0  0  0  0  0
  149.4577  132.3052  157.1328 C   0  0  0  0  0  0  0  0  0  0  0  0
  149.4122  133.2673  157.9008 O   0  0  0  0  0  0  0  0  0  0  0  0
  150.4103  132.3485  155.9084 C   0  0  1  0  0  0  0  0  0  0  0  0
  151.4463  131.2145  156.0341 C   0  0  0  0  0  0  0  0  0  0  0  0
  149.5944  132.2423  154.6081 C   0  0  0  0  0  0  0  0  0  0  0  0
  149.1247  133.6774  154.3451 C   0  0  0  0  0  0  0  0  0  0  0  0
  150.1280  134.5392  154.9582 N   0  0  0  0  0  0  0  0  0  0  0  0
  149.8017  135.8036  155.3426 C   0  0  0  0  0  0  0  0  0  0  0  0
  148.4891  136.1389  155.4609 N   0  0  0  0  0  0  0  0  0  0  0  0
  148.1281  137.3721  155.8254 C   0  0  0  0  0  0  0  0  0  0  0  0
  148.9048  138.4139  156.1227 N   0  0  0  0  0  0  0  0  0  0  0  0
  150.2242  138.0867  156.0232 C   0  0  0  0  0  0  0  0  0  0  0  0
  150.7575  136.8198  155.6463 C   0  0  0  0  0  0  0  0  0  0  0  0
  152.1478  136.8773  155.6718 N   0  0  0  0  0  0  0  0  0  0  0  0
  152.4175  138.1015  156.0335 C   0  0  0  0  0  0  0  0  0  0  0  0
  151.3193  138.8959  156.2655 N   0  0  0  0  0  0  0  0  0  0  0  0
  151.3205  140.2873  156.6804 C   0  0  0  0  0  0  0  0  0  0  0  0
  151.7634  140.4607  158.1460 C   0  0  1  0  0  0  0  0  0  0  0  0
  153.1388  140.1604  158.2904 O   0  0  0  0  0  0  0  0  0  0  0  0
  151.4558  141.8656  158.7010 C   0  0  1  0  0  0  0  0  0  0  0  0
  152.3527  142.3600  159.8391 C   0  0  0  0  0  0  0  0  0  0  0  0
  152.1880  143.8580  159.7139 C   0  0  0  0  0  0  0  0  0  0  0  0
  152.1359  144.0396  158.1988 C   0  0  0  0  0  0  0  0  0  0  0  0
  151.5134  142.8648  157.6852 O   0  0  0  0  0  0  0  0  0  0  0  0
  151.0912  133.7184  155.6936 C   0  0  0  0  0  0  0  0  0  0  0  0
  147.3215  130.0333  158.3600 H   0  0  0  0  0  0  0  0  0  0  0  0
  146.9977  131.7697  158.4144 H   0  0  0  0  0  0  0  0  0  0  0  0
  148.3106  131.0789  159.3847 H   0  0  0  0  0  0  0  0  0  0  0  0
  148.7936  130.4502  156.6582 H   0  0  0  0  0  0  0  0  0  0  0  0
  152.1334  131.2086  155.1874 H   0  0  0  0  0  0  0  0  0  0  0  0
  150.9687  130.2343  156.0683 H   0  0  0  0  0  0  0  0  0  0  0  0
  152.0458  131.3247  156.9385 H   0  0  0  0  0  0  0  0  0  0  0  0
  150.2377  131.9164  153.7894 H   0  0  0  0  0  0  0  0  0  0  0  0
  148.7614  131.5397  154.6604 H   0  0  0  0  0  0  0  0  0  0  0  0
  149.0274  133.8754  153.2774 H   0  0  0  0  0  0  0  0  0  0  0  0
  148.1552  133.8445  154.8164 H   0  0  0  0  0  0  0  0  0  0  0  0
  147.0644  137.5489  155.8870 H   0  0  0  0  0  0  0  0  0  0  0  0
  153.4307  138.4587  156.1464 H   0  0  0  0  0  0  0  0  0  0  0  0
  151.9731  140.8495  156.0112 H   0  0  0  0  0  0  0  0  0  0  0  0
  150.3143  140.6841  156.5414 H   0  0  0  0  0  0  0  0  0  0  0  0
  151.2227  139.7371  158.7573 H   0  0  0  0  0  0  0  0  0  0  0  0
  153.3849  140.3208  159.1886 H   0  0  0  0  0  0  0  0  0  0  0  0
  150.4270  141.8715  159.0646 H   0  0  0  0  0  0  0  0  0  0  0  0
  152.0520  141.9758  160.8142 H   0  0  0  0  0  0  0  0  0  0  0  0
  153.3972  142.0934  159.6753 H   0  0  0  0  0  0  0  0  0  0  0  0
  151.2446  144.1709  160.1635 H   0  0  0  0  0  0  0  0  0  0  0  0
  152.9952  144.4204  160.1837 H   0  0  0  0  0  0  0  0  0  0  0  0
  151.5959  144.9397  157.9043 H   0  0  0  0  0  0  0  0  0  0  0  0
  153.1456  144.1011  157.7904 H   0  0  0  0  0  0  0  0  0  0  0  0
  151.4430  134.1496  156.6304 H   0  0  0  0  0  0  0  0  0  0  0  0
  151.9734  133.6068  155.0623 H   0  0  0  0  0  0  0  0  0  0  0  0
  1  2  1  0  0  0  0
  1 28  1  0  0  0  0
  1 29  1  0  0  0  0
  1 30  1  0  0  0  0
  2  3  1  0  0  0  0
  2 31  1  0  0  0  0
  3  4  2  0  0  0  0
  3  5  1  0  0  0  0
  5 27  1  0  0  0  0
  5  6  1  0  0  0  0
  5  7  1  0  0  0  0
  6 32  1  0  0  0  0
  6 33  1  0  0  0  0
  6 34  1  0  0  0  0
  7  8  1  0  0  0  0
  7 35  1  0  0  0  0
  7 36  1  0  0  0  0
  8  9  1  0  0  0  0
  8 37  1  0  0  0  0
  8 38  1  0  0  0  0
  9 10  1  0  0  0  0
  9 27  1  0  0  0  0
 10 15  1  0  0  0  0
 10 11  2  0  0  0  0
 11 12  1  0  0  0  0
 12 13  2  0  0  0  0
 12 39  1  0  0  0  0
 13 14  1  0  0  0  0
 14 18  1  0  0  0  0
 14 15  2  0  0  0  0
 15 16  1  0  0  0  0
 16 17  2  0  0  0  0
 17 18  1  0  0  0  0
 17 40  1  0  0  0  0
 18 19  1  0  0  0  0
 19 20  1  0  0  0  0
 19 41  1  0  0  0  0
 19 42  1  0  0  0  0
 20 21  1  0  0  0  0
 20 22  1  0  0  0  0
 20 43  1  0  0  0  0
 21 44  1  0  0  0  0
 22 26  1  0  0  0  0
 22 23  1  0  0  0  0
 22 45  1  0  0  0  0
 23 24  1  0  0  0  0
 23 46  1  0  0  0  0
 23 47  1  0  0  0  0
 24 25  1  0  0  0  0
 24 48  1  0  0  0  0
 24 49  1  0  0  0  0
 25 26  1  0  0  0  0
 25 50  1  0  0  0  0
 25 51  1  0  0  0  0
 27 52  1  0  0  0  0
 27 53  1  0  0  0  0
M  END
> <s_m_source_file>
AV-unprocessed.smi

> <i_m_source_file_index>
260

> <i_lp_mmshare_version>
43012

> <i_f3d_flags>
0

> <s_epik_input>
W0NIM11bTkhdQyg9TylbQ0BAXTEoW0NIM10pW0NIMl1bQ0gyXU4oW0NIMl0xKWMobltjSF1uMiljKGMyMyluW2NIXW4zW0NIMl1bQ0BIXShbT0hdKVtDQEBIXTRbQ0gyXVtDSDJdW0NIMl1PNA==

> <s_epik_cmdline>
J2VwaWtfcHl0aG9uJywgJy1waCcsICc3LjAnLCAnLXRuJywgJzgnLCAnLW1hJywgJzIwMCcsICctbWV0YWxfYmluZGluZycsICctaW1hZScsICc8aW5maWxlLm1hZT4nLCAnLW9tYWUnLCAnPG91dGZpbGUubWFlPic=

> <r_lp_tautomer_probability>
1

> <r_epik_Ionization_Penalty>
0.00115068

> <r_epik_Ionization_Penalty_Charging>
0

> <r_epik_Ionization_Penalty_Neutral>
0.00115068

> <r_epik_State_Penalty>
0.000668876

> <r_epik_Charging_Adjusted_Penalty>
0.000668876

> <i_epik_Tot_Q>
0

> <i_epik_Tot_abs_Q>
0

> <r_epik_Metal_State_Penalty>
-0

> <b_epik_Metal_Only>
0

> <s_lp_Force_Field>
OPLS_2005

> <r_lp_Energy>
50.9621

> <b_lp_Chiralities_Consistent>
1

> <s_lp_Variant>
AV-unprocessed.smi:260-7

> <Gold.Version>
5.8.1

> <Gold.Id.Protein>
6NUR|6NUR_protein|mol2

> <Gold.PLP.Fitness>
44.9331

> <Gold.PLP.PLP>
-38.5537

> <Gold.PLP.part.hbond>
-2.9873

> <Gold.PLP.part.metal>
0.0000

> <Gold.PLP.part.buried>
-4.3620

> <Gold.PLP.part.nonpolar>
-31.4456

> <Gold.PLP.part.repulsive>
0.1970

> <Gold.PLP.ligand.clash>
0.0000

> <Gold.PLP.ligand.torsion>
1.4922

> <Gold.PLP.Chemscore.Hbond>
2.9760

> <Gold.PLP.Chemscore.CHOScore>
0.0000

> <Gold.PLP.Chemscore.Metal>
0.0000

> <Gold.Chemscore.Hbonds>
donor molecule, donor type, donor heavy atom, donor atom, acceptor molecule, acceptor atom, score
      P1  H  6896  6908       L1     4  1.00
      P1  H  7997  8009       L1    21  0.99
      P1  H 10752 10765       L1    16  0.99

> <Gold.PLP.Chemscore.Internal.Correction>
0.4359

> <Gold.Rescore>
     Score         DG    S(hbond)    S(metal)    S(lipo)     H(rot)  DE(clash)    DE(int)     intcor
     17.46     -18.91       2.86        0.00      88.44       2.53       0.04       1.41       ----

> <Gold.Chemscore.Fitness>
17.4564

> <Gold.Chemscore.DG>
-18.9060

> <Gold.Chemscore.ZeroCoef>
-5.4800

> <Gold.Chemscore.Hbond>
2.8576

> <Gold.Chemscore.Metal>
0.0000

> <Gold.Chemscore.Lipo>
88.4448

> <Gold.Chemscore.Internal_Hbond>
0.0000

> <Gold.Chemscore.DEClash>
0.0383

> <Gold.Chemscore.DEInternal>
1.4112

> <Gold.Chemscore.Rot>
2.5259

> <Gold.Chemscore.Internal.Correction>
   9.000000E+99

> <Gold.Chemscore.Hbonds>
donor molecule, donor type, donor heavy atom, donor atom, acceptor molecule, acceptor atom, score
      P1  H  6896  6908       L1     4  0.96
      P1  H  7997  8009       L1    21  0.87
      P1  H 10752 10765       L1    16  0.91

> <Gold.Chemscore.Hbond.Weighted>
-9.5443

> <Gold.Chemscore.Metal.Weighted>
-0.0000

> <Gold.Chemscore.Lipo.Weighted>
-10.3480

> <Gold.Chemscore.Internal_Hbond.Weighted>
0.0000

> <Gold.Chemscore.DEClash.Weighted>
0.0383

> <Gold.Chemscore.DEInternal.Weighted>
1.4112

> <Gold.Chemscore.Rot.Weighted>
6.4663

> <Gold.Chemscore.Internal.Correction.Weighted>
   9.000000E+99

> <Gold.Protein.RotatedTorsions>
[ 6907 6896 6895 6894 ] final  120.97 input  -60.11 | X-H torsion
[ 7974 7965 7964 7962 ] final -172.10 input  175.53 | X-H torsion
[ 8008 7997 7996 7995 ] final  155.91 input   59.86 | X-H torsion
[ 10167 10162 10161 10158 ] final  -79.11 input  -65.29 | X-H torsion
[ 10718 10713 10712 10709 ] final   17.08 input   66.30 | X-H torsion
[ 10763 10752 10751 10750 ] final -157.89 input  -60.55 | X-H torsion
[ 11005 11000 10999 10996 ] final  -20.59 input  -57.11 | X-H torsion

> <Gold.Protein.ActiveResidues>
 VAL166  LYS551  ARG553  GLY616  TRP617  ASP618  TYR619  PRO620  LYS621  CYS622 
 ASP623  PHE694  ASN695  SER759  ASP760  ASP761  ALA762  ILE779  LEU786  VAL792 
 PHE793  MET794  SER795  GLU796  ALA797  LYS798  CYS799  TRP800  GLU811  SER814 

> <Gold.Protein.RotatedAtoms>
  152.4357  133.7357  159.6612 H   0  0  0  0  0  0  0  0  0  0  0  0  # atno 6907 bound_to 6896
  150.8241  133.8191  159.3132 H   0  0  0  0  0  0  0  0  0  0  0  0  # atno 6908 bound_to 6896
  151.5865  135.1058  160.0081 H   0  0  0  0  0  0  0  0  0  0  0  0  # atno 6909 bound_to 6896
  144.7150  140.1823  143.6357 H   0  0  0  0  0  0  0  0  0  0  0  0  # atno 7974 bound_to 7965
  156.2452  140.1926  156.6874 H   0  0  0  0  0  0  0  0  0  0  0  0  # atno 8008 bound_to 7997
  154.6276  140.0600  156.9719 H   0  0  0  0  0  0  0  0  0  0  0  0  # atno 8009 bound_to 7997
  155.1761  140.3272  155.4386 H   0  0  0  0  0  0  0  0  0  0  0  0  # atno 8010 bound_to 7997
  140.4622  143.2450  151.8331 H   0  0  0  0  0  0  0  0  0  0  0  0  # atno 10167 bound_to 10162
  157.0770  130.6372  149.5818 H   0  0  0  0  0  0  0  0  0  0  0  0  # atno 10718 bound_to 10713
  154.7601  135.3115  154.8395 H   0  0  0  0  0  0  0  0  0  0  0  0  # atno 10763 bound_to 10752
  153.9159  135.6801  153.4753 H   0  0  0  0  0  0  0  0  0  0  0  0  # atno 10764 bound_to 10752
  153.1201  135.4826  154.9111 H   0  0  0  0  0  0  0  0  0  0  0  0  # atno 10765 bound_to 10752
  140.8479  133.7878  155.9933 H   0  0  0  0  0  0  0  0  0  0  0  0  # atno 11005 bound_to 11000
  145.8845  139.2341  143.1586 LP  0  0  0  0  0  0  0  0  0  0  0  0  # atno 17320 bound_to 7965
  145.9963  140.8559  143.0041 LP  0  0  0  0  0  0  0  0  0  0  0  0  # atno 17321 bound_to 7965
  139.4807  144.4993  151.9081 LP  0  0  0  0  0  0  0  0  0  0  0  0  # atno 17342 bound_to 10162
  140.4079  144.2407  150.5890 LP  0  0  0  0  0  0  0  0  0  0  0  0  # atno 17343 bound_to 10162
  155.9934  130.4995  150.7380 LP  0  0  0  0  0  0  0  0  0  0  0  0  # atno 17370 bound_to 10713
  157.4831  131.0904  151.0513 LP  0  0  0  0  0  0  0  0  0  0  0  0  # atno 17371 bound_to 10713
  140.8823  134.2596  157.5138 LP  0  0  0  0  0  0  0  0  0  0  0  0  # atno 17394 bound_to 11000
  139.8703  134.9621  156.4418 LP  0  0  0  0  0  0  0  0  0  0  0  0  # atno 17395 bound_to 11000

$$$$
