AV-unprocessed.smi:2445|AV-procd|sdf|9637|dock2
  -GOLD-   2272013273D 1   1.00000     0.00000
 Structure written by MMmdl.
 40 41  0  0  0  0  0  0  0  0  1 V2000
  151.3587  144.8860  160.3133 C   0  0  0  0  0  0  0  0  0  0  0  0
  152.1312  143.6287  160.1012 C   0  0  0  0  0  0  0  0  0  0  0  0
  152.3792  142.9845  158.9146 C   0  0  0  0  0  0  0  0  0  0  0  0
  153.1375  141.8198  159.0519 N   0  0  0  0  0  0  0  0  0  0  0  0
  153.4680  141.5694  160.3214 C   0  0  0  0  0  0  0  0  0  0  0  0
  154.2755  140.3811  160.7440 C   0  0  2  0  0  0  0  0  0  0  0  0
  155.7377  140.5060  160.2823 C   0  0  0  0  0  0  0  0  0  0  0  0
  153.6001  139.0618  160.3102 C   0  0  0  0  0  0  0  0  0  0  0  0
  153.0587  139.1194  158.9558 N   0  0  0  0  0  0  0  0  0  0  0  0
  151.7623  138.9981  158.6398 C   0  0  0  0  0  0  0  0  0  0  0  0
  150.8650  138.8181  159.4632 O   0  0  0  0  0  0  0  0  0  0  0  0
  151.5619  139.1030  157.3186 N   0  0  0  0  0  0  0  0  0  0  0  0
  150.2634  139.0137  156.6497 C   0  0  2  0  0  0  0  0  0  0  0  0
  150.3048  137.9662  155.5373 C   0  0  0  0  0  0  0  0  0  0  0  0
  149.7354  138.6886  154.3206 C   0  0  0  0  0  0  0  0  0  0  0  0
  150.0947  140.0398  154.5459 O   0  0  0  0  0  0  0  0  0  0  0  0
  149.8499  140.3122  155.9177 C   0  0  2  0  0  0  0  0  0  0  0  0
  150.5479  141.6188  156.3292 C   0  0  0  0  0  0  0  0  0  0  0  0
  152.8547  142.7822  161.4435 S   0  0  0  0  0  0  0  0  0  0  0  0
  150.9162  145.2371  159.3807 H   0  0  0  0  0  0  0  0  0  0  0  0
  152.0038  145.6757  160.6984 H   0  0  0  0  0  0  0  0  0  0  0  0
  150.5523  144.7281  161.0297 H   0  0  0  0  0  0  0  0  0  0  0  0
  152.0538  143.2829  157.9288 H   0  0  0  0  0  0  0  0  0  0  0  0
  154.2926  140.3917  161.8351 H   0  0  0  0  0  0  0  0  0  0  0  0
  156.1798  141.4375  160.6374 H   0  0  0  0  0  0  0  0  0  0  0  0
  155.8137  140.4954  159.1947 H   0  0  0  0  0  0  0  0  0  0  0  0
  156.3510  139.6905  160.6660 H   0  0  0  0  0  0  0  0  0  0  0  0
  154.3080  138.2341  160.3824 H   0  0  0  0  0  0  0  0  0  0  0  0
  152.7790  138.8219  160.9862 H   0  0  0  0  0  0  0  0  0  0  0  0
  153.7196  139.2677  158.2072 H   0  0  0  0  0  0  0  0  0  0  0  0
  152.3650  139.2588  156.7273 H   0  0  0  0  0  0  0  0  0  0  0  0
  149.4891  138.7457  157.3711 H   0  0  0  0  0  0  0  0  0  0  0  0
  151.3304  137.6602  155.3254 H   0  0  0  0  0  0  0  0  0  0  0  0
  149.7377  137.0683  155.7833 H   0  0  0  0  0  0  0  0  0  0  0  0
  150.1390  138.3140  153.3798 H   0  0  0  0  0  0  0  0  0  0  0  0
  148.6482  138.6003  154.2882 H   0  0  0  0  0  0  0  0  0  0  0  0
  148.7726  140.4444  156.0339 H   0  0  0  0  0  0  0  0  0  0  0  0
  150.3753  141.8415  157.3824 H   0  0  0  0  0  0  0  0  0  0  0  0
  150.1657  142.4582  155.7486 H   0  0  0  0  0  0  0  0  0  0  0  0
  151.6244  141.5707  156.1640 H   0  0  0  0  0  0  0  0  0  0  0  0
  1  2  1  0  0  0  0
  1 20  1  0  0  0  0
  1 21  1  0  0  0  0
  1 22  1  0  0  0  0
  2 19  1  0  0  0  0
  2  3  2  0  0  0  0
  3  4  1  0  0  0  0
  3 23  1  0  0  0  0
  4  5  2  0  0  0  0
  5  6  1  0  0  0  0
  5 19  1  0  0  0  0
  6  7  1  0  0  0  0
  6  8  1  0  0  0  0
  6 24  1  0  0  0  0
  7 25  1  0  0  0  0
  7 26  1  0  0  0  0
  7 27  1  0  0  0  0
  8  9  1  0  0  0  0
  8 28  1  0  0  0  0
  8 29  1  0  0  0  0
  9 10  1  0  0  0  0
  9 30  1  0  0  0  0
 10 11  2  0  0  0  0
 10 12  1  0  0  0  0
 12 13  1  0  0  0  0
 12 31  1  0  0  0  0
 13 17  1  0  0  0  0
 13 14  1  0  0  0  0
 13 32  1  0  0  0  0
 14 15  1  0  0  0  0
 14 33  1  0  0  0  0
 14 34  1  0  0  0  0
 15 16  1  0  0  0  0
 15 35  1  0  0  0  0
 15 36  1  0  0  0  0
 16 17  1  0  0  0  0
 17 18  1  0  0  0  0
 17 37  1  0  0  0  0
 18 38  1  0  0  0  0
 18 39  1  0  0  0  0
 18 40  1  0  0  0  0
M  END
> <s_m_source_file>
AV-unprocessed.smi

> <i_m_source_file_index>
2445

> <i_lp_mmshare_version>
43012

> <i_f3d_flags>
0

> <s_epik_input>
W0NIM11jMVtjSF1uYyhzMSlbQ0BIXShbQ0gzXSlbQ0gyXVtOSF1DKD1PKVtOSF1bQ0BASF0yW0NIMl1bQ0gyXU9bQ0BIXTJbQ0gzXQ==

> <s_epik_cmdline>
J2VwaWtfcHl0aG9uJywgJy1waCcsICc3LjAnLCAnLXRuJywgJzgnLCAnLW1hJywgJzIwMCcsICctbWV0YWxfYmluZGluZycsICctaW1hZScsICc8aW5maWxlLm1hZT4nLCAnLW9tYWUnLCAnPG91dGZpbGUubWFlPic=

> <r_epik_Ionization_Penalty>
0.000649483

> <r_epik_Ionization_Penalty_Charging>
0

> <r_epik_Ionization_Penalty_Neutral>
0.000649483

> <r_epik_State_Penalty>
0.000379895

> <r_epik_Charging_Adjusted_Penalty>
0.000379895

> <i_epik_Tot_Q>
0

> <i_epik_Tot_abs_Q>
0

> <r_epik_Metal_State_Penalty>
-0

> <b_epik_Metal_Only>
0

> <s_lp_Force_Field>
OPLS_2005

> <r_lp_Energy>
6.28074

> <b_lp_Chiralities_Consistent>
1

> <s_lp_Variant>
AV-unprocessed.smi:2445-5

> <Gold.Version>
5.8.1

> <Gold.Id.Protein>
6NUR|6NUR_protein|mol2

> <Gold.PLP.Fitness>
39.7864

> <Gold.PLP.PLP>
-37.3597

> <Gold.PLP.part.hbond>
-1.4079

> <Gold.PLP.part.metal>
0.0000

> <Gold.PLP.part.buried>
-2.2915

> <Gold.PLP.part.nonpolar>
-33.3676

> <Gold.PLP.part.repulsive>
0.2818

> <Gold.PLP.ligand.clash>
0.0000

> <Gold.PLP.ligand.torsion>
0.3394

> <Gold.PLP.Chemscore.Hbond>
1.0000

> <Gold.PLP.Chemscore.CHOScore>
0.0000

> <Gold.PLP.Chemscore.Metal>
0.0000

> <Gold.Chemscore.Hbonds>
donor molecule, donor type, donor heavy atom, donor atom, acceptor molecule, acceptor atom, score
      P1  H  7989  7998       L1    16  0.99

> <Gold.PLP.Chemscore.Internal.Correction>
0.1054

> <Gold.Rescore>
     Score         DG    S(hbond)    S(metal)    S(lipo)     H(rot)  DE(clash)    DE(int)     intcor
     16.78     -17.14       0.90        0.00     107.65       1.53       0.03       0.33       ----

> <Gold.Chemscore.Fitness>
16.7769

> <Gold.Chemscore.DG>
-17.1431

> <Gold.Chemscore.ZeroCoef>
-5.4800

> <Gold.Chemscore.Hbond>
0.8957

> <Gold.Chemscore.Metal>
0.0000

> <Gold.Chemscore.Lipo>
107.6467

> <Gold.Chemscore.Internal_Hbond>
0.0000

> <Gold.Chemscore.DEClash>
0.0318

> <Gold.Chemscore.DEInternal>
0.3344

> <Gold.Chemscore.Rot>
1.5325

> <Gold.Chemscore.Internal.Correction>
   9.000000E+99

> <Gold.Chemscore.Hbonds>
donor molecule, donor type, donor heavy atom, donor atom, acceptor molecule, acceptor atom, score
      P1  H  7989  7998       L1    16  0.88

> <Gold.Chemscore.Hbond.Weighted>
-2.9918

> <Gold.Chemscore.Metal.Weighted>
-0.0000

> <Gold.Chemscore.Lipo.Weighted>
-12.5947

> <Gold.Chemscore.Internal_Hbond.Weighted>
0.0000

> <Gold.Chemscore.DEClash.Weighted>
0.0318

> <Gold.Chemscore.DEInternal.Weighted>
0.3344

> <Gold.Chemscore.Rot.Weighted>
3.9233

> <Gold.Chemscore.Internal.Correction.Weighted>
   9.000000E+99

> <Gold.Protein.RotatedTorsions>
[ 6907 6896 6895 6894 ] final  -52.92 input  -60.11 | X-H torsion
[ 7974 7965 7964 7962 ] final   40.03 input  175.53 | X-H torsion
[ 8008 7997 7996 7995 ] final   14.86 input   59.86 | X-H torsion
[ 10167 10162 10161 10158 ] final  -88.11 input  -65.29 | X-H torsion
[ 10718 10713 10712 10709 ] final -108.05 input   66.30 | X-H torsion
[ 10763 10752 10751 10750 ] final -159.78 input  -60.55 | X-H torsion
[ 11005 11000 10999 10996 ] final -138.13 input  -57.11 | X-H torsion

> <Gold.Protein.ActiveResidues>
 VAL166  LYS551  ARG553  GLY616  TRP617  ASP618  TYR619  PRO620  LYS621  CYS622 
 ASP623  PHE694  ASN695  SER759  ASP760  ASP761  ALA762  ILE779  LEU786  VAL792 
 PHE793  MET794  SER795  GLU796  ALA797  LYS798  CYS799  TRP800  GLU811  SER814 

> <Gold.Protein.RotatedAtoms>
  150.8474  134.7787  159.6980 H   0  0  0  0  0  0  0  0  0  0  0  0  # atno 6907 bound_to 6896
  152.4547  134.5314  159.9822 H   0  0  0  0  0  0  0  0  0  0  0  0  # atno 6908 bound_to 6896
  151.5441  133.3390  159.2976 H   0  0  0  0  0  0  0  0  0  0  0  0  # atno 6909 bound_to 6896
  146.0938  139.5582  142.9459 H   0  0  0  0  0  0  0  0  0  0  0  0  # atno 7974 bound_to 7965
  154.8545  140.2935  155.5577 H   0  0  0  0  0  0  0  0  0  0  0  0  # atno 8008 bound_to 7997
  156.3018  140.2489  156.3442 H   0  0  0  0  0  0  0  0  0  0  0  0  # atno 8009 bound_to 7997
  154.8985  140.0392  157.1869 H   0  0  0  0  0  0  0  0  0  0  0  0  # atno 8010 bound_to 7997
  140.3779  143.2763  151.9420 H   0  0  0  0  0  0  0  0  0  0  0  0  # atno 10167 bound_to 10162
  156.0466  130.5693  150.7906 H   0  0  0  0  0  0  0  0  0  0  0  0  # atno 10718 bound_to 10713
  154.7446  135.3077  154.8667 H   0  0  0  0  0  0  0  0  0  0  0  0  # atno 10763 bound_to 10752
  153.9472  135.6768  153.4748 H   0  0  0  0  0  0  0  0  0  0  0  0  # atno 10764 bound_to 10752
  153.1043  135.4897  154.8849 H   0  0  0  0  0  0  0  0  0  0  0  0  # atno 10765 bound_to 10752
  140.8645  134.2128  157.4688 H   0  0  0  0  0  0  0  0  0  0  0  0  # atno 11005 bound_to 11000
  145.5988  141.0358  143.2029 LP  0  0  0  0  0  0  0  0  0  0  0  0  # atno 17320 bound_to 7965
  144.7380  139.7531  143.7322 LP  0  0  0  0  0  0  0  0  0  0  0  0  # atno 17321 bound_to 7965
  139.4798  144.5846  151.7875 LP  0  0  0  0  0  0  0  0  0  0  0  0  # atno 17342 bound_to 10162
  140.4968  144.1229  150.5962 LP  0  0  0  0  0  0  0  0  0  0  0  0  # atno 17343 bound_to 10162
  157.5348  131.0938  150.9907 LP  0  0  0  0  0  0  0  0  0  0  0  0  # atno 17370 bound_to 10713
  157.0204  130.5671  149.5331 LP  0  0  0  0  0  0  0  0  0  0  0  0  # atno 17371 bound_to 10713
  139.8708  134.9745  156.4849 LP  0  0  0  0  0  0  0  0  0  0  0  0  # atno 17394 bound_to 11000
  140.8645  133.8035  155.9299 LP  0  0  0  0  0  0  0  0  0  0  0  0  # atno 17395 bound_to 11000

$$$$
