#       Name:                AV-unprocessed.smi:1843
#       Creating user name   scv26
#       Creation time:       Fri Mar 27 09:20:47 2020


#       File generated by GOLD software.
#

@<TRIPOS>MOLECULE
AV-unprocessed.smi:1843
    43    45     1
SMALL
NO_CHARGES


@<TRIPOS>ATOM
      1 ****         0.3244   1.3744  -0.9356 O.2            1 S1                 0.0000
      2 ****         0.0258   0.3919  -0.2563 C.2            1 S1                 0.0000
      3 ****         0.8794  -0.5679   0.1414 N.am           1 S1                 0.0000
      4 ****         2.2717  -0.6704  -0.1180 C.2            1 S1                 0.0000
      5 ****         2.9643   0.2254  -0.8346 N.2            1 S1                 0.0000
      6 ****         4.3053  -0.1170  -0.9350 N.2            1 S1                 0.0000
      7 ****         4.5884  -1.2569  -0.2931 C.2            1 S1                 0.0000
      8 ****         5.9661  -1.8301  -0.2590 C.3            1 S1                 0.0000
      9 ****         6.4928  -2.5591   0.9580 C.3            1 S1                 0.0000
     10 ****         7.0424  -1.2027   0.5965 C.3            1 S1                 0.0000
     11 ****         3.2122  -2.0178   0.4991 S.3            1 S1                 0.0000
     12 ****        -1.2170   0.1464   0.1827 N.am           1 S1                 0.0000
     13 ****        -2.3820   0.9939  -0.0653 C.3            1 S1                 0.0000
     14 ****        -3.0049   0.6018  -1.4237 C.3            1 S1                 0.0000
     15 ****        -4.3296   1.3313  -1.6899 C.3            1 S1                 0.0000
     16 ****        -5.3284   1.0879  -0.5511 C.3            1 S1                 0.0000
     17 ****        -4.7334   1.5291   0.7926 C.3            1 S1                 0.0000
     18 ****        -3.3990   0.8179   1.0869 C.3            1 S1                 0.0000
     19 ****        -2.8731   1.3808   2.2724 O.3            1 S1                 0.0000
     20 ****         0.4868  -1.3150   0.6946 H              1 S1                 0.0000
     21 ****         6.2500  -2.2059  -1.2401 H              1 S1                 0.0000
     22 ****         5.8583  -2.6177   1.8402 H              1 S1                 0.0000
     23 ****         7.1329  -3.4221   0.7873 H              1 S1                 0.0000
     24 ****         8.0485  -1.1600   0.1842 H              1 S1                 0.0000
     25 ****         6.7607  -0.3622   1.2281 H              1 S1                 0.0000
     26 ****        -1.3724  -0.6870   0.7305 H              1 S1                 0.0000
     27 ****        -2.0804   2.0428  -0.1086 H              1 S1                 0.0000
     28 ****        -2.3041   0.8142  -2.2323 H              1 S1                 0.0000
     29 ****        -3.1833  -0.4744  -1.4488 H              1 S1                 0.0000
     30 ****        -4.1447   2.4011  -1.7954 H              1 S1                 0.0000
     31 ****        -4.7556   0.9955  -2.6357 H              1 S1                 0.0000
     32 ****        -6.2537   1.6310  -0.7448 H              1 S1                 0.0000
     33 ****        -5.5912   0.0301  -0.5090 H              1 S1                 0.0000
     34 ****        -4.5801   2.6095   0.7753 H              1 S1                 0.0000
     35 ****        -5.4466   1.3329   1.5940 H              1 S1                 0.0000
     36 ****        -3.5886  -0.2431   1.2565 H              1 S1                 0.0000
     37 ****        -2.0422   0.9702   2.4563 H              1 S1                 0.0000
     38 ****         1.2690   1.5059  -1.2365 LP             1 S1                 0.0000
     39 ****        -0.3776   2.0410  -1.1864 LP             1 S1                 0.0000
     40 ****         2.5628   1.0429  -1.2476 LP             1 S1                 0.0000
     41 ****         4.9831   0.4262  -1.4306 LP             1 S1                 0.0000
     42 ****        -3.5042   1.2197   3.0311 LP             1 S1                 0.0000
     43 ****        -2.7434   2.3648   2.1499 LP             1 S1                 0.0000
@<TRIPOS>BOND
    1    1    2 2     
    2    2    3 am    
    3    2   12 am    
    4    3    4 1     
    5    3   20 1     
    6    4   11 1     
    7    4    5 2     
    8    5    6 1     
    9    6    7 2     
   10    7    8 1     
   11    7   11 1     
   12    8   10 1     
   13    8    9 1     
   14    8   21 1     
   15    9   10 1     
   16    9   22 1     
   17    9   23 1     
   18   10   24 1     
   19   10   25 1     
   20   12   13 1     
   21   12   26 1     
   22   13   18 1     
   23   13   14 1     
   24   13   27 1     
   25   14   15 1     
   26   14   28 1     
   27   14   29 1     
   28   15   16 1     
   29   15   30 1     
   30   15   31 1     
   31   16   17 1     
   32   16   32 1     
   33   16   33 1     
   34   17   18 1     
   35   17   34 1     
   36   17   35 1     
   37   18   19 1     
   38   18   36 1     
   39   19   37 1     
   40    1   38 1     
   41    1   39 1     
   42    5   40 1     
   43    6   41 1     
   44   19   42 1     
   45   19   43 1     
@<TRIPOS>SUBSTRUCTURE
      1 S1             1
@<TRIPOS>SET
LONE_PAIRS      STATIC     ATOMS    <user>   **** ""
6 38 39 40 41 42 43
DONOR_HYDROGENS      STATIC     ATOMS    <user>   **** ""
3 20 26 37
ATOM$BLUE        STATIC     ATOMS    COLORGROUP SYSTEM
6 38 39 40 41 42 43
ATOM$RED        STATIC     ATOMS    COLORGROUP SYSTEM
3 20 26 37
