#       Name:                AV-unprocessed.smi:1892
#       Creating user name   scv26
#       Creation time:       Fri Mar 27 09:40:41 2020


#       File generated by GOLD software.
#

@<TRIPOS>MOLECULE
AV-unprocessed.smi:1892
    48    49     1
SMALL
NO_CHARGES


@<TRIPOS>ATOM
      1 ****        -5.5010   2.0277   1.0729 C.3            1 S1                 0.0000
      2 ****        -4.2296   2.2351   1.8986 C.2            1 S1                 0.0000
      3 ****        -4.3380   2.7619   3.0059 O.2            1 S1                 0.0000
      4 ****        -3.0390   1.8362   1.3919 N.am           1 S1                 0.0000
      5 ****        -2.8343   1.1435   0.1163 C.3            1 S1                 0.0000
      6 ****        -2.3095  -0.2766   0.4030 C.3            1 S1                 0.0000
      7 ****        -1.0532  -0.2144   1.1564 N.3            1 S1                 0.0000
      8 ****        -0.5745  -1.5761   1.3985 C.3            1 S1                 0.0000
      9 ****         0.8944  -1.6231   1.8699 C.3            1 S1                 0.0000
     10 ****         1.8000  -0.9797   0.9225 N.am           1 S1                 0.0000
     11 ****         2.1986  -1.5099  -0.2426 C.2            1 S1                 0.0000
     12 ****         1.8499  -2.6238  -0.6350 O.2            1 S1                 0.0000
     13 ****         3.0132  -0.6707  -0.9062 N.am           1 S1                 0.0000
     14 ****         3.6242  -0.8602  -2.1746 C.ar           1 S1                 0.0000
     15 ****         4.4524   0.2012  -2.6049 C.ar           1 S1                 0.0000
     16 ****         5.1026   0.1118  -3.8510 C.ar           1 S1                 0.0000
     17 ****         4.9069  -1.0379  -4.6369 C.ar           1 S1                 0.0000
     18 ****         4.0664  -2.0487  -4.1348 C.ar           1 S1                 0.0000
     19 ****         3.4430  -1.9653  -2.9406 N.ar           1 S1                 0.0000
     20 ****        -1.2562   0.5131   2.4154 C.3            1 S1                 0.0000
     21 ****        -1.7774   1.9348   2.1298 C.3            1 S1                 0.0000
     22 ****        -5.6605   0.9689   0.8679 H              1 S1                 0.0000
     23 ****        -5.4416   2.5684   0.1280 H              1 S1                 0.0000
     24 ****        -6.3736   2.3967   1.6130 H              1 S1                 0.0000
     25 ****        -3.7335   1.0804  -0.4944 H              1 S1                 0.0000
     26 ****        -2.1108   1.6987  -0.4827 H              1 S1                 0.0000
     27 ****        -3.0540  -0.8491   0.9591 H              1 S1                 0.0000
     28 ****        -2.1427  -0.7971  -0.5409 H              1 S1                 0.0000
     29 ****        -1.2206  -2.0754   2.1219 H              1 S1                 0.0000
     30 ****        -0.6522  -2.1499   0.4738 H              1 S1                 0.0000
     31 ****         1.0120  -1.1461   2.8421 H              1 S1                 0.0000
     32 ****         1.1977  -2.6612   2.0133 H              1 S1                 0.0000
     33 ****         2.1295  -0.0570   1.1653 H              1 S1                 0.0000
     34 ****         3.2169   0.2080  -0.4536 H              1 S1                 0.0000
     35 ****         4.5915   1.0776  -1.9888 H              1 S1                 0.0000
     36 ****         5.7401   0.9120  -4.1971 H              1 S1                 0.0000
     37 ****         5.3876  -1.1425  -5.5982 H              1 S1                 0.0000
     38 ****         3.8889  -2.9478  -4.7063 H              1 S1                 0.0000
     39 ****        -1.9618  -0.0250   3.0509 H              1 S1                 0.0000
     40 ****        -0.3191   0.5863   2.9657 H              1 S1                 0.0000
     41 ****        -1.0519   2.4933   1.5364 H              1 S1                 0.0000
     42 ****        -1.8801   2.4808   3.0685 H              1 S1                 0.0000
     43 ****        -5.2380   3.0404   3.3412 LP             1 S1                 0.0000
     44 ****        -3.5260   2.9114   3.5702 LP             1 S1                 0.0000
     45 ****        -0.3617   0.2797   0.6294 LP             1 S1                 0.0000
     46 ****         1.2382  -3.1824  -0.0748 LP             1 S1                 0.0000
     47 ****         2.1784  -2.9698  -1.5138 LP             1 S1                 0.0000
     48 ****         2.8545  -2.7092  -2.6241 LP             1 S1                 0.0000
@<TRIPOS>BOND
    1    1    2 1     
    2    1   22 1     
    3    1   23 1     
    4    1   24 1     
    5    2    3 2     
    6    2    4 am    
    7    4   21 1     
    8    4    5 1     
    9    5    6 1     
   10    5   25 1     
   11    5   26 1     
   12    6    7 1     
   13    6   27 1     
   14    6   28 1     
   15    7    8 1     
   16    7   20 1     
   17    8    9 1     
   18    8   29 1     
   19    8   30 1     
   20    9   10 1     
   21    9   31 1     
   22    9   32 1     
   23   10   11 am    
   24   10   33 1     
   25   11   12 2     
   26   11   13 am    
   27   13   14 1     
   28   13   34 1     
   29   14   19 ar    
   30   14   15 ar    
   31   15   16 ar    
   32   15   35 1     
   33   16   17 ar    
   34   16   36 1     
   35   17   18 ar    
   36   17   37 1     
   37   18   19 ar    
   38   18   38 1     
   39   20   21 1     
   40   20   39 1     
   41   20   40 1     
   42   21   41 1     
   43   21   42 1     
   44    3   43 1     
   45    3   44 1     
   46    7   45 1     
   47   12   46 1     
   48   12   47 1     
   49   19   48 1     
@<TRIPOS>SUBSTRUCTURE
      1 S1             1
@<TRIPOS>SET
LONE_PAIRS      STATIC     ATOMS    <user>   **** ""
6 43 44 45 46 47 48
DONOR_HYDROGENS      STATIC     ATOMS    <user>   **** ""
2 33 34
ATOM$BLUE        STATIC     ATOMS    COLORGROUP SYSTEM
6 43 44 45 46 47 48
ATOM$RED        STATIC     ATOMS    COLORGROUP SYSTEM
2 33 34
