AV-unprocessed.smi:3104|AV-procd|sdf|11815|dock2
  -GOLD-   2272017183D 1   1.00000     0.00000
 Structure written by MMmdl.
 37 38  0  0  0  0  0  0  0  0  2 V2000
  153.6853  141.7577  161.4587 C   0  0  0  0  0  0  0  0  0  0  0  0
  153.1610  141.1341  160.1972 C   0  0  0  0  0  0  0  0  0  0  0  0
  153.5936  139.9314  159.5701 C   0  0  0  0  0  0  0  0  0  0  0  0
  152.9212  139.6581  158.4643 N   0  0  0  0  0  0  0  0  0  0  0  0
  152.0378  140.6738  158.3431 N   0  0  0  0  0  0  0  0  0  0  0  0
  151.1105  140.7087  157.2188 C   0  0  2  0  0  0  0  0  0  0  0  0
  151.7925  140.1448  155.9575 C   0  0  0  0  0  0  0  0  0  0  0  0
  150.5109  142.1248  157.0016 C   0  0  2  0  0  0  0  0  0  0  0  0
  149.4311  142.4881  158.0370 C   0  0  0  0  0  0  0  0  0  0  0  0
  149.9285  142.2393  155.6455 N   0  3  0  0  0  0  0  0  0  0  0  0
  148.9472  141.1910  155.3016 C   0  0  0  0  0  0  0  0  0  0  0  0
  148.2907  141.4767  153.9674 C   0  0  0  0  0  0  0  0  0  0  0  0
  146.9794  142.2250  153.8916 C   0  0  0  0  0  0  0  0  0  0  0  0
  147.0245  140.7508  153.5748 C   0  0  0  0  0  0  0  0  0  0  0  0
  152.1610  141.5769  159.3785 C   0  0  0  0  0  0  0  0  0  0  0  0
  154.4576  141.1446  161.9240 H   0  0  0  0  0  0  0  0  0  0  0  0
  152.8962  141.8948  162.1982 H   0  0  0  0  0  0  0  0  0  0  0  0
  154.1246  142.7375  161.2702 H   0  0  0  0  0  0  0  0  0  0  0  0
  154.3726  139.2524  159.8843 H   0  0  0  0  0  0  0  0  0  0  0  0
  150.2909  140.0350  157.4742 H   0  0  0  0  0  0  0  0  0  0  0  0
  151.0816  140.0143  155.1416 H   0  0  0  0  0  0  0  0  0  0  0  0
  152.2344  139.1677  156.1559 H   0  0  0  0  0  0  0  0  0  0  0  0
  152.5873  140.8023  155.6038 H   0  0  0  0  0  0  0  0  0  0  0  0
  151.3107  142.8603  157.1070 H   0  0  0  0  0  0  0  0  0  0  0  0
  149.8346  142.5248  159.0490 H   0  0  0  0  0  0  0  0  0  0  0  0
  148.6151  141.7647  158.0298 H   0  0  0  0  0  0  0  0  0  0  0  0
  149.0062  143.4707  157.8293 H   0  0  0  0  0  0  0  0  0  0  0  0
  149.4823  143.1419  155.5647 H   0  0  0  0  0  0  0  0  0  0  0  0
  149.4544  140.2269  155.2460 H   0  0  0  0  0  0  0  0  0  0  0  0
  148.1842  141.1153  156.0773 H   0  0  0  0  0  0  0  0  0  0  0  0
  148.9954  141.6500  153.1560 H   0  0  0  0  0  0  0  0  0  0  0  0
  146.5089  142.5224  154.8267 H   0  0  0  0  0  0  0  0  0  0  0  0
  146.8414  142.9138  153.0606 H   0  0  0  0  0  0  0  0  0  0  0  0
  146.9152  140.4573  152.5327 H   0  0  0  0  0  0  0  0  0  0  0  0
  146.5837  140.0688  154.2995 H   0  0  0  0  0  0  0  0  0  0  0  0
  151.5337  142.4536  159.4471 H   0  0  0  0  0  0  0  0  0  0  0  0
  150.6804  142.1934  154.9731 H   0  0  0  0  0  0  0  0  0  0  0  0
  1  2  1  0  0  0  0
  1 16  1  0  0  0  0
  1 17  1  0  0  0  0
  1 18  1  0  0  0  0
  2 15  2  0  0  0  0
  2  3  1  0  0  0  0
  3  4  2  0  0  0  0
  3 19  1  0  0  0  0
  4  5  1  0  0  0  0
  5  6  1  0  0  0  0
  5 15  1  0  0  0  0
  6  7  1  0  0  0  0
  6  8  1  0  0  0  0
  6 20  1  0  0  0  0
  7 21  1  0  0  0  0
  7 22  1  0  0  0  0
  7 23  1  0  0  0  0
  8  9  1  0  0  0  0
  8 10  1  0  0  0  0
  8 24  1  0  0  0  0
  9 25  1  0  0  0  0
  9 26  1  0  0  0  0
  9 27  1  0  0  0  0
 10 11  1  0  0  0  0
 10 28  1  0  0  0  0
 10 37  1  0  0  0  0
 11 12  1  0  0  0  0
 11 29  1  0  0  0  0
 11 30  1  0  0  0  0
 12 14  1  0  0  0  0
 12 13  1  0  0  0  0
 12 31  1  0  0  0  0
 13 14  1  0  0  0  0
 13 32  1  0  0  0  0
 13 33  1  0  0  0  0
 14 34  1  0  0  0  0
 14 35  1  0  0  0  0
 15 36  1  0  0  0  0
M  CHG  1  10   1
M  END
> <s_m_source_file>
AV-unprocessed.smi

> <i_m_source_file_index>
3104

> <i_lp_mmshare_version>
43012

> <i_f3d_flags>
0

> <s_epik_input>
W0NIM11jMVtjSF1ubihbY0hdMSlbQ0BIXShbQ0gzXSlbQ0BIXShbQ0gzXSlbTkhdW0NIMl1bQ0hdMltDSDJdW0NIMl0y

> <s_epik_cmdline>
J2VwaWtfcHl0aG9uJywgJy1waCcsICc3LjAnLCAnLXRuJywgJzgnLCAnLW1hJywgJzIwMCcsICctbWV0YWxfYmluZGluZycsICctaW1hZScsICc8aW5maWxlLm1hZT4nLCAnLW9tYWUnLCAnPG91dGZpbGUubWFlPic=

> <r_lp_tautomer_probability>
1

> <r_epik_Ionization_Penalty>
0.00120445

> <r_epik_Ionization_Penalty_Charging>
0.00118273

> <r_epik_Ionization_Penalty_Neutral>
2.17265e-05

> <r_epik_State_Penalty>
-0

> <r_epik_Charging_Adjusted_Penalty>
0.00118273

> <i_epik_Tot_Q>
1

> <i_epik_Tot_abs_Q>
1

> <r_epik_Metal_State_Penalty>
-0

> <b_epik_Metal_Only>
0

> <s_lp_Force_Field>
OPLS_2005

> <r_lp_Energy>
21.3992

> <b_lp_Chiralities_Consistent>
1

> <s_lp_Variant>
AV-unprocessed.smi:3104-1

> <Gold.Version>
5.8.1

> <Gold.Id.Protein>
6NUR|6NUR_protein|mol2

> <Gold.PLP.Fitness>
41.1195

> <Gold.PLP.PLP>
-34.0337

> <Gold.PLP.part.hbond>
-2.0000

> <Gold.PLP.part.metal>
0.0000

> <Gold.PLP.part.buried>
-4.0913

> <Gold.PLP.part.nonpolar>
-27.9858

> <Gold.PLP.part.repulsive>
0.1653

> <Gold.PLP.ligand.clash>
0.0000

> <Gold.PLP.ligand.torsion>
1.2794

> <Gold.PLP.Chemscore.Hbond>
3.0000

> <Gold.PLP.Chemscore.CHOScore>
0.0000

> <Gold.PLP.Chemscore.Metal>
0.0000

> <Gold.Chemscore.Hbonds>
donor molecule, donor type, donor heavy atom, donor atom, acceptor molecule, acceptor atom, score
      L1  H    10    28       P1  8028  2.00
      P1  H  7997  8010       L1     4  0.39

> <Gold.PLP.Chemscore.Internal.Correction>
0.6445

> <Gold.Rescore>
     Score         DG    S(hbond)    S(metal)    S(lipo)     H(rot)  DE(clash)    DE(int)     intcor
     16.39     -17.75       1.73        0.00      88.10       1.49       0.04       1.32       ----

> <Gold.Chemscore.Fitness>
16.3927

> <Gold.Chemscore.DG>
-17.7476

> <Gold.Chemscore.ZeroCoef>
-5.4800

> <Gold.Chemscore.Hbond>
1.7307

> <Gold.Chemscore.Metal>
0.0000

> <Gold.Chemscore.Lipo>
88.0991

> <Gold.Chemscore.Internal_Hbond>
0.0000

> <Gold.Chemscore.DEClash>
0.0372

> <Gold.Chemscore.DEInternal>
1.3178

> <Gold.Chemscore.Rot>
1.4923

> <Gold.Chemscore.Internal.Correction>
   9.000000E+99

> <Gold.Chemscore.Hbonds>
donor molecule, donor type, donor heavy atom, donor atom, acceptor molecule, acceptor atom, score
      L1  H    10    28       P1  8028  1.00
      P1  H  7997  8010       L1     4  0.04

> <Gold.Chemscore.Hbond.Weighted>
-5.7804

> <Gold.Chemscore.Metal.Weighted>
-0.0000

> <Gold.Chemscore.Lipo.Weighted>
-10.3076

> <Gold.Chemscore.Internal_Hbond.Weighted>
0.0000

> <Gold.Chemscore.DEClash.Weighted>
0.0372

> <Gold.Chemscore.DEInternal.Weighted>
1.3178

> <Gold.Chemscore.Rot.Weighted>
3.8204

> <Gold.Chemscore.Internal.Correction.Weighted>
   9.000000E+99

> <Gold.Protein.RotatedTorsions>
[ 6907 6896 6895 6894 ] final -112.94 input  -60.11 | X-H torsion
[ 7974 7965 7964 7962 ] final   54.77 input  175.53 | X-H torsion
[ 8008 7997 7996 7995 ] final   33.15 input   59.86 | X-H torsion
[ 10167 10162 10161 10158 ] final   87.13 input  -65.29 | X-H torsion
[ 10718 10713 10712 10709 ] final  -41.63 input   66.30 | X-H torsion
[ 10763 10752 10751 10750 ] final -151.04 input  -60.55 | X-H torsion
[ 11005 11000 10999 10996 ] final  152.50 input  -57.11 | X-H torsion

> <Gold.Protein.ActiveResidues>
 VAL166  LYS551  ARG553  GLY616  TRP617  ASP618  TYR619  PRO620  LYS621  CYS622 
 ASP623  PHE694  ASN695  SER759  ASP760  ASP761  ALA762  ILE779  LEU786  VAL792 
 PHE793  MET794  SER795  GLU796  ALA797  LYS798  CYS799  TRP800  GLU811  SER814 

> <Gold.Protein.RotatedAtoms>
  150.7793  133.9017  159.3343 H   0  0  0  0  0  0  0  0  0  0  0  0  # atno 6907 bound_to 6896
  151.6884  135.0948  160.0238 H   0  0  0  0  0  0  0  0  0  0  0  0  # atno 6908 bound_to 6896
  152.3840  133.6546  159.6219 H   0  0  0  0  0  0  0  0  0  0  0  0  # atno 6909 bound_to 6896
  145.9574  139.4027  143.0269 H   0  0  0  0  0  0  0  0  0  0  0  0  # atno 7974 bound_to 7965
  155.1341  140.3260  155.4467 H   0  0  0  0  0  0  0  0  0  0  0  0  # atno 8008 bound_to 7997
  156.2625  140.2005  156.6408 H   0  0  0  0  0  0  0  0  0  0  0  0  # atno 8009 bound_to 7997
  154.6591  140.0549  157.0029 H   0  0  0  0  0  0  0  0  0  0  0  0  # atno 8010 bound_to 7997
  139.8805  144.6442  150.8848 H   0  0  0  0  0  0  0  0  0  0  0  0  # atno 10167 bound_to 10162
  156.2682  130.4204  149.8466 H   0  0  0  0  0  0  0  0  0  0  0  0  # atno 10718 bound_to 10713
  154.8082  135.3269  154.7375 H   0  0  0  0  0  0  0  0  0  0  0  0  # atno 10763 bound_to 10752
  153.8029  135.6902  153.4857 H   0  0  0  0  0  0  0  0  0  0  0  0  # atno 10764 bound_to 10752
  153.1842  135.4575  155.0013 H   0  0  0  0  0  0  0  0  0  0  0  0  # atno 10765 bound_to 10752
  140.1313  134.8800  157.2208 H   0  0  0  0  0  0  0  0  0  0  0  0  # atno 11005 bound_to 11000
  145.8088  140.9736  143.0960 LP  0  0  0  0  0  0  0  0  0  0  0  0  # atno 17320 bound_to 7965
  144.6808  139.9894  143.7484 LP  0  0  0  0  0  0  0  0  0  0  0  0  # atno 17321 bound_to 7965
  140.7745  143.3590  151.1866 LP  0  0  0  0  0  0  0  0  0  0  0  0  # atno 17342 bound_to 10162
  139.7200  143.9238  152.2982 LP  0  0  0  0  0  0  0  0  0  0  0  0  # atno 17343 bound_to 10162
  156.5957  130.8525  151.3419 LP  0  0  0  0  0  0  0  0  0  0  0  0  # atno 17370 bound_to 10713
  157.7275  130.9643  150.1701 LP  0  0  0  0  0  0  0  0  0  0  0  0  # atno 17371 bound_to 10713
  140.2838  134.3319  155.7335 LP  0  0  0  0  0  0  0  0  0  0  0  0  # atno 17394 bound_to 11000
  141.2171  133.7494  156.9403 LP  0  0  0  0  0  0  0  0  0  0  0  0  # atno 17395 bound_to 11000

$$$$
