AV-unprocessed.smi:3245|AV-procd|sdf|12406|dock2
  -GOLD-   2272018283D 1   1.00000     0.00000
 Structure written by MMmdl.
 35 36  0  0  0  0  0  0  0  0  3 V2000
  146.4565  139.0755  153.1131 C   0  0  0  0  0  0  0  0  0  0  0  0
  147.1804  140.1152  153.9792 C   0  0  2  0  0  0  0  0  0  0  0  0
  146.7570  141.5465  153.5819 C   0  0  0  0  0  0  0  0  0  0  0  0
  146.1820  142.2944  154.6859 N   0  0  0  0  0  0  0  0  0  0  0  0
  145.1261  143.1811  154.6647 C   0  0  0  0  0  0  0  0  0  0  0  0
  144.9318  143.6106  155.9463 C   0  0  0  0  0  0  0  0  0  0  0  0
  145.9328  142.9249  156.6895 C   0  0  0  0  0  0  0  0  0  0  0  0
  146.6819  142.1400  155.9315 N   0  0  0  0  0  0  0  0  0  0  0  0
  148.6440  139.9327  153.8470 N   0  3  0  0  0  0  0  0  0  0  0  0
  149.1481  138.6182  154.2927 C   0  0  0  0  0  0  0  0  0  0  0  0
  150.6447  138.4728  153.9872 C   0  0  0  0  0  0  0  0  0  0  0  0
  151.4300  138.4717  155.2234 N   0  0  0  0  0  0  0  0  0  0  0  0
  151.9525  137.3743  155.7792 C   0  0  0  0  0  0  0  0  0  0  0  0
  151.8657  136.2121  155.3817 O   0  0  0  0  0  0  0  0  0  0  0  0
  152.7141  137.8072  157.0100 C   0  0  0  0  0  0  0  0  0  0  0  0
  152.5312  139.2414  156.9966 N   0  5  0  0  0  0  0  0  0  0  0  0
  151.7739  139.5684  155.9241 C   0  0  0  0  0  0  0  0  0  0  0  0
  151.4269  140.6988  155.5836 O   0  0  0  0  0  0  0  0  0  0  0  0
  145.3744  139.1647  153.2147 H   0  0  0  0  0  0  0  0  0  0  0  0
  146.7302  138.0612  153.4055 H   0  0  0  0  0  0  0  0  0  0  0  0
  146.7020  139.1960  152.0574 H   0  0  0  0  0  0  0  0  0  0  0  0
  146.8894  139.9323  155.0151 H   0  0  0  0  0  0  0  0  0  0  0  0
  147.6083  142.1013  153.1835 H   0  0  0  0  0  0  0  0  0  0  0  0
  146.0145  141.5076  152.7839 H   0  0  0  0  0  0  0  0  0  0  0  0
  144.6024  143.4246  153.7520 H   0  0  0  0  0  0  0  0  0  0  0  0
  144.1861  144.3069  156.3004 H   0  0  0  0  0  0  0  0  0  0  0  0
  146.1344  142.9719  157.7497 H   0  0  0  0  0  0  0  0  0  0  0  0
  148.8968  140.0420  152.8754 H   0  0  0  0  0  0  0  0  0  0  0  0
  148.9838  138.4977  155.3632 H   0  0  0  0  0  0  0  0  0  0  0  0
  148.5779  137.8326  153.7954 H   0  0  0  0  0  0  0  0  0  0  0  0
  150.8283  137.5568  153.4231 H   0  0  0  0  0  0  0  0  0  0  0  0
  150.9737  139.2895  153.3418 H   0  0  0  0  0  0  0  0  0  0  0  0
  152.2940  137.3273  157.8946 H   0  0  0  0  0  0  0  0  0  0  0  0
  153.7586  137.5055  156.9259 H   0  0  0  0  0  0  0  0  0  0  0  0
  149.1021  140.6568  154.3823 H   0  0  0  0  0  0  0  0  0  0  0  0
  1  2  1  0  0  0  0
  1 19  1  0  0  0  0
  1 20  1  0  0  0  0
  1 21  1  0  0  0  0
  2  3  1  0  0  0  0
  2  9  1  0  0  0  0
  2 22  1  0  0  0  0
  3  4  1  0  0  0  0
  3 23  1  0  0  0  0
  3 24  1  0  0  0  0
  4  8  1  0  0  0  0
  4  5  1  0  0  0  0
  5  6  2  0  0  0  0
  5 25  1  0  0  0  0
  6  7  1  0  0  0  0
  6 26  1  0  0  0  0
  7  8  2  0  0  0  0
  7 27  1  0  0  0  0
  9 10  1  0  0  0  0
  9 28  1  0  0  0  0
  9 35  1  0  0  0  0
 10 11  1  0  0  0  0
 10 29  1  0  0  0  0
 10 30  1  0  0  0  0
 11 12  1  0  0  0  0
 11 31  1  0  0  0  0
 11 32  1  0  0  0  0
 12 17  1  0  0  0  0
 12 13  1  0  0  0  0
 13 14  2  0  0  0  0
 13 15  1  0  0  0  0
 15 16  1  0  0  0  0
 15 33  1  0  0  0  0
 15 34  1  0  0  0  0
 16 17  1  0  0  0  0
 17 18  2  0  0  0  0
M  CHG  1   9   1
M  CHG  1  16  -1
M  END
> <s_m_source_file>
AV-unprocessed.smi

> <i_m_source_file_index>
3245

> <i_lp_mmshare_version>
43012

> <i_f3d_flags>
0

> <s_epik_input>
bjFbY0hdW2NIXVtjSF1uMVtDSDJdW0NAQEhdKFtDSDNdKVtOSF1bQ0gyXVtDSDJdTjJDKD1PKVtDSDJdW05IXUMyPU8=

> <s_epik_cmdline>
J2VwaWtfcHl0aG9uJywgJy1waCcsICc3LjAnLCAnLXRuJywgJzgnLCAnLW1hJywgJzIwMCcsICctbWV0YWxfYmluZGluZycsICctaW1hZScsICc8aW5maWxlLm1hZT4nLCAnLW9tYWUnLCAnPG91dGZpbGUubWFlPic=

> <r_lp_tautomer_probability>
1

> <r_epik_Ionization_Penalty>
5.1873

> <r_epik_Ionization_Penalty_Charging>
5.18729

> <r_epik_Ionization_Penalty_Neutral>
3.83745e-06

> <r_epik_State_Penalty>
5.18822

> <r_epik_Charging_Adjusted_Penalty>
10.3755

> <i_epik_Tot_Q>
0

> <i_epik_Tot_abs_Q>
2

> <r_epik_Metal_State_Penalty>
1.25934

> <b_epik_Metal_Only>
1

> <s_lp_Force_Field>
OPLS_2005

> <r_lp_Energy>
10.3219

> <b_lp_Chiralities_Consistent>
1

> <s_lp_Variant>
AV-unprocessed.smi:3245-5

> <Gold.Version>
5.8.1

> <Gold.Id.Protein>
6NUR|6NUR_protein|mol2

> <Gold.PLP.Fitness>
41.8233

> <Gold.PLP.PLP>
-29.3319

> <Gold.PLP.part.hbond>
-3.9852

> <Gold.PLP.part.metal>
0.0000

> <Gold.PLP.part.buried>
-4.9142

> <Gold.PLP.part.nonpolar>
-21.9835

> <Gold.PLP.part.repulsive>
0.3405

> <Gold.PLP.ligand.clash>
0.0000

> <Gold.PLP.ligand.torsion>
1.6809

> <Gold.PLP.Chemscore.Hbond>
4.6661

> <Gold.PLP.Chemscore.CHOScore>
0.5725

> <Gold.PLP.Chemscore.Metal>
0.0000

> <Gold.Chemscore.Hbonds>
donor molecule, donor type, donor heavy atom, donor atom, acceptor molecule, acceptor atom, score
      L1  H     9    28       P1  7957  1.00
      P1  H  7989  7998       L1    18  0.62
      P1  H  7997  8009       L1    16  1.89
      P1  H 10752 10765       L1    14  0.84
      L1  C     5    25       P1 10174  0.43

> <Gold.PLP.Chemscore.Internal.Correction>
0.1373

> <Gold.Rescore>
     Score         DG    S(hbond)    S(metal)    S(lipo)     H(rot)  DE(clash)    DE(int)     intcor
     13.22     -15.00       3.17        0.00      49.02       2.66       0.12       1.66       ----

> <Gold.Chemscore.Fitness>
13.2239

> <Gold.Chemscore.DG>
-15.0003

> <Gold.Chemscore.ZeroCoef>
-5.4800

> <Gold.Chemscore.Hbond>
3.1721

> <Gold.Chemscore.Metal>
0.0000

> <Gold.Chemscore.Lipo>
49.0180

> <Gold.Chemscore.Internal_Hbond>
0.0000

> <Gold.Chemscore.DEClash>
0.1155

> <Gold.Chemscore.DEInternal>
1.6609

> <Gold.Chemscore.Rot>
2.6601

> <Gold.Chemscore.Internal.Correction>
   9.000000E+99

> <Gold.Chemscore.Hbonds>
donor molecule, donor type, donor heavy atom, donor atom, acceptor molecule, acceptor atom, score
      L1  H     9    28       P1  7957  1.00
      P1  H  7989  7998       L1    18  0.43
      P1  H  7997  8009       L1    16  0.30
      P1  H 10752 10765       L1    14  0.82

> <Gold.Chemscore.Hbond.Weighted>
-10.5949

> <Gold.Chemscore.Metal.Weighted>
-0.0000

> <Gold.Chemscore.Lipo.Weighted>
-5.7351

> <Gold.Chemscore.Internal_Hbond.Weighted>
0.0000

> <Gold.Chemscore.DEClash.Weighted>
0.1155

> <Gold.Chemscore.DEInternal.Weighted>
1.6609

> <Gold.Chemscore.Rot.Weighted>
6.8098

> <Gold.Chemscore.Internal.Correction.Weighted>
   9.000000E+99

> <Gold.Protein.RotatedTorsions>
[ 6907 6896 6895 6894 ] final -129.03 input  -60.11 | X-H torsion
[ 7974 7965 7964 7962 ] final   34.21 input  175.53 | X-H torsion
[ 8008 7997 7996 7995 ] final  179.04 input   59.86 | X-H torsion
[ 10167 10162 10161 10158 ] final -107.27 input  -65.29 | X-H torsion
[ 10718 10713 10712 10709 ] final -155.96 input   66.30 | X-H torsion
[ 10763 10752 10751 10750 ] final  178.00 input  -60.55 | X-H torsion
[ 11005 11000 10999 10996 ] final   -0.21 input  -57.11 | X-H torsion

> <Gold.Protein.ActiveResidues>
 VAL166  LYS551  ARG553  GLY616  TRP617  ASP618  TYR619  PRO620  LYS621  CYS622 
 ASP623  PHE694  ASN695  SER759  ASP760  ASP761  ALA762  ILE779  LEU786  VAL792 
 PHE793  MET794  SER795  GLU796  ALA797  LYS798  CYS799  TRP800  GLU811  SER814 

> <Gold.Protein.RotatedAtoms>
  150.9242  133.6843  159.2824 H   0  0  0  0  0  0  0  0  0  0  0  0  # atno 6907 bound_to 6896
  151.4287  135.1005  159.9645 H   0  0  0  0  0  0  0  0  0  0  0  0  # atno 6908 bound_to 6896
  152.4995  133.8677  159.7338 H   0  0  0  0  0  0  0  0  0  0  0  0  # atno 6909 bound_to 6896
  146.1368  139.6297  142.9190 H   0  0  0  0  0  0  0  0  0  0  0  0  # atno 7974 bound_to 7965
  156.0479  140.1318  157.0083 H   0  0  0  0  0  0  0  0  0  0  0  0  # atno 8008 bound_to 7997
  154.4421  140.1017  156.6403 H   0  0  0  0  0  0  0  0  0  0  0  0  # atno 8009 bound_to 7997
  155.5568  140.3464  155.4484 H   0  0  0  0  0  0  0  0  0  0  0  0  # atno 8010 bound_to 7997
  140.1788  143.3983  152.1297 H   0  0  0  0  0  0  0  0  0  0  0  0  # atno 10167 bound_to 10162
  156.5199  130.8473  151.2678 H   0  0  0  0  0  0  0  0  0  0  0  0  # atno 10718 bound_to 10713
  154.5019  135.2784  155.1413 H   0  0  0  0  0  0  0  0  0  0  0  0  # atno 10763 bound_to 10752
  154.3043  135.6242  153.5442 H   0  0  0  0  0  0  0  0  0  0  0  0  # atno 10764 bound_to 10752
  152.9904  135.5704  154.5464 H   0  0  0  0  0  0  0  0  0  0  0  0  # atno 10765 bound_to 10752
  140.6338  133.9551  155.8288 H   0  0  0  0  0  0  0  0  0  0  0  0  # atno 11005 bound_to 11000
  145.5138  141.0434  143.2473 LP  0  0  0  0  0  0  0  0  0  0  0  0  # atno 17320 bound_to 7965
  144.7748  139.6653  143.7179 LP  0  0  0  0  0  0  0  0  0  0  0  0  # atno 17321 bound_to 7965
  139.5305  144.7153  151.5073 LP  0  0  0  0  0  0  0  0  0  0  0  0  # atno 17342 bound_to 10162
  140.6533  143.8651  150.6809 LP  0  0  0  0  0  0  0  0  0  0  0  0  # atno 17343 bound_to 10162
  157.7438  130.9921  150.2623 LP  0  0  0  0  0  0  0  0  0  0  0  0  # atno 17370 bound_to 10713
  156.3159  130.3778  149.7619 LP  0  0  0  0  0  0  0  0  0  0  0  0  # atno 17371 bound_to 10713
  141.0656  134.0281  157.3598 LP  0  0  0  0  0  0  0  0  0  0  0  0  # atno 17394 bound_to 11000
  139.9106  135.0189  156.7675 LP  0  0  0  0  0  0  0  0  0  0  0  0  # atno 17395 bound_to 11000

$$$$
