#       Name:                AV-unprocessed.smi:3007
#       Creating user name   scv26
#       Creation time:       Fri Mar 27 16:37:54 2020


#       File generated by GOLD software.
#

@<TRIPOS>MOLECULE
AV-unprocessed.smi:3007
    44    45     1
SMALL
NO_CHARGES


@<TRIPOS>ATOM
      1 ****        -3.4935   2.5353   2.3098 C.3            1 S1                 0.0000
      2 ****        -3.0860   2.8452   0.8677 C.2            1 S1                 0.0000
      3 ****        -2.9618   4.0265   0.5436 O.2            1 S1                 0.0000
      4 ****        -2.8771   1.8232   0.0033 N.am           1 S1                 0.0000
      5 ****        -2.4323   2.0323  -1.3797 C.3            1 S1                 0.0000
      6 ****        -0.9814   1.5375  -1.5170 C.3            1 S1                 0.0000
      7 ****        -0.8507   0.0613  -1.0869 C.3            1 S1                 0.0000
      8 ****         0.5578  -0.3180  -1.0610 N.am           1 S1                 0.0000
      9 ****         1.0299  -1.5656  -1.2147 C.2            1 S1                 0.0000
     10 ****         0.3025  -2.5392  -1.4157 O.2            1 S1                 0.0000
     11 ****         2.5564  -1.7265  -1.1263 C.3            1 S1                 0.0000
     12 ****         3.0582  -3.0506  -1.7379 C.3            1 S1                 0.0000
     13 ****         3.0077  -1.5524   0.2498 N.pl3          1 S1                 0.0000
     14 ****         3.5920  -0.4374   0.8166 C.2            1 S1                 0.0000
     15 ****         3.8143  -0.7149   2.1348 C.2            1 S1                 0.0000
     16 ****         3.3160  -2.0381   2.2898 C.2            1 S1                 0.0000
     17 ****         2.8284  -2.5339   1.1646 N.2            1 S1                 0.0000
     18 ****        -1.5045  -0.1824   0.2926 C.3            1 S1                 0.0000
     19 ****        -2.9300   0.3960   0.3450 C.3            1 S1                 0.0000
     20 ****        -2.7358   1.9267   2.8043 H              1 S1                 0.0000
     21 ****        -4.4472   2.0079   2.3370 H              1 S1                 0.0000
     22 ****        -3.6070   3.4560   2.8832 H              1 S1                 0.0000
     23 ****        -3.0832   1.4771  -2.0566 H              1 S1                 0.0000
     24 ****        -2.4995   3.0750  -1.6932 H              1 S1                 0.0000
     25 ****        -0.6427   1.6595  -2.5463 H              1 S1                 0.0000
     26 ****        -0.3322   2.1627  -0.9016 H              1 S1                 0.0000
     27 ****        -1.3728  -0.5459  -1.8291 H              1 S1                 0.0000
     28 ****         1.2247   0.4225  -0.8995 H              1 S1                 0.0000
     29 ****         2.9954  -0.9172  -1.7120 H              1 S1                 0.0000
     30 ****         2.7719  -3.1321  -2.7869 H              1 S1                 0.0000
     31 ****         2.6576  -3.9214  -1.2173 H              1 S1                 0.0000
     32 ****         4.1458  -3.1111  -1.6919 H              1 S1                 0.0000
     33 ****         3.7995   0.4524   0.2405 H              1 S1                 0.0000
     34 ****         4.2605  -0.0690   2.8764 H              1 S1                 0.0000
     35 ****         3.2911  -2.6477   3.1809 H              1 S1                 0.0000
     36 ****        -1.5302  -1.2500   0.5138 H              1 S1                 0.0000
     37 ****        -0.9014   0.2802   1.0755 H              1 S1                 0.0000
     38 ****        -3.3737   0.1951   1.3188 H              1 S1                 0.0000
     39 ****        -3.5666  -0.1202  -0.3750 H              1 S1                 0.0000
     40 ****        -3.1261   4.7492   1.2150 LP             1 S1                 0.0000
     41 ****        -2.6966   4.2634  -0.3911 LP             1 S1                 0.0000
     42 ****        -0.6888  -2.4197  -1.4710 LP             1 S1                 0.0000
     43 ****         0.7033  -3.4490  -1.5236 LP             1 S1                 0.0000
     44 ****         2.4181  -3.4345   1.0214 LP             1 S1                 0.0000
@<TRIPOS>BOND
    1    1    2 1     
    2    1   20 1     
    3    1   21 1     
    4    1   22 1     
    5    2    3 2     
    6    2    4 am    
    7    4   19 1     
    8    4    5 1     
    9    5    6 1     
   10    5   23 1     
   11    5   24 1     
   12    6    7 1     
   13    6   25 1     
   14    6   26 1     
   15    7    8 1     
   16    7   18 1     
   17    7   27 1     
   18    8    9 am    
   19    8   28 1     
   20    9   10 2     
   21    9   11 1     
   22   11   12 1     
   23   11   13 1     
   24   11   29 1     
   25   12   30 1     
   26   12   31 1     
   27   12   32 1     
   28   13   17 1     
   29   13   14 1     
   30   14   15 2     
   31   14   33 1     
   32   15   16 1     
   33   15   34 1     
   34   16   17 2     
   35   16   35 1     
   36   18   19 1     
   37   18   36 1     
   38   18   37 1     
   39   19   38 1     
   40   19   39 1     
   41    3   40 1     
   42    3   41 1     
   43   10   42 1     
   44   10   43 1     
   45   17   44 1     
@<TRIPOS>SUBSTRUCTURE
      1 S1             1
@<TRIPOS>SET
LONE_PAIRS      STATIC     ATOMS    <user>   **** ""
5 40 41 42 43 44
DONOR_HYDROGENS      STATIC     ATOMS    <user>   **** ""
1 28
ATOM$BLUE        STATIC     ATOMS    COLORGROUP SYSTEM
5 40 41 42 43 44
ATOM$RED        STATIC     ATOMS    COLORGROUP SYSTEM
1 28
