AV-unprocessed.smi:2339|AV-procd|sdf|9341|dock6
  -GOLD-   2272012563D 1   1.00000     0.00000
 Structure written by MMmdl.
 49 52  0  0  0  0  0  0  0  0  1 V2000
  143.9244  132.4033  149.3890 C   0  0  0  0  0  0  0  0  0  0  0  0
  144.5479  132.2589  150.7817 C   0  0  0  0  0  0  0  0  0  0  0  0
  144.4590  133.4964  151.5433 N   0  0  0  0  0  0  0  0  0  0  0  0
  143.2305  134.0824  151.8302 C   0  0  0  0  0  0  0  0  0  0  0  0
  143.0857  135.2467  152.4921 C   0  0  0  0  0  0  0  0  0  0  0  0
  144.2873  135.9725  152.9505 C   0  0  0  0  0  0  0  0  0  0  0  0
  144.1925  137.0331  153.5685 O   0  0  0  0  0  0  0  0  0  0  0  0
  145.6005  135.3544  152.6293 C   0  0  0  0  0  0  0  0  0  0  0  0
  146.7346  136.0515  153.0735 N   0  0  0  0  0  0  0  0  0  0  0  0
  146.9336  136.7379  154.2171 C   0  0  0  0  0  0  0  0  0  0  0  0
  146.1298  136.8336  155.1416 O   0  0  0  0  0  0  0  0  0  0  0  0
  148.1328  137.3427  154.2766 N   0  0  0  0  0  0  0  0  0  0  0  0
  148.6635  138.1653  155.3765 C   0  0  1  0  0  0  0  0  0  0  0  0
  150.1927  138.1505  155.4951 C   0  0  1  0  0  0  0  0  0  0  0  0
  151.2864  137.2499  155.0438 C   0  0  0  0  0  0  0  0  0  0  0  0
  152.2726  138.3534  154.5799 C   0  0  0  0  0  0  0  0  0  0  0  0
  151.5247  139.5954  154.6120 O   0  0  0  0  0  0  0  0  0  0  0  0
  150.1826  139.1987  154.4028 C   0  0  2  0  0  0  0  0  0  0  0  0
  148.8505  139.6902  155.0183 C   0  0  0  0  0  0  0  0  0  0  0  0
  148.9526  140.7004  156.1798 C   0  0  0  0  0  0  0  0  0  0  0  0
  147.9717  141.8440  155.9152 C   0  0  0  0  0  0  0  0  0  0  0  0
  147.7472  141.8130  154.4107 C   0  0  0  0  0  0  0  0  0  0  0  0
  147.8353  140.3300  154.0635 C   0  0  0  0  0  0  0  0  0  0  0  0
  145.6034  134.1743  151.9585 C   0  0  0  0  0  0  0  0  0  0  0  0
  143.9960  131.4679  148.8340 H   0  0  0  0  0  0  0  0  0  0  0  0
  144.4311  133.1749  148.8087 H   0  0  0  0  0  0  0  0  0  0  0  0
  142.8695  132.6713  149.4553 H   0  0  0  0  0  0  0  0  0  0  0  0
  144.0500  131.4581  151.3299 H   0  0  0  0  0  0  0  0  0  0  0  0
  145.5934  131.9616  150.6904 H   0  0  0  0  0  0  0  0  0  0  0  0
  142.3765  133.5203  151.4806 H   0  0  0  0  0  0  0  0  0  0  0  0
  142.1100  135.6628  152.6955 H   0  0  0  0  0  0  0  0  0  0  0  0
  147.5086  136.0415  152.4249 H   0  0  0  0  0  0  0  0  0  0  0  0
  148.7422  137.2227  153.4803 H   0  0  0  0  0  0  0  0  0  0  0  0
  148.1482  138.0116  156.3260 H   0  0  0  0  0  0  0  0  0  0  0  0
  150.4604  138.5707  156.4700 H   0  0  0  0  0  0  0  0  0  0  0  0
  151.6892  136.6346  155.8486 H   0  0  0  0  0  0  0  0  0  0  0  0
  150.9806  136.6062  154.2184 H   0  0  0  0  0  0  0  0  0  0  0  0
  153.1382  138.4297  155.2383 H   0  0  0  0  0  0  0  0  0  0  0  0
  152.6315  138.1520  153.5699 H   0  0  0  0  0  0  0  0  0  0  0  0
  150.0573  138.7959  153.3925 H   0  0  0  0  0  0  0  0  0  0  0  0
  148.7482  140.2398  157.1470 H   0  0  0  0  0  0  0  0  0  0  0  0
  149.9632  141.1066  156.2376 H   0  0  0  0  0  0  0  0  0  0  0  0
  147.0299  141.6437  156.4280 H   0  0  0  0  0  0  0  0  0  0  0  0
  148.3430  142.8074  156.2657 H   0  0  0  0  0  0  0  0  0  0  0  0
  146.7982  142.2615  154.1153 H   0  0  0  0  0  0  0  0  0  0  0  0
  148.5478  142.3566  153.9074 H   0  0  0  0  0  0  0  0  0  0  0  0
  148.1004  140.1875  153.0153 H   0  0  0  0  0  0  0  0  0  0  0  0
  146.8540  139.8748  154.2043 H   0  0  0  0  0  0  0  0  0  0  0  0
  146.5074  133.6465  151.7002 H   0  0  0  0  0  0  0  0  0  0  0  0
  1  2  1  0  0  0  0
  1 25  1  0  0  0  0
  1 26  1  0  0  0  0
  1 27  1  0  0  0  0
  2  3  1  0  0  0  0
  2 28  1  0  0  0  0
  2 29  1  0  0  0  0
  3 24  1  0  0  0  0
  3  4  1  0  0  0  0
  4  5  2  0  0  0  0
  4 30  1  0  0  0  0
  5  6  1  0  0  0  0
  5 31  1  0  0  0  0
  6  7  2  0  0  0  0
  6  8  1  0  0  0  0
  8  9  1  0  0  0  0
  8 24  2  0  0  0  0
  9 10  1  0  0  0  0
  9 32  1  0  0  0  0
 10 11  2  0  0  0  0
 10 12  1  0  0  0  0
 12 13  1  0  0  0  0
 12 33  1  0  0  0  0
 13 19  1  0  0  0  0
 13 14  1  0  0  0  0
 13 34  1  0  0  0  0
 14 18  1  0  0  0  0
 14 15  1  0  0  0  0
 14 35  1  0  0  0  0
 15 16  1  0  0  0  0
 15 36  1  0  0  0  0
 15 37  1  0  0  0  0
 16 17  1  0  0  0  0
 16 38  1  0  0  0  0
 16 39  1  0  0  0  0
 17 18  1  0  0  0  0
 18 19  1  0  0  0  0
 18 40  1  0  0  0  0
 19 23  1  0  0  0  0
 19 20  1  0  0  0  0
 20 21  1  0  0  0  0
 20 41  1  0  0  0  0
 20 42  1  0  0  0  0
 21 22  1  0  0  0  0
 21 43  1  0  0  0  0
 21 44  1  0  0  0  0
 22 23  1  0  0  0  0
 22 45  1  0  0  0  0
 22 46  1  0  0  0  0
 23 47  1  0  0  0  0
 23 48  1  0  0  0  0
 24 49  1  0  0  0  0
M  END
> <s_m_source_file>
AV-unprocessed.smi

> <i_m_source_file_index>
2339

> <i_lp_mmshare_version>
43012

> <i_f3d_flags>
0

> <s_epik_input>
W0NIM11bQ0gyXW4xW2NIXVtjSF1jKD1PKWMoW2NIXTEpW05IXUMoPU8pW05IXVtDQEBIXTJbQ0BASF0oW0NIMl1bQ0gyXU8zKVtDQEBIXTNDMjRbQ0gyXVtDSDJdW0NIMl1bQ0gyXTQ=

> <s_epik_cmdline>
J2VwaWtfcHl0aG9uJywgJy1waCcsICc3LjAnLCAnLXRuJywgJzgnLCAnLW1hJywgJzIwMCcsICctbWV0YWxfYmluZGluZycsICctaW1hZScsICc8aW5maWxlLm1hZT4nLCAnLW9tYWUnLCAnPG91dGZpbGUubWFlPic=

> <r_lp_tautomer_probability>
1

> <r_epik_Ionization_Penalty>
0.00145966

> <r_epik_Ionization_Penalty_Charging>
0.00143969

> <r_epik_Ionization_Penalty_Neutral>
1.99697e-05

> <r_epik_State_Penalty>
0.000961843

> <r_epik_Charging_Adjusted_Penalty>
0.00240153

> <i_epik_Tot_Q>
0

> <i_epik_Tot_abs_Q>
0

> <r_epik_Metal_State_Penalty>
-0

> <b_epik_Metal_Only>
0

> <s_lp_Force_Field>
OPLS_2005

> <r_lp_Energy>
82.1358

> <b_lp_Chiralities_Consistent>
1

> <s_lp_Variant>
AV-unprocessed.smi:2339-6

> <Gold.Version>
5.8.1

> <Gold.Id.Protein>
6NUR|6NUR_protein|mol2

> <Gold.PLP.Fitness>
46.3251

> <Gold.PLP.PLP>
-36.0416

> <Gold.PLP.part.hbond>
-2.9872

> <Gold.PLP.part.metal>
0.0000

> <Gold.PLP.part.buried>
-4.3178

> <Gold.PLP.part.nonpolar>
-30.3713

> <Gold.PLP.part.repulsive>
0.2360

> <Gold.PLP.ligand.clash>
0.0000

> <Gold.PLP.ligand.torsion>
0.5029

> <Gold.PLP.Chemscore.Hbond>
2.8800

> <Gold.PLP.Chemscore.CHOScore>
0.7907

> <Gold.PLP.Chemscore.Metal>
0.0000

> <Gold.Chemscore.Hbonds>
donor molecule, donor type, donor heavy atom, donor atom, acceptor molecule, acceptor atom, score
      L1  H     9    32       P1  7948  1.00
      L1  H    12    33       P1  7948  0.88
      P1  H  7989  7998       L1    17  1.00
      L1  C     4    30       P1 10186  0.79

> <Gold.PLP.Chemscore.Internal.Correction>
0.2770

> <Gold.Rescore>
     Score         DG    S(hbond)    S(metal)    S(lipo)     H(rot)  DE(clash)    DE(int)     intcor
     17.06     -21.89       2.59        0.00      91.87       1.17       0.15       4.69       ----

> <Gold.Chemscore.Fitness>
17.0564

> <Gold.Chemscore.DG>
-21.8920

> <Gold.Chemscore.ZeroCoef>
-5.4800

> <Gold.Chemscore.Hbond>
2.5899

> <Gold.Chemscore.Metal>
0.0000

> <Gold.Chemscore.Lipo>
91.8739

> <Gold.Chemscore.Internal_Hbond>
0.0000

> <Gold.Chemscore.DEClash>
0.1492

> <Gold.Chemscore.DEInternal>
4.6864

> <Gold.Chemscore.Rot>
1.1670

> <Gold.Chemscore.Internal.Correction>
   9.000000E+99

> <Gold.Chemscore.Hbonds>
donor molecule, donor type, donor heavy atom, donor atom, acceptor molecule, acceptor atom, score
      L1  H     9    32       P1  7948  0.95
      L1  H    12    33       P1  7948  0.86
      P1  H  7989  7998       L1    17  0.30

> <Gold.Chemscore.Hbond.Weighted>
-8.6501

> <Gold.Chemscore.Metal.Weighted>
-0.0000

> <Gold.Chemscore.Lipo.Weighted>
-10.7493

> <Gold.Chemscore.Internal_Hbond.Weighted>
0.0000

> <Gold.Chemscore.DEClash.Weighted>
0.1492

> <Gold.Chemscore.DEInternal.Weighted>
4.6864

> <Gold.Chemscore.Rot.Weighted>
2.9874

> <Gold.Chemscore.Internal.Correction.Weighted>
   9.000000E+99

> <Gold.Protein.RotatedTorsions>
[ 6907 6896 6895 6894 ] final -172.61 input  -60.11 | X-H torsion
[ 7974 7965 7964 7962 ] final  -28.38 input  175.53 | X-H torsion
[ 8008 7997 7996 7995 ] final  -51.23 input   59.86 | X-H torsion
[ 10167 10162 10161 10158 ] final -137.01 input  -65.29 | X-H torsion
[ 10718 10713 10712 10709 ] final -164.33 input   66.30 | X-H torsion
[ 10763 10752 10751 10750 ] final  148.98 input  -60.55 | X-H torsion
[ 11005 11000 10999 10996 ] final   59.61 input  -57.11 | X-H torsion

> <Gold.Protein.ActiveResidues>
 VAL166  LYS551  ARG553  GLY616  TRP617  ASP618  TYR619  PRO620  LYS621  CYS622 
 ASP623  PHE694  ASN695  SER759  ASP760  ASP761  ALA762  ILE779  LEU786  VAL792 
 PHE793  MET794  SER795  GLU796  ALA797  LYS798  CYS799  TRP800  GLU811  SER814 

> <Gold.Protein.RotatedAtoms>
  151.5428  133.3430  159.2938 H   0  0  0  0  0  0  0  0  0  0  0  0  # atno 6907 bound_to 6896
  150.8525  134.7857  159.7031 H   0  0  0  0  0  0  0  0  0  0  0  0  # atno 6908 bound_to 6896
  152.4567  134.5283  159.9855 H   0  0  0  0  0  0  0  0  0  0  0  0  # atno 6909 bound_to 6896
  146.1292  140.5275  142.8701 H   0  0  0  0  0  0  0  0  0  0  0  0  # atno 7974 bound_to 7965
  154.4078  140.1253  156.4796 H   0  0  0  0  0  0  0  0  0  0  0  0  # atno 8008 bound_to 7997
  155.7098  140.3494  155.4949 H   0  0  0  0  0  0  0  0  0  0  0  0  # atno 8009 bound_to 7997
  155.9310  140.1069  157.1122 H   0  0  0  0  0  0  0  0  0  0  0  0  # atno 8010 bound_to 7997
  139.8620  143.7065  152.2649 H   0  0  0  0  0  0  0  0  0  0  0  0  # atno 10167 bound_to 10162
  156.6375  130.8955  151.2989 H   0  0  0  0  0  0  0  0  0  0  0  0  # atno 10718 bound_to 10713
  154.0636  135.2872  155.3320 H   0  0  0  0  0  0  0  0  0  0  0  0  # atno 10763 bound_to 10752
  154.6792  135.5270  153.8244 H   0  0  0  0  0  0  0  0  0  0  0  0  # atno 10764 bound_to 10752
  153.0513  135.6577  154.0823 H   0  0  0  0  0  0  0  0  0  0  0  0  # atno 10765 bound_to 10752
  140.0291  134.6038  155.9531 H   0  0  0  0  0  0  0  0  0  0  0  0  # atno 11005 bound_to 11000
  144.7673  140.5559  143.6694 LP  0  0  0  0  0  0  0  0  0  0  0  0  # atno 17320 bound_to 7965
  145.5298  139.1475  143.3506 LP  0  0  0  0  0  0  0  0  0  0  0  0  # atno 17321 bound_to 7965
  139.7364  144.7570  151.0720 LP  0  0  0  0  0  0  0  0  0  0  0  0  # atno 17342 bound_to 10162
  140.7773  143.5025  150.9753 LP  0  0  0  0  0  0  0  0  0  0  0  0  # atno 17343 bound_to 10162
  157.7181  130.9523  150.1333 LP  0  0  0  0  0  0  0  0  0  0  0  0  # atno 17370 bound_to 10713
  156.2185  130.3672  149.8584 LP  0  0  0  0  0  0  0  0  0  0  0  0  # atno 17371 bound_to 10713
  141.1820  133.6548  156.5061 LP  0  0  0  0  0  0  0  0  0  0  0  0  # atno 17394 bound_to 11000
  140.4255  134.7148  157.4914 LP  0  0  0  0  0  0  0  0  0  0  0  0  # atno 17395 bound_to 11000

$$$$
