#       Name:                AV-unprocessed.smi:3346
#       Creating user name   scv26
#       Creation time:       Fri Mar 27 19:32:34 2020


#       File generated by GOLD software.
#

@<TRIPOS>MOLECULE
AV-unprocessed.smi:3346
    52    53     1
SMALL
NO_CHARGES


@<TRIPOS>ATOM
      1 ****        -3.2278   0.8696   2.7308 C.3            1 S1                 0.0000
      2 ****        -3.4738   0.2599   1.3401 C.3            1 S1                 0.0000
      3 ****        -4.9814   0.1546   1.0643 C.3            1 S1                 0.0000
      4 ****        -2.7943  -1.1172   1.1679 C.3            1 S1                 0.0000
      5 ****        -1.2508  -1.1048   1.2057 C.3            1 S1                 0.0000
      6 ****        -0.6771  -2.5288   1.2236 C.3            1 S1                 0.0000
      7 ****        -0.7341  -0.4456   0.0129 N.3            1 S1                 0.0000
      8 ****        -0.0508   0.7920   0.3531 C.3            1 S1                 0.0000
      9 ****         0.4789   1.5105  -0.8758 C.ar           1 S1                 0.0000
     10 ****        -0.2803   2.5488  -1.4542 C.ar           1 S1                 0.0000
     11 ****         0.2216   3.2145  -2.5875 C.ar           1 S1                 0.0000
     12 ****         1.4691   2.8121  -3.0994 C.ar           1 S1                 0.0000
     13 ****         2.2045   1.8179  -2.5594 N.ar           1 S1                 0.0000
     14 ****         1.7236   1.1744  -1.4677 C.ar           1 S1                 0.0000
     15 ****         2.4960   0.1266  -0.9394 N.3            1 S1                 0.0000
     16 ****         2.3338  -1.1250  -1.6676 C.3            1 S1                 0.0000
     17 ****         3.0591  -2.2615  -0.9265 C.3            1 S1                 0.0000
     18 ****         4.4270  -1.9122  -0.7309 O.3            1 S1                 0.0000
     19 ****         4.5717  -0.7252   0.0445 C.3            1 S1                 0.0000
     20 ****         3.8948   0.4482  -0.6836 C.3            1 S1                 0.0000
     21 ****        -3.5958   0.2145   3.5210 H              1 S1                 0.0000
     22 ****        -3.7371   1.8284   2.8321 H              1 S1                 0.0000
     23 ****        -2.1690   1.0506   2.9129 H              1 S1                 0.0000
     24 ****        -3.0646   0.9438   0.5960 H              1 S1                 0.0000
     25 ****        -5.4676  -0.5173   1.7725 H              1 S1                 0.0000
     26 ****        -5.1725  -0.2250   0.0603 H              1 S1                 0.0000
     27 ****        -5.4652   1.1286   1.1430 H              1 S1                 0.0000
     28 ****        -3.1630  -1.7816   1.9507 H              1 S1                 0.0000
     29 ****        -3.1190  -1.5663   0.2278 H              1 S1                 0.0000
     30 ****        -0.9047  -0.6043   2.1105 H              1 S1                 0.0000
     31 ****        -1.0191  -3.0764   2.1022 H              1 S1                 0.0000
     32 ****         0.4129  -2.5135   1.2539 H              1 S1                 0.0000
     33 ****        -0.9789  -3.0952   0.3416 H              1 S1                 0.0000
     34 ****        -0.0728  -1.0635  -0.4348 H              1 S1                 0.0000
     35 ****        -0.7366   1.4554   0.8810 H              1 S1                 0.0000
     36 ****         0.7726   0.5838   1.0374 H              1 S1                 0.0000
     37 ****        -1.2346   2.8329  -1.0351 H              1 S1                 0.0000
     38 ****        -0.3359   4.0137  -3.0528 H              1 S1                 0.0000
     39 ****         1.8871   3.2998  -3.9676 H              1 S1                 0.0000
     40 ****         1.2754  -1.3644  -1.7758 H              1 S1                 0.0000
     41 ****         2.7424  -1.0156  -2.6731 H              1 S1                 0.0000
     42 ****         2.5856  -2.4628   0.0353 H              1 S1                 0.0000
     43 ****         3.0058  -3.1824  -1.5070 H              1 S1                 0.0000
     44 ****         4.1384  -0.8705   1.0356 H              1 S1                 0.0000
     45 ****         5.6324  -0.5184   0.1872 H              1 S1                 0.0000
     46 ****         4.4108   0.6438  -1.6246 H              1 S1                 0.0000
     47 ****         3.9618   1.3547  -0.0811 H              1 S1                 0.0000
     48 ****        -1.5007  -0.2336  -0.5931 LP             1 S1                 0.0000
     49 ****         3.0858   1.5612  -2.9563 LP             1 S1                 0.0000
     50 ****         2.1080  -0.0132  -0.0284 LP             1 S1                 0.0000
     51 ****         4.8539  -1.7682  -1.6237 LP             1 S1                 0.0000
     52 ****         4.8874  -2.6639  -0.2587 LP             1 S1                 0.0000
@<TRIPOS>BOND
    1    1    2 1     
    2    1   21 1     
    3    1   22 1     
    4    1   23 1     
    5    2    3 1     
    6    2    4 1     
    7    2   24 1     
    8    3   25 1     
    9    3   26 1     
   10    3   27 1     
   11    4    5 1     
   12    4   28 1     
   13    4   29 1     
   14    5    6 1     
   15    5    7 1     
   16    5   30 1     
   17    6   31 1     
   18    6   32 1     
   19    6   33 1     
   20    7    8 1     
   21    7   34 1     
   22    8    9 1     
   23    8   35 1     
   24    8   36 1     
   25    9   14 ar    
   26    9   10 ar    
   27   10   11 ar    
   28   10   37 1     
   29   11   12 ar    
   30   11   38 1     
   31   12   13 ar    
   32   12   39 1     
   33   13   14 ar    
   34   14   15 1     
   35   15   20 1     
   36   15   16 1     
   37   16   17 1     
   38   16   40 1     
   39   16   41 1     
   40   17   18 1     
   41   17   42 1     
   42   17   43 1     
   43   18   19 1     
   44   19   20 1     
   45   19   44 1     
   46   19   45 1     
   47   20   46 1     
   48   20   47 1     
   49    7   48 1     
   50   13   49 1     
   51   15   50 1     
   52   18   51 1     
   53   18   52 1     
@<TRIPOS>SUBSTRUCTURE
      1 S1             1
@<TRIPOS>SET
LONE_PAIRS      STATIC     ATOMS    <user>   **** ""
5 48 49 50 51 52
DONOR_HYDROGENS      STATIC     ATOMS    <user>   **** ""
1 34
ATOM$BLUE        STATIC     ATOMS    COLORGROUP SYSTEM
5 48 49 50 51 52
ATOM$RED        STATIC     ATOMS    COLORGROUP SYSTEM
1 34
