#       Name:                AV-unprocessed.smi:1587
#       Creating user name   scv26
#       Creation time:       Fri Mar 27 07:02:30 2020


#       File generated by GOLD software.
#

@<TRIPOS>MOLECULE
AV-unprocessed.smi:1587
    42    43     1
SMALL
NO_CHARGES


@<TRIPOS>ATOM
      1 ****        -1.0167   1.2451   0.8363 O.2            1 S1                 0.0000
      2 ****        -1.5360   0.1285   0.8280 C.2            1 S1                 0.0000
      3 ****        -0.8278  -1.0102   0.8136 N.am           1 S1                 0.0000
      4 ****         0.6290  -1.0815   0.8114 C.3            1 S1                 0.0000
      5 ****         1.2072  -0.7800  -0.5848 C.3            1 S1                 0.0000
      6 ****         2.6875  -0.8787  -0.6180 N.4            1 S1                 1.0000
      7 ****         3.2069  -1.0983  -1.9893 C.3            1 S1                 0.0000
      8 ****         4.7381  -1.2396  -1.9706 C.3            1 S1                 0.0000
      9 ****         5.3162  -0.0816  -1.3822 O.3            1 S1                 0.0000
     10 ****         4.8978   0.0948  -0.0347 C.3            1 S1                 0.0000
     11 ****         3.3713   0.2772   0.0145 C.3            1 S1                 0.0000
     12 ****        -2.8583  -0.1167   0.8297 N.am           1 S1                 0.0000
     13 ****        -3.9241   0.8225   0.8335 C.ar           1 S1                 0.0000
     14 ****        -5.2199   0.2585   0.8470 C.ar           1 S1                 0.0000
     15 ****        -6.3446   1.1063   0.8494 C.ar           1 S1                 0.0000
     16 ****        -6.1441   2.4981   0.8384 C.ar           1 S1                 0.0000
     17 ****        -4.8213   2.9774   0.8255 C.ar           1 S1                 0.0000
     18 ****        -3.7421   2.1668   0.8228 N.ar           1 S1                 0.0000
     19 ****        -1.3300  -1.8862   0.8093 H              1 S1                 0.0000
     20 ****         1.0200  -0.3956   1.5634 H              1 S1                 0.0000
     21 ****         0.9198  -2.0844   1.1252 H              1 S1                 0.0000
     22 ****         0.7851  -1.5000  -1.2876 H              1 S1                 0.0000
     23 ****         0.9005   0.2066  -0.9356 H              1 S1                 0.0000
     24 ****         2.7627  -1.9989  -2.4153 H              1 S1                 0.0000
     25 ****         2.9166  -0.2634  -2.6293 H              1 S1                 0.0000
     26 ****         5.0413  -2.1325  -1.4214 H              1 S1                 0.0000
     27 ****         5.1178  -1.3465  -2.9868 H              1 S1                 0.0000
     28 ****         5.2087  -0.7583   0.5707 H              1 S1                 0.0000
     29 ****         5.3942   0.9742   0.3762 H              1 S1                 0.0000
     30 ****         3.0915   1.1963  -0.5029 H              1 S1                 0.0000
     31 ****         3.0574   0.3875   1.0519 H              1 S1                 0.0000
     32 ****        -3.1365  -1.0868   0.8265 H              1 S1                 0.0000
     33 ****        -5.3566  -0.8131   0.8557 H              1 S1                 0.0000
     34 ****        -7.3431   0.6949   0.8595 H              1 S1                 0.0000
     35 ****        -6.9813   3.1802   0.8400 H              1 S1                 0.0000
     36 ****        -4.6238   4.0392   0.8165 H              1 S1                 0.0000
     37 ****         2.9364  -1.7003  -0.0856 H              1 S1                 0.0000
     38 ****        -0.0206   1.3333   0.8324 LP             1 S1                 0.0000
     39 ****        -1.5911   2.0636   0.8469 LP             1 S1                 0.0000
     40 ****         5.0435   0.7209  -1.9129 LP             1 S1                 0.0000
     41 ****         6.3119  -0.1719  -1.4022 LP             1 S1                 0.0000
     42 ****        -2.8195   2.5525   0.8130 LP             1 S1                 0.0000
@<TRIPOS>BOND
    1    1    2 2     
    2    2    3 am    
    3    2   12 am    
    4    3    4 1     
    5    3   19 1     
    6    4    5 1     
    7    4   20 1     
    8    4   21 1     
    9    5    6 1     
   10    5   22 1     
   11    5   23 1     
   12    6   11 1     
   13    6    7 1     
   14    6   37 1     
   15    7    8 1     
   16    7   24 1     
   17    7   25 1     
   18    8    9 1     
   19    8   26 1     
   20    8   27 1     
   21    9   10 1     
   22   10   11 1     
   23   10   28 1     
   24   10   29 1     
   25   11   30 1     
   26   11   31 1     
   27   12   13 1     
   28   12   32 1     
   29   13   18 ar    
   30   13   14 ar    
   31   14   15 ar    
   32   14   33 1     
   33   15   16 ar    
   34   15   34 1     
   35   16   17 ar    
   36   16   35 1     
   37   17   18 ar    
   38   17   36 1     
   39    1   38 1     
   40    1   39 1     
   41    9   40 1     
   42    9   41 1     
   43   18   42 1     
@<TRIPOS>SUBSTRUCTURE
      1 S1             1
@<TRIPOS>SET
LONE_PAIRS      STATIC     ATOMS    <user>   **** ""
5 38 39 40 41 42
DONOR_HYDROGENS      STATIC     ATOMS    <user>   **** ""
3 19 37 32
ATOM$BLUE        STATIC     ATOMS    COLORGROUP SYSTEM
5 38 39 40 41 42
ATOM$RED        STATIC     ATOMS    COLORGROUP SYSTEM
3 19 37 32
