AV-unprocessed.smi:1007|AV-procd|sdf|4408|dock10
  -GOLD-   22720 2353D 1   1.00000     0.00000
 Structure written by MMmdl.
 57 59  0  0  0  0  0  0  0  0  3 V2000
  157.9627  145.6879  169.1104 C   0  0  0  0  0  0  0  0  0  0  0  0
  157.2811  144.5187  168.6901 O   0  0  0  0  0  0  0  0  0  0  0  0
  156.0702  144.8086  168.0119 C   0  0  0  0  0  0  0  0  0  0  0  0
  155.2697  143.5070  167.8523 C   0  0  0  0  0  0  0  0  0  0  0  0
  156.0496  142.4400  167.1750 N   0  3  2  0  0  0  0  0  0  0  0  0
  156.2920  142.7432  165.7423 C   0  0  0  0  0  0  0  0  0  0  0  0
  157.1887  141.6721  165.0922 C   0  0  0  0  0  0  0  0  0  0  0  0
  156.6170  140.3109  165.2442 N   0  3  2  0  0  0  0  0  0  0  0  0
  155.4746  140.0491  164.3281 C   0  0  0  0  0  0  0  0  0  0  0  0
  155.8801  139.2356  163.0786 C   0  0  2  0  0  0  0  0  0  0  0  0
  156.5713  140.0854  162.1862 O   0  0  0  0  0  0  0  0  0  0  0  0
  154.6808  138.6292  162.3230 C   0  0  0  0  0  0  0  0  0  0  0  0
  154.3488  139.3755  161.1231 N   0  0  0  0  0  0  0  0  0  0  0  0
  154.4460  138.9464  159.8502 C   0  0  0  0  0  0  0  0  0  0  0  0
  154.0636  139.7873  158.8941 N   0  0  0  0  0  0  0  0  0  0  0  0
  153.6846  140.8962  159.6310 C   0  0  0  0  0  0  0  0  0  0  0  0
  153.1731  142.1443  159.2139 C   0  0  0  0  0  0  0  0  0  0  0  0
  152.8388  143.1424  160.1570 C   0  0  0  0  0  0  0  0  0  0  0  0
  152.2912  144.4703  159.6640 C   0  0  0  0  0  0  0  0  0  0  0  0
  153.0161  142.8989  161.5428 C   0  0  0  0  0  0  0  0  0  0  0  0
  152.6653  143.9566  162.5744 C   0  0  0  0  0  0  0  0  0  0  0  0
  153.5279  141.6584  161.9764 C   0  0  0  0  0  0  0  0  0  0  0  0
  153.8547  140.6725  161.0285 C   0  0  0  0  0  0  0  0  0  0  0  0
  156.3519  140.0062  166.6755 C   0  0  0  0  0  0  0  0  0  0  0  0
  155.4749  141.0808  167.3519 C   0  0  0  0  0  0  0  0  0  0  0  0
  158.8835  145.4107  169.6236 H   0  0  0  0  0  0  0  0  0  0  0  0
  157.3546  146.2716  169.8027 H   0  0  0  0  0  0  0  0  0  0  0  0
  158.2277  146.3178  168.2601 H   0  0  0  0  0  0  0  0  0  0  0  0
  155.4991  145.5669  168.5480 H   0  0  0  0  0  0  0  0  0  0  0  0
  156.2945  145.2177  167.0258 H   0  0  0  0  0  0  0  0  0  0  0  0
  154.9218  143.1504  168.8229 H   0  0  0  0  0  0  0  0  0  0  0  0
  154.3748  143.7328  167.2704 H   0  0  0  0  0  0  0  0  0  0  0  0
  155.3389  142.8171  165.2160 H   0  0  0  0  0  0  0  0  0  0  0  0
  156.7771  143.7159  165.6518 H   0  0  0  0  0  0  0  0  0  0  0  0
  157.3578  141.8994  164.0389 H   0  0  0  0  0  0  0  0  0  0  0  0
  158.1714  141.6867  165.5655 H   0  0  0  0  0  0  0  0  0  0  0  0
  154.6857  139.5448  164.8832 H   0  0  0  0  0  0  0  0  0  0  0  0
  155.0457  140.9954  163.9949 H   0  0  0  0  0  0  0  0  0  0  0  0
  156.5521  138.4236  163.3537 H   0  0  0  0  0  0  0  0  0  0  0  0
  156.4713  139.7514  161.3073 H   0  0  0  0  0  0  0  0  0  0  0  0
  154.8861  137.5950  162.0428 H   0  0  0  0  0  0  0  0  0  0  0  0
  153.7997  138.6077  162.9662 H   0  0  0  0  0  0  0  0  0  0  0  0
  154.8084  137.9564  159.6127 H   0  0  0  0  0  0  0  0  0  0  0  0
  153.0387  142.3303  158.1583 H   0  0  0  0  0  0  0  0  0  0  0  0
  152.9238  145.2933  159.9972 H   0  0  0  0  0  0  0  0  0  0  0  0
  151.2825  144.6325  160.0443 H   0  0  0  0  0  0  0  0  0  0  0  0
  152.2474  144.5038  158.5751 H   0  0  0  0  0  0  0  0  0  0  0  0
  152.8356  143.5953  163.5888 H   0  0  0  0  0  0  0  0  0  0  0  0
  151.6157  144.2395  162.4921 H   0  0  0  0  0  0  0  0  0  0  0  0
  153.2767  144.8477  162.4297 H   0  0  0  0  0  0  0  0  0  0  0  0
  153.6684  141.4617  163.0289 H   0  0  0  0  0  0  0  0  0  0  0  0
  155.9009  139.0219  166.7928 H   0  0  0  0  0  0  0  0  0  0  0  0
  157.3121  139.9554  167.1904 H   0  0  0  0  0  0  0  0  0  0  0  0
  155.3913  140.8442  168.4119 H   0  0  0  0  0  0  0  0  0  0  0  0
  154.4608  141.0563  166.9506 H   0  0  0  0  0  0  0  0  0  0  0  0
  157.3401  139.6721  164.9425 H   0  0  0  0  0  0  0  0  0  0  0  0
  156.9583  142.4364  167.6169 H   0  0  0  0  0  0  0  0  0  0  0  0
  1  2  1  0  0  0  0
  1 26  1  0  0  0  0
  1 27  1  0  0  0  0
  1 28  1  0  0  0  0
  2  3  1  0  0  0  0
  3  4  1  0  0  0  0
  3 29  1  0  0  0  0
  3 30  1  0  0  0  0
  4  5  1  0  0  0  0
  4 31  1  0  0  0  0
  4 32  1  0  0  0  0
  5 25  1  0  0  0  0
  5  6  1  0  0  0  0
  5 57  1  0  0  0  0
  6  7  1  0  0  0  0
  6 33  1  0  0  0  0
  6 34  1  0  0  0  0
  7  8  1  0  0  0  0
  7 35  1  0  0  0  0
  7 36  1  0  0  0  0
  8  9  1  0  0  0  0
  8 24  1  0  0  0  0
  8 56  1  0  0  0  0
  9 10  1  0  0  0  0
  9 37  1  0  0  0  0
  9 38  1  0  0  0  0
 10 11  1  0  0  0  0
 10 12  1  0  0  0  0
 10 39  1  0  0  0  0
 11 40  1  0  0  0  0
 12 13  1  0  0  0  0
 12 41  1  0  0  0  0
 12 42  1  0  0  0  0
 13 23  1  0  0  0  0
 13 14  1  0  0  0  0
 14 15  2  0  0  0  0
 14 43  1  0  0  0  0
 15 16  1  0  0  0  0
 16 23  2  0  0  0  0
 16 17  1  0  0  0  0
 17 18  2  0  0  0  0
 17 44  1  0  0  0  0
 18 19  1  0  0  0  0
 18 20  1  0  0  0  0
 19 45  1  0  0  0  0
 19 46  1  0  0  0  0
 19 47  1  0  0  0  0
 20 21  1  0  0  0  0
 20 22  2  0  0  0  0
 21 48  1  0  0  0  0
 21 49  1  0  0  0  0
 21 50  1  0  0  0  0
 22 23  1  0  0  0  0
 22 51  1  0  0  0  0
 24 25  1  0  0  0  0
 24 52  1  0  0  0  0
 24 53  1  0  0  0  0
 25 54  1  0  0  0  0
 25 55  1  0  0  0  0
M  CHG  1   5   1
M  CHG  1   8   1
M  END
> <s_m_source_file>
AV-unprocessed.smi

> <i_m_source_file_index>
1007

> <i_lp_mmshare_version>
43012

> <i_f3d_flags>
0

> <s_epik_input>
W0NIM11PW0NIMl1bQ0gyXU4xW0NIMl1bQ0gyXU4oW0NIMl1bQ0gyXTEpW0NIMl1bQ0BIXShbT0hdKVtDSDJdbihbY0hdbjIpYyhjMjMpW2NIXWMoW0NIM10pYyhbY0hdMylbQ0gzXQ==

> <s_epik_cmdline>
J2VwaWtfcHl0aG9uJywgJy1waCcsICc3LjAnLCAnLXRuJywgJzgnLCAnLW1hJywgJzIwMCcsICctbWV0YWxfYmluZGluZycsICctaW1hZScsICc8aW5maWxlLm1hZT4nLCAnLW9tYWUnLCAnPG91dGZpbGUubWFlPic=

> <r_epik_Ionization_Penalty>
3.88944

> <r_epik_Ionization_Penalty_Charging>
3.80608

> <r_epik_Ionization_Penalty_Neutral>
0.0833653

> <r_epik_State_Penalty>
2.70739

> <r_epik_Charging_Adjusted_Penalty>
6.51347

> <i_epik_Tot_Q>
2

> <i_epik_Tot_abs_Q>
2

> <r_epik_Metal_State_Penalty>
2.62239

> <b_epik_Metal_Only>
0

> <s_lp_Force_Field>
OPLS_2005

> <r_lp_Energy>
30.4149

> <b_lp_Chiralities_Consistent>
1

> <s_lp_Variant>
AV-unprocessed.smi:1007-11

> <Gold.Version>
5.8.1

> <Gold.Id.Protein>
6NUR|6NUR_protein|mol2

> <Gold.PLP.Fitness>
52.3802

> <Gold.PLP.PLP>
-52.2212

> <Gold.PLP.part.hbond>
-2.0000

> <Gold.PLP.part.metal>
0.0000

> <Gold.PLP.part.buried>
-3.6799

> <Gold.PLP.part.nonpolar>
-45.3953

> <Gold.PLP.part.repulsive>
0.1649

> <Gold.PLP.ligand.clash>
0.0000

> <Gold.PLP.ligand.torsion>
1.5064

> <Gold.PLP.Chemscore.Hbond>
1.0000

> <Gold.PLP.Chemscore.CHOScore>
0.0000

> <Gold.PLP.Chemscore.Metal>
0.0000

> <Gold.Chemscore.Hbonds>
donor molecule, donor type, donor heavy atom, donor atom, acceptor molecule, acceptor atom, score
      P1  H  7997  8010       L1    15  1.00

> <Gold.PLP.Chemscore.Internal.Correction>
0.1718

> <Gold.Rescore>
     Score         DG    S(hbond)    S(metal)    S(lipo)     H(rot)  DE(clash)    DE(int)     intcor
     14.74     -18.86       0.97        0.00     144.46       2.63       1.46       2.67       ----

> <Gold.Chemscore.Fitness>
14.7371

> <Gold.Chemscore.DG>
-18.8601

> <Gold.Chemscore.ZeroCoef>
-5.4800

> <Gold.Chemscore.Hbond>
0.9651

> <Gold.Chemscore.Metal>
0.0000

> <Gold.Chemscore.Lipo>
144.4568

> <Gold.Chemscore.Internal_Hbond>
0.0000

> <Gold.Chemscore.DEClash>
1.4551

> <Gold.Chemscore.DEInternal>
2.6679

> <Gold.Chemscore.Rot>
2.6347

> <Gold.Chemscore.Internal.Correction>
   9.000000E+99

> <Gold.Chemscore.Hbonds>
donor molecule, donor type, donor heavy atom, donor atom, acceptor molecule, acceptor atom, score
      P1  H  7997  8010       L1    15  0.93

> <Gold.Chemscore.Hbond.Weighted>
-3.2234

> <Gold.Chemscore.Metal.Weighted>
-0.0000

> <Gold.Chemscore.Lipo.Weighted>
-16.9014

> <Gold.Chemscore.Internal_Hbond.Weighted>
0.0000

> <Gold.Chemscore.DEClash.Weighted>
1.4551

> <Gold.Chemscore.DEInternal.Weighted>
2.6679

> <Gold.Chemscore.Rot.Weighted>
6.7448

> <Gold.Chemscore.Internal.Correction.Weighted>
   9.000000E+99

> <Gold.Protein.RotatedTorsions>
[ 6907 6896 6895 6894 ] final  -89.78 input  -60.11 | X-H torsion
[ 7974 7965 7964 7962 ] final  132.03 input  175.53 | X-H torsion
[ 8008 7997 7996 7995 ] final    2.84 input   59.86 | X-H torsion
[ 10167 10162 10161 10158 ] final   33.45 input  -65.29 | X-H torsion
[ 10718 10713 10712 10709 ] final  111.42 input   66.30 | X-H torsion
[ 10763 10752 10751 10750 ] final   -3.31 input  -60.55 | X-H torsion
[ 11005 11000 10999 10996 ] final   -3.32 input  -57.11 | X-H torsion

> <Gold.Protein.ActiveResidues>
 VAL166  LYS551  ARG553  GLY616  TRP617  ASP618  TYR619  PRO620  LYS621  CYS622 
 ASP623  PHE694  ASN695  SER759  ASP760  ASP761  ALA762  ILE779  LEU786  VAL792 
 PHE793  MET794  SER795  GLU796  ALA797  LYS798  CYS799  TRP800  GLU811  SER814 

> <Gold.Protein.RotatedAtoms>
  150.6876  134.2533  159.4519 H   0  0  0  0  0  0  0  0  0  0  0  0  # atno 6907 bound_to 6896
  152.0469  134.9675  160.0583 H   0  0  0  0  0  0  0  0  0  0  0  0  # atno 6908 bound_to 6896
  152.1154  133.4289  159.4687 H   0  0  0  0  0  0  0  0  0  0  0  0  # atno 6909 bound_to 6896
  145.0011  139.4311  143.5292 H   0  0  0  0  0  0  0  0  0  0  0  0  # atno 7974 bound_to 7965
  154.6964  140.2664  155.6762 H   0  0  0  0  0  0  0  0  0  0  0  0  # atno 8008 bound_to 7997
  156.2750  140.2781  156.1484 H   0  0  0  0  0  0  0  0  0  0  0  0  # atno 8009 bound_to 7997
  155.0825  140.0372  157.2633 H   0  0  0  0  0  0  0  0  0  0  0  0  # atno 8010 bound_to 7997
  140.4406  144.1193  150.6173 H   0  0  0  0  0  0  0  0  0  0  0  0  # atno 10167 bound_to 10162
  157.6445  131.0950  150.6746 H   0  0  0  0  0  0  0  0  0  0  0  0  # atno 10718 bound_to 10713
  153.3696  135.6994  153.6648 H   0  0  0  0  0  0  0  0  0  0  0  0  # atno 10763 bound_to 10752
  153.5303  135.3593  155.2673 H   0  0  0  0  0  0  0  0  0  0  0  0  # atno 10764 bound_to 10752
  154.8679  135.4179  154.2972 H   0  0  0  0  0  0  0  0  0  0  0  0  # atno 10765 bound_to 10752
  140.6681  133.9261  155.8477 H   0  0  0  0  0  0  0  0  0  0  0  0  # atno 11005 bound_to 11000
  146.3452  139.9399  142.8742 LP  0  0  0  0  0  0  0  0  0  0  0  0  # atno 17320 bound_to 7965
  145.2152  140.9912  143.4077 LP  0  0  0  0  0  0  0  0  0  0  0  0  # atno 17321 bound_to 7965
  140.4323  143.2563  151.9580 LP  0  0  0  0  0  0  0  0  0  0  0  0  # atno 17342 bound_to 10162
  139.4789  144.5732  151.8053 LP  0  0  0  0  0  0  0  0  0  0  0  0  # atno 17343 bound_to 10162
  156.7065  130.4639  149.5558 LP  0  0  0  0  0  0  0  0  0  0  0  0  # atno 17370 bound_to 10713
  156.1759  130.6467  151.0893 LP  0  0  0  0  0  0  0  0  0  0  0  0  # atno 17371 bound_to 10713
  141.0414  134.0616  157.3898 LP  0  0  0  0  0  0  0  0  0  0  0  0  # atno 17394 bound_to 11000
  139.8991  135.0157  156.7178 LP  0  0  0  0  0  0  0  0  0  0  0  0  # atno 17395 bound_to 11000

$$$$
