AV-unprocessed.smi:1733|AV-procd|sdf|6979|dock2
  -GOLD-   22720 8193D 1   1.00000     0.00000
 Structure written by MMmdl.
 53 55  0  0  0  0  0  0  0  0  2 V2000
  146.7155  135.1089  155.4838 O   0  0  0  0  0  0  0  0  0  0  0  0
  147.3620  135.6326  154.5767 C   0  0  0  0  0  0  0  0  0  0  0  0
  147.0172  135.6281  153.2774 N   0  0  0  0  0  0  0  0  0  0  0  0
  145.8452  135.0914  152.6786 C   0  0  0  0  0  0  0  0  0  0  0  0
  145.7608  135.1104  151.2686 C   0  0  0  0  0  0  0  0  0  0  0  0
  144.6075  134.6050  150.6342 C   0  0  0  0  0  0  0  0  0  0  0  0
  143.5902  134.1182  151.3768 N   0  3  0  0  0  0  0  0  0  0  0  0
  143.6183  134.0935  152.7267 C   0  0  0  0  0  0  0  0  0  0  0  0
  144.7454  134.5844  153.4168 C   0  0  0  0  0  0  0  0  0  0  0  0
  148.5269  136.2681  154.7679 N   0  0  0  0  0  0  0  0  0  0  0  0
  149.1903  136.4459  156.0564 C   0  0  0  0  0  0  0  0  0  0  0  0
  148.7516  137.7881  156.6810 C   0  0  0  0  0  0  0  0  0  0  0  0
  149.5760  138.1127  157.9387 C   0  0  0  0  0  0  0  0  0  0  0  0
  151.0029  138.1215  157.5758 N   0  0  0  0  0  0  0  0  0  0  0  0
  151.7888  139.2180  157.4253 C   0  0  0  0  0  0  0  0  0  0  0  0
  152.8454  139.2095  156.7918 O   0  0  0  0  0  0  0  0  0  0  0  0
  151.3211  140.3293  158.0196 N   0  0  0  0  0  0  0  0  0  0  0  0
  151.9554  141.6435  157.9903 C   0  0  0  0  0  0  0  0  0  0  0  0
  152.4440  142.0081  159.4052 C   0  0  0  0  0  0  0  0  0  0  0  0
  153.0630  143.4146  159.4437 C   0  0  0  0  0  0  0  0  0  0  0  0
  152.0797  144.4707  158.9152 C   0  0  0  0  0  0  0  0  0  0  0  0
  151.5943  144.1161  157.5014 C   0  0  0  0  0  0  0  0  0  0  0  0
  150.9743  142.7103  157.4599 C   0  0  0  0  0  0  0  0  0  0  0  0
  151.4533  136.7804  157.1848 C   0  0  0  0  0  0  0  0  0  0  0  0
  150.7261  136.3708  155.8904 C   0  0  0  0  0  0  0  0  0  0  0  0
  147.6975  136.0102  152.6366 H   0  0  0  0  0  0  0  0  0  0  0  0
  146.5738  135.5024  150.6741 H   0  0  0  0  0  0  0  0  0  0  0  0
  144.4686  134.5781  149.5632 H   0  0  0  0  0  0  0  0  0  0  0  0
  142.7414  133.6905  153.2122 H   0  0  0  0  0  0  0  0  0  0  0  0
  144.7397  134.5745  154.4962 H   0  0  0  0  0  0  0  0  0  0  0  0
  148.9930  136.6613  153.9632 H   0  0  0  0  0  0  0  0  0  0  0  0
  148.8797  135.6512  156.7375 H   0  0  0  0  0  0  0  0  0  0  0  0
  148.8755  138.5948  155.9564 H   0  0  0  0  0  0  0  0  0  0  0  0
  147.6901  137.7554  156.9299 H   0  0  0  0  0  0  0  0  0  0  0  0
  149.2259  139.0434  158.3849 H   0  0  0  0  0  0  0  0  0  0  0  0
  149.4049  137.3503  158.7001 H   0  0  0  0  0  0  0  0  0  0  0  0
  150.4487  140.2588  158.5226 H   0  0  0  0  0  0  0  0  0  0  0  0
  152.8247  141.6021  157.3308 H   0  0  0  0  0  0  0  0  0  0  0  0
  151.6102  141.9635  160.1076 H   0  0  0  0  0  0  0  0  0  0  0  0
  153.1761  141.2761  159.7485 H   0  0  0  0  0  0  0  0  0  0  0  0
  153.3609  143.6612  160.4632 H   0  0  0  0  0  0  0  0  0  0  0  0
  153.9735  143.4295  158.8433 H   0  0  0  0  0  0  0  0  0  0  0  0
  151.2242  144.5440  159.5880 H   0  0  0  0  0  0  0  0  0  0  0  0
  152.5542  145.4522  158.9099 H   0  0  0  0  0  0  0  0  0  0  0  0
  150.8658  144.8530  157.1624 H   0  0  0  0  0  0  0  0  0  0  0  0
  152.4318  144.1657  156.8043 H   0  0  0  0  0  0  0  0  0  0  0  0
  150.6766  142.4759  156.4371 H   0  0  0  0  0  0  0  0  0  0  0  0
  150.0609  142.7008  158.0563 H   0  0  0  0  0  0  0  0  0  0  0  0
  152.5329  136.7231  157.0389 H   0  0  0  0  0  0  0  0  0  0  0  0
  151.2262  136.0724  157.9831 H   0  0  0  0  0  0  0  0  0  0  0  0
  151.0246  135.3625  155.6008 H   0  0  0  0  0  0  0  0  0  0  0  0
  151.0435  137.0305  155.0811 H   0  0  0  0  0  0  0  0  0  0  0  0
  142.7635  133.7585  150.8986 H   0  0  0  0  0  0  0  0  0  0  0  0
  1  2  2  0  0  0  0
  2  3  1  0  0  0  0
  2 10  1  0  0  0  0
  3  4  1  0  0  0  0
  3 26  1  0  0  0  0
  4  9  1  0  0  0  0
  4  5  2  0  0  0  0
  5  6  1  0  0  0  0
  5 27  1  0  0  0  0
  6  7  2  0  0  0  0
  6 28  1  0  0  0  0
  7  8  1  0  0  0  0
  7 53  1  0  0  0  0
  8  9  2  0  0  0  0
  8 29  1  0  0  0  0
  9 30  1  0  0  0  0
 10 11  1  0  0  0  0
 10 31  1  0  0  0  0
 11 25  1  0  0  0  0
 11 12  1  0  0  0  0
 11 32  1  0  0  0  0
 12 13  1  0  0  0  0
 12 33  1  0  0  0  0
 12 34  1  0  0  0  0
 13 14  1  0  0  0  0
 13 35  1  0  0  0  0
 13 36  1  0  0  0  0
 14 15  1  0  0  0  0
 14 24  1  0  0  0  0
 15 16  2  0  0  0  0
 15 17  1  0  0  0  0
 17 18  1  0  0  0  0
 17 37  1  0  0  0  0
 18 23  1  0  0  0  0
 18 19  1  0  0  0  0
 18 38  1  0  0  0  0
 19 20  1  0  0  0  0
 19 39  1  0  0  0  0
 19 40  1  0  0  0  0
 20 21  1  0  0  0  0
 20 41  1  0  0  0  0
 20 42  1  0  0  0  0
 21 22  1  0  0  0  0
 21 43  1  0  0  0  0
 21 44  1  0  0  0  0
 22 23  1  0  0  0  0
 22 45  1  0  0  0  0
 22 46  1  0  0  0  0
 23 47  1  0  0  0  0
 23 48  1  0  0  0  0
 24 25  1  0  0  0  0
 24 49  1  0  0  0  0
 24 50  1  0  0  0  0
 25 51  1  0  0  0  0
 25 52  1  0  0  0  0
M  CHG  1   7   1
M  END
> <s_m_source_file>
AV-unprocessed.smi

> <i_m_source_file_index>
1733

> <i_lp_mmshare_version>
43012

> <i_f3d_flags>
0

> <s_epik_input>
W2NIXTFbY0hdbltjSF1bY0hdYzFbTkhdQyg9TylbTkhdW0NIXTJbQ0gyXVtDSDJdTihbQ0gyXVtDSDJdMilDKD1PKVtOSF1bQ0hdM1tDSDJdW0NIMl1bQ0gyXVtDSDJdW0NIMl0z

> <s_epik_cmdline>
J2VwaWtfcHl0aG9uJywgJy1waCcsICc3LjAnLCAnLXRuJywgJzgnLCAnLW1hJywgJzIwMCcsICctbWV0YWxfYmluZGluZycsICctaW1hZScsICc8aW5maWxlLm1hZT4nLCAnLW9tYWUnLCAnPG91dGZpbGUubWFlPic=

> <r_epik_Ionization_Penalty>
1.02331

> <r_epik_Ionization_Penalty_Charging>
1.02322

> <r_epik_Ionization_Penalty_Neutral>
8.7708e-05

> <r_epik_State_Penalty>
1.0737

> <r_epik_Charging_Adjusted_Penalty>
2.09692

> <i_epik_Tot_Q>
1

> <i_epik_Tot_abs_Q>
1

> <r_epik_Metal_State_Penalty>
1.17214

> <b_epik_Metal_Only>
0

> <s_lp_Force_Field>
OPLS_2005

> <r_lp_Energy>
47.1401

> <b_lp_Chiralities_Consistent>
1

> <s_lp_Variant>
AV-unprocessed.smi:1733-2

> <Gold.Version>
5.8.1

> <Gold.Id.Protein>
6NUR|6NUR_protein|mol2

> <Gold.PLP.Fitness>
51.9965

> <Gold.PLP.PLP>
-39.3358

> <Gold.PLP.part.hbond>
-3.8396

> <Gold.PLP.part.metal>
0.0000

> <Gold.PLP.part.buried>
-5.3996

> <Gold.PLP.part.nonpolar>
-30.8743

> <Gold.PLP.part.repulsive>
0.1286

> <Gold.PLP.ligand.clash>
0.0000

> <Gold.PLP.ligand.torsion>
0.5126

> <Gold.PLP.Chemscore.Hbond>
4.5437

> <Gold.PLP.Chemscore.CHOScore>
0.0000

> <Gold.PLP.Chemscore.Metal>
0.0000

> <Gold.Chemscore.Hbonds>
donor molecule, donor type, donor heavy atom, donor atom, acceptor molecule, acceptor atom, score
      L1  H     3    26       P1  7948  0.88
      L1  H     7    53       P1 10186  0.51
      L1  H    10    31       P1  7948  0.51
      P1  H  7997  8010       L1    16  1.00

> <Gold.PLP.Chemscore.Internal.Correction>
0.0549

> <Gold.Rescore>
     Score         DG    S(hbond)    S(metal)    S(lipo)     H(rot)  DE(clash)    DE(int)     intcor
     24.78     -25.63       3.50        0.00      99.42       1.24       0.02       0.83       ----

> <Gold.Chemscore.Fitness>
24.7767

> <Gold.Chemscore.DG>
-25.6339

> <Gold.Chemscore.ZeroCoef>
-5.4800

> <Gold.Chemscore.Hbond>
3.5037

> <Gold.Chemscore.Metal>
0.0000

> <Gold.Chemscore.Lipo>
99.4248

> <Gold.Chemscore.Internal_Hbond>
0.0000

> <Gold.Chemscore.DEClash>
0.0234

> <Gold.Chemscore.DEInternal>
0.8338

> <Gold.Chemscore.Rot>
1.2426

> <Gold.Chemscore.Internal.Correction>
   9.000000E+99

> <Gold.Chemscore.Hbonds>
donor molecule, donor type, donor heavy atom, donor atom, acceptor molecule, acceptor atom, score
      L1  H     3    26       P1  7948  0.85
      L1  H     7    53       P1 10186  0.21
      L1  H    10    31       P1  7948  0.52
      P1  H  7997  8010       L1    16  1.00

> <Gold.Chemscore.Hbond.Weighted>
-11.7024

> <Gold.Chemscore.Metal.Weighted>
-0.0000

> <Gold.Chemscore.Lipo.Weighted>
-11.6327

> <Gold.Chemscore.Internal_Hbond.Weighted>
0.0000

> <Gold.Chemscore.DEClash.Weighted>
0.0234

> <Gold.Chemscore.DEInternal.Weighted>
0.8338

> <Gold.Chemscore.Rot.Weighted>
3.1812

> <Gold.Chemscore.Internal.Correction.Weighted>
   9.000000E+99

> <Gold.Protein.RotatedTorsions>
[ 6907 6896 6895 6894 ] final -141.80 input  -60.11 | X-H torsion
[ 7974 7965 7964 7962 ] final  -98.61 input  175.53 | X-H torsion
[ 8008 7997 7996 7995 ] final   77.18 input   59.86 | X-H torsion
[ 10167 10162 10161 10158 ] final  155.68 input  -65.29 | X-H torsion
[ 10718 10713 10712 10709 ] final  109.79 input   66.30 | X-H torsion
[ 10763 10752 10751 10750 ] final  154.02 input  -60.55 | X-H torsion
[ 11005 11000 10999 10996 ] final  110.61 input  -57.11 | X-H torsion

> <Gold.Protein.ActiveResidues>
 VAL166  LYS551  ARG553  GLY616  TRP617  ASP618  TYR619  PRO620  LYS621  CYS622 
 ASP623  PHE694  ASN695  SER759  ASP760  ASP761  ALA762  ILE779  LEU786  VAL792 
 PHE793  MET794  SER795  GLU796  ALA797  LYS798  CYS799  TRP800  GLU811  SER814 

> <Gold.Protein.RotatedAtoms>
  151.0785  133.5409  159.2621 H   0  0  0  0  0  0  0  0  0  0  0  0  # atno 6907 bound_to 6896
  151.2321  135.0557  159.9001 H   0  0  0  0  0  0  0  0  0  0  0  0  # atno 6908 bound_to 6896
  152.5421  134.0573  159.8190 H   0  0  0  0  0  0  0  0  0  0  0  0  # atno 6909 bound_to 6896
  145.3184  140.9416  143.2729 H   0  0  0  0  0  0  0  0  0  0  0  0  # atno 7974 bound_to 7965
  155.8379  140.3463  155.5613 H   0  0  0  0  0  0  0  0  0  0  0  0  # atno 8008 bound_to 7997
  155.8172  140.0907  157.1890 H   0  0  0  0  0  0  0  0  0  0  0  0  # atno 8009 bound_to 7997
  154.4004  140.1437  156.3444 H   0  0  0  0  0  0  0  0  0  0  0  0  # atno 8010 bound_to 7997
  139.4821  144.5077  151.8072 H   0  0  0  0  0  0  0  0  0  0  0  0  # atno 10167 bound_to 10162
  157.6525  131.0920  150.6506 H   0  0  0  0  0  0  0  0  0  0  0  0  # atno 10718 bound_to 10713
  154.1456  135.2818  155.3149 H   0  0  0  0  0  0  0  0  0  0  0  0  # atno 10763 bound_to 10752
  154.6255  135.5453  153.7625 H   0  0  0  0  0  0  0  0  0  0  0  0  # atno 10764 bound_to 10752
  153.0237  135.6449  154.1602 H   0  0  0  0  0  0  0  0  0  0  0  0  # atno 10765 bound_to 10752
  139.8885  134.9488  156.6305 H   0  0  0  0  0  0  0  0  0  0  0  0  # atno 11005 bound_to 11000
  144.8959  139.4713  143.6656 LP  0  0  0  0  0  0  0  0  0  0  0  0  # atno 17320 bound_to 7965
  146.3091  139.7684  142.9033 LP  0  0  0  0  0  0  0  0  0  0  0  0  # atno 17321 bound_to 7965
  140.4577  144.1766  150.5903 LP  0  0  0  0  0  0  0  0  0  0  0  0  # atno 17342 bound_to 10162
  140.4518  143.2483  151.9337 LP  0  0  0  0  0  0  0  0  0  0  0  0  # atno 17343 bound_to 10162
  156.6815  130.4568  149.5626 LP  0  0  0  0  0  0  0  0  0  0  0  0  # atno 17370 bound_to 10713
  156.1925  130.6569  151.1078 LP  0  0  0  0  0  0  0  0  0  0  0  0  # atno 17371 bound_to 10713
  140.7670  133.8770  155.8462 LP  0  0  0  0  0  0  0  0  0  0  0  0  # atno 17394 bound_to 11000
  140.9874  134.1324  157.4440 LP  0  0  0  0  0  0  0  0  0  0  0  0  # atno 17395 bound_to 11000

$$$$
