#       Name:                AV-unprocessed.smi:1047
#       Creating user name   scv26
#       Creation time:       Fri Mar 27 03:05:33 2020


#       File generated by GOLD software.
#

@<TRIPOS>MOLECULE
AV-unprocessed.smi:1047
    62    64     1
SMALL
NO_CHARGES


@<TRIPOS>ATOM
      1 ****        -5.1384   3.0688   2.6699 C.3            1 S1                 0.0000
      2 ****        -4.1302   3.8741   1.8380 C.3            1 S1                 0.0000
      3 ****        -4.1398   3.4906   0.4037 N.4            1 S1                 1.0000
      4 ****        -3.5328   4.5308  -0.4603 C.3            1 S1                 0.0000
      5 ****        -3.6175   4.1214  -1.9401 C.3            1 S1                 0.0000
      6 ****        -2.9767   2.8652  -2.1277 O.3            1 S1                 0.0000
      7 ****        -3.5883   1.8291  -1.3667 C.3            1 S1                 0.0000
      8 ****        -2.9198   0.4903  -1.7244 C.3            1 S1                 0.0000
      9 ****        -1.4675   0.5031  -1.4513 N.4            1 S1                 1.0000
     10 ****        -0.7859  -0.7748  -1.7398 C.3            1 S1                 0.0000
     11 ****         0.7160  -0.6926  -1.4191 C.3            1 S1                 0.0000
     12 ****         0.8699  -0.5093  -0.0249 O.3            1 S1                 0.0000
     13 ****         1.4663  -1.9643  -1.8626 C.3            1 S1                 0.0000
     14 ****         2.9122  -1.9004  -1.6020 N.pl3          1 S1                 0.0000
     15 ****         3.9106  -1.3841  -2.3699 C.2            1 S1                 0.0000
     16 ****         5.0826  -1.5732  -1.7030 N.pl3          1 S1                 1.0000
     17 ****         4.8308  -2.2213  -0.4922 C.ar           1 S1                 0.0000
     18 ****         5.6936  -2.6249   0.5197 C.ar           1 S1                 0.0000
     19 ****         5.1185  -3.2644   1.6409 C.ar           1 S1                 0.0000
     20 ****         6.0332  -3.7154   2.7669 C.3            1 S1                 0.0000
     21 ****         3.7185  -3.4818   1.7186 C.ar           1 S1                 0.0000
     22 ****         3.1108  -4.1659   2.9313 C.3            1 S1                 0.0000
     23 ****         2.8582  -3.0675   0.6767 C.ar           1 S1                 0.0000
     24 ****         3.4404  -2.4365  -0.4206 C.ar           1 S1                 0.0000
     25 ****        -3.5170   2.1698   0.1374 C.3            1 S1                 0.0000
     26 ****        -5.1689   3.4381   3.6954 H              1 S1                 0.0000
     27 ****        -4.8796   2.0114   2.7170 H              1 S1                 0.0000
     28 ****        -6.1453   3.1532   2.2600 H              1 S1                 0.0000
     29 ****        -4.3935   4.9292   1.9258 H              1 S1                 0.0000
     30 ****        -3.1245   3.7717   2.2484 H              1 S1                 0.0000
     31 ****        -4.0488   5.4808  -0.3150 H              1 S1                 0.0000
     32 ****        -2.4913   4.6846  -0.1735 H              1 S1                 0.0000
     33 ****        -4.6558   4.0681  -2.2713 H              1 S1                 0.0000
     34 ****        -3.1230   4.8655  -2.5644 H              1 S1                 0.0000
     35 ****        -4.6377   1.7606  -1.6598 H              1 S1                 0.0000
     36 ****        -3.3863  -0.3179  -1.1596 H              1 S1                 0.0000
     37 ****        -3.0784   0.2718  -2.7812 H              1 S1                 0.0000
     38 ****        -1.0405   1.2291  -2.0090 H              1 S1                 0.0000
     39 ****        -1.2530  -1.5792  -1.1695 H              1 S1                 0.0000
     40 ****        -0.9252  -1.0097  -2.7960 H              1 S1                 0.0000
     41 ****         1.1495   0.1704  -1.9268 H              1 S1                 0.0000
     42 ****         1.7933  -0.4537   0.1711 H              1 S1                 0.0000
     43 ****         1.0545  -2.8557  -1.3886 H              1 S1                 0.0000
     44 ****         1.3445  -2.1090  -2.9370 H              1 S1                 0.0000
     45 ****         3.7962  -0.9130  -3.3357 H              1 S1                 0.0000
     46 ****         6.7587  -2.4558   0.4538 H              1 S1                 0.0000
     47 ****         5.9518  -4.7920   2.9191 H              1 S1                 0.0000
     48 ****         5.7708  -3.2127   3.6983 H              1 S1                 0.0000
     49 ****         7.0772  -3.4881   2.5482 H              1 S1                 0.0000
     50 ****         2.0273  -4.2507   2.8418 H              1 S1                 0.0000
     51 ****         3.3261  -3.5995   3.8378 H              1 S1                 0.0000
     52 ****         3.5148  -5.1718   3.0468 H              1 S1                 0.0000
     53 ****         1.7928  -3.2321   0.7403 H              1 S1                 0.0000
     54 ****        -2.4805   2.1885   0.4774 H              1 S1                 0.0000
     55 ****        -4.0256   1.3916   0.7058 H              1 S1                 0.0000
     56 ****        -1.3218   0.7191  -0.4753 H              1 S1                 0.0000
     57 ****        -5.1101   3.4252   0.1294 H              1 S1                 0.0000
     58 ****         5.9874  -1.2833  -2.0523 H              1 S1                 0.0000
     59 ****        -2.0199   2.9472  -1.8490 LP             1 S1                 0.0000
     60 ****        -3.0220   2.6223  -3.0967 LP             1 S1                 0.0000
     61 ****         0.4676  -1.2838   0.4634 LP             1 S1                 0.0000
     62 ****         0.4141   0.3351   0.2564 LP             1 S1                 0.0000
@<TRIPOS>BOND
    1    1    2 1     
    2    1   26 1     
    3    1   27 1     
    4    1   28 1     
    5    2    3 1     
    6    2   29 1     
    7    2   30 1     
    8    3   25 1     
    9    3    4 1     
   10    3   57 1     
   11    4    5 1     
   12    4   31 1     
   13    4   32 1     
   14    5    6 1     
   15    5   33 1     
   16    5   34 1     
   17    6    7 1     
   18    7    8 1     
   19    7   25 1     
   20    7   35 1     
   21    8    9 1     
   22    8   36 1     
   23    8   37 1     
   24    9   10 1     
   25    9   38 1     
   26    9   56 1     
   27   10   11 1     
   28   10   39 1     
   29   10   40 1     
   30   11   12 1     
   31   11   13 1     
   32   11   41 1     
   33   12   42 1     
   34   13   14 1     
   35   13   43 1     
   36   13   44 1     
   37   14   24 1     
   38   14   15 1     
   39   15   16 2     
   40   15   45 1     
   41   16   17 1     
   42   16   58 1     
   43   17   24 ar    
   44   17   18 ar    
   45   18   19 ar    
   46   18   46 1     
   47   19   20 1     
   48   19   21 ar    
   49   20   47 1     
   50   20   48 1     
   51   20   49 1     
   52   21   22 1     
   53   21   23 ar    
   54   22   50 1     
   55   22   51 1     
   56   22   52 1     
   57   23   24 ar    
   58   23   53 1     
   59   25   54 1     
   60   25   55 1     
   61    6   59 1     
   62    6   60 1     
   63   12   61 1     
   64   12   62 1     
@<TRIPOS>SUBSTRUCTURE
      1 S1             1
@<TRIPOS>SET
LONE_PAIRS      STATIC     ATOMS    <user>   **** ""
4 59 60 61 62
DONOR_HYDROGENS      STATIC     ATOMS    <user>   **** ""
5 57 38 56 42 58
ATOM$BLUE        STATIC     ATOMS    COLORGROUP SYSTEM
4 59 60 61 62
ATOM$RED        STATIC     ATOMS    COLORGROUP SYSTEM
5 57 38 56 42 58
