AV-unprocessed.smi:598|AV-procd|sdf|3023|dock7
  -GOLD-   2262023533D 1   1.00000     0.00000
 Structure written by MMmdl.
 43 44  0  0  0  0  0  0  0  0  3 V2000
  152.6569  142.8423  162.2278 C   0  0  0  0  0  0  0  0  0  0  0  0
  152.6817  143.3528  160.7751 C   0  0  2  0  0  0  0  0  0  0  0  0
  152.0947  144.7773  160.7198 C   0  0  0  0  0  0  0  0  0  0  0  0
  152.1268  145.3515  159.2998 C   0  0  0  0  0  0  0  0  0  0  0  0
  151.3672  144.4388  158.3332 C   0  0  0  0  0  0  0  0  0  0  0  0
  151.9345  143.0058  158.3489 C   0  0  2  0  0  0  0  0  0  0  0  0
  151.1461  142.1668  157.4475 N   0  0  0  0  0  0  0  0  0  0  0  0
  149.8168  141.9945  157.5070 C   0  0  0  0  0  0  0  0  0  0  0  0
  149.1003  142.5481  158.3420 O   0  0  0  0  0  0  0  0  0  0  0  0
  149.2122  141.0645  156.4455 C   0  0  0  0  0  0  0  0  0  0  0  0
  149.6526  139.6660  156.5818 N   0  0  0  0  0  0  0  0  0  0  0  0
  149.1644  138.9451  157.6897 C   0  0  0  0  0  0  0  0  0  0  0  0
  149.5073  137.6618  157.9164 C   0  0  0  0  0  0  0  0  0  0  0  0
  149.0015  136.9388  159.0624 N   0  3  0  0  0  0  0  0  0  0  0  0
  149.3073  135.7581  159.1950 O   0  0  0  0  0  0  0  0  0  0  0  0
  148.2822  137.5247  159.8662 O   0  5  0  0  0  0  0  0  0  0  0  0
  150.4074  137.0278  156.9726 C   0  0  0  0  0  0  0  0  0  0  0  0
  150.8810  137.7131  155.9133 C   0  0  0  0  0  0  0  0  0  0  0  0
  150.5102  139.1110  155.6712 C   0  0  0  0  0  0  0  0  0  0  0  0
  150.9438  139.7443  154.7086 O   0  0  0  0  0  0  0  0  0  0  0  0
  151.9507  142.4053  159.7812 C   0  0  1  0  0  0  0  0  0  0  0  0
  152.5626  140.9869  159.7804 C   0  0  0  0  0  0  0  0  0  0  0  0
  151.6366  142.6626  162.5686 H   0  0  0  0  0  0  0  0  0  0  0  0
  153.1083  143.5681  162.9049 H   0  0  0  0  0  0  0  0  0  0  0  0
  153.2195  141.9166  162.3433 H   0  0  0  0  0  0  0  0  0  0  0  0
  153.7277  143.4181  160.4706 H   0  0  0  0  0  0  0  0  0  0  0  0
  151.0668  144.7675  161.0853 H   0  0  0  0  0  0  0  0  0  0  0  0
  152.6515  145.4373  161.3861 H   0  0  0  0  0  0  0  0  0  0  0  0
  151.6878  146.3493  159.2918 H   0  0  0  0  0  0  0  0  0  0  0  0
  153.1597  145.4636  158.9687 H   0  0  0  0  0  0  0  0  0  0  0  0
  150.3107  144.4223  158.6051 H   0  0  0  0  0  0  0  0  0  0  0  0
  151.4196  144.8551  157.3264 H   0  0  0  0  0  0  0  0  0  0  0  0
  152.9653  143.0395  157.9899 H   0  0  0  0  0  0  0  0  0  0  0  0
  151.6541  141.6770  156.7253 H   0  0  0  0  0  0  0  0  0  0  0  0
  148.1257  141.1335  156.5143 H   0  0  0  0  0  0  0  0  0  0  0  0
  149.4578  141.4402  155.4503 H   0  0  0  0  0  0  0  0  0  0  0  0
  148.5075  139.5084  158.3367 H   0  0  0  0  0  0  0  0  0  0  0  0
  150.7090  135.9997  157.1086 H   0  0  0  0  0  0  0  0  0  0  0  0
  151.5512  137.2211  155.2236 H   0  0  0  0  0  0  0  0  0  0  0  0
  150.9149  142.3141  160.1129 H   0  0  0  0  0  0  0  0  0  0  0  0
  153.6187  141.0137  159.5103 H   0  0  0  0  0  0  0  0  0  0  0  0
  152.0598  140.3260  159.0747 H   0  0  0  0  0  0  0  0  0  0  0  0
  152.4782  140.5086  160.7551 H   0  0  0  0  0  0  0  0  0  0  0  0
  1  2  1  0  0  0  0
  1 23  1  0  0  0  0
  1 24  1  0  0  0  0
  1 25  1  0  0  0  0
  2 21  1  0  0  0  0
  2  3  1  0  0  0  0
  2 26  1  0  0  0  0
  3  4  1  0  0  0  0
  3 27  1  0  0  0  0
  3 28  1  0  0  0  0
  4  5  1  0  0  0  0
  4 29  1  0  0  0  0
  4 30  1  0  0  0  0
  5  6  1  0  0  0  0
  5 31  1  0  0  0  0
  5 32  1  0  0  0  0
  6  7  1  0  0  0  0
  6 21  1  0  0  0  0
  6 33  1  0  0  0  0
  7  8  1  0  0  0  0
  7 34  1  0  0  0  0
  8  9  2  0  0  0  0
  8 10  1  0  0  0  0
 10 11  1  0  0  0  0
 10 35  1  0  0  0  0
 10 36  1  0  0  0  0
 11 19  1  0  0  0  0
 11 12  1  0  0  0  0
 12 13  2  0  0  0  0
 12 37  1  0  0  0  0
 13 14  1  0  0  0  0
 13 17  1  0  0  0  0
 14 15  2  0  0  0  0
 14 16  1  0  0  0  0
 17 18  2  0  0  0  0
 17 38  1  0  0  0  0
 18 19  1  0  0  0  0
 18 39  1  0  0  0  0
 19 20  2  0  0  0  0
 21 22  1  0  0  0  0
 21 40  1  0  0  0  0
 22 41  1  0  0  0  0
 22 42  1  0  0  0  0
 22 43  1  0  0  0  0
M  CHG  1  14   1
M  CHG  1  16  -1
M  END
> <s_m_source_file>
AV-unprocessed.smi

> <i_m_source_file_index>
598

> <i_lp_mmshare_version>
43012

> <i_f3d_flags>
0

> <s_epik_input>
W0NIM11bQ0BASF0xW0NIMl1bQ0gyXVtDSDJdW0NASF0oW0NASF0xW0NIM10pW05IXUMoPU8pW0NIMl1uMltjSF1jKFtOK10oPU8pW08tXSlbY0hdW2NIXWMyPU8=

> <s_epik_cmdline>
J2VwaWtfcHl0aG9uJywgJy1waCcsICc3LjAnLCAnLXRuJywgJzgnLCAnLW1hJywgJzIwMCcsICctbWV0YWxfYmluZGluZycsICctaW1hZScsICc8aW5maWxlLm1hZT4nLCAnLW9tYWUnLCAnPG91dGZpbGUubWFlPic=

> <r_lp_tautomer_probability>
1

> <r_epik_Ionization_Penalty>
1.91291e-08

> <r_epik_Ionization_Penalty_Charging>
8.21931e-11

> <r_epik_Ionization_Penalty_Neutral>
1.90469e-08

> <r_epik_State_Penalty>
-0

> <r_epik_Charging_Adjusted_Penalty>
8.21931e-11

> <i_epik_Tot_Q>
0

> <i_epik_Tot_abs_Q>
2

> <r_epik_Metal_State_Penalty>
-0

> <b_epik_Metal_Only>
0

> <s_lp_Force_Field>
OPLS_2005

> <r_lp_Energy>
24.1223

> <b_lp_Chiralities_Consistent>
1

> <s_lp_Variant>
AV-unprocessed.smi:598-3

> <Gold.Version>
5.8.1

> <Gold.Id.Protein>
6NUR|6NUR_protein|mol2

> <Gold.PLP.Fitness>
49.2202

> <Gold.PLP.PLP>
-41.9650

> <Gold.PLP.part.hbond>
-4.0000

> <Gold.PLP.part.metal>
0.0000

> <Gold.PLP.part.buried>
-7.5211

> <Gold.PLP.part.nonpolar>
-30.2284

> <Gold.PLP.part.repulsive>
0.2586

> <Gold.PLP.ligand.clash>
0.0000

> <Gold.PLP.ligand.torsion>
0.1746

> <Gold.PLP.Chemscore.Hbond>
2.5322

> <Gold.PLP.Chemscore.CHOScore>
0.0000

> <Gold.PLP.Chemscore.Metal>
0.0000

> <Gold.Chemscore.Hbonds>
donor molecule, donor type, donor heavy atom, donor atom, acceptor molecule, acceptor atom, score
      P1  H  6896  6907       L1    15  1.00
      P1  H  6931  6943       L1    16  0.16
      P1  H  6934  6947       L1    16  0.38
      P1  H  7989  7998       L1    20  1.00

> <Gold.PLP.Chemscore.Internal.Correction>
0.0077

> <Gold.Rescore>
     Score         DG    S(hbond)    S(metal)    S(lipo)     H(rot)  DE(clash)    DE(int)     intcor
     22.23     -23.43       2.84        0.00     106.12       1.54       0.18       1.03       ----

> <Gold.Chemscore.Fitness>
22.2284

> <Gold.Chemscore.DG>
-23.4335

> <Gold.Chemscore.ZeroCoef>
-5.4800

> <Gold.Chemscore.Hbond>
2.8379

> <Gold.Chemscore.Metal>
0.0000

> <Gold.Chemscore.Lipo>
106.1163

> <Gold.Chemscore.Internal_Hbond>
0.0000

> <Gold.Chemscore.DEClash>
0.1799

> <Gold.Chemscore.DEInternal>
1.0251

> <Gold.Chemscore.Rot>
1.5393

> <Gold.Chemscore.Internal.Correction>
   9.000000E+99

> <Gold.Chemscore.Hbonds>
donor molecule, donor type, donor heavy atom, donor atom, acceptor molecule, acceptor atom, score
      P1  H  6896  6907       L1    15  1.00
      P1  H  6931  6943       L1    16  0.16
      P1  H  6934  6947       L1    16  0.38
      P1  H  7989  7998       L1    20  1.00

> <Gold.Chemscore.Hbond.Weighted>
-9.4786

> <Gold.Chemscore.Metal.Weighted>
-0.0000

> <Gold.Chemscore.Lipo.Weighted>
-12.4156

> <Gold.Chemscore.Internal_Hbond.Weighted>
0.0000

> <Gold.Chemscore.DEClash.Weighted>
0.1799

> <Gold.Chemscore.DEInternal.Weighted>
1.0251

> <Gold.Chemscore.Rot.Weighted>
3.9407

> <Gold.Chemscore.Internal.Correction.Weighted>
   9.000000E+99

> <Gold.Protein.RotatedTorsions>
[ 6907 6896 6895 6894 ] final  -60.13 input  -60.11 | X-H torsion
[ 7974 7965 7964 7962 ] final  105.51 input  175.53 | X-H torsion
[ 8008 7997 7996 7995 ] final -158.93 input   59.86 | X-H torsion
[ 10167 10162 10161 10158 ] final  -39.35 input  -65.29 | X-H torsion
[ 10718 10713 10712 10709 ] final   57.96 input   66.30 | X-H torsion
[ 10763 10752 10751 10750 ] final  -79.27 input  -60.55 | X-H torsion
[ 11005 11000 10999 10996 ] final   11.98 input  -57.11 | X-H torsion

> <Gold.Protein.ActiveResidues>
 VAL166  LYS551  ARG553  GLY616  TRP617  ASP618  TYR619  PRO620  LYS621  CYS622 
 ASP623  PHE694  ASN695  SER759  ASP760  ASP761  ALA762  ILE779  LEU786  VAL792 
 PHE793  MET794  SER795  GLU796  ALA797  LYS798  CYS799  TRP800  GLU811  SER814 

> <Gold.Protein.RotatedAtoms>
  150.7879  134.6877  159.6479 H   0  0  0  0  0  0  0  0  0  0  0  0  # atno 6907 bound_to 6896
  152.3978  134.6333  160.0091 H   0  0  0  0  0  0  0  0  0  0  0  0  # atno 6908 bound_to 6896
  151.6613  133.3280  159.3211 H   0  0  0  0  0  0  0  0  0  0  0  0  # atno 6909 bound_to 6896
  145.3187  139.2519  143.3723 H   0  0  0  0  0  0  0  0  0  0  0  0  # atno 7974 bound_to 7965
  155.7549  140.0831  157.2183 H   0  0  0  0  0  0  0  0  0  0  0  0  # atno 8008 bound_to 7997
  154.4008  140.1553  156.2822 H   0  0  0  0  0  0  0  0  0  0  0  0  # atno 8009 bound_to 7997
  155.8895  140.3416  155.5948 H   0  0  0  0  0  0  0  0  0  0  0  0  # atno 8010 bound_to 7997
  140.7067  143.3220  151.2769 H   0  0  0  0  0  0  0  0  0  0  0  0  # atno 10167 bound_to 10162
  157.5557  130.8798  149.9032 H   0  0  0  0  0  0  0  0  0  0  0  0  # atno 10718 bound_to 10713
  154.5366  135.5701  153.6803 H   0  0  0  0  0  0  0  0  0  0  0  0  # atno 10763 bound_to 10752
  152.9952  135.6217  154.2558 H   0  0  0  0  0  0  0  0  0  0  0  0  # atno 10764 bound_to 10752
  154.2487  135.2860  155.2805 H   0  0  0  0  0  0  0  0  0  0  0  0  # atno 10765 bound_to 10752
  140.4971  134.0782  155.7785 H   0  0  0  0  0  0  0  0  0  0  0  0  # atno 11005 bound_to 11000
  146.3090  140.3740  142.8677 LP  0  0  0  0  0  0  0  0  0  0  0  0  # atno 17320 bound_to 7965
  144.8956  140.7579  143.5899 LP  0  0  0  0  0  0  0  0  0  0  0  0  # atno 17321 bound_to 7965
  139.6677  144.0076  152.2733 LP  0  0  0  0  0  0  0  0  0  0  0  0  # atno 17342 bound_to 10162
  139.9664  144.6523  150.8030 LP  0  0  0  0  0  0  0  0  0  0  0  0  # atno 17343 bound_to 10162
  156.0617  130.3699  150.0968 LP  0  0  0  0  0  0  0  0  0  0  0  0  # atno 17370 bound_to 10713
  156.9137  130.9660  151.3559 LP  0  0  0  0  0  0  0  0  0  0  0  0  # atno 17371 bound_to 10713
  141.1454  133.9064  157.2227 LP  0  0  0  0  0  0  0  0  0  0  0  0  # atno 17394 bound_to 11000
  139.9735  135.0121  156.9572 LP  0  0  0  0  0  0  0  0  0  0  0  0  # atno 17395 bound_to 11000

$$$$
