#       Name:                AV-unprocessed.smi:964
#       Creating user name   scv26
#       Creation time:       Fri Mar 27 02:18:44 2020


#       File generated by GOLD software.
#

@<TRIPOS>MOLECULE
AV-unprocessed.smi:964
    22    22     1
SMALL
NO_CHARGES


@<TRIPOS>ATOM
      1 ****        -3.5510  -1.0969  -0.4510 C.3            1 S1                 0.0000
      2 ****        -2.2913  -0.3018  -0.5045 C.2            1 S1                 0.0000
      3 ****        -1.0499  -0.8704  -0.4319 N.2            1 S1                 0.0000
      4 ****        -0.2888   0.2146  -0.5248 C.2            1 S1                 0.0000
      5 ****         1.2044   0.2180  -0.4868 C.3            1 S1                 0.0000
      6 ****         1.7522   0.1082   0.9427 C.3            1 S1                 0.0000
      7 ****         3.2244   0.0846   0.9555 N.4            1 S1                 1.0000
      8 ****        -1.0073   1.3345  -0.6352 N.pl3          1 S1                 0.0000
      9 ****        -2.3208   1.0242  -0.6249 N.2            1 S1                 0.0000
     10 ****        -3.3330  -2.1651  -0.4356 H              1 S1                 0.0000
     11 ****        -4.1697  -0.8847  -1.3234 H              1 S1                 0.0000
     12 ****        -4.1171  -0.8468   0.4467 H              1 S1                 0.0000
     13 ****         1.5656  -0.6141  -1.0928 H              1 S1                 0.0000
     14 ****         1.5689   1.1301  -0.9617 H              1 S1                 0.0000
     15 ****         1.4091   0.9498   1.5456 H              1 S1                 0.0000
     16 ****         1.3859  -0.8010   1.4207 H              1 S1                 0.0000
     17 ****         3.5511   0.0138   1.9088 H              1 S1                 0.0000
     18 ****         3.5812   0.9335   0.5404 H              1 S1                 0.0000
     19 ****         3.5533  -0.7125   0.4292 H              1 S1                 0.0000
     20 ****        -0.6665   2.2819  -0.7174 H              1 S1                 0.0000
     21 ****        -0.7888  -1.8309  -0.3360 LP             1 S1                 0.0000
     22 ****        -3.1117   1.6327  -0.6906 LP             1 S1                 0.0000
@<TRIPOS>BOND
    1    1    2 1     
    2    1   10 1     
    3    1   11 1     
    4    1   12 1     
    5    2    9 2     
    6    2    3 1     
    7    3    4 2     
    8    4    5 1     
    9    4    8 1     
   10    5    6 1     
   11    5   13 1     
   12    5   14 1     
   13    6    7 1     
   14    6   15 1     
   15    6   16 1     
   16    7   17 1     
   17    7   18 1     
   18    7   19 1     
   19    8    9 1     
   20    8   20 1     
   21    3   21 1     
   22    9   22 1     
@<TRIPOS>SUBSTRUCTURE
      1 S1             1
@<TRIPOS>SET
LONE_PAIRS      STATIC     ATOMS    <user>   **** ""
2 21 22
DONOR_HYDROGENS      STATIC     ATOMS    <user>   **** ""
4 17 18 19 20
ATOM$BLUE        STATIC     ATOMS    COLORGROUP SYSTEM
2 21 22
ATOM$RED        STATIC     ATOMS    COLORGROUP SYSTEM
4 17 18 19 20
