AV-unprocessed.smi:3263|AV-procd|sdf|12491|dock8
  -GOLD-   2272018393D 1   1.00000     0.00000
 Structure written by MMmdl.
 42 44  0  0  0  0  0  0  0  0  2 V2000
  149.3440  141.3648  156.8050 O   0  0  0  0  0  0  0  0  0  0  0  0
  150.5045  141.6345  156.4947 C   0  0  0  0  0  0  0  0  0  0  0  0
  151.0824  143.0350  156.7376 C   0  0  0  0  0  0  0  0  0  0  0  0
  151.1058  143.4598  158.2246 C   0  0  1  0  0  0  0  0  0  0  0  0
  151.6727  142.3884  159.1887 C   0  0  0  0  0  0  0  0  0  0  0  0
  152.8012  143.1362  159.9209 C   0  0  2  0  0  0  0  0  0  0  0  0
  152.1931  144.1984  160.8551 C   0  0  0  0  0  0  0  0  0  0  0  0
  151.6913  145.2696  159.8687 C   0  0  0  0  0  0  0  0  0  0  0  0
  152.0427  144.6597  158.4981 C   0  0  1  0  0  0  0  0  0  0  0  0
  153.3798  143.9899  158.8003 C   0  0  0  0  0  0  0  0  0  0  0  0
  151.3342  140.7435  155.9301 N   0  0  0  0  0  0  0  0  0  0  0  0
  150.9862  139.3643  155.6083 C   0  0  0  0  0  0  0  0  0  0  0  0
  150.6018  139.2057  154.1271 C   0  0  0  0  0  0  0  0  0  0  0  0
  149.1492  139.5558  153.8698 C   0  0  0  0  0  0  0  0  0  0  0  0
  148.6088  140.8145  154.2125 C   0  0  0  0  0  0  0  0  0  0  0  0
  147.2473  141.0741  153.9508 C   0  0  0  0  0  0  0  0  0  0  0  0
  146.4555  140.0711  153.3540 C   0  0  0  0  0  0  0  0  0  0  0  0
  147.0464  138.8317  153.0339 C   0  0  0  0  0  0  0  0  0  0  0  0
  148.3542  138.6209  153.3010 N   0  3  0  0  0  0  0  0  0  0  0  0
  152.0849  143.0756  156.3109 H   0  0  0  0  0  0  0  0  0  0  0  0
  150.4827  143.7532  156.1764 H   0  0  0  0  0  0  0  0  0  0  0  0
  150.0888  143.7248  158.5191 H   0  0  0  0  0  0  0  0  0  0  0  0
  150.9157  142.0054  159.8739 H   0  0  0  0  0  0  0  0  0  0  0  0
  152.0824  141.5381  158.6420 H   0  0  0  0  0  0  0  0  0  0  0  0
  153.5153  142.4757  160.4136 H   0  0  0  0  0  0  0  0  0  0  0  0
  151.3907  143.7928  161.4725 H   0  0  0  0  0  0  0  0  0  0  0  0
  152.9511  144.6140  161.5201 H   0  0  0  0  0  0  0  0  0  0  0  0
  150.6250  145.4715  159.9771 H   0  0  0  0  0  0  0  0  0  0  0  0
  152.2240  146.2091  160.0214 H   0  0  0  0  0  0  0  0  0  0  0  0
  152.0681  145.3967  157.6947 H   0  0  0  0  0  0  0  0  0  0  0  0
  154.1471  144.6878  159.1406 H   0  0  0  0  0  0  0  0  0  0  0  0
  153.7745  143.4049  157.9682 H   0  0  0  0  0  0  0  0  0  0  0  0
  152.2732  141.0435  155.7098 H   0  0  0  0  0  0  0  0  0  0  0  0
  151.8465  138.7362  155.8414 H   0  0  0  0  0  0  0  0  0  0  0  0
  150.1719  139.0277  156.2526 H   0  0  0  0  0  0  0  0  0  0  0  0
  151.2306  139.8409  153.5018 H   0  0  0  0  0  0  0  0  0  0  0  0
  150.7822  138.1804  153.8010 H   0  0  0  0  0  0  0  0  0  0  0  0
  149.2280  141.5720  154.6710 H   0  0  0  0  0  0  0  0  0  0  0  0
  146.8153  142.0309  154.2052 H   0  0  0  0  0  0  0  0  0  0  0  0
  145.4109  140.2500  153.1451 H   0  0  0  0  0  0  0  0  0  0  0  0
  146.5167  138.0092  152.5760 H   0  0  0  0  0  0  0  0  0  0  0  0
  148.7605  137.7163  153.0610 H   0  0  0  0  0  0  0  0  0  0  0  0
  1  2  2  0  0  0  0
  2  3  1  0  0  0  0
  2 11  1  0  0  0  0
  3  4  1  0  0  0  0
  3 20  1  0  0  0  0
  3 21  1  0  0  0  0
  4  9  1  0  0  0  0
  4  5  1  0  0  0  0
  4 22  1  0  0  0  0
  5  6  1  0  0  0  0
  5 23  1  0  0  0  0
  5 24  1  0  0  0  0
  6 10  1  0  0  0  0
  6  7  1  0  0  0  0
  6 25  1  0  0  0  0
  7  8  1  0  0  0  0
  7 26  1  0  0  0  0
  7 27  1  0  0  0  0
  8  9  1  0  0  0  0
  8 28  1  0  0  0  0
  8 29  1  0  0  0  0
  9 10  1  0  0  0  0
  9 30  1  0  0  0  0
 10 31  1  0  0  0  0
 10 32  1  0  0  0  0
 11 12  1  0  0  0  0
 11 33  1  0  0  0  0
 12 13  1  0  0  0  0
 12 34  1  0  0  0  0
 12 35  1  0  0  0  0
 13 14  1  0  0  0  0
 13 36  1  0  0  0  0
 13 37  1  0  0  0  0
 14 19  1  0  0  0  0
 14 15  2  0  0  0  0
 15 16  1  0  0  0  0
 15 38  1  0  0  0  0
 16 17  2  0  0  0  0
 16 39  1  0  0  0  0
 17 18  1  0  0  0  0
 17 40  1  0  0  0  0
 18 19  2  0  0  0  0
 18 41  1  0  0  0  0
 19 42  1  0  0  0  0
M  CHG  1  19   1
M  END
> <s_m_source_file>
AV-unprocessed.smi

> <i_m_source_file_index>
3263

> <i_lp_mmshare_version>
43012

> <i_f3d_flags>
0

> <s_epik_input>
W0NIMl0xW0NIMl1bQ0BASF0oW0NIMl0yKVtDQEBIXShbQ0gyXVtDQEhdMTIpW0NIMl1DKD1PKVtOSF1bQ0gyXVtDSDJdYzNbY0hdW2NIXVtjSF1bY0hdbjM=

> <s_epik_cmdline>
J2VwaWtfcHl0aG9uJywgJy1waCcsICc3LjAnLCAnLXRuJywgJzgnLCAnLW1hJywgJzIwMCcsICctbWV0YWxfYmluZGluZycsICctaW1hZScsICc8aW5maWxlLm1hZT4nLCAnLW9tYWUnLCAnPG91dGZpbGUubWFlPic=

> <r_epik_Ionization_Penalty>
1.83579

> <r_epik_Ionization_Penalty_Charging>
1.83579

> <r_epik_Ionization_Penalty_Neutral>
2.47288e-08

> <r_epik_State_Penalty>
1.95213

> <r_epik_Charging_Adjusted_Penalty>
3.78793

> <i_epik_Tot_Q>
1

> <i_epik_Tot_abs_Q>
1

> <r_epik_Metal_State_Penalty>
1.97847

> <b_epik_Metal_Only>
0

> <s_lp_Force_Field>
OPLS_2005

> <r_lp_Energy>
52.562

> <b_lp_Chiralities_Consistent>
1

> <s_lp_Variant>
AV-unprocessed.smi:3263-6

> <Gold.Version>
5.8.1

> <Gold.Id.Protein>
6NUR|6NUR_protein|mol2

> <Gold.PLP.Fitness>
49.6149

> <Gold.PLP.PLP>
-44.4464

> <Gold.PLP.part.hbond>
-2.0000

> <Gold.PLP.part.metal>
0.0000

> <Gold.PLP.part.buried>
0.2052

> <Gold.PLP.part.nonpolar>
-42.9691

> <Gold.PLP.part.repulsive>
0.2768

> <Gold.PLP.ligand.clash>
0.0000

> <Gold.PLP.ligand.torsion>
0.4050

> <Gold.PLP.Chemscore.Hbond>
1.9840

> <Gold.PLP.Chemscore.CHOScore>
0.0000

> <Gold.PLP.Chemscore.Metal>
0.0000

> <Gold.Chemscore.Hbonds>
donor molecule, donor type, donor heavy atom, donor atom, acceptor molecule, acceptor atom, score
      L1  H    19    42       P1  7948  2.00

> <Gold.PLP.Chemscore.Internal.Correction>
0.0264

> <Gold.Rescore>
     Score         DG    S(hbond)    S(metal)    S(lipo)     H(rot)  DE(clash)    DE(int)     intcor
     17.56     -21.27       0.90        0.00     143.62       1.56       1.85       1.85       ----

> <Gold.Chemscore.Fitness>
17.5644

> <Gold.Chemscore.DG>
-21.2704

> <Gold.Chemscore.ZeroCoef>
-5.4800

> <Gold.Chemscore.Hbond>
0.8955

> <Gold.Chemscore.Metal>
0.0000

> <Gold.Chemscore.Lipo>
143.6175

> <Gold.Chemscore.Internal_Hbond>
0.0000

> <Gold.Chemscore.DEClash>
1.8529

> <Gold.Chemscore.DEInternal>
1.8531

> <Gold.Chemscore.Rot>
1.5640

> <Gold.Chemscore.Internal.Correction>
   9.000000E+99

> <Gold.Chemscore.Hbonds>
donor molecule, donor type, donor heavy atom, donor atom, acceptor molecule, acceptor atom, score
      L1  H    19    42       P1  7948  0.95

> <Gold.Chemscore.Hbond.Weighted>
-2.9909

> <Gold.Chemscore.Metal.Weighted>
-0.0000

> <Gold.Chemscore.Lipo.Weighted>
-16.8032

> <Gold.Chemscore.Internal_Hbond.Weighted>
0.0000

> <Gold.Chemscore.DEClash.Weighted>
1.8529

> <Gold.Chemscore.DEInternal.Weighted>
1.8531

> <Gold.Chemscore.Rot.Weighted>
4.0038

> <Gold.Chemscore.Internal.Correction.Weighted>
   9.000000E+99

> <Gold.Protein.RotatedTorsions>
[ 6907 6896 6895 6894 ] final  -43.96 input  -60.11 | X-H torsion
[ 7974 7965 7964 7962 ] final   38.41 input  175.53 | X-H torsion
[ 8008 7997 7996 7995 ] final -118.00 input   59.86 | X-H torsion
[ 10167 10162 10161 10158 ] final   -2.06 input  -65.29 | X-H torsion
[ 10718 10713 10712 10709 ] final  -31.48 input   66.30 | X-H torsion
[ 10763 10752 10751 10750 ] final -155.11 input  -60.55 | X-H torsion
[ 11005 11000 10999 10996 ] final   72.37 input  -57.11 | X-H torsion

> <Gold.Protein.ActiveResidues>
 VAL166  LYS551  ARG553  GLY616  TRP617  ASP618  TYR619  PRO620  LYS621  CYS622 
 ASP623  PHE694  ASN695  SER759  ASP760  ASP761  ALA762  ILE779  LEU786  VAL792 
 PHE793  MET794  SER795  GLU796  ALA797  LYS798  CYS799  TRP800  GLU811  SER814 

> <Gold.Protein.RotatedAtoms>
  150.9381  134.8792  159.7594 H   0  0  0  0  0  0  0  0  0  0  0  0  # atno 6907 bound_to 6896
  152.5068  134.3982  159.9417 H   0  0  0  0  0  0  0  0  0  0  0  0  # atno 6908 bound_to 6896
  151.4004  133.3719  159.2766 H   0  0  0  0  0  0  0  0  0  0  0  0  # atno 6909 bound_to 6896
  146.1064  139.5775  142.9381 H   0  0  0  0  0  0  0  0  0  0  0  0  # atno 7974 bound_to 7965
  155.0927  140.0395  157.2673 H   0  0  0  0  0  0  0  0  0  0  0  0  # atno 8008 bound_to 7997
  154.6819  140.2635  155.6874 H   0  0  0  0  0  0  0  0  0  0  0  0  # atno 8009 bound_to 7997
  156.2698  140.2777  156.1366 H   0  0  0  0  0  0  0  0  0  0  0  0  # atno 8010 bound_to 7997
  140.6835  143.6702  150.8192 H   0  0  0  0  0  0  0  0  0  0  0  0  # atno 10167 bound_to 10162
  156.3867  130.4365  149.7426 H   0  0  0  0  0  0  0  0  0  0  0  0  # atno 10718 bound_to 10713
  154.7811  135.3175  154.7988 H   0  0  0  0  0  0  0  0  0  0  0  0  # atno 10763 bound_to 10752
  153.8699  135.6845  153.4779 H   0  0  0  0  0  0  0  0  0  0  0  0  # atno 10764 bound_to 10752
  153.1448  135.4724  154.9487 H   0  0  0  0  0  0  0  0  0  0  0  0  # atno 10765 bound_to 10752
  139.9494  134.7254  156.0899 H   0  0  0  0  0  0  0  0  0  0  0  0  # atno 11005 bound_to 11000
  145.5753  141.0389  143.2152 LP  0  0  0  0  0  0  0  0  0  0  0  0  # atno 17320 bound_to 7965
  144.7474  139.7284  143.7287 LP  0  0  0  0  0  0  0  0  0  0  0  0  # atno 17321 bound_to 7965
  140.0406  143.5350  152.2719 LP  0  0  0  0  0  0  0  0  0  0  0  0  # atno 17342 bound_to 10162
  139.6176  144.7622  151.2812 LP  0  0  0  0  0  0  0  0  0  0  0  0  # atno 17343 bound_to 10162
  156.4495  130.7900  151.2921 LP  0  0  0  0  0  0  0  0  0  0  0  0  # atno 17370 bound_to 10713
  157.7496  131.0100  150.3288 LP  0  0  0  0  0  0  0  0  0  0  0  0  # atno 17371 bound_to 10713
  141.1153  133.6630  156.3079 LP  0  0  0  0  0  0  0  0  0  0  0  0  # atno 17394 bound_to 11000
  140.5755  134.5797  157.5467 LP  0  0  0  0  0  0  0  0  0  0  0  0  # atno 17395 bound_to 11000

$$$$
