#       Name:                AV-unprocessed.smi:2310
#       Creating user name   scv26
#       Creation time:       Fri Mar 27 12:48:06 2020


#       File generated by GOLD software.
#

@<TRIPOS>MOLECULE
AV-unprocessed.smi:2310
    49    50     1
SMALL
NO_CHARGES


@<TRIPOS>ATOM
      1 ****        -4.3930  -2.3650  -2.1543 C.3            1 S1                 0.0000
      2 ****        -4.7038  -3.0894  -0.8363 C.3            1 S1                 0.0000
      3 ****        -4.2536  -2.3167   0.4174 C.3            1 S1                 0.0000
      4 ****        -4.6898  -3.0344   1.7042 C.3            1 S1                 0.0000
      5 ****        -4.4033  -2.2639   2.9250 C.1            1 S1                 0.0000
      6 ****        -4.1762  -1.6580   3.8840 N.1            1 S1                 0.0000
      7 ****        -2.7993  -2.1543   0.4132 N.am           1 S1                 0.0000
      8 ****        -2.1402  -0.9876   0.4622 C.2            1 S1                 0.0000
      9 ****        -2.6955   0.1094   0.5157 O.2            1 S1                 0.0000
     10 ****        -0.8106  -1.1801   0.4257 N.am           1 S1                 0.0000
     11 ****         0.2189  -0.1986   0.4059 C.ar           1 S1                 0.0000
     12 ****         0.0740   1.0841   0.9896 C.ar           1 S1                 0.0000
     13 ****         1.1429   2.0009   0.9366 C.ar           1 S1                 0.0000
     14 ****         2.3544   1.6315   0.3079 C.ar           1 S1                 0.0000
     15 ****         3.4629   2.4954   0.2157 N.pl3          1 S1                 0.0000
     16 ****         3.3409   3.9136   0.5114 C.3            1 S1                 0.0000
     17 ****         4.6805   4.5163   0.0906 C.3            1 S1                 0.0000
     18 ****         5.1021   3.6354  -1.0850 C.3            1 S1                 0.0000
     19 ****         4.5431   2.2522  -0.7325 C.3            1 S1                 0.0000
     20 ****         2.4561   0.3859  -0.2132 N.pl3          1 S1                 1.0000
     21 ****         1.4607  -0.5284  -0.1867 C.ar           1 S1                 0.0000
     22 ****         1.7371  -1.8807  -0.8182 C.3            1 S1                 0.0000
     23 ****        -4.7775  -2.9283  -3.0047 H              1 S1                 0.0000
     24 ****        -3.3201  -2.2400  -2.3017 H              1 S1                 0.0000
     25 ****        -4.8518  -1.3761  -2.1767 H              1 S1                 0.0000
     26 ****        -5.7792  -3.2620  -0.7807 H              1 S1                 0.0000
     27 ****        -4.2400  -4.0765  -0.8484 H              1 S1                 0.0000
     28 ****        -4.7472  -1.3432   0.3995 H              1 S1                 0.0000
     29 ****        -5.7637  -3.2215   1.6868 H              1 S1                 0.0000
     30 ****        -4.1974  -4.0033   1.7920 H              1 S1                 0.0000
     31 ****        -2.2534  -3.0023   0.3652 H              1 S1                 0.0000
     32 ****        -0.5036  -2.1338   0.3016 H              1 S1                 0.0000
     33 ****        -0.8354   1.3795   1.4899 H              1 S1                 0.0000
     34 ****         1.0179   2.9756   1.3844 H              1 S1                 0.0000
     35 ****         2.5267   4.3393  -0.0771 H              1 S1                 0.0000
     36 ****         3.1362   4.0902   1.5678 H              1 S1                 0.0000
     37 ****         4.6075   5.5726  -0.1701 H              1 S1                 0.0000
     38 ****         5.4034   4.4183   0.9019 H              1 S1                 0.0000
     39 ****         4.6294   3.9994  -1.9983 H              1 S1                 0.0000
     40 ****         6.1804   3.6285  -1.2473 H              1 S1                 0.0000
     41 ****         5.3040   1.6405  -0.2468 H              1 S1                 0.0000
     42 ****         4.2057   1.7297  -1.6283 H              1 S1                 0.0000
     43 ****         1.0425  -2.0647  -1.6382 H              1 S1                 0.0000
     44 ****         1.6191  -2.6758  -0.0816 H              1 S1                 0.0000
     45 ****         2.7514  -1.9361  -1.2147 H              1 S1                 0.0000
     46 ****         3.3368   0.1209  -0.6542 H              1 S1                 0.0000
     47 ****        -3.9799  -1.1342   4.7130 LP             1 S1                 0.0000
     48 ****        -3.6939   0.1645   0.5245 LP             1 S1                 0.0000
     49 ****        -2.1483   0.9457   0.5504 LP             1 S1                 0.0000
@<TRIPOS>BOND
    1    1    2 1     
    2    1   23 1     
    3    1   24 1     
    4    1   25 1     
    5    2    3 1     
    6    2   26 1     
    7    2   27 1     
    8    3    4 1     
    9    3    7 1     
   10    3   28 1     
   11    4    5 1     
   12    4   29 1     
   13    4   30 1     
   14    5    6 3     
   15    7    8 am    
   16    7   31 1     
   17    8    9 2     
   18    8   10 am    
   19   10   11 1     
   20   10   32 1     
   21   11   21 ar    
   22   11   12 ar    
   23   12   13 ar    
   24   12   33 1     
   25   13   14 ar    
   26   13   34 1     
   27   14   15 1     
   28   14   20 ar    
   29   15   19 1     
   30   15   16 1     
   31   16   17 1     
   32   16   35 1     
   33   16   36 1     
   34   17   18 1     
   35   17   37 1     
   36   17   38 1     
   37   18   19 1     
   38   18   39 1     
   39   18   40 1     
   40   19   41 1     
   41   19   42 1     
   42   20   21 ar    
   43   20   46 1     
   44   21   22 1     
   45   22   43 1     
   46   22   44 1     
   47   22   45 1     
   48    6   47 1     
   49    9   48 1     
   50    9   49 1     
@<TRIPOS>SUBSTRUCTURE
      1 S1             1
@<TRIPOS>SET
LONE_PAIRS      STATIC     ATOMS    <user>   **** ""
3 47 48 49
DONOR_HYDROGENS      STATIC     ATOMS    <user>   **** ""
3 31 32 46
ATOM$BLUE        STATIC     ATOMS    COLORGROUP SYSTEM
3 47 48 49
ATOM$RED        STATIC     ATOMS    COLORGROUP SYSTEM
3 31 32 46
