AV-unprocessed.smi:528|AV-procd|sdf|2838|dock5
  -GOLD-   2262023323D 1   1.00000     0.00000
 Structure written by MMmdl.
 45 47  0  0  0  0  0  0  0  0  1 V2000
  147.1708  141.7305  158.1110 C   0  0  0  0  0  0  0  0  0  0  0  0
  148.0308  142.0210  156.8690 C   0  0  1  0  0  0  0  0  0  0  0  0
  149.1976  142.8106  157.2559 N   0  0  0  0  0  0  0  0  0  0  0  0
  150.3183  142.3266  157.8123 C   0  0  0  0  0  0  0  0  0  0  0  0
  150.4988  141.1289  158.0372 O   0  0  0  0  0  0  0  0  0  0  0  0
  151.3984  143.3655  158.1468 C   0  0  0  0  0  0  0  0  0  0  0  0
  152.0336  143.1529  159.4582 N   0  0  0  0  0  0  0  0  0  0  0  0
  152.9111  142.0571  159.5754 C   0  0  0  0  0  0  0  0  0  0  0  0
  153.5664  141.7608  160.7141 C   0  0  0  0  0  0  0  0  0  0  0  0
  154.4627  140.5371  160.8240 C   0  0  0  0  0  0  0  0  0  0  0  0
  154.9000  140.3710  162.0725 F   0  0  0  0  0  0  0  0  0  0  0  0
  153.8142  139.4314  160.4566 F   0  0  0  0  0  0  0  0  0  0  0  0
  155.5219  140.6797  160.0287 F   0  0  0  0  0  0  0  0  0  0  0  0
  153.3007  142.6180  161.8530 C   0  0  0  0  0  0  0  0  0  0  0  0
  152.4552  143.6632  161.7613 C   0  0  0  0  0  0  0  0  0  0  0  0
  151.7643  143.9835  160.5100 C   0  0  0  0  0  0  0  0  0  0  0  0
  150.9916  144.9375  160.4131 O   0  0  0  0  0  0  0  0  0  0  0  0
  148.4902  140.7228  156.1643 C   0  0  1  0  0  0  0  0  0  0  0  0
  147.3515  139.7456  155.7942 C   0  0  0  0  0  0  0  0  0  0  0  0
  147.6373  139.4239  154.3153 C   0  0  1  0  0  0  0  0  0  0  0  0
  147.2544  140.6408  153.4536 C   0  0  0  0  0  0  0  0  0  0  0  0
  148.3703  141.6497  153.7799 C   0  0  0  0  0  0  0  0  0  0  0  0
  149.2289  140.8890  154.8115 C   0  0  2  0  0  0  0  0  0  0  0  0
  149.1600  139.4677  154.2615 C   0  0  0  0  0  0  0  0  0  0  0  0
  146.2770  141.1632  157.8515 H   0  0  0  0  0  0  0  0  0  0  0  0
  146.8402  142.6544  158.5864 H   0  0  0  0  0  0  0  0  0  0  0  0
  147.7253  141.1552  158.8532 H   0  0  0  0  0  0  0  0  0  0  0  0
  147.4224  142.5989  156.1720 H   0  0  0  0  0  0  0  0  0  0  0  0
  149.1398  143.8072  157.1035 H   0  0  0  0  0  0  0  0  0  0  0  0
  152.1457  143.3458  157.3522 H   0  0  0  0  0  0  0  0  0  0  0  0
  150.9618  144.3651  158.1017 H   0  0  0  0  0  0  0  0  0  0  0  0
  153.0115  141.4639  158.6780 H   0  0  0  0  0  0  0  0  0  0  0  0
  153.7903  142.4214  162.7954 H   0  0  0  0  0  0  0  0  0  0  0  0
  152.2824  144.2817  162.6299 H   0  0  0  0  0  0  0  0  0  0  0  0
  149.1725  140.2040  156.8403 H   0  0  0  0  0  0  0  0  0  0  0  0
  147.4056  138.8463  156.4090 H   0  0  0  0  0  0  0  0  0  0  0  0
  146.3580  140.1760  155.9264 H   0  0  0  0  0  0  0  0  0  0  0  0
  147.1888  138.4898  153.9761 H   0  0  0  0  0  0  0  0  0  0  0  0
  147.2660  140.3868  152.3929 H   0  0  0  0  0  0  0  0  0  0  0  0
  146.2624  141.0242  153.6951 H   0  0  0  0  0  0  0  0  0  0  0  0
  148.9555  141.8661  152.8852 H   0  0  0  0  0  0  0  0  0  0  0  0
  147.9874  142.6000  154.1503 H   0  0  0  0  0  0  0  0  0  0  0  0
  150.2403  141.2842  154.9110 H   0  0  0  0  0  0  0  0  0  0  0  0
  149.6377  138.7273  154.9057 H   0  0  0  0  0  0  0  0  0  0  0  0
  149.5604  139.3737  153.2505 H   0  0  0  0  0  0  0  0  0  0  0  0
  1  2  1  0  0  0  0
  1 25  1  0  0  0  0
  1 26  1  0  0  0  0
  1 27  1  0  0  0  0
  2  3  1  0  0  0  0
  2 18  1  0  0  0  0
  2 28  1  0  0  0  0
  3  4  1  0  0  0  0
  3 29  1  0  0  0  0
  4  5  2  0  0  0  0
  4  6  1  0  0  0  0
  6  7  1  0  0  0  0
  6 30  1  0  0  0  0
  6 31  1  0  0  0  0
  7 16  1  0  0  0  0
  7  8  1  0  0  0  0
  8  9  2  0  0  0  0
  8 32  1  0  0  0  0
  9 10  1  0  0  0  0
  9 14  1  0  0  0  0
 10 11  1  0  0  0  0
 10 12  1  0  0  0  0
 10 13  1  0  0  0  0
 14 15  2  0  0  0  0
 14 33  1  0  0  0  0
 15 16  1  0  0  0  0
 15 34  1  0  0  0  0
 16 17  2  0  0  0  0
 18 23  1  0  0  0  0
 18 19  1  0  0  0  0
 18 35  1  0  0  0  0
 19 20  1  0  0  0  0
 19 36  1  0  0  0  0
 19 37  1  0  0  0  0
 20 24  1  0  0  0  0
 20 21  1  0  0  0  0
 20 38  1  0  0  0  0
 21 22  1  0  0  0  0
 21 39  1  0  0  0  0
 21 40  1  0  0  0  0
 22 23  1  0  0  0  0
 22 41  1  0  0  0  0
 22 42  1  0  0  0  0
 23 24  1  0  0  0  0
 23 43  1  0  0  0  0
 24 44  1  0  0  0  0
 24 45  1  0  0  0  0
M  END
> <s_m_source_file>
AV-unprocessed.smi

> <i_m_source_file_index>
528

> <i_lp_mmshare_version>
43012

> <i_f3d_flags>
0

> <s_epik_input>
W0NIMl0xW0NIMl1bQ0BASF0oW0NIMl0yKVtDQEBIXShbQ0gyXVtDQEhdMTIpW0NASF0oW0NIM10pW05IXUMoPU8pW0NIMl1uM1tjSF1jKEMoRikoRilGKVtjSF1bY0hdYzM9Tw==

> <s_epik_cmdline>
J2VwaWtfcHl0aG9uJywgJy1waCcsICc3LjAnLCAnLXRuJywgJzgnLCAnLW1hJywgJzIwMCcsICctbWV0YWxfYmluZGluZycsICctaW1hZScsICc8aW5maWxlLm1hZT4nLCAnLW9tYWUnLCAnPG91dGZpbGUubWFlPic=

> <r_lp_tautomer_probability>
1

> <r_epik_Ionization_Penalty>
4.09479e-08

> <r_epik_Ionization_Penalty_Charging>
1.9321e-08

> <r_epik_Ionization_Penalty_Neutral>
2.16269e-08

> <r_epik_State_Penalty>
-0

> <r_epik_Charging_Adjusted_Penalty>
1.9321e-08

> <i_epik_Tot_Q>
0

> <i_epik_Tot_abs_Q>
0

> <r_epik_Metal_State_Penalty>
-0

> <b_epik_Metal_Only>
0

> <s_lp_Force_Field>
OPLS_2005

> <r_lp_Energy>
62.533

> <b_lp_Chiralities_Consistent>
1

> <s_lp_Variant>
AV-unprocessed.smi:528-8

> <Gold.Version>
5.8.1

> <Gold.Id.Protein>
6NUR|6NUR_protein|mol2

> <Gold.PLP.Fitness>
48.7767

> <Gold.PLP.PLP>
-48.0767

> <Gold.PLP.part.hbond>
-1.0000

> <Gold.PLP.part.metal>
0.0000

> <Gold.PLP.part.buried>
-2.5926

> <Gold.PLP.part.nonpolar>
-44.1610

> <Gold.PLP.part.repulsive>
0.2220

> <Gold.PLP.ligand.clash>
0.0000

> <Gold.PLP.ligand.torsion>
0.7135

> <Gold.PLP.Chemscore.Hbond>
0.6880

> <Gold.PLP.Chemscore.CHOScore>
0.0000

> <Gold.PLP.Chemscore.Metal>
0.0000

> <Gold.Chemscore.Hbonds>
donor molecule, donor type, donor heavy atom, donor atom, acceptor molecule, acceptor atom, score
      L1  H     3    29       P1  8028  0.66

> <Gold.PLP.Chemscore.Internal.Correction>
0.0630

> <Gold.Rescore>
     Score         DG    S(hbond)    S(metal)    S(lipo)     H(rot)  DE(clash)    DE(int)     intcor
     11.34     -14.41       0.32        0.00     104.56       1.71       0.06       3.00       ----

> <Gold.Chemscore.Fitness>
11.3432

> <Gold.Chemscore.DG>
-14.4051

> <Gold.Chemscore.ZeroCoef>
-5.4800

> <Gold.Chemscore.Hbond>
0.3221

> <Gold.Chemscore.Metal>
0.0000

> <Gold.Chemscore.Lipo>
104.5587

> <Gold.Chemscore.Internal_Hbond>
0.0000

> <Gold.Chemscore.DEClash>
0.0633

> <Gold.Chemscore.DEInternal>
2.9986

> <Gold.Chemscore.Rot>
1.7125

> <Gold.Chemscore.Internal.Correction>
   9.000000E+99

> <Gold.Chemscore.Hbonds>
donor molecule, donor type, donor heavy atom, donor atom, acceptor molecule, acceptor atom, score
      L1  H     3    29       P1  8028  0.25

> <Gold.Chemscore.Hbond.Weighted>
-1.0756

> <Gold.Chemscore.Metal.Weighted>
-0.0000

> <Gold.Chemscore.Lipo.Weighted>
-12.2334

> <Gold.Chemscore.Internal_Hbond.Weighted>
0.0000

> <Gold.Chemscore.DEClash.Weighted>
0.0633

> <Gold.Chemscore.DEInternal.Weighted>
2.9986

> <Gold.Chemscore.Rot.Weighted>
4.3840

> <Gold.Chemscore.Internal.Correction.Weighted>
   9.000000E+99

> <Gold.Protein.RotatedTorsions>
[ 6907 6896 6895 6894 ] final  -54.64 input  -60.11 | X-H torsion
[ 7974 7965 7964 7962 ] final -133.14 input  175.53 | X-H torsion
[ 8008 7997 7996 7995 ] final  161.07 input   59.86 | X-H torsion
[ 10167 10162 10161 10158 ] final   61.30 input  -65.29 | X-H torsion
[ 10718 10713 10712 10709 ] final  154.65 input   66.30 | X-H torsion
[ 10763 10752 10751 10750 ] final  -45.04 input  -60.55 | X-H torsion
[ 11005 11000 10999 10996 ] final   54.23 input  -57.11 | X-H torsion

> <Gold.Protein.ActiveResidues>
 VAL166  LYS551  ARG553  GLY616  TRP617  ASP618  TYR619  PRO620  LYS621  CYS622 
 ASP623  PHE694  ASN695  SER759  ASP760  ASP761  ALA762  ILE779  LEU786  VAL792 
 PHE793  MET794  SER795  GLU796  ALA797  LYS798  CYS799  TRP800  GLU811  SER814 

> <Gold.Protein.RotatedAtoms>
  150.8320  134.7577  159.6861 H   0  0  0  0  0  0  0  0  0  0  0  0  # atno 6907 bound_to 6896
  152.4423  134.5563  159.9891 H   0  0  0  0  0  0  0  0  0  0  0  0  # atno 6908 bound_to 6896
  151.5721  133.3351  159.3027 H   0  0  0  0  0  0  0  0  0  0  0  0  # atno 6909 bound_to 6896
  144.9221  140.7026  143.4959 H   0  0  0  0  0  0  0  0  0  0  0  0  # atno 7974 bound_to 7965
  156.2129  140.1787  156.7656 H   0  0  0  0  0  0  0  0  0  0  0  0  # atno 8008 bound_to 7997
  154.5748  140.0676  156.9047 H   0  0  0  0  0  0  0  0  0  0  0  0  # atno 8009 bound_to 7997
  155.2608  140.3335  155.4276 H   0  0  0  0  0  0  0  0  0  0  0  0  # atno 8010 bound_to 7997
  140.1562  144.4414  150.6733 H   0  0  0  0  0  0  0  0  0  0  0  0  # atno 10167 bound_to 10162
  157.2288  131.0734  151.1866 H   0  0  0  0  0  0  0  0  0  0  0  0  # atno 10718 bound_to 10713
  154.0221  135.6668  153.4773 H   0  0  0  0  0  0  0  0  0  0  0  0  # atno 10763 bound_to 10752
  153.0576  135.5047  154.8013 H   0  0  0  0  0  0  0  0  0  0  0  0  # atno 10764 bound_to 10752
  154.6931  135.3065  154.9415 H   0  0  0  0  0  0  0  0  0  0  0  0  # atno 10765 bound_to 10752
  140.0703  134.5479  155.9054 H   0  0  0  0  0  0  0  0  0  0  0  0  # atno 11005 bound_to 11000
  145.3279  139.1768  143.4552 LP  0  0  0  0  0  0  0  0  0  0  0  0  # atno 17320 bound_to 7965
  146.3209  140.3305  142.8640 LP  0  0  0  0  0  0  0  0  0  0  0  0  # atno 17321 bound_to 7965
  140.6671  143.2272  151.5715 LP  0  0  0  0  0  0  0  0  0  0  0  0  # atno 17342 bound_to 10162
  139.5402  144.2668  152.1335 LP  0  0  0  0  0  0  0  0  0  0  0  0  # atno 17343 bound_to 10162
  157.3500  130.7077  149.6434 LP  0  0  0  0  0  0  0  0  0  0  0  0  # atno 17370 bound_to 10713
  155.9677  130.4255  150.4658 LP  0  0  0  0  0  0  0  0  0  0  0  0  # atno 17371 bound_to 10713
  141.2009  133.6615  156.5922 LP  0  0  0  0  0  0  0  0  0  0  0  0  # atno 17394 bound_to 11000
  140.3637  134.7666  157.4551 LP  0  0  0  0  0  0  0  0  0  0  0  0  # atno 17395 bound_to 11000

$$$$
