AV-unprocessed.smi:276|AV-procd|sdf|2085|dock4
  -GOLD-   2262021363D 1   1.00000     0.00000
 Structure written by MMmdl.
 57 61  0  0  0  0  0  0  0  0  1 V2000
  151.6344  141.5293  158.8099 C   0  0  0  0  0  0  0  0  0  0  0  0
  151.6665  140.6568  157.6945 O   0  0  0  0  0  0  0  0  0  0  0  0
  150.4727  140.7047  156.9292 C   0  0  1  0  0  0  0  0  0  0  0  0
  150.4785  141.7480  155.8055 C   0  0  0  0  0  0  0  0  0  0  0  0
  149.7966  140.7091  154.8933 C   0  0  2  0  0  0  0  0  0  0  0  0
  148.3332  140.8433  154.9212 N   0  0  0  0  0  0  0  0  0  0  0  0
  147.7792  141.9969  154.2188 C   0  0  0  0  0  0  0  0  0  0  0  0
  147.6275  139.7322  154.6128 C   0  0  0  0  0  0  0  0  0  0  0  0
  147.0970  139.0353  155.6486 N   0  0  0  0  0  0  0  0  0  0  0  0
  146.3954  137.9219  155.4162 C   0  0  0  0  0  0  0  0  0  0  0  0
  146.1067  137.3450  154.2477 N   0  0  0  0  0  0  0  0  0  0  0  0
  146.6261  138.0528  153.2043 C   0  0  0  0  0  0  0  0  0  0  0  0
  147.3887  139.2513  153.2929 C   0  0  0  0  0  0  0  0  0  0  0  0
  147.7355  139.6842  152.0180 N   0  0  0  0  0  0  0  0  0  0  0  0
  147.2160  138.7886  151.2233 C   0  0  0  0  0  0  0  0  0  0  0  0
  146.5331  137.7737  151.8532 N   0  0  0  0  0  0  0  0  0  0  0  0
  145.8585  136.6526  151.2244 C   0  0  0  0  0  0  0  0  0  0  0  0
  146.2003  135.3105  151.8990 C   0  0  1  0  0  0  0  0  0  0  0  0
  145.2966  135.0387  152.9537 O   0  0  0  0  0  0  0  0  0  0  0  0
  146.2386  134.1354  150.9015 C   0  0  1  0  0  0  0  0  0  0  0  0
  146.4414  132.7397  151.4966 C   0  0  0  0  0  0  0  0  0  0  0  0
  145.8742  131.8686  150.3983 C   0  0  0  0  0  0  0  0  0  0  0  0
  144.6835  132.6984  149.9229 C   0  0  0  0  0  0  0  0  0  0  0  0
  145.0509  134.0620  150.1164 O   0  0  0  0  0  0  0  0  0  0  0  0
  150.3899  139.6257  155.8344 C   0  0  0  0  0  0  0  0  0  0  0  0
  151.6601  138.8677  155.4067 C   0  0  0  0  0  0  0  0  0  0  0  0
  151.1907  137.7004  156.2791 C   0  0  0  0  0  0  0  0  0  0  0  0
  149.7688  138.2461  156.1265 C   0  0  0  0  0  0  0  0  0  0  0  0
  152.5697  141.4492  159.3637 H   0  0  0  0  0  0  0  0  0  0  0  0
  150.8189  141.2719  159.4868 H   0  0  0  0  0  0  0  0  0  0  0  0
  151.5166  142.5679  158.4986 H   0  0  0  0  0  0  0  0  0  0  0  0
  149.5650  140.7378  157.5359 H   0  0  0  0  0  0  0  0  0  0  0  0
  149.9103  142.6502  156.0302 H   0  0  0  0  0  0  0  0  0  0  0  0
  151.4869  141.9947  155.4692 H   0  0  0  0  0  0  0  0  0  0  0  0
  150.2255  140.7023  153.8914 H   0  0  0  0  0  0  0  0  0  0  0  0
  146.7277  141.8616  153.9584 H   0  0  0  0  0  0  0  0  0  0  0  0
  148.3316  142.1878  153.2980 H   0  0  0  0  0  0  0  0  0  0  0  0
  147.8438  142.8860  154.8453 H   0  0  0  0  0  0  0  0  0  0  0  0
  146.0114  137.4205  156.2923 H   0  0  0  0  0  0  0  0  0  0  0  0
  147.3139  138.8458  150.1491 H   0  0  0  0  0  0  0  0  0  0  0  0
  144.7831  136.8345  151.2491 H   0  0  0  0  0  0  0  0  0  0  0  0
  146.1467  136.6298  150.1728 H   0  0  0  0  0  0  0  0  0  0  0  0
  147.1890  135.3934  152.3522 H   0  0  0  0  0  0  0  0  0  0  0  0
  145.7142  135.2691  153.7697 H   0  0  0  0  0  0  0  0  0  0  0  0
  147.0513  134.3141  150.1951 H   0  0  0  0  0  0  0  0  0  0  0  0
  147.4858  132.5208  151.7207 H   0  0  0  0  0  0  0  0  0  0  0  0
  145.8605  132.6011  152.4088 H   0  0  0  0  0  0  0  0  0  0  0  0
  146.6022  131.7595  149.5931 H   0  0  0  0  0  0  0  0  0  0  0  0
  145.5912  130.8733  150.7416 H   0  0  0  0  0  0  0  0  0  0  0  0
  144.4252  132.4987  148.8828 H   0  0  0  0  0  0  0  0  0  0  0  0
  143.8060  132.4884  150.5357 H   0  0  0  0  0  0  0  0  0  0  0  0
  151.6622  138.6195  154.3438 H   0  0  0  0  0  0  0  0  0  0  0  0
  152.6049  139.3187  155.7107 H   0  0  0  0  0  0  0  0  0  0  0  0
  151.3518  136.7121  155.8477 H   0  0  0  0  0  0  0  0  0  0  0  0
  151.5601  137.7627  157.3042 H   0  0  0  0  0  0  0  0  0  0  0  0
  149.1593  138.1969  157.0292 H   0  0  0  0  0  0  0  0  0  0  0  0
  149.2638  137.7931  155.2737 H   0  0  0  0  0  0  0  0  0  0  0  0
  1  2  1  0  0  0  0
  1 29  1  0  0  0  0
  1 30  1  0  0  0  0
  1 31  1  0  0  0  0
  2  3  1  0  0  0  0
  3 25  1  0  0  0  0
  3  4  1  0  0  0  0
  3 32  1  0  0  0  0
  4  5  1  0  0  0  0
  4 33  1  0  0  0  0
  4 34  1  0  0  0  0
  5  6  1  0  0  0  0
  5 25  1  0  0  0  0
  5 35  1  0  0  0  0
  6  7  1  0  0  0  0
  6  8  1  0  0  0  0
  7 36  1  0  0  0  0
  7 37  1  0  0  0  0
  7 38  1  0  0  0  0
  8 13  1  0  0  0  0
  8  9  2  0  0  0  0
  9 10  1  0  0  0  0
 10 11  2  0  0  0  0
 10 39  1  0  0  0  0
 11 12  1  0  0  0  0
 12 16  1  0  0  0  0
 12 13  2  0  0  0  0
 13 14  1  0  0  0  0
 14 15  2  0  0  0  0
 15 16  1  0  0  0  0
 15 40  1  0  0  0  0
 16 17  1  0  0  0  0
 17 18  1  0  0  0  0
 17 41  1  0  0  0  0
 17 42  1  0  0  0  0
 18 19  1  0  0  0  0
 18 20  1  0  0  0  0
 18 43  1  0  0  0  0
 19 44  1  0  0  0  0
 20 24  1  0  0  0  0
 20 21  1  0  0  0  0
 20 45  1  0  0  0  0
 21 22  1  0  0  0  0
 21 46  1  0  0  0  0
 21 47  1  0  0  0  0
 22 23  1  0  0  0  0
 22 48  1  0  0  0  0
 22 49  1  0  0  0  0
 23 24  1  0  0  0  0
 23 50  1  0  0  0  0
 23 51  1  0  0  0  0
 25 28  1  0  0  0  0
 25 26  1  0  0  0  0
 26 27  1  0  0  0  0
 26 52  1  0  0  0  0
 26 53  1  0  0  0  0
 27 28  1  0  0  0  0
 27 54  1  0  0  0  0
 27 55  1  0  0  0  0
 28 56  1  0  0  0  0
 28 57  1  0  0  0  0
M  END
> <s_m_source_file>
AV-unprocessed.smi

> <i_m_source_file_index>
276

> <i_lp_mmshare_version>
43012

> <i_f3d_flags>
0

> <s_epik_input>
W0NIMl0xW0NIMl1bQ0gyXUMxMltDQEhdKE9bQ0gzXSlbQ0gyXVtDQEhdMk4oW0NIM10pYyhuW2NIXW4zKWMoYzM0KW5bY0hdbjRbQ0gyXVtDQEhdKFtPSF0pW0NAQEhdNVtDSDJdW0NIMl1bQ0gyXU81

> <s_epik_cmdline>
J2VwaWtfcHl0aG9uJywgJy1waCcsICc3LjAnLCAnLXRuJywgJzgnLCAnLW1hJywgJzIwMCcsICctbWV0YWxfYmluZGluZycsICctaW1hZScsICc8aW5maWxlLm1hZT4nLCAnLW9tYWUnLCAnPG91dGZpbGUubWFlPic=

> <r_lp_tautomer_probability>
1

> <r_epik_Ionization_Penalty>
0.00204117

> <r_epik_Ionization_Penalty_Charging>
0

> <r_epik_Ionization_Penalty_Neutral>
0.00204117

> <r_epik_State_Penalty>
0.00127401

> <r_epik_Charging_Adjusted_Penalty>
0.00127401

> <i_epik_Tot_Q>
0

> <i_epik_Tot_abs_Q>
0

> <r_epik_Metal_State_Penalty>
-0

> <b_epik_Metal_Only>
0

> <s_lp_Force_Field>
OPLS_2005

> <r_lp_Energy>
58.9981

> <b_lp_Chiralities_Consistent>
1

> <s_lp_Variant>
AV-unprocessed.smi:276-16

> <Gold.Version>
5.8.1

> <Gold.Id.Protein>
6NUR|6NUR_protein|mol2

> <Gold.PLP.Fitness>
40.8632

> <Gold.PLP.PLP>
-40.5068

> <Gold.PLP.part.hbond>
-0.7430

> <Gold.PLP.part.metal>
0.0000

> <Gold.PLP.part.buried>
-4.5079

> <Gold.PLP.part.nonpolar>
-38.5937

> <Gold.PLP.part.repulsive>
2.3786

> <Gold.PLP.ligand.clash>
0.0000

> <Gold.PLP.ligand.torsion>
1.3292

> <Gold.PLP.Chemscore.Hbond>
0.0000

> <Gold.PLP.Chemscore.CHOScore>
0.7379

> <Gold.PLP.Chemscore.Metal>
0.0000

> <Gold.PLP.Chemscore.Internal.Correction>
0.8012

> <Gold.Rescore>
     Score         DG    S(hbond)    S(metal)    S(lipo)     H(rot)  DE(clash)    DE(int)     intcor
      6.58     -10.55       0.00        0.00     102.76       2.72       0.32       3.65       ----

> <Gold.Chemscore.Fitness>
6.5761

> <Gold.Chemscore.DG>
-10.5467

> <Gold.Chemscore.ZeroCoef>
-5.4800

> <Gold.Chemscore.Hbond>
0.0000

> <Gold.Chemscore.Metal>
0.0000

> <Gold.Chemscore.Lipo>
102.7580

> <Gold.Chemscore.Internal_Hbond>
0.0000

> <Gold.Chemscore.DEClash>
0.3220

> <Gold.Chemscore.DEInternal>
3.6486

> <Gold.Chemscore.Rot>
2.7172

> <Gold.Chemscore.Internal.Correction>
   9.000000E+99

> <Gold.Chemscore.Hbond.Weighted>
-0.0000

> <Gold.Chemscore.Metal.Weighted>
-0.0000

> <Gold.Chemscore.Lipo.Weighted>
-12.0227

> <Gold.Chemscore.Internal_Hbond.Weighted>
0.0000

> <Gold.Chemscore.DEClash.Weighted>
0.3220

> <Gold.Chemscore.DEInternal.Weighted>
3.6486

> <Gold.Chemscore.Rot.Weighted>
6.9560

> <Gold.Chemscore.Internal.Correction.Weighted>
   9.000000E+99

> <Gold.Protein.RotatedTorsions>
[ 6907 6896 6895 6894 ] final   82.44 input  -60.11 | X-H torsion
[ 7974 7965 7964 7962 ] final -118.42 input  175.53 | X-H torsion
[ 8008 7997 7996 7995 ] final  129.16 input   59.86 | X-H torsion
[ 10167 10162 10161 10158 ] final   39.94 input  -65.29 | X-H torsion
[ 10718 10713 10712 10709 ] final  149.58 input   66.30 | X-H torsion
[ 10763 10752 10751 10750 ] final   62.35 input  -60.55 | X-H torsion
[ 11005 11000 10999 10996 ] final   32.40 input  -57.11 | X-H torsion

> <Gold.Protein.ActiveResidues>
 VAL166  LYS551  ARG553  GLY616  TRP617  ASP618  TYR619  PRO620  LYS621  CYS622 
 ASP623  PHE694  ASN695  SER759  ASP760  ASP761  ALA762  ILE779  LEU786  VAL792 
 PHE793  MET794  SER795  GLU796  ALA797  LYS798  CYS799  TRP800  GLU811  SER814 

> <Gold.Protein.RotatedAtoms>
  152.5299  134.3049  159.9092 H   0  0  0  0  0  0  0  0  0  0  0  0  # atno 6907 bound_to 6896
  151.3000  133.4120  159.2646 H   0  0  0  0  0  0  0  0  0  0  0  0  # atno 6908 bound_to 6896
  151.0127  134.9426  159.8073 H   0  0  0  0  0  0  0  0  0  0  0  0  # atno 6909 bound_to 6896
  145.0740  140.8379  143.4078 H   0  0  0  0  0  0  0  0  0  0  0  0  # atno 7974 bound_to 7965
  156.2930  140.2627  156.2554 H   0  0  0  0  0  0  0  0  0  0  0  0  # atno 8008 bound_to 7997
  154.9841  140.0389  157.2309 H   0  0  0  0  0  0  0  0  0  0  0  0  # atno 8009 bound_to 7997
  154.7745  140.2784  155.6116 H   0  0  0  0  0  0  0  0  0  0  0  0  # atno 8010 bound_to 7997
  140.3790  144.2005  150.6131 H   0  0  0  0  0  0  0  0  0  0  0  0  # atno 10167 bound_to 10162
  157.2942  131.0859  151.1439 H   0  0  0  0  0  0  0  0  0  0  0  0  # atno 10718 bound_to 10713
  152.9980  135.5468  154.6180 H   0  0  0  0  0  0  0  0  0  0  0  0  # atno 10763 bound_to 10752
  154.5486  135.2825  155.1032 H   0  0  0  0  0  0  0  0  0  0  0  0  # atno 10764 bound_to 10752
  154.2281  135.6438  153.5219 H   0  0  0  0  0  0  0  0  0  0  0  0  # atno 10765 bound_to 10752
  140.2739  134.3051  155.7820 H   0  0  0  0  0  0  0  0  0  0  0  0  # atno 11005 bound_to 11000
  145.1258  139.2664  143.5565 LP  0  0  0  0  0  0  0  0  0  0  0  0  # atno 17320 bound_to 7965
  146.3529  140.0894  142.8613 LP  0  0  0  0  0  0  0  0  0  0  0  0  # atno 17321 bound_to 7965
  140.4957  143.2333  151.8753 LP  0  0  0  0  0  0  0  0  0  0  0  0  # atno 17342 bound_to 10162
  139.4797  144.5116  151.8924 LP  0  0  0  0  0  0  0  0  0  0  0  0  # atno 17343 bound_to 10162
  157.2823  130.6756  149.6072 LP  0  0  0  0  0  0  0  0  0  0  0  0  # atno 17370 bound_to 10713
  155.9668  130.4446  150.5468 LP  0  0  0  0  0  0  0  0  0  0  0  0  # atno 17371 bound_to 10713
  141.2173  133.7483  156.9376 LP  0  0  0  0  0  0  0  0  0  0  0  0  # atno 17394 bound_to 11000
  140.1347  134.9333  157.2386 LP  0  0  0  0  0  0  0  0  0  0  0  0  # atno 17395 bound_to 11000

$$$$
