AV-unprocessed.smi:21|AV-procd|sdf|132|dock6
  -GOLD-   2262015323D 1   1.00000     0.00000
 Structure written by MMmdl.
 62 65  0  0  0  0  0  0  0  0  2 V2000
  144.5459  132.2314  150.3038 C   0  0  0  0  0  0  0  0  0  0  0  0
  145.3716  131.8075  151.3767 O   0  0  0  0  0  0  0  0  0  0  0  0
  146.4396  132.6995  151.6601 C   0  0  2  0  0  0  0  0  0  0  0  0
  147.2419  132.3033  152.8946 C   0  0  0  0  0  0  0  0  0  0  0  0
  147.8754  133.6202  153.3716 C   0  0  2  0  0  0  0  0  0  0  0  0
  148.1804  133.6495  154.8921 C   0  0  0  0  0  0  0  0  0  0  0  0
  149.4062  134.3772  155.2262 N   0  0  0  0  0  0  0  0  0  0  0  0
  150.5453  133.5910  155.6944 C   0  0  0  0  0  0  0  0  0  0  0  0
  149.3261  135.6832  155.6075 C   0  0  0  0  0  0  0  0  0  0  0  0
  148.2067  136.1070  156.2546 N   0  0  0  0  0  0  0  0  0  0  0  0
  148.0706  137.3833  156.6228 C   0  0  0  0  0  0  0  0  0  0  0  0
  148.9204  138.3949  156.4473 N   0  0  0  0  0  0  0  0  0  0  0  0
  150.0523  137.9828  155.8099 C   0  0  0  0  0  0  0  0  0  0  0  0
  150.3384  136.6599  155.3623 C   0  0  0  0  0  0  0  0  0  0  0  0
  151.5979  136.6349  154.7720 N   0  0  0  0  0  0  0  0  0  0  0  0
  152.0226  137.8656  154.8533 C   0  0  0  0  0  0  0  0  0  0  0  0
  151.1586  138.7406  155.4681 N   0  0  0  0  0  0  0  0  0  0  0  0
  151.3779  140.1598  155.6920 C   0  0  0  0  0  0  0  0  0  0  0  0
  150.5952  140.7220  156.9060 C   0  0  2  0  0  0  0  0  0  0  0  0
  149.2534  141.3613  156.4627 C   0  0  0  0  0  0  0  0  0  0  0  0
  149.4296  142.2576  155.3859 O   0  0  0  0  0  0  0  0  0  0  0  0
  151.4853  141.7138  157.7057 C   0  0  1  0  0  0  0  0  0  0  0  0
  150.7571  142.5986  158.7040 C   0  0  0  0  0  0  0  0  0  0  0  0
  151.8850  143.0694  159.6153 C   0  0  0  0  0  0  0  0  0  0  0  0
  152.8310  142.0076  159.6367 O   0  0  0  0  0  0  0  0  0  0  0  0
  152.5083  141.0489  158.6349 C   0  0  0  0  0  0  0  0  0  0  0  0
  146.9715  134.7000  152.8720 N   0  3  2  0  0  0  0  0  0  0  0  0
  146.4583  135.6874  153.8509 C   0  0  0  0  0  0  0  0  0  0  0  0
  145.9018  134.0675  152.0683 C   0  0  0  0  0  0  0  0  0  0  0  0
  147.0983  132.8108  150.7966 H   0  0  0  0  0  0  0  0  0  0  0  0
  148.8109  133.7615  152.8287 H   0  0  0  0  0  0  0  0  0  0  0  0
  143.7240  131.5268  150.1774 H   0  0  0  0  0  0  0  0  0  0  0  0
  145.0973  132.2692  149.3639 H   0  0  0  0  0  0  0  0  0  0  0  0
  144.1172  133.2150  150.4991 H   0  0  0  0  0  0  0  0  0  0  0  0
  146.5609  131.9184  153.6550 H   0  0  0  0  0  0  0  0  0  0  0  0
  147.9831  131.5313  152.6862 H   0  0  0  0  0  0  0  0  0  0  0  0
  147.3724  134.1603  155.4153 H   0  0  0  0  0  0  0  0  0  0  0  0
  148.1894  132.6413  155.2968 H   0  0  0  0  0  0  0  0  0  0  0  0
  151.4832  134.1130  155.5003 H   0  0  0  0  0  0  0  0  0  0  0  0
  150.5907  132.6307  155.1804 H   0  0  0  0  0  0  0  0  0  0  0  0
  150.4703  133.3980  156.7653 H   0  0  0  0  0  0  0  0  0  0  0  0
  147.1486  137.6288  157.1292 H   0  0  0  0  0  0  0  0  0  0  0  0
  152.9858  138.1706  154.4704 H   0  0  0  0  0  0  0  0  0  0  0  0
  152.4507  140.2980  155.8252 H   0  0  0  0  0  0  0  0  0  0  0  0
  151.1079  140.7055  154.7870 H   0  0  0  0  0  0  0  0  0  0  0  0
  150.3626  139.8753  157.5540 H   0  0  0  0  0  0  0  0  0  0  0  0
  148.5302  140.5932  156.1870 H   0  0  0  0  0  0  0  0  0  0  0  0
  148.8001  141.9430  157.2640 H   0  0  0  0  0  0  0  0  0  0  0  0
  149.3307  143.1400  155.7100 H   0  0  0  0  0  0  0  0  0  0  0  0
  152.0234  142.3573  157.0073 H   0  0  0  0  0  0  0  0  0  0  0  0
  150.2315  143.4326  158.2390 H   0  0  0  0  0  0  0  0  0  0  0  0
  150.0351  142.0137  159.2759 H   0  0  0  0  0  0  0  0  0  0  0  0
  152.3665  143.9554  159.1997 H   0  0  0  0  0  0  0  0  0  0  0  0
  151.5352  143.3128  160.6186 H   0  0  0  0  0  0  0  0  0  0  0  0
  152.0748  140.1762  159.1256 H   0  0  0  0  0  0  0  0  0  0  0  0
  153.4063  140.7273  158.1067 H   0  0  0  0  0  0  0  0  0  0  0  0
  145.8628  135.2085  154.6291 H   0  0  0  0  0  0  0  0  0  0  0  0
  145.8235  136.4166  153.3463 H   0  0  0  0  0  0  0  0  0  0  0  0
  147.2735  136.2399  154.3181 H   0  0  0  0  0  0  0  0  0  0  0  0
  145.6225  134.6817  151.2119 H   0  0  0  0  0  0  0  0  0  0  0  0
  145.0127  133.9354  152.6883 H   0  0  0  0  0  0  0  0  0  0  0  0
  147.5315  135.2269  152.2168 H   0  0  0  0  0  0  0  0  0  0  0  0
  1  2  1  0  0  0  0
  1 32  1  0  0  0  0
  1 33  1  0  0  0  0
  1 34  1  0  0  0  0
  2  3  1  0  0  0  0
  3 30  1  0  0  0  0
  3 29  1  0  0  0  0
  3  4  1  0  0  0  0
  4  5  1  0  0  0  0
  4 35  1  0  0  0  0
  4 36  1  0  0  0  0
  5 31  1  0  0  0  0
  5  6  1  0  0  0  0
  5 27  1  0  0  0  0
  6  7  1  0  0  0  0
  6 37  1  0  0  0  0
  6 38  1  0  0  0  0
  7  8  1  0  0  0  0
  7  9  1  0  0  0  0
  8 39  1  0  0  0  0
  8 40  1  0  0  0  0
  8 41  1  0  0  0  0
  9 14  1  0  0  0  0
  9 10  2  0  0  0  0
 10 11  1  0  0  0  0
 11 12  2  0  0  0  0
 11 42  1  0  0  0  0
 12 13  1  0  0  0  0
 13 17  1  0  0  0  0
 13 14  2  0  0  0  0
 14 15  1  0  0  0  0
 15 16  2  0  0  0  0
 16 17  1  0  0  0  0
 16 43  1  0  0  0  0
 17 18  1  0  0  0  0
 18 19  1  0  0  0  0
 18 44  1  0  0  0  0
 18 45  1  0  0  0  0
 19 20  1  0  0  0  0
 19 22  1  0  0  0  0
 19 46  1  0  0  0  0
 20 21  1  0  0  0  0
 20 47  1  0  0  0  0
 20 48  1  0  0  0  0
 21 49  1  0  0  0  0
 22 26  1  0  0  0  0
 22 23  1  0  0  0  0
 22 50  1  0  0  0  0
 23 24  1  0  0  0  0
 23 51  1  0  0  0  0
 23 52  1  0  0  0  0
 24 25  1  0  0  0  0
 24 53  1  0  0  0  0
 24 54  1  0  0  0  0
 25 26  1  0  0  0  0
 26 55  1  0  0  0  0
 26 56  1  0  0  0  0
 27 28  1  0  0  0  0
 27 29  1  0  0  0  0
 27 62  1  0  0  0  0
 28 57  1  0  0  0  0
 28 58  1  0  0  0  0
 28 59  1  0  0  0  0
 29 60  1  0  0  0  0
 29 61  1  0  0  0  0
M  CHG  1  27   1
M  END
> <s_m_source_file>
AV-unprocessed.smi

> <i_m_source_file_index>
21

> <i_lp_mmshare_version>
43012

> <i_f3d_flags>
0

> <s_epik_input>
W0NIM11PW0NASF0xW0NIMl1bQ0BIXShOKFtDSDNdKVtDSDJdMSlbQ0gyXU4oW0NIM10pYyhuW2NIXW4yKWMoYzIzKW5bY0hdbjNbQ0gyXVtDQEhdKFtDSDJdW09IXSlbQ0BASF00W0NIMl1bQ0gyXU9bQ0gyXTQ=

> <s_epik_cmdline>
J2VwaWtfcHl0aG9uJywgJy1waCcsICc3LjAnLCAnLXRuJywgJzgnLCAnLW1hJywgJzIwMCcsICctbWV0YWxfYmluZGluZycsICctaW1hZScsICc8aW5maWxlLm1hZT4nLCAnLW9tYWUnLCAnPG91dGZpbGUubWFlPic=

> <r_lp_tautomer_probability>
1

> <r_epik_Ionization_Penalty>
0.0157465

> <r_epik_Ionization_Penalty_Charging>
0.015354

> <r_epik_Ionization_Penalty_Neutral>
0.000392529

> <r_epik_State_Penalty>
0.0120612

> <r_epik_Charging_Adjusted_Penalty>
0.0274152

> <i_epik_Tot_Q>
1

> <i_epik_Tot_abs_Q>
1

> <r_epik_Metal_State_Penalty>
0.0121253

> <b_epik_Metal_Only>
0

> <s_lp_Force_Field>
OPLS_2005

> <r_lp_Energy>
62.0887

> <b_lp_Chiralities_Consistent>
1

> <s_lp_Variant>
AV-unprocessed.smi:21-12

> <Gold.Version>
5.8.1

> <Gold.Id.Protein>
6NUR|6NUR_protein|mol2

> <Gold.PLP.Fitness>
51.2406

> <Gold.PLP.PLP>
-43.9393

> <Gold.PLP.part.hbond>
-2.8664

> <Gold.PLP.part.metal>
0.0000

> <Gold.PLP.part.buried>
-6.2096

> <Gold.PLP.part.nonpolar>
-35.5254

> <Gold.PLP.part.repulsive>
0.3016

> <Gold.PLP.ligand.clash>
0.0000

> <Gold.PLP.ligand.torsion>
2.7334

> <Gold.PLP.Chemscore.Hbond>
3.9840

> <Gold.PLP.Chemscore.CHOScore>
0.0000

> <Gold.PLP.Chemscore.Metal>
0.0000

> <Gold.Chemscore.Hbonds>
donor molecule, donor type, donor heavy atom, donor atom, acceptor molecule, acceptor atom, score
      L1  H    21    49       P1  8028  1.00
      L1  H    27    62       P1  7948  2.00
      P1  H 10752 10764       L1    15  1.00

> <Gold.PLP.Chemscore.Internal.Correction>
0.8160

> <Gold.Rescore>
     Score         DG    S(hbond)    S(metal)    S(lipo)     H(rot)  DE(clash)    DE(int)     intcor
     14.16     -18.50       2.83        0.00      97.81       3.08       0.32       4.03       ----

> <Gold.Chemscore.Fitness>
14.1596

> <Gold.Chemscore.DG>
-18.5018

> <Gold.Chemscore.ZeroCoef>
-5.4800

> <Gold.Chemscore.Hbond>
2.8298

> <Gold.Chemscore.Metal>
0.0000

> <Gold.Chemscore.Lipo>
97.8148

> <Gold.Chemscore.Internal_Hbond>
0.0000

> <Gold.Chemscore.DEClash>
0.3170

> <Gold.Chemscore.DEInternal>
4.0252

> <Gold.Chemscore.Rot>
3.0758

> <Gold.Chemscore.Internal.Correction>
   9.000000E+99

> <Gold.Chemscore.Hbonds>
donor molecule, donor type, donor heavy atom, donor atom, acceptor molecule, acceptor atom, score
      L1  H    21    49       P1  8028  0.98
      L1  H    27    62       P1  7948  0.95
      P1  H 10752 10764       L1    15  0.70

> <Gold.Chemscore.Hbond.Weighted>
-9.4516

> <Gold.Chemscore.Metal.Weighted>
-0.0000

> <Gold.Chemscore.Lipo.Weighted>
-11.4443

> <Gold.Chemscore.Internal_Hbond.Weighted>
0.0000

> <Gold.Chemscore.DEClash.Weighted>
0.3170

> <Gold.Chemscore.DEInternal.Weighted>
4.0252

> <Gold.Chemscore.Rot.Weighted>
7.8741

> <Gold.Chemscore.Internal.Correction.Weighted>
   9.000000E+99

> <Gold.Protein.RotatedTorsions>
[ 6907 6896 6895 6894 ] final  166.97 input  -60.11 | X-H torsion
[ 7974 7965 7964 7962 ] final    3.03 input  175.53 | X-H torsion
[ 8008 7997 7996 7995 ] final -107.22 input   59.86 | X-H torsion
[ 10167 10162 10161 10158 ] final  171.04 input  -65.29 | X-H torsion
[ 10718 10713 10712 10709 ] final -160.82 input   66.30 | X-H torsion
[ 10763 10752 10751 10750 ] final  -56.08 input  -60.55 | X-H torsion
[ 11005 11000 10999 10996 ] final  -26.74 input  -57.11 | X-H torsion

> <Gold.Protein.ActiveResidues>
 VAL166  LYS551  ARG553  GLY616  TRP617  ASP618  TYR619  PRO620  LYS621  CYS622 
 ASP623  PHE694  ASN695  SER759  ASP760  ASP761  ALA762  ILE779  LEU786  VAL792 
 PHE793  MET794  SER795  GLU796  ALA797  LYS798  CYS799  TRP800  GLU811  SER814 

> <Gold.Protein.RotatedAtoms>
  151.8707  133.3475  159.3733 H   0  0  0  0  0  0  0  0  0  0  0  0  # atno 6907 bound_to 6896
  150.7153  134.5116  159.5619 H   0  0  0  0  0  0  0  0  0  0  0  0  # atno 6908 bound_to 6896
  152.2648  134.7997  160.0475 H   0  0  0  0  0  0  0  0  0  0  0  0  # atno 6909 bound_to 6896
  146.2445  140.0746  142.8360 H   0  0  0  0  0  0  0  0  0  0  0  0  # atno 7974 bound_to 7965
  154.9261  140.0406  157.2023 H   0  0  0  0  0  0  0  0  0  0  0  0  # atno 8008 bound_to 7997
  154.8206  140.2883  155.5768 H   0  0  0  0  0  0  0  0  0  0  0  0  # atno 8009 bound_to 7997
  156.2979  140.2519  156.3113 H   0  0  0  0  0  0  0  0  0  0  0  0  # atno 8010 bound_to 7997
  139.5035  144.3529  151.9904 H   0  0  0  0  0  0  0  0  0  0  0  0  # atno 10167 bound_to 10162
  156.5876  130.8756  151.2881 H   0  0  0  0  0  0  0  0  0  0  0  0  # atno 10718 bound_to 10713
  154.2010  135.6411  153.5087 H   0  0  0  0  0  0  0  0  0  0  0  0  # atno 10763 bound_to 10752
  153.0012  135.5451  154.6315 H   0  0  0  0  0  0  0  0  0  0  0  0  # atno 10764 bound_to 10752
  154.5728  135.2918  155.0783 H   0  0  0  0  0  0  0  0  0  0  0  0  # atno 10765 bound_to 10752
  140.9056  133.7495  156.0602 H   0  0  0  0  0  0  0  0  0  0  0  0  # atno 11005 bound_to 11000
  145.0786  140.9205  143.4839 LP  0  0  0  0  0  0  0  0  0  0  0  0  # atno 17320 bound_to 7965
  145.0895  139.2901  143.5742 LP  0  0  0  0  0  0  0  0  0  0  0  0  # atno 17321 bound_to 7965
  140.2966  144.3694  150.6072 LP  0  0  0  0  0  0  0  0  0  0  0  0  # atno 17342 bound_to 10162
  140.5906  143.2168  151.7261 LP  0  0  0  0  0  0  0  0  0  0  0  0  # atno 17343 bound_to 10162
  157.7311  130.9696  150.1867 LP  0  0  0  0  0  0  0  0  0  0  0  0  # atno 17370 bound_to 10713
  156.2578  130.3707  149.8163 LP  0  0  0  0  0  0  0  0  0  0  0  0  # atno 17371 bound_to 10713
  140.8175  134.3328  157.5392 LP  0  0  0  0  0  0  0  0  0  0  0  0  # atno 17394 bound_to 11000
  139.8749  134.9290  156.3465 LP  0  0  0  0  0  0  0  0  0  0  0  0  # atno 17395 bound_to 11000

$$$$
