AV-unprocessed.smi:3311|AV-procd|sdf|12720|dock1
  -GOLD-   2272019 63D 1   1.00000     0.00000
 Structure written by MMmdl.
 44 45  0  0  0  0  0  0  0  0  2 V2000
  152.4044  139.4806  158.2689 C   0  0  0  0  0  0  0  0  0  0  0  0
  152.2723  140.8908  157.6655 C   0  0  1  0  0  0  0  0  0  0  0  0
  151.5605  140.7916  156.3722 N   0  3  0  0  0  0  0  0  0  0  0  0
  150.4520  139.8127  156.3432 C   0  0  0  0  0  0  0  0  0  0  0  0
  149.5594  139.9738  155.0931 C   0  0  0  0  0  0  0  0  0  0  0  0
  150.4148  139.9504  153.9636 O   0  0  0  0  0  0  0  0  0  0  0  0
  148.5906  138.7725  154.9824 C   0  0  0  0  0  0  0  0  0  0  0  0
  147.5974  138.9056  153.8137 C   0  0  0  0  0  0  0  0  0  0  0  0
  146.8156  140.2239  153.8939 C   0  0  0  0  0  0  0  0  0  0  0  0
  147.7688  141.4260  153.9473 C   0  0  0  0  0  0  0  0  0  0  0  0
  148.7658  141.3039  155.1140 C   0  0  0  0  0  0  0  0  0  0  0  0
  151.5466  141.8941  158.5996 C   0  0  2  0  0  0  0  0  0  0  0  0
  151.2054  143.2227  157.8992 C   0  0  0  0  0  0  0  0  0  0  0  0
  152.3109  142.1553  159.8129 N   0  0  0  0  0  0  0  0  0  0  0  0
  153.5597  141.6839  160.1675 C   0  0  0  0  0  0  0  0  0  0  0  0
  153.8524  142.1902  161.4012 C   0  0  0  0  0  0  0  0  0  0  0  0
  152.7068  142.9676  161.7278 C   0  0  0  0  0  0  0  0  0  0  0  0
  151.7861  142.9424  160.7777 N   0  0  0  0  0  0  0  0  0  0  0  0
  153.0154  139.4802  159.1718 H   0  0  0  0  0  0  0  0  0  0  0  0
  152.8779  138.7967  157.5638 H   0  0  0  0  0  0  0  0  0  0  0  0
  151.4287  139.0681  158.5274 H   0  0  0  0  0  0  0  0  0  0  0  0
  153.2852  141.2579  157.4903 H   0  0  0  0  0  0  0  0  0  0  0  0
  151.1868  141.7005  156.1403 H   0  0  0  0  0  0  0  0  0  0  0  0
  150.8688  138.8047  156.3744 H   0  0  0  0  0  0  0  0  0  0  0  0
  149.8547  139.9350  157.2479 H   0  0  0  0  0  0  0  0  0  0  0  0
  149.8822  139.8681  153.1865 H   0  0  0  0  0  0  0  0  0  0  0  0
  149.1506  137.8416  154.8822 H   0  0  0  0  0  0  0  0  0  0  0  0
  148.0230  138.6825  155.9097 H   0  0  0  0  0  0  0  0  0  0  0  0
  148.1310  138.8523  152.8640 H   0  0  0  0  0  0  0  0  0  0  0  0
  146.9039  138.0642  153.8209 H   0  0  0  0  0  0  0  0  0  0  0  0
  146.1503  140.3147  153.0344 H   0  0  0  0  0  0  0  0  0  0  0  0
  146.1788  140.2200  154.7795 H   0  0  0  0  0  0  0  0  0  0  0  0
  148.3109  141.5054  153.0044 H   0  0  0  0  0  0  0  0  0  0  0  0
  147.1943  142.3474  154.0477 H   0  0  0  0  0  0  0  0  0  0  0  0
  148.2138  141.3768  156.0522 H   0  0  0  0  0  0  0  0  0  0  0  0
  149.4443  142.1576  155.0955 H   0  0  0  0  0  0  0  0  0  0  0  0
  150.6020  141.4394  158.9052 H   0  0  0  0  0  0  0  0  0  0  0  0
  150.5259  143.0700  157.0607 H   0  0  0  0  0  0  0  0  0  0  0  0
  152.0992  143.7154  157.5149 H   0  0  0  0  0  0  0  0  0  0  0  0
  150.7158  143.9126  158.5876 H   0  0  0  0  0  0  0  0  0  0  0  0
  154.1306  141.0341  159.5204 H   0  0  0  0  0  0  0  0  0  0  0  0
  154.7483  142.0293  161.9825 H   0  0  0  0  0  0  0  0  0  0  0  0
  152.5172  143.5445  162.6210 H   0  0  0  0  0  0  0  0  0  0  0  0
  152.2286  140.5316  155.6601 H   0  0  0  0  0  0  0  0  0  0  0  0
  1  2  1  0  0  0  0
  1 19  1  0  0  0  0
  1 20  1  0  0  0  0
  1 21  1  0  0  0  0
  2  3  1  0  0  0  0
  2 12  1  0  0  0  0
  2 22  1  0  0  0  0
  3  4  1  0  0  0  0
  3 23  1  0  0  0  0
  3 44  1  0  0  0  0
  4  5  1  0  0  0  0
  4 24  1  0  0  0  0
  4 25  1  0  0  0  0
  5 11  1  0  0  0  0
  5  6  1  0  0  0  0
  5  7  1  0  0  0  0
  6 26  1  0  0  0  0
  7  8  1  0  0  0  0
  7 27  1  0  0  0  0
  7 28  1  0  0  0  0
  8  9  1  0  0  0  0
  8 29  1  0  0  0  0
  8 30  1  0  0  0  0
  9 10  1  0  0  0  0
  9 31  1  0  0  0  0
  9 32  1  0  0  0  0
 10 11  1  0  0  0  0
 10 33  1  0  0  0  0
 10 34  1  0  0  0  0
 11 35  1  0  0  0  0
 11 36  1  0  0  0  0
 12 13  1  0  0  0  0
 12 14  1  0  0  0  0
 12 37  1  0  0  0  0
 13 38  1  0  0  0  0
 13 39  1  0  0  0  0
 13 40  1  0  0  0  0
 14 18  1  0  0  0  0
 14 15  1  0  0  0  0
 15 16  2  0  0  0  0
 15 41  1  0  0  0  0
 16 17  1  0  0  0  0
 16 42  1  0  0  0  0
 17 18  2  0  0  0  0
 17 43  1  0  0  0  0
M  CHG  1   3   1
M  END
> <s_m_source_file>
AV-unprocessed.smi

> <i_m_source_file_index>
3311

> <i_lp_mmshare_version>
43012

> <i_f3d_flags>
0

> <s_epik_input>
bjFbY0hdW2NIXVtjSF1uMVtDQEBIXShbQ0gzXSlbQ0BIXShbQ0gzXSlbTkhdW0NIMl1DMihbT0hdKVtDSDJdW0NIMl1bQ0gyXVtDSDJdW0NIMl0y

> <s_epik_cmdline>
J2VwaWtfcHl0aG9uJywgJy1waCcsICc3LjAnLCAnLXRuJywgJzgnLCAnLW1hJywgJzIwMCcsICctbWV0YWxfYmluZGluZycsICctaW1hZScsICc8aW5maWxlLm1hZT4nLCAnLW9tYWUnLCAnPG91dGZpbGUubWFlPic=

> <r_lp_tautomer_probability>
1

> <r_epik_Ionization_Penalty>
0.0141403

> <r_epik_Ionization_Penalty_Charging>
0.0141276

> <r_epik_Ionization_Penalty_Neutral>
1.27139e-05

> <r_epik_State_Penalty>
0.0110334

> <r_epik_Charging_Adjusted_Penalty>
0.025161

> <i_epik_Tot_Q>
1

> <i_epik_Tot_abs_Q>
1

> <r_epik_Metal_State_Penalty>
0.0110573

> <b_epik_Metal_Only>
0

> <s_lp_Force_Field>
OPLS_2005

> <r_lp_Energy>
23.6471

> <b_lp_Chiralities_Consistent>
1

> <s_lp_Variant>
AV-unprocessed.smi:3311-2

> <Gold.Version>
5.8.1

> <Gold.Id.Protein>
6NUR|6NUR_protein|mol2

> <Gold.PLP.Fitness>
43.5424

> <Gold.PLP.PLP>
-38.3747

> <Gold.PLP.part.hbond>
-2.9077

> <Gold.PLP.part.metal>
0.0000

> <Gold.PLP.part.buried>
-4.7395

> <Gold.PLP.part.nonpolar>
-30.5240

> <Gold.PLP.part.repulsive>
0.2124

> <Gold.PLP.ligand.clash>
0.0000

> <Gold.PLP.ligand.torsion>
0.4530

> <Gold.PLP.Chemscore.Hbond>
2.0000

> <Gold.PLP.Chemscore.CHOScore>
0.0000

> <Gold.PLP.Chemscore.Metal>
0.0000

> <Gold.Chemscore.Hbonds>
donor molecule, donor type, donor heavy atom, donor atom, acceptor molecule, acceptor atom, score
      L1  H     6    26       P1  7957  0.96
      P1  H  7989  7998       L1     6  1.00

> <Gold.PLP.Chemscore.Internal.Correction>
0.0738

> <Gold.Rescore>
     Score         DG    S(hbond)    S(metal)    S(lipo)     H(rot)  DE(clash)    DE(int)     intcor
     17.04     -17.71       1.64        0.00     104.52       2.14       0.08       0.59       ----

> <Gold.Chemscore.Fitness>
17.0392

> <Gold.Chemscore.DG>
-17.7106

> <Gold.Chemscore.ZeroCoef>
-5.4800

> <Gold.Chemscore.Hbond>
1.6427

> <Gold.Chemscore.Metal>
0.0000

> <Gold.Chemscore.Lipo>
104.5186

> <Gold.Chemscore.Internal_Hbond>
0.0000

> <Gold.Chemscore.DEClash>
0.0800

> <Gold.Chemscore.DEInternal>
0.5914

> <Gold.Chemscore.Rot>
2.1424

> <Gold.Chemscore.Internal.Correction>
   9.000000E+99

> <Gold.Chemscore.Hbonds>
donor molecule, donor type, donor heavy atom, donor atom, acceptor molecule, acceptor atom, score
      L1  H     6    26       P1  7957  0.87
      P1  H  7989  7998       L1     6  0.37

> <Gold.Chemscore.Hbond.Weighted>
-5.4865

> <Gold.Chemscore.Metal.Weighted>
-0.0000

> <Gold.Chemscore.Lipo.Weighted>
-12.2287

> <Gold.Chemscore.Internal_Hbond.Weighted>
0.0000

> <Gold.Chemscore.DEClash.Weighted>
0.0800

> <Gold.Chemscore.DEInternal.Weighted>
0.5914

> <Gold.Chemscore.Rot.Weighted>
5.4846

> <Gold.Chemscore.Internal.Correction.Weighted>
   9.000000E+99

> <Gold.Protein.RotatedTorsions>
[ 6907 6896 6895 6894 ] final   23.09 input  -60.11 | X-H torsion
[ 7974 7965 7964 7962 ] final  -50.88 input  175.53 | X-H torsion
[ 8008 7997 7996 7995 ] final  101.79 input   59.86 | X-H torsion
[ 10167 10162 10161 10158 ] final -134.87 input  -65.29 | X-H torsion
[ 10718 10713 10712 10709 ] final -130.31 input   66.30 | X-H torsion
[ 10763 10752 10751 10750 ] final -133.13 input  -60.55 | X-H torsion
[ 11005 11000 10999 10996 ] final -125.92 input  -57.11 | X-H torsion

> <Gold.Protein.ActiveResidues>
 VAL166  LYS551  ARG553  GLY616  TRP617  ASP618  TYR619  PRO620  LYS621  CYS622 
 ASP623  PHE694  ASN695  SER759  ASP760  ASP761  ALA762  ILE779  LEU786  VAL792 
 PHE793  MET794  SER795  GLU796  ALA797  LYS798  CYS799  TRP800  GLU811  SER814 

> <Gold.Protein.RotatedAtoms>
  151.9370  135.0230  160.0532 H   0  0  0  0  0  0  0  0  0  0  0  0  # atno 6907 bound_to 6896
  152.2069  133.4877  159.5097 H   0  0  0  0  0  0  0  0  0  0  0  0  # atno 6908 bound_to 6896
  150.6967  134.1435  159.4156 H   0  0  0  0  0  0  0  0  0  0  0  0  # atno 6909 bound_to 6896
  145.9251  140.7799  142.9628 H   0  0  0  0  0  0  0  0  0  0  0  0  # atno 7974 bound_to 7965
  156.1332  140.3192  155.8381 H   0  0  0  0  0  0  0  0  0  0  0  0  # atno 8008 bound_to 7997
  155.4292  140.0517  157.3037 H   0  0  0  0  0  0  0  0  0  0  0  0  # atno 8009 bound_to 7997
  154.4916  140.2094  155.9549 H   0  0  0  0  0  0  0  0  0  0  0  0  # atno 8010 bound_to 7997
  139.8836  143.6809  152.2623 H   0  0  0  0  0  0  0  0  0  0  0  0  # atno 10167 bound_to 10162
  156.2132  130.6932  151.0673 H   0  0  0  0  0  0  0  0  0  0  0  0  # atno 10718 bound_to 10713
  154.8736  135.3776  154.4523 H   0  0  0  0  0  0  0  0  0  0  0  0  # atno 10763 bound_to 10752
  153.5198  135.7029  153.5742 H   0  0  0  0  0  0  0  0  0  0  0  0  # atno 10764 bound_to 10752
  153.3995  135.3952  155.1943 H   0  0  0  0  0  0  0  0  0  0  0  0  # atno 10765 bound_to 10752
  140.9723  134.0789  157.3856 H   0  0  0  0  0  0  0  0  0  0  0  0  # atno 11005 bound_to 11000
  144.6757  140.2037  143.7384 LP  0  0  0  0  0  0  0  0  0  0  0  0  # atno 17320 bound_to 7965
  145.8500  139.2170  143.1778 LP  0  0  0  0  0  0  0  0  0  0  0  0  # atno 17321 bound_to 7965
  139.7173  144.7609  151.1012 LP  0  0  0  0  0  0  0  0  0  0  0  0  # atno 17342 bound_to 10162
  140.7740  143.5252  150.9488 LP  0  0  0  0  0  0  0  0  0  0  0  0  # atno 17343 bound_to 10162
  157.7049  131.0760  150.6698 LP  0  0  0  0  0  0  0  0  0  0  0  0  # atno 17370 bound_to 10713
  156.6759  130.4553  149.5643 LP  0  0  0  0  0  0  0  0  0  0  0  0  # atno 17371 bound_to 10713
  139.8917  135.0120  156.6805 LP  0  0  0  0  0  0  0  0  0  0  0  0  # atno 17394 bound_to 11000
  140.7311  133.9058  155.8212 LP  0  0  0  0  0  0  0  0  0  0  0  0  # atno 17395 bound_to 11000

$$$$
