AV-unprocessed.smi:2751|AV-procd|sdf|10595|dock4
  -GOLD-   2272015 43D 1   1.00000     0.00000
 Structure written by MMmdl.
 34 35  0  0  0  0  0  0  0  0  1 V2000
  150.4590  140.4606  156.1698 O   0  0  0  0  0  0  0  0  0  0  0  0
  150.0015  141.5816  155.9448 C   0  0  0  0  0  0  0  0  0  0  0  0
  150.4646  142.6996  156.5227 N   0  0  0  0  0  0  0  0  0  0  0  0
  151.5681  142.7539  157.4746 C   0  0  0  0  0  0  0  0  0  0  0  0
  151.0675  142.9698  158.9131 C   0  0  0  0  0  0  0  0  0  0  0  0
  152.2113  143.0307  159.9377 C   0  0  2  0  0  0  0  0  0  0  0  0
  152.9023  141.6645  160.1136 C   0  0  0  0  0  0  0  0  0  0  0  0
  153.9890  141.7457  161.1916 C   0  0  0  0  0  0  0  0  0  0  0  0
  153.3945  142.3187  162.4825 C   0  0  0  0  0  0  0  0  0  0  0  0
  152.6706  143.6435  162.1943 C   0  0  0  0  0  0  0  0  0  0  0  0
  151.6764  143.4455  161.1935 O   0  0  0  0  0  0  0  0  0  0  0  0
  148.9899  141.8501  155.1025 N   0  0  0  0  0  0  0  0  0  0  0  0
  148.2619  140.9296  154.3069 C   0  0  0  0  0  0  0  0  0  0  0  0
  147.2332  141.2110  153.5056 N   0  0  0  0  0  0  0  0  0  0  0  0
  146.8715  139.9884  152.9587 C   0  0  0  0  0  0  0  0  0  0  0  0
  147.7098  139.0285  153.4647 C   0  0  0  0  0  0  0  0  0  0  0  0
  148.6013  139.6134  154.3236 O   0  0  0  0  0  0  0  0  0  0  0  0
  150.0284  143.5779  156.2824 H   0  0  0  0  0  0  0  0  0  0  0  0
  152.1648  141.8425  157.4091 H   0  0  0  0  0  0  0  0  0  0  0  0
  152.2239  143.5735  157.1803 H   0  0  0  0  0  0  0  0  0  0  0  0
  150.4776  143.8858  158.9664 H   0  0  0  0  0  0  0  0  0  0  0  0
  150.3940  142.1553  159.1835 H   0  0  0  0  0  0  0  0  0  0  0  0
  152.9450  143.7649  159.5997 H   0  0  0  0  0  0  0  0  0  0  0  0
  152.1648  140.9117  160.3953 H   0  0  0  0  0  0  0  0  0  0  0  0
  153.3393  141.3365  159.1698 H   0  0  0  0  0  0  0  0  0  0  0  0
  154.4201  140.7611  161.3740 H   0  0  0  0  0  0  0  0  0  0  0  0
  154.8014  142.3861  160.8456 H   0  0  0  0  0  0  0  0  0  0  0  0
  152.6897  141.6044  162.9100 H   0  0  0  0  0  0  0  0  0  0  0  0
  154.1781  142.4692  163.2254 H   0  0  0  0  0  0  0  0  0  0  0  0
  152.1899  144.0128  163.1002 H   0  0  0  0  0  0  0  0  0  0  0  0
  153.3762  144.4113  161.8734 H   0  0  0  0  0  0  0  0  0  0  0  0
  148.7164  142.8173  155.0128 H   0  0  0  0  0  0  0  0  0  0  0  0
  146.0530  139.8980  152.2598 H   0  0  0  0  0  0  0  0  0  0  0  0
  147.7985  137.9613  153.3253 H   0  0  0  0  0  0  0  0  0  0  0  0
  1  2  2  0  0  0  0
  2  3  1  0  0  0  0
  2 12  1  0  0  0  0
  3  4  1  0  0  0  0
  3 18  1  0  0  0  0
  4  5  1  0  0  0  0
  4 19  1  0  0  0  0
  4 20  1  0  0  0  0
  5  6  1  0  0  0  0
  5 21  1  0  0  0  0
  5 22  1  0  0  0  0
  6 11  1  0  0  0  0
  6  7  1  0  0  0  0
  6 23  1  0  0  0  0
  7  8  1  0  0  0  0
  7 24  1  0  0  0  0
  7 25  1  0  0  0  0
  8  9  1  0  0  0  0
  8 26  1  0  0  0  0
  8 27  1  0  0  0  0
  9 10  1  0  0  0  0
  9 28  1  0  0  0  0
  9 29  1  0  0  0  0
 10 11  1  0  0  0  0
 10 30  1  0  0  0  0
 10 31  1  0  0  0  0
 12 13  1  0  0  0  0
 12 32  1  0  0  0  0
 13 17  1  0  0  0  0
 13 14  2  0  0  0  0
 14 15  1  0  0  0  0
 15 16  2  0  0  0  0
 15 33  1  0  0  0  0
 16 17  1  0  0  0  0
 16 34  1  0  0  0  0
M  END
> <s_m_source_file>
AV-unprocessed.smi

> <i_m_source_file_index>
2751

> <i_lp_mmshare_version>
43012

> <i_f3d_flags>
0

> <s_epik_input>
bzFbY0hdW2NIXW5jMVtOSF1DKD1PKVtOSF1bQ0gyXVtDSDJdW0NAQEhdMltDSDJdW0NIMl1bQ0gyXVtDSDJdTzI=

> <s_epik_cmdline>
J2VwaWtfcHl0aG9uJywgJy1waCcsICc3LjAnLCAnLXRuJywgJzgnLCAnLW1hJywgJzIwMCcsICctbWV0YWxfYmluZGluZycsICctaW1hZScsICc8aW5maWxlLm1hZT4nLCAnLW9tYWUnLCAnPG91dGZpbGUubWFlPic=

> <r_lp_tautomer_probability>
0.785861

> <r_epik_Ionization_Penalty>
4.88827e-05

> <r_epik_Ionization_Penalty_Charging>
0

> <r_epik_Ionization_Penalty_Neutral>
4.88827e-05

> <r_epik_State_Penalty>
0.0434822

> <r_epik_Charging_Adjusted_Penalty>
0.0434822

> <i_epik_Tot_Q>
0

> <i_epik_Tot_abs_Q>
0

> <r_epik_Metal_State_Penalty>
0.0598982

> <b_epik_Metal_Only>
0

> <s_lp_Force_Field>
OPLS_2005

> <r_lp_Energy>
7.87484

> <b_lp_Chiralities_Consistent>
1

> <s_lp_Variant>
AV-unprocessed.smi:2751-1

> <Gold.Version>
5.8.1

> <Gold.Id.Protein>
6NUR|6NUR_protein|mol2

> <Gold.PLP.Fitness>
47.3559

> <Gold.PLP.PLP>
-35.6519

> <Gold.PLP.part.hbond>
-2.5249

> <Gold.PLP.part.metal>
0.0000

> <Gold.PLP.part.buried>
-4.4749

> <Gold.PLP.part.nonpolar>
-28.6611

> <Gold.PLP.part.repulsive>
0.7090

> <Gold.PLP.ligand.clash>
0.0000

> <Gold.PLP.ligand.torsion>
0.1378

> <Gold.PLP.Chemscore.Hbond>
1.9920

> <Gold.PLP.Chemscore.CHOScore>
2.0000

> <Gold.PLP.Chemscore.Metal>
0.0000

> <Gold.Chemscore.Hbonds>
donor molecule, donor type, donor heavy atom, donor atom, acceptor molecule, acceptor atom, score
      L1  H     3    18       P1  8028  1.00
      L1  H    12    32       P1  8028  0.99
      L1  C    15    33       P1 10175  1.00
      L1  C    16    34       P1  7948  0.99

> <Gold.PLP.Chemscore.Internal.Correction>
0.0036

> <Gold.Rescore>
     Score         DG    S(hbond)    S(metal)    S(lipo)     H(rot)  DE(clash)    DE(int)     intcor
     17.05     -18.62       2.17        0.00      86.24       1.63       0.03       1.54       ----

> <Gold.Chemscore.Fitness>
17.0544

> <Gold.Chemscore.DG>
-18.6230

> <Gold.Chemscore.ZeroCoef>
-5.4800

> <Gold.Chemscore.Hbond>
2.1656

> <Gold.Chemscore.Metal>
0.0000

> <Gold.Chemscore.Lipo>
86.2387

> <Gold.Chemscore.Internal_Hbond>
0.0000

> <Gold.Chemscore.DEClash>
0.0329

> <Gold.Chemscore.DEInternal>
1.5357

> <Gold.Chemscore.Rot>
1.6328

> <Gold.Chemscore.Internal.Correction>
   9.000000E+99

> <Gold.Chemscore.Hbonds>
donor molecule, donor type, donor heavy atom, donor atom, acceptor molecule, acceptor atom, score
      L1  H     3    18       P1  8028  1.00
      L1  H    12    32       P1  8028  0.91

> <Gold.Chemscore.Hbond.Weighted>
-7.2330

> <Gold.Chemscore.Metal.Weighted>
-0.0000

> <Gold.Chemscore.Lipo.Weighted>
-10.0899

> <Gold.Chemscore.Internal_Hbond.Weighted>
0.0000

> <Gold.Chemscore.DEClash.Weighted>
0.0329

> <Gold.Chemscore.DEInternal.Weighted>
1.5357

> <Gold.Chemscore.Rot.Weighted>
4.1799

> <Gold.Chemscore.Internal.Correction.Weighted>
   9.000000E+99

> <Gold.Protein.RotatedTorsions>
[ 6907 6896 6895 6894 ] final    4.04 input  -60.11 | X-H torsion
[ 7974 7965 7964 7962 ] final   71.09 input  175.53 | X-H torsion
[ 8008 7997 7996 7995 ] final    9.75 input   59.86 | X-H torsion
[ 10167 10162 10161 10158 ] final   53.70 input  -65.29 | X-H torsion
[ 10718 10713 10712 10709 ] final  133.75 input   66.30 | X-H torsion
[ 10763 10752 10751 10750 ] final  134.36 input  -60.55 | X-H torsion
[ 11005 11000 10999 10996 ] final -106.88 input  -57.11 | X-H torsion

> <Gold.Protein.ActiveResidues>
 VAL166  LYS551  ARG553  GLY616  TRP617  ASP618  TYR619  PRO620  LYS621  CYS622 
 ASP623  PHE694  ASN695  SER759  ASP760  ASP761  ALA762  ILE779  LEU786  VAL792 
 PHE793  MET794  SER795  GLU796  ALA797  LYS798  CYS799  TRP800  GLU811  SER814 

> <Gold.Protein.RotatedAtoms>
  151.6349  135.1019  160.0129 H   0  0  0  0  0  0  0  0  0  0  0  0  # atno 6907 bound_to 6896
  152.4086  133.6924  159.6386 H   0  0  0  0  0  0  0  0  0  0  0  0  # atno 6908 bound_to 6896
  150.7978  133.8581  159.3265 H   0  0  0  0  0  0  0  0  0  0  0  0  # atno 6909 bound_to 6896
  145.7701  139.2839  143.1326 H   0  0  0  0  0  0  0  0  0  0  0  0  # atno 7974 bound_to 7965
  154.7842  140.2824  155.6041 H   0  0  0  0  0  0  0  0  0  0  0  0  # atno 8008 bound_to 7997
  156.2954  140.2617  156.2602 H   0  0  0  0  0  0  0  0  0  0  0  0  # atno 8009 bound_to 7997
  154.9748  140.0375  157.2240 H   0  0  0  0  0  0  0  0  0  0  0  0  # atno 8010 bound_to 7997
  140.2380  144.3615  150.6390 H   0  0  0  0  0  0  0  0  0  0  0  0  # atno 10167 bound_to 10162
  157.4742  131.1082  150.9764 H   0  0  0  0  0  0  0  0  0  0  0  0  # atno 10718 bound_to 10713
  153.8222  135.3114  155.3411 H   0  0  0  0  0  0  0  0  0  0  0  0  # atno 10763 bound_to 10752
  154.8008  135.4728  154.0274 H   0  0  0  0  0  0  0  0  0  0  0  0  # atno 10764 bound_to 10752
  153.1686  135.6874  153.8729 H   0  0  0  0  0  0  0  0  0  0  0  0  # atno 10765 bound_to 10752
  141.0982  133.8932  157.1909 H   0  0  0  0  0  0  0  0  0  0  0  0  # atno 11005 bound_to 11000
  146.0178  140.8376  142.9938 LP  0  0  0  0  0  0  0  0  0  0  0  0  # atno 17320 bound_to 7965
  144.6814  140.2585  143.7322 LP  0  0  0  0  0  0  0  0  0  0  0  0  # atno 17321 bound_to 7965
  140.6135  143.2171  151.6838 LP  0  0  0  0  0  0  0  0  0  0  0  0  # atno 17342 bound_to 10162
  139.5087  144.3602  152.0569 LP  0  0  0  0  0  0  0  0  0  0  0  0  # atno 17343 bound_to 10162
  157.0519  130.5790  149.5372 LP  0  0  0  0  0  0  0  0  0  0  0  0  # atno 17370 bound_to 10713
  156.0088  130.5178  150.7921 LP  0  0  0  0  0  0  0  0  0  0  0  0  # atno 17371 bound_to 10713
  139.9825  135.0093  156.9785 LP  0  0  0  0  0  0  0  0  0  0  0  0  # atno 17394 bound_to 11000
  140.5087  134.1024  155.7265 LP  0  0  0  0  0  0  0  0  0  0  0  0  # atno 17395 bound_to 11000

$$$$
