AV-unprocessed.smi:221|AV-procd|sdf|1691|dock3
  -GOLD-   2262020133D 1   1.00000     0.00000
 Structure written by MMmdl.
 50 53  0  0  0  0  0  0  0  0  1 V2000
  144.1893  137.2407  161.0847 N   0  0  0  0  0  0  0  0  0  0  0  0
  145.4487  137.3172  161.5257 C   0  0  0  0  0  0  0  0  0  0  0  0
  146.0955  138.3602  161.4547 O   0  0  0  0  0  0  0  0  0  0  0  0
  146.0816  136.0445  162.1251 C   0  0  1  0  0  0  0  0  0  0  0  0
  145.1687  134.8114  162.1983 C   0  0  0  0  0  0  0  0  0  0  0  0
  146.1506  133.6498  162.4021 C   0  0  1  0  0  0  0  0  0  0  0  0
  145.9005  132.6747  161.5277 F   0  0  0  0  0  0  0  0  0  0  0  0
  147.5468  134.2521  162.1684 C   0  0  0  0  0  0  0  0  0  0  0  0
  147.3356  135.5514  161.5381 N   0  0  0  0  0  0  0  0  0  0  0  0
  147.5185  135.4832  160.1917 C   0  0  0  0  0  0  0  0  0  0  0  0
  146.7651  134.6593  159.4149 N   0  0  0  0  0  0  0  0  0  0  0  0
  146.9759  134.5965  158.0971 C   0  0  0  0  0  0  0  0  0  0  0  0
  147.8778  135.2527  157.3645 N   0  0  0  0  0  0  0  0  0  0  0  0
  148.6449  136.0700  158.1410 C   0  0  0  0  0  0  0  0  0  0  0  0
  148.5334  136.2415  159.5490 C   0  0  0  0  0  0  0  0  0  0  0  0
  149.4824  137.1525  159.9958 N   0  0  0  0  0  0  0  0  0  0  0  0
  150.1224  137.4989  158.9120 C   0  0  0  0  0  0  0  0  0  0  0  0
  149.6885  136.8928  157.7547 N   0  0  0  0  0  0  0  0  0  0  0  0
  150.2254  137.0934  156.4201 C   0  0  0  0  0  0  0  0  0  0  0  0
  151.1252  138.3492  156.3093 C   0  0  1  0  0  0  0  0  0  0  0  0
  152.2013  138.2164  155.2037 C   0  0  0  0  0  0  0  0  0  0  0  0
  153.0676  137.1286  155.4542 O   0  0  0  0  0  0  0  0  0  0  0  0
  150.2823  139.6415  156.1607 C   0  0  2  0  0  0  0  0  0  0  0  0
  149.5670  139.7914  154.8296 C   0  0  0  0  0  0  0  0  0  0  0  0
  149.2499  141.2821  154.8011 C   0  0  0  0  0  0  0  0  0  0  0  0
  150.3226  141.9142  155.4899 O   0  0  0  0  0  0  0  0  0  0  0  0
  151.0945  140.9413  156.1876 C   0  0  0  0  0  0  0  0  0  0  0  0
  146.3335  136.3232  163.1502 H   0  0  0  0  0  0  0  0  0  0  0  0
  146.0712  133.2160  163.3994 H   0  0  0  0  0  0  0  0  0  0  0  0
  143.7455  138.0580  160.6919 H   0  0  0  0  0  0  0  0  0  0  0  0
  143.6850  136.3685  161.1506 H   0  0  0  0  0  0  0  0  0  0  0  0
  144.4457  134.8842  163.0115 H   0  0  0  0  0  0  0  0  0  0  0  0
  144.6086  134.6818  161.2709 H   0  0  0  0  0  0  0  0  0  0  0  0
  148.0487  134.4194  163.1223 H   0  0  0  0  0  0  0  0  0  0  0  0
  148.1863  133.5803  161.5916 H   0  0  0  0  0  0  0  0  0  0  0  0
  146.3315  133.9220  157.5526 H   0  0  0  0  0  0  0  0  0  0  0  0
  150.9377  138.2076  158.9261 H   0  0  0  0  0  0  0  0  0  0  0  0
  150.7817  136.2018  156.1280 H   0  0  0  0  0  0  0  0  0  0  0  0
  149.3802  137.1642  155.7350 H   0  0  0  0  0  0  0  0  0  0  0  0
  151.6678  138.4293  157.2526 H   0  0  0  0  0  0  0  0  0  0  0  0
  151.7393  138.0771  154.2267 H   0  0  0  0  0  0  0  0  0  0  0  0
  152.7970  139.1257  155.1234 H   0  0  0  0  0  0  0  0  0  0  0  0
  153.6277  137.3507  156.1822 H   0  0  0  0  0  0  0  0  0  0  0  0
  149.5382  139.6863  156.9577 H   0  0  0  0  0  0  0  0  0  0  0  0
  150.2343  139.5352  154.0055 H   0  0  0  0  0  0  0  0  0  0  0  0
  148.6711  139.1750  154.7494 H   0  0  0  0  0  0  0  0  0  0  0  0
  149.1433  141.6675  153.7868 H   0  0  0  0  0  0  0  0  0  0  0  0
  148.3235  141.4840  155.3400 H   0  0  0  0  0  0  0  0  0  0  0  0
  151.3146  141.2735  157.2023 H   0  0  0  0  0  0  0  0  0  0  0  0
  152.0419  140.8178  155.6610 H   0  0  0  0  0  0  0  0  0  0  0  0
  1  2  1  0  0  0  0
  1 30  1  0  0  0  0
  1 31  1  0  0  0  0
  2  3  2  0  0  0  0
  2  4  1  0  0  0  0
  4 28  1  0  0  0  0
  4  9  1  0  0  0  0
  4  5  1  0  0  0  0
  5  6  1  0  0  0  0
  5 32  1  0  0  0  0
  5 33  1  0  0  0  0
  6 29  1  0  0  0  0
  6  7  1  0  0  0  0
  6  8  1  0  0  0  0
  8  9  1  0  0  0  0
  8 34  1  0  0  0  0
  8 35  1  0  0  0  0
  9 10  1  0  0  0  0
 10 15  1  0  0  0  0
 10 11  2  0  0  0  0
 11 12  1  0  0  0  0
 12 13  2  0  0  0  0
 12 36  1  0  0  0  0
 13 14  1  0  0  0  0
 14 18  1  0  0  0  0
 14 15  2  0  0  0  0
 15 16  1  0  0  0  0
 16 17  2  0  0  0  0
 17 18  1  0  0  0  0
 17 37  1  0  0  0  0
 18 19  1  0  0  0  0
 19 20  1  0  0  0  0
 19 38  1  0  0  0  0
 19 39  1  0  0  0  0
 20 21  1  0  0  0  0
 20 23  1  0  0  0  0
 20 40  1  0  0  0  0
 21 22  1  0  0  0  0
 21 41  1  0  0  0  0
 21 42  1  0  0  0  0
 22 43  1  0  0  0  0
 23 27  1  0  0  0  0
 23 24  1  0  0  0  0
 23 44  1  0  0  0  0
 24 25  1  0  0  0  0
 24 45  1  0  0  0  0
 24 46  1  0  0  0  0
 25 26  1  0  0  0  0
 25 47  1  0  0  0  0
 25 48  1  0  0  0  0
 26 27  1  0  0  0  0
 27 49  1  0  0  0  0
 27 50  1  0  0  0  0
M  END
> <s_m_source_file>
AV-unprocessed.smi

> <i_m_source_file_index>
221

> <i_lp_mmshare_version>
43012

> <i_f3d_flags>
0

> <s_epik_input>
W05IMl1DKD1PKVtDQEBIXTFbQ0gyXVtDQEBIXShGKVtDSDJdTjFjKG5bY0hdbjIpYyhjMjMpbltjSF1uM1tDSDJdW0NASF0oW0NIMl1bT0hdKVtDQEBIXTRbQ0gyXVtDSDJdT1tDSDJdNA==

> <s_epik_cmdline>
J2VwaWtfcHl0aG9uJywgJy1waCcsICc3LjAnLCAnLXRuJywgJzgnLCAnLW1hJywgJzIwMCcsICctbWV0YWxfYmluZGluZycsICctaW1hZScsICc8aW5maWxlLm1hZT4nLCAnLW9tYWUnLCAnPG91dGZpbGUubWFlPic=

> <r_lp_tautomer_probability>
1

> <r_epik_Ionization_Penalty>
0.000818822

> <r_epik_Ionization_Penalty_Charging>
0

> <r_epik_Ionization_Penalty_Neutral>
0.000818822

> <r_epik_State_Penalty>
0.000440551

> <r_epik_Charging_Adjusted_Penalty>
0.000440551

> <i_epik_Tot_Q>
0

> <i_epik_Tot_abs_Q>
0

> <r_epik_Metal_State_Penalty>
-0

> <b_epik_Metal_Only>
0

> <s_lp_Force_Field>
OPLS_2005

> <r_lp_Energy>
55.0143

> <b_lp_Chiralities_Consistent>
1

> <s_lp_Variant>
AV-unprocessed.smi:221-6

> <Gold.Version>
5.8.1

> <Gold.Id.Protein>
6NUR|6NUR_protein|mol2

> <Gold.PLP.Fitness>
40.3868

> <Gold.PLP.PLP>
-37.3177

> <Gold.PLP.part.hbond>
-3.5889

> <Gold.PLP.part.metal>
0.0000

> <Gold.PLP.part.buried>
-5.8747

> <Gold.PLP.part.nonpolar>
-29.2836

> <Gold.PLP.part.repulsive>
0.2023

> <Gold.PLP.ligand.clash>
0.0000

> <Gold.PLP.ligand.torsion>
0.5429

> <Gold.PLP.Chemscore.Hbond>
1.3108

> <Gold.PLP.Chemscore.CHOScore>
0.0000

> <Gold.PLP.Chemscore.Metal>
0.0000

> <Gold.Chemscore.Hbonds>
donor molecule, donor type, donor heavy atom, donor atom, acceptor molecule, acceptor atom, score
      P1  H  6931  6943       L1    16  0.20
      P1  H  6934  6947       L1     3  0.35
      P1  H 10752 10763       L1    22  0.38

> <Gold.PLP.Chemscore.Internal.Correction>
0.2226

> <Gold.Rescore>
     Score         DG    S(hbond)    S(metal)    S(lipo)     H(rot)  DE(clash)    DE(int)     intcor
      8.85      -9.41       1.39        0.00      75.30       3.72       0.08       0.49       ----

> <Gold.Chemscore.Fitness>
8.8450

> <Gold.Chemscore.DG>
-9.4079

> <Gold.Chemscore.ZeroCoef>
-5.4800

> <Gold.Chemscore.Hbond>
1.3897

> <Gold.Chemscore.Metal>
0.0000

> <Gold.Chemscore.Lipo>
75.3006

> <Gold.Chemscore.Internal_Hbond>
0.0000

> <Gold.Chemscore.DEClash>
0.0779

> <Gold.Chemscore.DEInternal>
0.4851

> <Gold.Chemscore.Rot>
3.7202

> <Gold.Chemscore.Internal.Correction>
   9.000000E+99

> <Gold.Chemscore.Hbonds>
donor molecule, donor type, donor heavy atom, donor atom, acceptor molecule, acceptor atom, score
      P1  H  6931  6943       L1    16  0.19
      P1  H  6934  6947       L1     3  0.34
      P1  H 10752 10763       L1    22  0.36

> <Gold.Chemscore.Hbond.Weighted>
-4.6415

> <Gold.Chemscore.Metal.Weighted>
-0.0000

> <Gold.Chemscore.Lipo.Weighted>
-8.8102

> <Gold.Chemscore.Internal_Hbond.Weighted>
0.0000

> <Gold.Chemscore.DEClash.Weighted>
0.0779

> <Gold.Chemscore.DEInternal.Weighted>
0.4851

> <Gold.Chemscore.Rot.Weighted>
9.5237

> <Gold.Chemscore.Internal.Correction.Weighted>
   9.000000E+99

> <Gold.Protein.RotatedTorsions>
[ 6907 6896 6895 6894 ] final  126.56 input  -60.11 | X-H torsion
[ 7974 7965 7964 7962 ] final  -78.07 input  175.53 | X-H torsion
[ 8008 7997 7996 7995 ] final  -21.24 input   59.86 | X-H torsion
[ 10167 10162 10161 10158 ] final  -22.00 input  -65.29 | X-H torsion
[ 10718 10713 10712 10709 ] final   -1.01 input   66.30 | X-H torsion
[ 10763 10752 10751 10750 ] final   80.78 input  -60.55 | X-H torsion
[ 11005 11000 10999 10996 ] final  142.13 input  -57.11 | X-H torsion

> <Gold.Protein.ActiveResidues>
 VAL166  LYS551  ARG553  GLY616  TRP617  ASP618  TYR619  PRO620  LYS621  CYS622 
 ASP623  PHE694  ASN695  SER759  ASP760  ASP761  ALA762  ILE779  LEU786  VAL792 
 PHE793  MET794  SER795  GLU796  ALA797  LYS798  CYS799  TRP800  GLU811  SER814 

> <Gold.Protein.RotatedAtoms>
  152.3892  133.6655  159.6223 H   0  0  0  0  0  0  0  0  0  0  0  0  # atno 6907 bound_to 6896
  150.7804  133.8982  159.3342 H   0  0  0  0  0  0  0  0  0  0  0  0  # atno 6908 bound_to 6896
  151.6772  135.0968  160.0260 H   0  0  0  0  0  0  0  0  0  0  0  0  # atno 6909 bound_to 6896
  145.5913  140.9429  143.1291 H   0  0  0  0  0  0  0  0  0  0  0  0  # atno 7974 bound_to 7965
  154.4718  140.2040  155.9976 H   0  0  0  0  0  0  0  0  0  0  0  0  # atno 8008 bound_to 7997
  156.1023  140.3242  155.7929 H   0  0  0  0  0  0  0  0  0  0  0  0  # atno 8009 bound_to 7997
  155.4776  140.0536  157.2962 H   0  0  0  0  0  0  0  0  0  0  0  0  # atno 8010 bound_to 7997
  140.7284  143.4575  151.0427 H   0  0  0  0  0  0  0  0  0  0  0  0  # atno 10167 bound_to 10162
  156.8119  130.5427  149.5708 H   0  0  0  0  0  0  0  0  0  0  0  0  # atno 10718 bound_to 10713
  153.1062  135.4790  154.8955 H   0  0  0  0  0  0  0  0  0  0  0  0  # atno 10763 bound_to 10752
  154.7432  135.3087  154.8693 H   0  0  0  0  0  0  0  0  0  0  0  0  # atno 10764 bound_to 10752
  153.9295  135.6846  153.4799 H   0  0  0  0  0  0  0  0  0  0  0  0  # atno 10765 bound_to 10752
  140.0454  134.9283  157.0919 H   0  0  0  0  0  0  0  0  0  0  0  0  # atno 11005 bound_to 11000
  144.7350  139.7612  143.7333 LP  0  0  0  0  0  0  0  0  0  0  0  0  # atno 17320 bound_to 7965
  146.1645  139.4771  142.9967 LP  0  0  0  0  0  0  0  0  0  0  0  0  # atno 17321 bound_to 7965
  139.8257  143.7760  152.3178 LP  0  0  0  0  0  0  0  0  0  0  0  0  # atno 17342 bound_to 10162
  139.7858  144.7428  151.0024 LP  0  0  0  0  0  0  0  0  0  0  0  0  # atno 17343 bound_to 10162
  156.1039  130.5990  150.9939 LP  0  0  0  0  0  0  0  0  0  0  0  0  # atno 17370 bound_to 10713
  157.6501  131.0898  150.8068 LP  0  0  0  0  0  0  0  0  0  0  0  0  # atno 17371 bound_to 10713
  140.4002  134.2090  155.7163 LP  0  0  0  0  0  0  0  0  0  0  0  0  # atno 17394 bound_to 11000
  141.1904  133.8218  157.0920 LP  0  0  0  0  0  0  0  0  0  0  0  0  # atno 17395 bound_to 11000

$$$$
