#       Name:                AV-unprocessed.smi:103
#       Creating user name   scv26
#       Creation time:       Thu Mar 26 17:54:16 2020


#       File generated by GOLD software.
#

@<TRIPOS>MOLECULE
AV-unprocessed.smi:103
    64    66     1
SMALL
NO_CHARGES


@<TRIPOS>ATOM
      1 ****        -1.9208   6.0176   0.1552 C.3            1 S1                 0.0000
      2 ****        -2.6319   4.6709   0.1739 C.2            1 S1                 0.0000
      3 ****        -3.8323   4.5808   0.4309 O.2            1 S1                 0.0000
      4 ****        -1.8093   3.6521  -0.1172 O.3            1 S1                 0.0000
      5 ****        -2.3189   2.3292  -0.1484 C.3            1 S1                 0.0000
      6 ****        -1.1879   1.3522  -0.4971 C.3            1 S1                 0.0000
      7 ****        -0.3284   1.1306   0.6211 O.3            1 S1                 0.0000
      8 ****         0.1720  -0.1732   0.5880 C.3            1 S1                 0.0000
      9 ****         1.6697  -0.1219   0.5891 N.pl3          1 S1                 0.0000
     10 ****         2.5732  -0.6560   1.4893 C.2            1 S1                 0.0000
     11 ****         2.1957  -1.6286   2.9456 S.o2           1 S1                 0.0000
     12 ****         1.6842  -3.2376   2.2175 C.3            1 S1                 0.0000
     13 ****         3.4590  -1.8132   3.6772 O.2            1 S1                 0.0000
     14 ****         1.0399  -0.9996   3.6029 O.2            1 S1                 0.0000
     15 ****         3.8389  -0.4956   1.2131 N.2            1 S1                 0.0000
     16 ****         3.8160   0.2713   0.0583 C.ar           1 S1                 0.0000
     17 ****         4.8201   0.8302  -0.7720 C.ar           1 S1                 0.0000
     18 ****         6.1307   0.6810  -0.5360 N.pl3          1 S1                 0.0000
     19 ****         4.4389   1.5498  -1.8528 N.ar           1 S1                 0.0000
     20 ****         3.1373   1.7143  -2.1084 C.ar           1 S1                 0.0000
     21 ****         2.0872   1.2499  -1.4263 N.ar           1 S1                 0.0000
     22 ****         2.4704   0.5227  -0.3356 C.ar           1 S1                 0.0000
     23 ****        -0.3673  -0.8390  -0.6801 C.3            1 S1                 0.0000
     24 ****        -0.5731  -2.2311  -0.4811 O.3            1 S1                 0.0000
     25 ****        -0.5922  -3.0670  -1.5313 C.2            1 S1                 0.0000
     26 ****        -0.8276  -4.5124  -1.1146 C.3            1 S1                 0.0000
     27 ****        -0.4485  -2.7513  -2.7122 O.2            1 S1                 0.0000
     28 ****        -1.6497  -0.0507  -0.9036 C.3            1 S1                 0.0000
     29 ****        -2.6947  -0.4809  -0.0311 O.3            1 S1                 0.0000
     30 ****        -3.7034  -1.2435  -0.4896 C.2            1 S1                 0.0000
     31 ****        -4.7085  -1.5887   0.6005 C.3            1 S1                 0.0000
     32 ****        -3.8410  -1.6504  -1.6430 O.2            1 S1                 0.0000
     33 ****        -0.9673   5.9528   0.6798 H              1 S1                 0.0000
     34 ****        -2.5313   6.7784   0.6424 H              1 S1                 0.0000
     35 ****        -1.7321   6.3309  -0.8715 H              1 S1                 0.0000
     36 ****        -2.7723   2.0686   0.8091 H              1 S1                 0.0000
     37 ****        -3.0994   2.2723  -0.9087 H              1 S1                 0.0000
     38 ****        -0.5942   1.7628  -1.3147 H              1 S1                 0.0000
     39 ****        -0.1264  -0.6954   1.4929 H              1 S1                 0.0000
     40 ****         1.4676  -3.9441   3.0185 H              1 S1                 0.0000
     41 ****         2.4905  -3.6281   1.5969 H              1 S1                 0.0000
     42 ****         0.7922  -3.0992   1.6098 H              1 S1                 0.0000
     43 ****         6.4397   0.1494   0.2652 H              1 S1                 0.0000
     44 ****         6.8061   1.1032  -1.1567 H              1 S1                 0.0000
     45 ****         2.9037   2.2996  -2.9855 H              1 S1                 0.0000
     46 ****         0.3255  -0.6525  -1.5010 H              1 S1                 0.0000
     47 ****         0.0300  -4.8891  -0.5572 H              1 S1                 0.0000
     48 ****        -0.9770  -5.1443  -1.9904 H              1 S1                 0.0000
     49 ****        -1.7128  -4.5842  -0.4825 H              1 S1                 0.0000
     50 ****        -1.9644  -0.0697  -1.9479 H              1 S1                 0.0000
     51 ****        -4.2138  -2.1120   1.4189 H              1 S1                 0.0000
     52 ****        -5.4968  -2.2304   0.2061 H              1 S1                 0.0000
     53 ****        -5.1659  -0.6812   0.9948 H              1 S1                 0.0000
     54 ****        -4.3633   5.4035   0.6337 LP             1 S1                 0.0000
     55 ****        -4.2765   3.6849   0.4369 LP             1 S1                 0.0000
     56 ****        -0.8440   1.2660   1.4671 LP             1 S1                 0.0000
     57 ****         0.4327   1.7784   0.5873 LP             1 S1                 0.0000
     58 ****         4.6326  -0.8419   1.7132 LP             1 S1                 0.0000
     59 ****         5.1259   1.9555  -2.4557 LP             1 S1                 0.0000
     60 ****         1.1350   1.4148  -1.6833 LP             1 S1                 0.0000
     61 ****        -0.3011  -1.7936  -2.9594 LP             1 S1                 0.0000
     62 ****        -0.4791  -3.4525  -3.4245 LP             1 S1                 0.0000
     63 ****        -3.1629  -1.4168  -2.3399 LP             1 S1                 0.0000
     64 ****        -4.6309  -2.2146  -1.8833 LP             1 S1                 0.0000
@<TRIPOS>BOND
    1    1    2 1     
    2    1   33 1     
    3    1   34 1     
    4    1   35 1     
    5    2    3 2     
    6    2    4 1     
    7    4    5 1     
    8    5    6 1     
    9    5   36 1     
   10    5   37 1     
   11    6   28 1     
   12    6    7 1     
   13    6   38 1     
   14    7    8 1     
   15    8    9 1     
   16    8   23 1     
   17    8   39 1     
   18    9   22 1     
   19    9   10 1     
   20   10   11 1     
   21   10   15 2     
   22   11   12 1     
   23   11   13 2     
   24   11   14 2     
   25   12   40 1     
   26   12   41 1     
   27   12   42 1     
   28   15   16 1     
   29   16   22 ar    
   30   16   17 ar    
   31   17   18 1     
   32   17   19 ar    
   33   18   43 1     
   34   18   44 1     
   35   19   20 ar    
   36   20   21 ar    
   37   20   45 1     
   38   21   22 ar    
   39   23   24 1     
   40   23   28 1     
   41   23   46 1     
   42   24   25 1     
   43   25   26 1     
   44   25   27 2     
   45   26   47 1     
   46   26   48 1     
   47   26   49 1     
   48   28   29 1     
   49   28   50 1     
   50   29   30 1     
   51   30   31 1     
   52   30   32 2     
   53   31   51 1     
   54   31   52 1     
   55   31   53 1     
   56    3   54 1     
   57    3   55 1     
   58    7   56 1     
   59    7   57 1     
   60   15   58 1     
   61   19   59 1     
   62   21   60 1     
   63   27   61 1     
   64   27   62 1     
   65   32   63 1     
   66   32   64 1     
@<TRIPOS>SUBSTRUCTURE
      1 S1             1
@<TRIPOS>SET
LONE_PAIRS      STATIC     ATOMS    <user>   **** ""
13 54 55 56 57 13 14 58 59 60 61 62 63 64
DONOR_HYDROGENS      STATIC     ATOMS    <user>   **** ""
2 43 44
ATOM$BLUE        STATIC     ATOMS    COLORGROUP SYSTEM
13 54 55 56 57 13 14 58 59 60 61 62 63 64
ATOM$RED        STATIC     ATOMS    COLORGROUP SYSTEM
2 43 44
