AV-unprocessed.smi:3014|AV-procd|sdf|11466|dock10
  -GOLD-   2272016403D 1   1.00000     0.00000
 Structure written by MMmdl.
 45 46  0  0  0  0  0  0  0  0  1 V2000
  148.5476  133.5050  154.2144 C   0  0  0  0  0  0  0  0  0  0  0  0
  149.6945  134.2973  154.8576 C   0  0  2  0  0  0  0  0  0  0  0  0
  150.2167  133.5981  156.1276 C   0  0  0  0  0  0  0  0  0  0  0  0
  151.3574  134.3920  156.7834 C   0  0  0  0  0  0  0  0  0  0  0  0
  150.9304  135.8376  157.0871 C   0  0  0  0  0  0  0  0  0  0  0  0
  150.4113  136.5549  155.8287 C   0  0  1  0  0  0  0  0  0  0  0  0
  151.5088  136.7054  154.9369 O   0  0  0  0  0  0  0  0  0  0  0  0
  151.7301  138.0330  154.4761 C   0  0  0  0  0  0  0  0  0  0  0  0
  152.0819  138.9393  155.6586 C   0  0  0  0  0  0  0  0  0  0  0  0
  153.0234  138.6281  156.3878 O   0  0  0  0  0  0  0  0  0  0  0  0
  151.3288  140.0453  155.8146 N   0  0  0  0  0  0  0  0  0  0  0  0
  151.4126  141.0306  156.8316 C   0  0  0  0  0  0  0  0  0  0  0  0
  150.5019  142.1035  156.7252 C   0  0  0  0  0  0  0  0  0  0  0  0
  150.5586  143.0939  157.7245 C   0  0  0  0  0  0  0  0  0  0  0  0
  151.4403  143.0259  158.7427 N   0  0  0  0  0  0  0  0  0  0  0  0
  152.2677  141.9742  158.7703 C   0  0  0  0  0  0  0  0  0  0  0  0
  153.1797  141.8967  159.8266 N   0  0  0  0  0  0  0  0  0  0  0  0
  153.1167  142.8303  160.9477 C   0  0  0  0  0  0  0  0  0  0  0  0
  154.2454  140.8989  159.8339 C   0  0  0  0  0  0  0  0  0  0  0  0
  152.2882  140.9874  157.8652 N   0  0  0  0  0  0  0  0  0  0  0  0
  149.2704  135.7457  155.1747 C   0  0  0  0  0  0  0  0  0  0  0  0
  147.6925  133.4284  154.8867 H   0  0  0  0  0  0  0  0  0  0  0  0
  148.8639  132.4926  153.9615 H   0  0  0  0  0  0  0  0  0  0  0  0
  148.2073  133.9824  153.2952 H   0  0  0  0  0  0  0  0  0  0  0  0
  150.5103  134.3352  154.1341 H   0  0  0  0  0  0  0  0  0  0  0  0
  149.4021  133.4774  156.8429 H   0  0  0  0  0  0  0  0  0  0  0  0
  150.5650  132.5937  155.8843 H   0  0  0  0  0  0  0  0  0  0  0  0
  151.6721  133.8975  157.7027 H   0  0  0  0  0  0  0  0  0  0  0  0
  152.2263  134.3959  156.1241 H   0  0  0  0  0  0  0  0  0  0  0  0
  150.1481  135.8289  157.8471 H   0  0  0  0  0  0  0  0  0  0  0  0
  151.7667  136.3913  157.5150 H   0  0  0  0  0  0  0  0  0  0  0  0
  150.0448  137.5398  156.1234 H   0  0  0  0  0  0  0  0  0  0  0  0
  152.5466  138.0677  153.7549 H   0  0  0  0  0  0  0  0  0  0  0  0
  150.8347  138.4178  153.9865 H   0  0  0  0  0  0  0  0  0  0  0  0
  150.5997  140.1835  155.1300 H   0  0  0  0  0  0  0  0  0  0  0  0
  149.7893  142.1691  155.9161 H   0  0  0  0  0  0  0  0  0  0  0  0
  149.8924  143.9436  157.7065 H   0  0  0  0  0  0  0  0  0  0  0  0
  152.1384  142.7850  161.4277 H   0  0  0  0  0  0  0  0  0  0  0  0
  153.2819  143.8507  160.6005 H   0  0  0  0  0  0  0  0  0  0  0  0
  153.8682  142.6094  161.7058 H   0  0  0  0  0  0  0  0  0  0  0  0
  154.8713  141.0044  158.9471 H   0  0  0  0  0  0  0  0  0  0  0  0
  153.8240  139.8932  159.8398 H   0  0  0  0  0  0  0  0  0  0  0  0
  154.8895  140.9963  160.7079 H   0  0  0  0  0  0  0  0  0  0  0  0
  148.9181  136.2391  154.2694 H   0  0  0  0  0  0  0  0  0  0  0  0
  148.4164  135.7291  155.8533 H   0  0  0  0  0  0  0  0  0  0  0  0
  1  2  1  0  0  0  0
  1 22  1  0  0  0  0
  1 23  1  0  0  0  0
  1 24  1  0  0  0  0
  2 21  1  0  0  0  0
  2  3  1  0  0  0  0
  2 25  1  0  0  0  0
  3  4  1  0  0  0  0
  3 26  1  0  0  0  0
  3 27  1  0  0  0  0
  4  5  1  0  0  0  0
  4 28  1  0  0  0  0
  4 29  1  0  0  0  0
  5  6  1  0  0  0  0
  5 30  1  0  0  0  0
  5 31  1  0  0  0  0
  6  7  1  0  0  0  0
  6 21  1  0  0  0  0
  6 32  1  0  0  0  0
  7  8  1  0  0  0  0
  8  9  1  0  0  0  0
  8 33  1  0  0  0  0
  8 34  1  0  0  0  0
  9 10  2  0  0  0  0
  9 11  1  0  0  0  0
 11 12  1  0  0  0  0
 11 35  1  0  0  0  0
 12 20  1  0  0  0  0
 12 13  2  0  0  0  0
 13 14  1  0  0  0  0
 13 36  1  0  0  0  0
 14 15  2  0  0  0  0
 14 37  1  0  0  0  0
 15 16  1  0  0  0  0
 16 17  1  0  0  0  0
 16 20  2  0  0  0  0
 17 18  1  0  0  0  0
 17 19  1  0  0  0  0
 18 38  1  0  0  0  0
 18 39  1  0  0  0  0
 18 40  1  0  0  0  0
 19 41  1  0  0  0  0
 19 42  1  0  0  0  0
 19 43  1  0  0  0  0
 21 44  1  0  0  0  0
 21 45  1  0  0  0  0
M  END
> <s_m_source_file>
AV-unprocessed.smi

> <i_m_source_file_index>
3014

> <i_lp_mmshare_version>
43012

> <i_f3d_flags>
0

> <s_epik_input>
W0NIM11bQ0BASF0xW0NIMl1bQ0gyXVtDSDJdW0NASF0oW0NIMl0xKU9bQ0gyXUMoPU8pW05IXWMyW2NIXVtjSF1uYyhuMilOKFtDSDNdKVtDSDNd

> <s_epik_cmdline>
J2VwaWtfcHl0aG9uJywgJy1waCcsICc3LjAnLCAnLXRuJywgJzgnLCAnLW1hJywgJzIwMCcsICctbWV0YWxfYmluZGluZycsICctaW1hZScsICc8aW5maWxlLm1hZT4nLCAnLW9tYWUnLCAnPG91dGZpbGUubWFlPic=

> <r_lp_tautomer_probability>
1

> <r_epik_Ionization_Penalty>
0.000308195

> <r_epik_Ionization_Penalty_Charging>
0

> <r_epik_Ionization_Penalty_Neutral>
0.000308195

> <r_epik_State_Penalty>
-0

> <r_epik_Charging_Adjusted_Penalty>
0

> <i_epik_Tot_Q>
0

> <i_epik_Tot_abs_Q>
0

> <r_epik_Metal_State_Penalty>
-0

> <b_epik_Metal_Only>
0

> <s_lp_Force_Field>
OPLS_2005

> <r_lp_Energy>
6.70314

> <b_lp_Chiralities_Consistent>
1

> <s_lp_Variant>
AV-unprocessed.smi:3014-1

> <Gold.Version>
5.8.1

> <Gold.Id.Protein>
6NUR|6NUR_protein|mol2

> <Gold.PLP.Fitness>
45.8938

> <Gold.PLP.PLP>
-39.0196

> <Gold.PLP.part.hbond>
-2.0000

> <Gold.PLP.part.metal>
0.0000

> <Gold.PLP.part.buried>
-3.9286

> <Gold.PLP.part.nonpolar>
-32.4155

> <Gold.PLP.part.repulsive>
0.3110

> <Gold.PLP.ligand.clash>
0.0000

> <Gold.PLP.ligand.torsion>
0.7863

> <Gold.PLP.Chemscore.Hbond>
1.9920

> <Gold.PLP.Chemscore.CHOScore>
0.8144

> <Gold.PLP.Chemscore.Metal>
0.0000

> <Gold.Chemscore.Hbonds>
donor molecule, donor type, donor heavy atom, donor atom, acceptor molecule, acceptor atom, score
      P1  H  7997  8009       L1    10  1.00
      P1  H 10752 10764       L1     7  0.93
      L1  C    14    37       P1  8028  0.86
      L1  C    14    37       P1  8029  0.03

> <Gold.PLP.Chemscore.Internal.Correction>
0.0276

> <Gold.Rescore>
     Score         DG    S(hbond)    S(metal)    S(lipo)     H(rot)  DE(clash)    DE(int)     intcor
     14.45     -16.45       1.83        0.00      72.80       1.43       0.08       1.92       ----

> <Gold.Chemscore.Fitness>
14.4545

> <Gold.Chemscore.DG>
-16.4486

> <Gold.Chemscore.ZeroCoef>
-5.4800

> <Gold.Chemscore.Hbond>
1.8304

> <Gold.Chemscore.Metal>
0.0000

> <Gold.Chemscore.Lipo>
72.8046

> <Gold.Chemscore.Internal_Hbond>
0.0000

> <Gold.Chemscore.DEClash>
0.0756

> <Gold.Chemscore.DEInternal>
1.9185

> <Gold.Chemscore.Rot>
1.4310

> <Gold.Chemscore.Internal.Correction>
   9.000000E+99

> <Gold.Chemscore.Hbonds>
donor molecule, donor type, donor heavy atom, donor atom, acceptor molecule, acceptor atom, score
      P1  H  7997  8009       L1    10  0.79
      P1  H 10752 10764       L1     7  0.44

> <Gold.Chemscore.Hbond.Weighted>
-6.1137

> <Gold.Chemscore.Metal.Weighted>
-0.0000

> <Gold.Chemscore.Lipo.Weighted>
-8.5181

> <Gold.Chemscore.Internal_Hbond.Weighted>
0.0000

> <Gold.Chemscore.DEClash.Weighted>
0.0756

> <Gold.Chemscore.DEInternal.Weighted>
1.9185

> <Gold.Chemscore.Rot.Weighted>
3.6632

> <Gold.Chemscore.Internal.Correction.Weighted>
   9.000000E+99

> <Gold.Protein.RotatedTorsions>
[ 6907 6896 6895 6894 ] final -171.31 input  -60.11 | X-H torsion
[ 7974 7965 7964 7962 ] final -147.61 input  175.53 | X-H torsion
[ 8008 7997 7996 7995 ] final -174.78 input   59.86 | X-H torsion
[ 10167 10162 10161 10158 ] final   15.94 input  -65.29 | X-H torsion
[ 10718 10713 10712 10709 ] final  169.90 input   66.30 | X-H torsion
[ 10763 10752 10751 10750 ] final  -84.98 input  -60.55 | X-H torsion
[ 11005 11000 10999 10996 ] final  129.51 input  -57.11 | X-H torsion

> <Gold.Protein.ActiveResidues>
 VAL166  LYS551  ARG553  GLY616  TRP617  ASP618  TYR619  PRO620  LYS621  CYS622 
 ASP623  PHE694  ASN695  SER759  ASP760  ASP761  ALA762  ILE779  LEU786  VAL792 
 PHE793  MET794  SER795  GLU796  ALA797  LYS798  CYS799  TRP800  GLU811  SER814 

> <Gold.Protein.RotatedAtoms>
  151.5218  133.3465  159.2902 H   0  0  0  0  0  0  0  0  0  0  0  0  # atno 6907 bound_to 6896
  150.8648  134.8011  159.7121 H   0  0  0  0  0  0  0  0  0  0  0  0  # atno 6908 bound_to 6896
  152.4656  134.5092  159.9800 H   0  0  0  0  0  0  0  0  0  0  0  0  # atno 6909 bound_to 6896
  144.8082  140.5304  143.5660 H   0  0  0  0  0  0  0  0  0  0  0  0  # atno 7974 bound_to 7965
  155.9744  140.1169  157.0783 H   0  0  0  0  0  0  0  0  0  0  0  0  # atno 8008 bound_to 7997
  154.4165  140.1157  156.5417 H   0  0  0  0  0  0  0  0  0  0  0  0  # atno 8009 bound_to 7997
  155.6554  140.3473  155.4765 H   0  0  0  0  0  0  0  0  0  0  0  0  # atno 8010 bound_to 7997
  140.5832  143.8940  150.6808 H   0  0  0  0  0  0  0  0  0  0  0  0  # atno 10167 bound_to 10162
  157.0160  131.0218  151.2789 H   0  0  0  0  0  0  0  0  0  0  0  0  # atno 10718 bound_to 10713
  154.6058  135.5501  153.7422 H   0  0  0  0  0  0  0  0  0  0  0  0  # atno 10763 bound_to 10752
  153.0174  135.6377  154.1649 H   0  0  0  0  0  0  0  0  0  0  0  0  # atno 10764 bound_to 10752
  154.1587  135.2898  155.3095 H   0  0  0  0  0  0  0  0  0  0  0  0  # atno 10765 bound_to 10752
  139.9619  134.9600  156.9159 H   0  0  0  0  0  0  0  0  0  0  0  0  # atno 11005 bound_to 11000
  145.5387  139.1475  143.3459 LP  0  0  0  0  0  0  0  0  0  0  0  0  # atno 17320 bound_to 7965
  146.2377  140.5527  142.8948 LP  0  0  0  0  0  0  0  0  0  0  0  0  # atno 17321 bound_to 7965
  140.2444  143.3639  152.1459 LP  0  0  0  0  0  0  0  0  0  0  0  0  # atno 17342 bound_to 10162
  139.5182  144.7003  151.5514 LP  0  0  0  0  0  0  0  0  0  0  0  0  # atno 17343 bound_to 10162
  157.5285  130.8043  149.7890 LP  0  0  0  0  0  0  0  0  0  0  0  0  # atno 17370 bound_to 10713
  156.0119  130.3829  150.2236 LP  0  0  0  0  0  0  0  0  0  0  0  0  # atno 17371 bound_to 10713
  140.5480  134.0655  155.7361 LP  0  0  0  0  0  0  0  0  0  0  0  0  # atno 17394 bound_to 11000
  141.1297  133.9323  157.2561 LP  0  0  0  0  0  0  0  0  0  0  0  0  # atno 17395 bound_to 11000

$$$$
