#       Name:                AV-unprocessed.smi:732
#       Creating user name   scv26
#       Creation time:       Fri Mar 27 00:52:12 2020


#       File generated by GOLD software.
#

@<TRIPOS>MOLECULE
AV-unprocessed.smi:732
    39    41     1
SMALL
NO_CHARGES


@<TRIPOS>ATOM
      1 ****        -6.6538  -2.7358   0.2742 C.3            1 S1                 0.0000
      2 ****        -5.3756  -2.0185   0.0030 C.2            1 S1                 0.0000
      3 ****        -4.1152  -2.1409   0.5170 C.2            1 S1                 0.0000
      4 ****        -3.3859  -1.1437  -0.1836 C.2            1 S1                 0.0000
      5 ****        -2.0056  -0.9397   0.0694 N.am           1 S1                 0.0000
      6 ****        -1.1979  -0.0194  -0.4848 C.2            1 S1                 0.0000
      7 ****        -1.5402   0.8051  -1.3330 O.2            1 S1                 0.0000
      8 ****         0.0445  -0.1047   0.0100 N.am           1 S1                 0.0000
      9 ****         1.1378   0.7391  -0.3482 C.3            1 S1                 0.0000
     10 ****         2.5239   0.1281  -0.3269 C.3            1 S1                 0.0000
     11 ****         3.6373   0.6040  -1.2417 C.3            1 S1                 0.0000
     12 ****         4.8113   1.1878  -0.4312 C.3            1 S1                 0.0000
     13 ****         4.3862   2.1925   0.6702 C.3            1 S1                 0.0000
     14 ****         2.8649   2.4187   0.7654 C.3            1 S1                 0.0000
     15 ****         2.1137   1.1005   0.7513 C.3            1 S1                 0.0000
     16 ****        -4.1327  -0.4745  -1.0486 N.2            1 S1                 0.0000
     17 ****        -5.4118  -1.0314  -0.9331 O.3            1 S1                 0.0000
     18 ****        -6.4721  -3.7945   0.4599 H              1 S1                 0.0000
     19 ****        -7.3361  -2.6548  -0.5724 H              1 S1                 0.0000
     20 ****        -7.1511  -2.3187   1.1500 H              1 S1                 0.0000
     21 ****        -3.7740  -2.8318   1.2735 H              1 S1                 0.0000
     22 ****        -1.5913  -1.5522   0.7560 H              1 S1                 0.0000
     23 ****         0.2316  -0.8156   0.7016 H              1 S1                 0.0000
     24 ****         0.9536   1.4997  -1.1058 H              1 S1                 0.0000
     25 ****         2.6170  -0.9085  -0.0072 H              1 S1                 0.0000
     26 ****         3.9710  -0.2226  -1.8694 H              1 S1                 0.0000
     27 ****         3.2439   1.3668  -1.9149 H              1 S1                 0.0000
     28 ****         5.3542   0.3664   0.0381 H              1 S1                 0.0000
     29 ****         5.5213   1.6609  -1.1102 H              1 S1                 0.0000
     30 ****         4.7466   1.8272   1.6326 H              1 S1                 0.0000
     31 ****         4.8854   3.1489   0.5121 H              1 S1                 0.0000
     32 ****         2.6090   2.9741   1.6680 H              1 S1                 0.0000
     33 ****         2.5336   3.0261  -0.0779 H              1 S1                 0.0000
     34 ****         1.9569   0.6619   1.7353 H              1 S1                 0.0000
     35 ****        -2.4849   0.8228  -1.6604 LP             1 S1                 0.0000
     36 ****        -0.8735   1.4569  -1.6943 LP             1 S1                 0.0000
     37 ****        -3.8451   0.2681  -1.6534 LP             1 S1                 0.0000
     38 ****        -6.0620  -0.3254  -0.6525 LP             1 S1                 0.0000
     39 ****        -5.6934  -1.4129  -1.8135 LP             1 S1                 0.0000
@<TRIPOS>BOND
    1    1    2 1     
    2    1   18 1     
    3    1   19 1     
    4    1   20 1     
    5    2   17 1     
    6    2    3 2     
    7    3    4 1     
    8    3   21 1     
    9    4    5 1     
   10    4   16 2     
   11    5    6 am    
   12    5   22 1     
   13    6    7 2     
   14    6    8 am    
   15    8    9 1     
   16    8   23 1     
   17    9   15 1     
   18    9   10 1     
   19    9   24 1     
   20   10   15 1     
   21   10   11 1     
   22   10   25 1     
   23   11   12 1     
   24   11   26 1     
   25   11   27 1     
   26   12   13 1     
   27   12   28 1     
   28   12   29 1     
   29   13   14 1     
   30   13   30 1     
   31   13   31 1     
   32   14   15 1     
   33   14   32 1     
   34   14   33 1     
   35   15   34 1     
   36   16   17 1     
   37    7   35 1     
   38    7   36 1     
   39   16   37 1     
   40   17   38 1     
   41   17   39 1     
@<TRIPOS>SUBSTRUCTURE
      1 S1             1
@<TRIPOS>SET
LONE_PAIRS      STATIC     ATOMS    <user>   **** ""
5 35 36 37 38 39
DONOR_HYDROGENS      STATIC     ATOMS    <user>   **** ""
2 22 23
ATOM$BLUE        STATIC     ATOMS    COLORGROUP SYSTEM
5 35 36 37 38 39
ATOM$RED        STATIC     ATOMS    COLORGROUP SYSTEM
2 22 23
