AV-unprocessed.smi:1533|AV-procd|sdf|6165|dock3
  -GOLD-   22720 6313D 1   1.00000     0.00000
 Structure written by MMmdl.
 37 39  0  0  0  0  0  0  0  0  1 V2000
  154.2365  134.6729  163.8623 C   0  0  0  0  0  0  0  0  0  0  0  0
  154.3287  136.0685  163.3469 C   0  0  0  0  0  0  0  0  0  0  0  0
  154.9426  137.0224  164.0365 N   0  0  0  0  0  0  0  0  0  0  0  0
  154.8114  138.1511  163.2145 O   0  0  0  0  0  0  0  0  0  0  0  0
  154.1141  137.7382  162.1289 C   0  0  0  0  0  0  0  0  0  0  0  0
  153.8456  138.7107  161.0299 C   0  0  0  0  0  0  0  0  0  0  0  0
  154.4012  140.1105  161.3374 C   0  0  0  0  0  0  0  0  0  0  0  0
  153.7394  141.1382  160.5415 N   0  0  0  0  0  0  0  0  0  0  0  0
  153.3953  141.0083  159.2506 C   0  0  0  0  0  0  0  0  0  0  0  0
  153.6131  139.9851  158.6010 O   0  0  0  0  0  0  0  0  0  0  0  0
  152.6993  142.2203  158.6062 C   0  0  1  0  0  0  0  0  0  0  0  0
  151.1535  142.1256  158.6335 C   0  0  0  0  0  0  0  0  0  0  0  0
  150.7313  143.4332  159.3323 C   0  0  2  0  0  0  0  0  0  0  0  0
  151.0282  144.6286  158.4068 C   0  0  0  0  0  0  0  0  0  0  0  0
  152.5656  144.7247  158.4587 C   0  0  0  0  0  0  0  0  0  0  0  0
  152.9454  143.5447  159.3737 C   0  0  1  0  0  0  0  0  0  0  0  0
  151.8095  143.5875  160.3957 C   0  0  0  0  0  0  0  0  0  0  0  0
  153.8035  136.4444  162.1489 N   0  0  0  0  0  0  0  0  0  0  0  0
  154.5158  134.6267  164.9155 H   0  0  0  0  0  0  0  0  0  0  0  0
  154.9026  134.0196  163.2982 H   0  0  0  0  0  0  0  0  0  0  0  0
  153.2171  134.2996  163.7610 H   0  0  0  0  0  0  0  0  0  0  0  0
  154.2843  138.3201  160.1108 H   0  0  0  0  0  0  0  0  0  0  0  0
  152.7687  138.7607  160.8649 H   0  0  0  0  0  0  0  0  0  0  0  0
  154.2498  140.3471  162.3911 H   0  0  0  0  0  0  0  0  0  0  0  0
  155.4786  140.1400  161.1645 H   0  0  0  0  0  0  0  0  0  0  0  0
  153.5292  142.0109  161.0042 H   0  0  0  0  0  0  0  0  0  0  0  0
  153.0504  142.3164  157.5770 H   0  0  0  0  0  0  0  0  0  0  0  0
  150.7315  142.0454  157.6312 H   0  0  0  0  0  0  0  0  0  0  0  0
  150.8017  141.2631  159.2024 H   0  0  0  0  0  0  0  0  0  0  0  0
  149.7090  143.4160  159.7111 H   0  0  0  0  0  0  0  0  0  0  0  0
  150.6544  144.4699  157.3946 H   0  0  0  0  0  0  0  0  0  0  0  0
  150.5740  145.5424  158.7924 H   0  0  0  0  0  0  0  0  0  0  0  0
  153.0232  144.6555  157.4712 H   0  0  0  0  0  0  0  0  0  0  0  0
  152.8743  145.6724  158.9023 H   0  0  0  0  0  0  0  0  0  0  0  0
  153.9447  143.6338  159.8023 H   0  0  0  0  0  0  0  0  0  0  0  0
  151.7503  144.5339  160.9364 H   0  0  0  0  0  0  0  0  0  0  0  0
  151.8232  142.7720  161.1190 H   0  0  0  0  0  0  0  0  0  0  0  0
  1  2  1  0  0  0  0
  1 19  1  0  0  0  0
  1 20  1  0  0  0  0
  1 21  1  0  0  0  0
  2 18  1  0  0  0  0
  2  3  2  0  0  0  0
  3  4  1  0  0  0  0
  4  5  1  0  0  0  0
  5  6  1  0  0  0  0
  5 18  2  0  0  0  0
  6  7  1  0  0  0  0
  6 22  1  0  0  0  0
  6 23  1  0  0  0  0
  7  8  1  0  0  0  0
  7 24  1  0  0  0  0
  7 25  1  0  0  0  0
  8  9  1  0  0  0  0
  8 26  1  0  0  0  0
  9 10  2  0  0  0  0
  9 11  1  0  0  0  0
 11 16  1  0  0  0  0
 11 12  1  0  0  0  0
 11 27  1  0  0  0  0
 12 13  1  0  0  0  0
 12 28  1  0  0  0  0
 12 29  1  0  0  0  0
 13 17  1  0  0  0  0
 13 14  1  0  0  0  0
 13 30  1  0  0  0  0
 14 15  1  0  0  0  0
 14 31  1  0  0  0  0
 14 32  1  0  0  0  0
 15 16  1  0  0  0  0
 15 33  1  0  0  0  0
 15 34  1  0  0  0  0
 16 17  1  0  0  0  0
 16 35  1  0  0  0  0
 17 36  1  0  0  0  0
 17 37  1  0  0  0  0
M  END
> <s_m_source_file>
AV-unprocessed.smi

> <i_m_source_file_index>
1533

> <i_lp_mmshare_version>
43012

> <i_f3d_flags>
0

> <s_epik_input>
W0NIM11jMW5vYyhuMSlbQ0gyXVtDSDJdW05IXUMoPU8pW0NASF0oW0NIMl1bQ0BASF0yMylbQ0BASF0oW0NIMl0zKVtDSDJdW0NIMl0y

> <s_epik_cmdline>
J2VwaWtfcHl0aG9uJywgJy1waCcsICc3LjAnLCAnLXRuJywgJzgnLCAnLW1hJywgJzIwMCcsICctbWV0YWxfYmluZGluZycsICctaW1hZScsICc8aW5maWxlLm1hZT4nLCAnLW9tYWUnLCAnPG91dGZpbGUubWFlPic=

> <r_lp_tautomer_probability>
1

> <r_epik_Ionization_Penalty>
1.90116e-08

> <r_epik_Ionization_Penalty_Charging>
0

> <r_epik_Ionization_Penalty_Neutral>
1.90116e-08

> <r_epik_State_Penalty>
-0

> <r_epik_Charging_Adjusted_Penalty>
0

> <i_epik_Tot_Q>
0

> <i_epik_Tot_abs_Q>
0

> <r_epik_Metal_State_Penalty>
-0

> <b_epik_Metal_Only>
0

> <s_lp_Force_Field>
OPLS_2005

> <r_lp_Energy>
42.7172

> <b_lp_Chiralities_Consistent>
1

> <s_lp_Variant>
AV-unprocessed.smi:1533-4

> <Gold.Version>
5.8.1

> <Gold.Id.Protein>
6NUR|6NUR_protein|mol2

> <Gold.PLP.Fitness>
38.7063

> <Gold.PLP.PLP>
-37.4344

> <Gold.PLP.part.hbond>
-1.0000

> <Gold.PLP.part.metal>
0.0000

> <Gold.PLP.part.buried>
-5.9044

> <Gold.PLP.part.nonpolar>
-29.7693

> <Gold.PLP.part.repulsive>
0.0869

> <Gold.PLP.ligand.clash>
0.0000

> <Gold.PLP.ligand.torsion>
0.8829

> <Gold.PLP.Chemscore.Hbond>
1.0000

> <Gold.PLP.Chemscore.CHOScore>
0.0000

> <Gold.PLP.Chemscore.Metal>
0.0000

> <Gold.Chemscore.Hbonds>
donor molecule, donor type, donor heavy atom, donor atom, acceptor molecule, acceptor atom, score
      P1  H  7997  8010       L1    10  1.00

> <Gold.PLP.Chemscore.Internal.Correction>
0.0376

> <Gold.Rescore>
     Score         DG    S(hbond)    S(metal)    S(lipo)     H(rot)  DE(clash)    DE(int)     intcor
     14.15     -15.71       0.89        0.00     102.54       1.85       0.13       1.43       ----

> <Gold.Chemscore.Fitness>
14.1461

> <Gold.Chemscore.DG>
-15.7079

> <Gold.Chemscore.ZeroCoef>
-5.4800

> <Gold.Chemscore.Hbond>
0.8874

> <Gold.Chemscore.Metal>
0.0000

> <Gold.Chemscore.Lipo>
102.5402

> <Gold.Chemscore.Internal_Hbond>
0.0000

> <Gold.Chemscore.DEClash>
0.1323

> <Gold.Chemscore.DEInternal>
1.4296

> <Gold.Chemscore.Rot>
1.8490

> <Gold.Chemscore.Internal.Correction>
   9.000000E+99

> <Gold.Chemscore.Hbonds>
donor molecule, donor type, donor heavy atom, donor atom, acceptor molecule, acceptor atom, score
      P1  H  7997  8010       L1    10  0.95

> <Gold.Chemscore.Hbond.Weighted>
-2.9641

> <Gold.Chemscore.Metal.Weighted>
-0.0000

> <Gold.Chemscore.Lipo.Weighted>
-11.9972

> <Gold.Chemscore.Internal_Hbond.Weighted>
0.0000

> <Gold.Chemscore.DEClash.Weighted>
0.1323

> <Gold.Chemscore.DEInternal.Weighted>
1.4296

> <Gold.Chemscore.Rot.Weighted>
4.7334

> <Gold.Chemscore.Internal.Correction.Weighted>
   9.000000E+99

> <Gold.Protein.RotatedTorsions>
[ 6907 6896 6895 6894 ] final   41.70 input  -60.11 | X-H torsion
[ 7974 7965 7964 7962 ] final  115.26 input  175.53 | X-H torsion
[ 8008 7997 7996 7995 ] final   23.42 input   59.86 | X-H torsion
[ 10167 10162 10161 10158 ] final  -93.80 input  -65.29 | X-H torsion
[ 10718 10713 10712 10709 ] final  -43.31 input   66.30 | X-H torsion
[ 10763 10752 10751 10750 ] final -127.83 input  -60.55 | X-H torsion
[ 11005 11000 10999 10996 ] final  108.77 input  -57.11 | X-H torsion

> <Gold.Protein.ActiveResidues>
 VAL166  LYS551  ARG553  GLY616  TRP617  ASP618  TYR619  PRO620  LYS621  CYS622 
 ASP623  PHE694  ASN695  SER759  ASP760  ASP761  ALA762  ILE779  LEU786  VAL792 
 PHE793  MET794  SER795  GLU796  ALA797  LYS798  CYS799  TRP800  GLU811  SER814 

> <Gold.Protein.RotatedAtoms>
  152.1986  134.8608  160.0510 H   0  0  0  0  0  0  0  0  0  0  0  0  # atno 6907 bound_to 6896
  151.9470  133.3649  159.3994 H   0  0  0  0  0  0  0  0  0  0  0  0  # atno 6908 bound_to 6896
  150.6950  134.4304  159.5290 H   0  0  0  0  0  0  0  0  0  0  0  0  # atno 6909 bound_to 6896
  145.1942  139.2984  143.4352 H   0  0  0  0  0  0  0  0  0  0  0  0  # atno 7974 bound_to 7965
  154.9807  140.3101  155.4948 H   0  0  0  0  0  0  0  0  0  0  0  0  # atno 8008 bound_to 7997
  156.2954  140.2267  156.4845 H   0  0  0  0  0  0  0  0  0  0  0  0  # atno 8009 bound_to 7997
  154.7792  140.0447  157.1102 H   0  0  0  0  0  0  0  0  0  0  0  0  # atno 8010 bound_to 7997
  140.3209  143.3049  152.0047 H   0  0  0  0  0  0  0  0  0  0  0  0  # atno 10167 bound_to 10162
  156.2504  130.4187  149.8657 H   0  0  0  0  0  0  0  0  0  0  0  0  # atno 10718 bound_to 10713
  154.8754  135.3949  154.3657 H   0  0  0  0  0  0  0  0  0  0  0  0  # atno 10763 bound_to 10752
  153.4423  135.7027  153.6166 H   0  0  0  0  0  0  0  0  0  0  0  0  # atno 10764 bound_to 10752
  153.4741  135.3784  155.2376 H   0  0  0  0  0  0  0  0  0  0  0  0  # atno 10765 bound_to 10752
  139.8850  134.9440  156.6023 H   0  0  0  0  0  0  0  0  0  0  0  0  # atno 11005 bound_to 11000
  146.3430  140.2165  142.8591 LP  0  0  0  0  0  0  0  0  0  0  0  0  # atno 17320 bound_to 7965
  145.0011  140.8632  143.5281 LP  0  0  0  0  0  0  0  0  0  0  0  0  # atno 17321 bound_to 7965
  139.4874  144.6311  151.7067 LP  0  0  0  0  0  0  0  0  0  0  0  0  # atno 17342 bound_to 10162
  140.5484  144.0465  150.6116 LP  0  0  0  0  0  0  0  0  0  0  0  0  # atno 17343 bound_to 10162
  156.6207  130.8625  151.3475 LP  0  0  0  0  0  0  0  0  0  0  0  0  # atno 17370 bound_to 10713
  157.7212  130.9561  150.1446 LP  0  0  0  0  0  0  0  0  0  0  0  0  # atno 17371 bound_to 10713
  140.7874  133.8610  155.8617 LP  0  0  0  0  0  0  0  0  0  0  0  0  # atno 17394 bound_to 11000
  140.9707  134.1535  157.4578 LP  0  0  0  0  0  0  0  0  0  0  0  0  # atno 17395 bound_to 11000

$$$$
