AV-unprocessed.smi:3117|AV-procd|sdf|11883|dock3
  -GOLD-   2272017273D 1   1.00000     0.00000
 Structure written by MMmdl.
 36 36  0  0  0  0  0  0  0  0  1 V2000
  147.7932  132.4454  152.8513 C   0  0  0  0  0  0  0  0  0  0  0  0
  147.0331  133.7649  153.1178 C   0  0  1  0  0  0  0  0  0  0  0  0
  147.8941  134.7378  153.8017 N   0  0  0  0  0  0  0  0  0  0  0  0
  148.9529  134.1792  154.6455 C   0  0  0  0  0  0  0  0  0  0  0  0
  149.7725  135.2764  155.3597 C   0  0  0  0  0  0  0  0  0  0  0  0
  148.9392  136.0985  156.3620 C   0  0  0  0  0  0  0  0  0  0  0  0
  150.9806  134.6439  156.0702 C   0  0  0  0  0  0  0  0  0  0  0  0
  150.2983  136.1483  154.3775 O   0  0  0  0  0  0  0  0  0  0  0  0
  146.4667  134.4065  151.8211 C   0  0  2  0  0  0  0  0  0  0  0  0
  145.7336  135.7343  152.0964 C   0  0  0  0  0  0  0  0  0  0  0  0
  145.5958  133.5009  151.0807 N   0  0  0  0  0  0  0  0  0  0  0  0
  145.9165  132.2846  150.5136 C   0  0  0  0  0  0  0  0  0  0  0  0
  144.7847  131.7950  149.9274 C   0  0  0  0  0  0  0  0  0  0  0  0
  143.8077  132.7945  150.1924 C   0  0  0  0  0  0  0  0  0  0  0  0
  144.2943  133.8127  150.8828 N   0  0  0  0  0  0  0  0  0  0  0  0
  147.1589  131.7021  152.3687 H   0  0  0  0  0  0  0  0  0  0  0  0
  148.1461  131.9816  153.7714 H   0  0  0  0  0  0  0  0  0  0  0  0
  148.6573  132.6106  152.2072 H   0  0  0  0  0  0  0  0  0  0  0  0
  146.1875  133.5288  153.7653 H   0  0  0  0  0  0  0  0  0  0  0  0
  148.3058  135.3710  153.1234 H   0  0  0  0  0  0  0  0  0  0  0  0
  148.5066  133.5224  155.3931 H   0  0  0  0  0  0  0  0  0  0  0  0
  149.6300  133.5610  154.0566 H   0  0  0  0  0  0  0  0  0  0  0  0
  148.4929  135.4547  157.1208 H   0  0  0  0  0  0  0  0  0  0  0  0
  148.1296  136.6410  155.8724 H   0  0  0  0  0  0  0  0  0  0  0  0
  149.5549  136.8365  156.8774 H   0  0  0  0  0  0  0  0  0  0  0  0
  150.6595  133.9552  156.8525 H   0  0  0  0  0  0  0  0  0  0  0  0
  151.6111  135.4006  156.5385 H   0  0  0  0  0  0  0  0  0  0  0  0
  151.6037  134.0815  155.3733 H   0  0  0  0  0  0  0  0  0  0  0  0
  149.8755  135.9613  153.5534 H   0  0  0  0  0  0  0  0  0  0  0  0
  147.3083  134.6286  151.1625 H   0  0  0  0  0  0  0  0  0  0  0  0
  146.4035  136.4798  152.5253 H   0  0  0  0  0  0  0  0  0  0  0  0
  144.9052  135.5975  152.7922 H   0  0  0  0  0  0  0  0  0  0  0  0
  145.3284  136.1556  151.1758 H   0  0  0  0  0  0  0  0  0  0  0  0
  146.9129  131.8725  150.5743 H   0  0  0  0  0  0  0  0  0  0  0  0
  144.6717  130.8645  149.3914 H   0  0  0  0  0  0  0  0  0  0  0  0
  142.7667  132.8103  149.9057 H   0  0  0  0  0  0  0  0  0  0  0  0
  1  2  1  0  0  0  0
  1 16  1  0  0  0  0
  1 17  1  0  0  0  0
  1 18  1  0  0  0  0
  2  3  1  0  0  0  0
  2  9  1  0  0  0  0
  2 19  1  0  0  0  0
  3  4  1  0  0  0  0
  3 20  1  0  0  0  0
  4  5  1  0  0  0  0
  4 21  1  0  0  0  0
  4 22  1  0  0  0  0
  5  6  1  0  0  0  0
  5  7  1  0  0  0  0
  5  8  1  0  0  0  0
  6 23  1  0  0  0  0
  6 24  1  0  0  0  0
  6 25  1  0  0  0  0
  7 26  1  0  0  0  0
  7 27  1  0  0  0  0
  7 28  1  0  0  0  0
  8 29  1  0  0  0  0
  9 10  1  0  0  0  0
  9 11  1  0  0  0  0
  9 30  1  0  0  0  0
 10 31  1  0  0  0  0
 10 32  1  0  0  0  0
 10 33  1  0  0  0  0
 11 15  1  0  0  0  0
 11 12  1  0  0  0  0
 12 13  2  0  0  0  0
 12 34  1  0  0  0  0
 13 14  1  0  0  0  0
 13 35  1  0  0  0  0
 14 15  2  0  0  0  0
 14 36  1  0  0  0  0
M  END
> <s_m_source_file>
AV-unprocessed.smi

> <i_m_source_file_index>
3117

> <i_lp_mmshare_version>
43012

> <i_f3d_flags>
0

> <s_epik_input>
W0NIM11DKFtDSDNdKShbT0hdKVtDSDJdW05IXVtDQEBIXShbQ0gzXSlbQ0BIXShbQ0gzXSluMVtjSF1bY0hdW2NIXW4x

> <s_epik_cmdline>
J2VwaWtfcHl0aG9uJywgJy1waCcsICc3LjAnLCAnLXRuJywgJzgnLCAnLW1hJywgJzIwMCcsICctbWV0YWxfYmluZGluZycsICctaW1hZScsICc8aW5maWxlLm1hZT4nLCAnLW9tYWUnLCAnPG91dGZpbGUubWFlPic=

> <r_lp_tautomer_probability>
1

> <r_epik_Ionization_Penalty>
2.13419

> <r_epik_Ionization_Penalty_Charging>
0

> <r_epik_Ionization_Penalty_Neutral>
2.13419

> <r_epik_State_Penalty>
2.27148

> <r_epik_Charging_Adjusted_Penalty>
2.27148

> <i_epik_Tot_Q>
0

> <i_epik_Tot_abs_Q>
0

> <r_epik_Metal_State_Penalty>
2.27029

> <b_epik_Metal_Only>
0

> <s_lp_Force_Field>
OPLS_2005

> <r_lp_Energy>
18.8486

> <b_lp_Chiralities_Consistent>
1

> <s_lp_Variant>
AV-unprocessed.smi:3117-6

> <Gold.Version>
5.8.1

> <Gold.Id.Protein>
6NUR|6NUR_protein|mol2

> <Gold.PLP.Fitness>
36.5057

> <Gold.PLP.PLP>
-25.2882

> <Gold.PLP.part.hbond>
-2.7829

> <Gold.PLP.part.metal>
0.0000

> <Gold.PLP.part.buried>
-1.9323

> <Gold.PLP.part.nonpolar>
-21.3591

> <Gold.PLP.part.repulsive>
0.1505

> <Gold.PLP.ligand.clash>
0.0000

> <Gold.PLP.ligand.torsion>
0.4607

> <Gold.PLP.Chemscore.Hbond>
2.0000

> <Gold.PLP.Chemscore.CHOScore>
2.0000

> <Gold.PLP.Chemscore.Metal>
0.0000

> <Gold.Chemscore.Hbonds>
donor molecule, donor type, donor heavy atom, donor atom, acceptor molecule, acceptor atom, score
      L1  H     3    20       P1  7948  1.00
      L1  H     8    29       P1  7948  0.70
      L1  C    12    34       P1 10747  1.00
      L1  C    14    36       P1 10186  1.00

> <Gold.PLP.Chemscore.Internal.Correction>
0.1389

> <Gold.Rescore>
     Score         DG    S(hbond)    S(metal)    S(lipo)     H(rot)  DE(clash)    DE(int)     intcor
     13.38     -14.11       1.97        0.00      65.51       2.19       0.13       0.60       ----

> <Gold.Chemscore.Fitness>
13.3802

> <Gold.Chemscore.DG>
-14.1119

> <Gold.Chemscore.ZeroCoef>
-5.4800

> <Gold.Chemscore.Hbond>
1.9668

> <Gold.Chemscore.Metal>
0.0000

> <Gold.Chemscore.Lipo>
65.5101

> <Gold.Chemscore.Internal_Hbond>
0.0000

> <Gold.Chemscore.DEClash>
0.1326

> <Gold.Chemscore.DEInternal>
0.5991

> <Gold.Chemscore.Rot>
2.1882

> <Gold.Chemscore.Internal.Correction>
   9.000000E+99

> <Gold.Chemscore.Hbonds>
donor molecule, donor type, donor heavy atom, donor atom, acceptor molecule, acceptor atom, score
      L1  H     3    20       P1  7948  0.98
      L1  H     8    29       P1  7948  0.07

> <Gold.Chemscore.Hbond.Weighted>
-6.5690

> <Gold.Chemscore.Metal.Weighted>
-0.0000

> <Gold.Chemscore.Lipo.Weighted>
-7.6647

> <Gold.Chemscore.Internal_Hbond.Weighted>
0.0000

> <Gold.Chemscore.DEClash.Weighted>
0.1326

> <Gold.Chemscore.DEInternal.Weighted>
0.5991

> <Gold.Chemscore.Rot.Weighted>
5.6018

> <Gold.Chemscore.Internal.Correction.Weighted>
   9.000000E+99

> <Gold.Protein.RotatedTorsions>
[ 6907 6896 6895 6894 ] final   66.83 input  -60.11 | X-H torsion
[ 7974 7965 7964 7962 ] final -110.47 input  175.53 | X-H torsion
[ 8008 7997 7996 7995 ] final  -23.01 input   59.86 | X-H torsion
[ 10167 10162 10161 10158 ] final  -74.60 input  -65.29 | X-H torsion
[ 10718 10713 10712 10709 ] final   18.14 input   66.30 | X-H torsion
[ 10763 10752 10751 10750 ] final   43.78 input  -60.55 | X-H torsion
[ 11005 11000 10999 10996 ] final -122.92 input  -57.11 | X-H torsion

> <Gold.Protein.ActiveResidues>
 VAL166  LYS551  ARG553  GLY616  TRP617  ASP618  TYR619  PRO620  LYS621  CYS622 
 ASP623  PHE694  ASN695  SER759  ASP760  ASP761  ALA762  ILE779  LEU786  VAL792 
 PHE793  MET794  SER795  GLU796  ALA797  LYS798  CYS799  TRP800  GLU811  SER814 

> <Gold.Protein.RotatedAtoms>
  152.4509  134.5396  159.9834 H   0  0  0  0  0  0  0  0  0  0  0  0  # atno 6907 bound_to 6896
  151.5469  133.3418  159.2953 H   0  0  0  0  0  0  0  0  0  0  0  0  # atno 6908 bound_to 6896
  150.8437  134.7770  159.7016 H   0  0  0  0  0  0  0  0  0  0  0  0  # atno 6909 bound_to 6896
  145.1678  140.8911  143.3553 H   0  0  0  0  0  0  0  0  0  0  0  0  # atno 7974 bound_to 7965
  154.4610  140.1992  156.0244 H   0  0  0  0  0  0  0  0  0  0  0  0  # atno 8008 bound_to 7997
  156.0840  140.3267  155.7701 H   0  0  0  0  0  0  0  0  0  0  0  0  # atno 8009 bound_to 7997
  155.5065  140.0558  157.2921 H   0  0  0  0  0  0  0  0  0  0  0  0  # atno 8010 bound_to 7997
  140.5013  143.2361  151.7747 H   0  0  0  0  0  0  0  0  0  0  0  0  # atno 10167 bound_to 10162
  157.0921  130.6432  149.5851 H   0  0  0  0  0  0  0  0  0  0  0  0  # atno 10718 bound_to 10713
  152.9854  135.6091  154.3166 H   0  0  0  0  0  0  0  0  0  0  0  0  # atno 10763 bound_to 10752
  154.2879  135.2775  155.2670 H   0  0  0  0  0  0  0  0  0  0  0  0  # atno 10764 bound_to 10752
  154.4979  135.5875  153.6565 H   0  0  0  0  0  0  0  0  0  0  0  0  # atno 10765 bound_to 10752
  140.9959  134.0473  157.3598 H   0  0  0  0  0  0  0  0  0  0  0  0  # atno 11005 bound_to 11000
  145.0264  139.3379  143.6047 LP  0  0  0  0  0  0  0  0  0  0  0  0  # atno 17320 bound_to 7965
  146.3473  139.9584  142.8720 LP  0  0  0  0  0  0  0  0  0  0  0  0  # atno 17321 bound_to 7965
  139.4873  144.4518  151.9645 LP  0  0  0  0  0  0  0  0  0  0  0  0  # atno 17342 bound_to 10162
  140.3607  144.2976  150.5934 LP  0  0  0  0  0  0  0  0  0  0  0  0  # atno 17343 bound_to 10162
  155.9895  130.4943  150.7218 LP  0  0  0  0  0  0  0  0  0  0  0  0  # atno 17370 bound_to 10713
  157.4712  131.0893  151.0640 LP  0  0  0  0  0  0  0  0  0  0  0  0  # atno 17371 bound_to 10713
  139.9014  135.0166  156.7287 LP  0  0  0  0  0  0  0  0  0  0  0  0  # atno 17394 bound_to 11000
  140.6967  133.9342  155.7999 LP  0  0  0  0  0  0  0  0  0  0  0  0  # atno 17395 bound_to 11000

$$$$
