AV-unprocessed.smi:2589|AV-procd|sdf|10151|dock1
  -GOLD-   2272014163D 1   1.00000     0.00000
 Structure written by MMmdl.
 41 42  0  0  0  0  0  0  0  0  1 V2000
  144.2761  146.4100  158.1254 C   0  0  0  0  0  0  0  0  0  0  0  0
  144.4148  144.8968  158.0038 C   0  0  0  0  0  0  0  0  0  0  0  0
  143.4684  144.1641  158.2898 O   0  0  0  0  0  0  0  0  0  0  0  0
  145.6021  144.4418  157.5749 N   0  0  0  0  0  0  0  0  0  0  0  0
  145.9368  143.0355  157.3662 C   0  0  0  0  0  0  0  0  0  0  0  0
  147.1541  142.5899  158.1847 C   0  0  0  0  0  0  0  0  0  0  0  0
  147.0094  142.0684  159.2912 O   0  0  0  0  0  0  0  0  0  0  0  0
  148.3524  142.7821  157.6133 N   0  0  0  0  0  0  0  0  0  0  0  0
  149.6292  142.4140  158.2144 C   0  0  0  0  0  0  0  0  0  0  0  0
  150.4012  141.3782  157.3998 C   0  0  0  0  0  0  0  0  0  0  0  0
  149.8537  140.9008  156.1885 C   0  0  0  0  0  0  0  0  0  0  0  0
  150.5701  139.9566  155.4315 C   0  0  0  0  0  0  0  0  0  0  0  0
  151.8181  139.5243  155.9147 C   0  0  0  0  0  0  0  0  0  0  0  0
  152.3581  139.9712  157.0669 N   0  0  0  0  0  0  0  0  0  0  0  0
  151.6698  140.8805  157.7996 C   0  0  0  0  0  0  0  0  0  0  0  0
  152.2557  141.3043  159.0027 N   0  0  0  0  0  0  0  0  0  0  0  0
  152.5103  142.7366  159.0927 C   0  0  0  0  0  0  0  0  0  0  0  0
  152.9946  143.0896  160.5096 C   0  0  0  0  0  0  0  0  0  0  0  0
  154.1457  142.3120  160.8290 O   0  0  0  0  0  0  0  0  0  0  0  0
  153.8740  140.9130  160.8021 C   0  0  0  0  0  0  0  0  0  0  0  0
  153.4088  140.5047  159.3941 C   0  0  0  0  0  0  0  0  0  0  0  0
  144.3298  146.8753  157.1411 H   0  0  0  0  0  0  0  0  0  0  0  0
  145.0733  146.8196  158.7460 H   0  0  0  0  0  0  0  0  0  0  0  0
  143.3207  146.6769  158.5778 H   0  0  0  0  0  0  0  0  0  0  0  0
  146.3189  145.1180  157.3553 H   0  0  0  0  0  0  0  0  0  0  0  0
  145.0804  142.4315  157.6657 H   0  0  0  0  0  0  0  0  0  0  0  0
  146.1015  142.8410  156.3048 H   0  0  0  0  0  0  0  0  0  0  0  0
  148.3825  143.2156  156.7018 H   0  0  0  0  0  0  0  0  0  0  0  0
  150.2410  143.3140  158.2752 H   0  0  0  0  0  0  0  0  0  0  0  0
  149.4640  142.0982  159.2448 H   0  0  0  0  0  0  0  0  0  0  0  0
  148.8949  141.2555  155.8396 H   0  0  0  0  0  0  0  0  0  0  0  0
  150.1736  139.5749  154.5023 H   0  0  0  0  0  0  0  0  0  0  0  0
  152.3987  138.8010  155.3616 H   0  0  0  0  0  0  0  0  0  0  0  0
  153.2658  143.0267  158.3612 H   0  0  0  0  0  0  0  0  0  0  0  0
  151.6003  143.2892  158.8565 H   0  0  0  0  0  0  0  0  0  0  0  0
  153.2520  144.1471  160.5672 H   0  0  0  0  0  0  0  0  0  0  0  0
  152.2080  142.9115  161.2448 H   0  0  0  0  0  0  0  0  0  0  0  0
  154.7794  140.3691  161.0714 H   0  0  0  0  0  0  0  0  0  0  0  0
  153.1175  140.6634  161.5480 H   0  0  0  0  0  0  0  0  0  0  0  0
  153.1534  139.4450  159.3751 H   0  0  0  0  0  0  0  0  0  0  0  0
  154.2177  140.6535  158.6774 H   0  0  0  0  0  0  0  0  0  0  0  0
  1  2  1  0  0  0  0
  1 22  1  0  0  0  0
  1 23  1  0  0  0  0
  1 24  1  0  0  0  0
  2  3  2  0  0  0  0
  2  4  1  0  0  0  0
  4  5  1  0  0  0  0
  4 25  1  0  0  0  0
  5  6  1  0  0  0  0
  5 26  1  0  0  0  0
  5 27  1  0  0  0  0
  6  7  2  0  0  0  0
  6  8  1  0  0  0  0
  8  9  1  0  0  0  0
  8 28  1  0  0  0  0
  9 10  1  0  0  0  0
  9 29  1  0  0  0  0
  9 30  1  0  0  0  0
 10 15  1  0  0  0  0
 10 11  2  0  0  0  0
 11 12  1  0  0  0  0
 11 31  1  0  0  0  0
 12 13  2  0  0  0  0
 12 32  1  0  0  0  0
 13 14  1  0  0  0  0
 13 33  1  0  0  0  0
 14 15  2  0  0  0  0
 15 16  1  0  0  0  0
 16 21  1  0  0  0  0
 16 17  1  0  0  0  0
 17 18  1  0  0  0  0
 17 34  1  0  0  0  0
 17 35  1  0  0  0  0
 18 19  1  0  0  0  0
 18 36  1  0  0  0  0
 18 37  1  0  0  0  0
 19 20  1  0  0  0  0
 20 21  1  0  0  0  0
 20 38  1  0  0  0  0
 20 39  1  0  0  0  0
 21 40  1  0  0  0  0
 21 41  1  0  0  0  0
M  END
> <s_m_source_file>
AV-unprocessed.smi

> <i_m_source_file_index>
2589

> <i_lp_mmshare_version>
43012

> <i_f3d_flags>
0

> <s_epik_input>
W0NIM11DKD1PKVtOSF1bQ0gyXUMoPU8pW05IXVtDSDJdYzFbY0hdW2NIXVtjSF1uYzFOMltDSDJdW0NIMl1PW0NIMl1bQ0gyXTI=

> <s_epik_cmdline>
J2VwaWtfcHl0aG9uJywgJy1waCcsICc3LjAnLCAnLXRuJywgJzgnLCAnLW1hJywgJzIwMCcsICctbWV0YWxfYmluZGluZycsICctaW1hZScsICc8aW5maWxlLm1hZT4nLCAnLW9tYWUnLCAnPG91dGZpbGUubWFlPic=

> <r_lp_tautomer_probability>
1

> <r_epik_Ionization_Penalty>
0.00462917

> <r_epik_Ionization_Penalty_Charging>
0

> <r_epik_Ionization_Penalty_Neutral>
0.00462917

> <r_epik_State_Penalty>
0.00334737

> <r_epik_Charging_Adjusted_Penalty>
0.00334737

> <i_epik_Tot_Q>
0

> <i_epik_Tot_abs_Q>
0

> <r_epik_Metal_State_Penalty>
-0

> <b_epik_Metal_Only>
0

> <s_lp_Force_Field>
OPLS_2005

> <r_lp_Energy>
14.0488

> <b_lp_Chiralities_Consistent>
1

> <s_lp_Variant>
AV-unprocessed.smi:2589-1

> <Gold.Version>
5.8.1

> <Gold.Id.Protein>
6NUR|6NUR_protein|mol2

> <Gold.PLP.Fitness>
44.3144

> <Gold.PLP.PLP>
-33.9627

> <Gold.PLP.part.hbond>
-5.4009

> <Gold.PLP.part.metal>
0.0000

> <Gold.PLP.part.buried>
-0.1292

> <Gold.PLP.part.nonpolar>
-27.5475

> <Gold.PLP.part.repulsive>
0.0971

> <Gold.PLP.ligand.clash>
0.0000

> <Gold.PLP.ligand.torsion>
0.4857

> <Gold.PLP.Chemscore.Hbond>
3.7200

> <Gold.PLP.Chemscore.CHOScore>
0.0000

> <Gold.PLP.Chemscore.Metal>
0.0000

> <Gold.Chemscore.Hbonds>
donor molecule, donor type, donor heavy atom, donor atom, acceptor molecule, acceptor atom, score
      L1  H     4    25       P1  8029  0.70
      L1  H     8    28       P1  8028  0.94
      P1  H  6934  6946       L1     7  0.72
      P1  H  7997  8008       L1    14  0.91

> <Gold.PLP.Chemscore.Internal.Correction>
0.1630

> <Gold.Rescore>
     Score         DG    S(hbond)    S(metal)    S(lipo)     H(rot)  DE(clash)    DE(int)     intcor
     14.45     -16.49       2.44        0.00      74.25       2.28       1.38       0.66       ----

> <Gold.Chemscore.Fitness>
14.4533

> <Gold.Chemscore.DG>
-16.4922

> <Gold.Chemscore.ZeroCoef>
-5.4800

> <Gold.Chemscore.Hbond>
2.4410

> <Gold.Chemscore.Metal>
0.0000

> <Gold.Chemscore.Lipo>
74.2498

> <Gold.Chemscore.Internal_Hbond>
0.0000

> <Gold.Chemscore.DEClash>
1.3758

> <Gold.Chemscore.DEInternal>
0.6631

> <Gold.Chemscore.Rot>
2.2766

> <Gold.Chemscore.Internal.Correction>
   9.000000E+99

> <Gold.Chemscore.Hbonds>
donor molecule, donor type, donor heavy atom, donor atom, acceptor molecule, acceptor atom, score
      L1  H     4    25       P1  8029  0.07
      L1  H     8    28       P1  8028  0.41
      P1  H  6934  6946       L1     7  0.72
      P1  H  7997  8008       L1    14  0.22

> <Gold.Chemscore.Hbond.Weighted>
-8.1531

> <Gold.Chemscore.Metal.Weighted>
-0.0000

> <Gold.Chemscore.Lipo.Weighted>
-8.6872

> <Gold.Chemscore.Internal_Hbond.Weighted>
0.0000

> <Gold.Chemscore.DEClash.Weighted>
1.3758

> <Gold.Chemscore.DEInternal.Weighted>
0.6631

> <Gold.Chemscore.Rot.Weighted>
5.8281

> <Gold.Chemscore.Internal.Correction.Weighted>
   9.000000E+99

> <Gold.Protein.RotatedTorsions>
[ 6907 6896 6895 6894 ] final  -25.72 input  -60.11 | X-H torsion
[ 7974 7965 7964 7962 ] final  157.62 input  175.53 | X-H torsion
[ 8008 7997 7996 7995 ] final  -52.56 input   59.86 | X-H torsion
[ 10167 10162 10161 10158 ] final   90.84 input  -65.29 | X-H torsion
[ 10718 10713 10712 10709 ] final    5.34 input   66.30 | X-H torsion
[ 10763 10752 10751 10750 ] final  152.28 input  -60.55 | X-H torsion
[ 11005 11000 10999 10996 ] final  -73.87 input  -57.11 | X-H torsion

> <Gold.Protein.ActiveResidues>
 VAL166  LYS551  ARG553  GLY616  TRP617  ASP618  TYR619  PRO620  LYS621  CYS622 
 ASP623  PHE694  ASN695  SER759  ASP760  ASP761  ALA762  ILE779  LEU786  VAL792 
 PHE793  MET794  SER795  GLU796  ALA797  LYS798  CYS799  TRP800  GLU811  SER814 

> <Gold.Protein.RotatedAtoms>
  151.1711  135.0318  159.8751 H   0  0  0  0  0  0  0  0  0  0  0  0  # atno 6907 bound_to 6896
  152.5449  134.1170  159.8393 H   0  0  0  0  0  0  0  0  0  0  0  0  # atno 6908 bound_to 6896
  151.1276  133.5013  159.2632 H   0  0  0  0  0  0  0  0  0  0  0  0  # atno 6909 bound_to 6896
  144.7893  139.7365  143.6228 H   0  0  0  0  0  0  0  0  0  0  0  0  # atno 7974 bound_to 7965
  154.4110  140.1221  156.5011 H   0  0  0  0  0  0  0  0  0  0  0  0  # atno 8008 bound_to 7997
  155.6894  140.3495  155.4868 H   0  0  0  0  0  0  0  0  0  0  0  0  # atno 8009 bound_to 7997
  155.9482  140.1100  157.0989 H   0  0  0  0  0  0  0  0  0  0  0  0  # atno 8010 bound_to 7997
  139.8434  144.6630  150.9256 H   0  0  0  0  0  0  0  0  0  0  0  0  # atno 10167 bound_to 10162
  156.9060  130.5739  149.5647 H   0  0  0  0  0  0  0  0  0  0  0  0  # atno 10718 bound_to 10713
  154.1174  135.2835  155.3216 H   0  0  0  0  0  0  0  0  0  0  0  0  # atno 10763 bound_to 10752
  154.6447  135.5390  153.7834 H   0  0  0  0  0  0  0  0  0  0  0  0  # atno 10764 bound_to 10752
  153.0324  135.6495  154.1330 H   0  0  0  0  0  0  0  0  0  0  0  0  # atno 10765 bound_to 10752
  141.1628  133.6892  156.7278 H   0  0  0  0  0  0  0  0  0  0  0  0  # atno 11005 bound_to 11000
  146.2138  139.5513  142.9663 LP  0  0  0  0  0  0  0  0  0  0  0  0  # atno 17320 bound_to 7965
  145.5837  141.0379  143.2108 LP  0  0  0  0  0  0  0  0  0  0  0  0  # atno 17321 bound_to 7965
  140.7795  143.3892  151.1340 LP  0  0  0  0  0  0  0  0  0  0  0  0  # atno 17342 bound_to 10162
  139.7536  143.8741  152.3083 LP  0  0  0  0  0  0  0  0  0  0  0  0  # atno 17343 bound_to 10162
  156.0559  130.5620  150.9090 LP  0  0  0  0  0  0  0  0  0  0  0  0  # atno 17370 bound_to 10713
  157.5997  131.0941  150.8981 LP  0  0  0  0  0  0  0  0  0  0  0  0  # atno 17371 bound_to 10713
  140.2768  134.8349  157.3897 LP  0  0  0  0  0  0  0  0  0  0  0  0  # atno 17394 bound_to 11000
  140.1470  134.4898  155.7989 LP  0  0  0  0  0  0  0  0  0  0  0  0  # atno 17395 bound_to 11000

$$$$
