AV-unprocessed.smi:2143|AV-procd|sdf|8725|dock5
  -GOLD-   2272011493D 1   1.00000     0.00000
 Structure written by MMmdl.
 44 45  0  0  0  0  0  0  0  0  1 V2000
  148.3597  137.8796  154.8204 C   0  0  0  0  0  0  0  0  0  0  0  0
  148.6276  139.0453  153.8460 C   0  0  1  0  0  0  0  0  0  0  0  0
  147.3150  139.6995  153.3697 C   0  0  0  0  0  0  0  0  0  0  0  0
  146.6531  140.5416  154.4713 C   0  0  0  0  0  0  0  0  0  0  0  0
  147.6202  141.6039  155.0106 C   0  0  0  0  0  0  0  0  0  0  0  0
  148.9416  140.9834  155.5042 C   0  0  2  0  0  0  0  0  0  0  0  0
  149.8285  142.0650  155.9314 N   0  0  0  0  0  0  0  0  0  0  0  0
  150.8922  141.9404  156.7405 C   0  0  0  0  0  0  0  0  0  0  0  0
  151.2743  140.8630  157.1994 O   0  0  0  0  0  0  0  0  0  0  0  0
  151.6484  143.2386  157.0541 C   0  0  0  0  0  0  0  0  0  0  0  0
  151.8231  143.4721  158.4933 N   0  0  0  0  0  0  0  0  0  0  0  0
  151.2741  144.5996  159.0762 C   0  0  0  0  0  0  0  0  0  0  0  0
  151.4041  144.8987  160.3872 C   0  0  0  0  0  0  0  0  0  0  0  0
  152.1490  144.0239  161.2847 C   0  0  0  0  0  0  0  0  0  0  0  0
  152.3102  144.2699  162.4805 O   0  0  0  0  0  0  0  0  0  0  0  0
  152.6865  142.8695  160.6661 N   0  0  0  0  0  0  0  0  0  0  0  0
  153.4615  141.9497  161.4730 C   0  0  0  0  0  0  0  0  0  0  0  0
  152.5604  142.5705  159.2911 C   0  0  0  0  0  0  0  0  0  0  0  0
  153.0765  141.5674  158.7916 O   0  0  0  0  0  0  0  0  0  0  0  0
  149.6030  140.1215  154.3952 C   0  0  1  0  0  0  0  0  0  0  0  0
  150.9584  139.5204  154.8169 C   0  0  0  0  0  0  0  0  0  0  0  0
  147.9392  138.2200  155.7661 H   0  0  0  0  0  0  0  0  0  0  0  0
  149.2718  137.3272  155.0448 H   0  0  0  0  0  0  0  0  0  0  0  0
  147.6570  137.1666  154.3882 H   0  0  0  0  0  0  0  0  0  0  0  0
  149.0946  138.6030  152.9648 H   0  0  0  0  0  0  0  0  0  0  0  0
  147.5244  140.3399  152.5117 H   0  0  0  0  0  0  0  0  0  0  0  0
  146.6196  138.9386  153.0139 H   0  0  0  0  0  0  0  0  0  0  0  0
  145.7574  141.0241  154.0793 H   0  0  0  0  0  0  0  0  0  0  0  0
  146.3204  139.8983  155.2862 H   0  0  0  0  0  0  0  0  0  0  0  0
  147.8258  142.3312  154.2234 H   0  0  0  0  0  0  0  0  0  0  0  0
  147.1414  142.1554  155.8208 H   0  0  0  0  0  0  0  0  0  0  0  0
  148.7098  140.3413  156.3551 H   0  0  0  0  0  0  0  0  0  0  0  0
  149.6023  142.9901  155.5960 H   0  0  0  0  0  0  0  0  0  0  0  0
  152.6215  143.1916  156.5635 H   0  0  0  0  0  0  0  0  0  0  0  0
  151.1303  144.0856  156.6004 H   0  0  0  0  0  0  0  0  0  0  0  0
  150.7162  145.2828  158.4521 H   0  0  0  0  0  0  0  0  0  0  0  0
  150.9540  145.8001  160.7766 H   0  0  0  0  0  0  0  0  0  0  0  0
  153.2149  140.9298  161.1729 H   0  0  0  0  0  0  0  0  0  0  0  0
  153.2109  142.0628  162.5280 H   0  0  0  0  0  0  0  0  0  0  0  0
  154.5128  142.1771  161.2905 H   0  0  0  0  0  0  0  0  0  0  0  0
  149.8187  140.7914  153.5609 H   0  0  0  0  0  0  0  0  0  0  0  0
  150.8714  138.9373  155.7339 H   0  0  0  0  0  0  0  0  0  0  0  0
  151.7019  140.2976  154.9936 H   0  0  0  0  0  0  0  0  0  0  0  0
  151.3575  138.8671  154.0406 H   0  0  0  0  0  0  0  0  0  0  0  0
  1  2  1  0  0  0  0
  1 22  1  0  0  0  0
  1 23  1  0  0  0  0
  1 24  1  0  0  0  0
  2 20  1  0  0  0  0
  2  3  1  0  0  0  0
  2 25  1  0  0  0  0
  3  4  1  0  0  0  0
  3 26  1  0  0  0  0
  3 27  1  0  0  0  0
  4  5  1  0  0  0  0
  4 28  1  0  0  0  0
  4 29  1  0  0  0  0
  5  6  1  0  0  0  0
  5 30  1  0  0  0  0
  5 31  1  0  0  0  0
  6  7  1  0  0  0  0
  6 20  1  0  0  0  0
  6 32  1  0  0  0  0
  7  8  1  0  0  0  0
  7 33  1  0  0  0  0
  8  9  2  0  0  0  0
  8 10  1  0  0  0  0
 10 11  1  0  0  0  0
 10 34  1  0  0  0  0
 10 35  1  0  0  0  0
 11 18  1  0  0  0  0
 11 12  1  0  0  0  0
 12 13  2  0  0  0  0
 12 36  1  0  0  0  0
 13 14  1  0  0  0  0
 13 37  1  0  0  0  0
 14 15  2  0  0  0  0
 14 16  1  0  0  0  0
 16 17  1  0  0  0  0
 16 18  1  0  0  0  0
 17 38  1  0  0  0  0
 17 39  1  0  0  0  0
 17 40  1  0  0  0  0
 18 19  2  0  0  0  0
 20 21  1  0  0  0  0
 20 41  1  0  0  0  0
 21 42  1  0  0  0  0
 21 43  1  0  0  0  0
 21 44  1  0  0  0  0
M  END
> <s_m_source_file>
AV-unprocessed.smi

> <i_m_source_file_index>
2143

> <i_lp_mmshare_version>
43012

> <i_f3d_flags>
0

> <s_epik_input>
W0NIM11bQ0BASF0xW0NIMl1bQ0gyXVtDSDJdW0NASF0oW0NASF0xW0NIM10pW05IXUMoPU8pW0NIMl1uMltjSF1bY0hdYyg9TyluKFtDSDNdKWMyPU8=

> <s_epik_cmdline>
J2VwaWtfcHl0aG9uJywgJy1waCcsICc3LjAnLCAnLXRuJywgJzgnLCAnLW1hJywgJzIwMCcsICctbWV0YWxfYmluZGluZycsICctaW1hZScsICc8aW5maWxlLm1hZT4nLCAnLW9tYWUnLCAnPG91dGZpbGUubWFlPic=

> <r_lp_tautomer_probability>
1

> <r_epik_Ionization_Penalty>
3.18445e-08

> <r_epik_Ionization_Penalty_Charging>
1.27977e-08

> <r_epik_Ionization_Penalty_Neutral>
1.90469e-08

> <r_epik_State_Penalty>
-0

> <r_epik_Charging_Adjusted_Penalty>
1.27977e-08

> <i_epik_Tot_Q>
0

> <i_epik_Tot_abs_Q>
0

> <r_epik_Metal_State_Penalty>
-0

> <b_epik_Metal_Only>
0

> <s_lp_Force_Field>
OPLS_2005

> <r_lp_Energy>
21.4204

> <b_lp_Chiralities_Consistent>
1

> <s_lp_Variant>
AV-unprocessed.smi:2143-4

> <Gold.Version>
5.8.1

> <Gold.Id.Protein>
6NUR|6NUR_protein|mol2

> <Gold.PLP.Fitness>
46.9598

> <Gold.PLP.PLP>
-44.5335

> <Gold.PLP.part.hbond>
-1.0000

> <Gold.PLP.part.metal>
0.0000

> <Gold.PLP.part.buried>
-2.1914

> <Gold.PLP.part.nonpolar>
-41.4217

> <Gold.PLP.part.repulsive>
0.3310

> <Gold.PLP.ligand.clash>
0.0000

> <Gold.PLP.ligand.torsion>
0.2895

> <Gold.PLP.Chemscore.Hbond>
1.0000

> <Gold.PLP.Chemscore.CHOScore>
0.0000

> <Gold.PLP.Chemscore.Metal>
0.0000

> <Gold.Chemscore.Hbonds>
donor molecule, donor type, donor heavy atom, donor atom, acceptor molecule, acceptor atom, score
      L1  H     7    33       P1  8028  1.00

> <Gold.PLP.Chemscore.Internal.Correction>
0.0052

> <Gold.Rescore>
     Score         DG    S(hbond)    S(metal)    S(lipo)     H(rot)  DE(clash)    DE(int)     intcor
     10.71     -16.73       1.53        0.00      85.47       1.51       2.80       3.21       ----

> <Gold.Chemscore.Fitness>
10.7145

> <Gold.Chemscore.DG>
-16.7305

> <Gold.Chemscore.ZeroCoef>
-5.4800

> <Gold.Chemscore.Hbond>
1.5343

> <Gold.Chemscore.Metal>
0.0000

> <Gold.Chemscore.Lipo>
85.4653

> <Gold.Chemscore.Internal_Hbond>
0.0000

> <Gold.Chemscore.DEClash>
2.8045

> <Gold.Chemscore.DEInternal>
3.2115

> <Gold.Chemscore.Rot>
1.5131

> <Gold.Chemscore.Internal.Correction>
   9.000000E+99

> <Gold.Chemscore.Hbonds>
donor molecule, donor type, donor heavy atom, donor atom, acceptor molecule, acceptor atom, score
      L1  H     7    33       P1  8028  0.99

> <Gold.Chemscore.Hbond.Weighted>
-5.1245

> <Gold.Chemscore.Metal.Weighted>
-0.0000

> <Gold.Chemscore.Lipo.Weighted>
-9.9994

> <Gold.Chemscore.Internal_Hbond.Weighted>
0.0000

> <Gold.Chemscore.DEClash.Weighted>
2.8045

> <Gold.Chemscore.DEInternal.Weighted>
3.2115

> <Gold.Chemscore.Rot.Weighted>
3.8734

> <Gold.Chemscore.Internal.Correction.Weighted>
   9.000000E+99

> <Gold.Protein.RotatedTorsions>
[ 6907 6896 6895 6894 ] final   -8.03 input  -60.11 | X-H torsion
[ 7974 7965 7964 7962 ] final   11.99 input  175.53 | X-H torsion
[ 8008 7997 7996 7995 ] final  -90.48 input   59.86 | X-H torsion
[ 10167 10162 10161 10158 ] final   62.90 input  -65.29 | X-H torsion
[ 10718 10713 10712 10709 ] final   83.60 input   66.30 | X-H torsion
[ 10763 10752 10751 10750 ] final  129.57 input  -60.55 | X-H torsion
[ 11005 11000 10999 10996 ] final   54.38 input  -57.11 | X-H torsion

> <Gold.Protein.ActiveResidues>
 VAL166  LYS551  ARG553  GLY616  TRP617  ASP618  TYR619  PRO620  LYS621  CYS622 
 ASP623  PHE694  ASN695  SER759  ASP760  ASP761  ALA762  ILE779  LEU786  VAL792 
 PHE793  MET794  SER795  GLU796  ALA797  LYS798  CYS799  TRP800  GLU811  SER814 

> <Gold.Protein.RotatedAtoms>
  151.4402  135.1019  159.9667 H   0  0  0  0  0  0  0  0  0  0  0  0  # atno 6907 bound_to 6896
  152.4925  133.8536  159.7224 H   0  0  0  0  0  0  0  0  0  0  0  0  # atno 6908 bound_to 6896
  150.9093  133.6958  159.2886 H   0  0  0  0  0  0  0  0  0  0  0  0  # atno 6909 bound_to 6896
  146.2360  139.9403  142.8484 H   0  0  0  0  0  0  0  0  0  0  0  0  # atno 7974 bound_to 7965
  154.6991  140.0530  157.0440 H   0  0  0  0  0  0  0  0  0  0  0  0  # atno 8008 bound_to 7997
  155.0710  140.3199  155.4611 H   0  0  0  0  0  0  0  0  0  0  0  0  # atno 8009 bound_to 7997
  156.2754  140.2082  156.5837 H   0  0  0  0  0  0  0  0  0  0  0  0  # atno 8010 bound_to 7997
  140.1389  144.4572  150.6822 H   0  0  0  0  0  0  0  0  0  0  0  0  # atno 10167 bound_to 10162
  157.6882  131.0098  150.2548 H   0  0  0  0  0  0  0  0  0  0  0  0  # atno 10718 bound_to 10713
  153.7439  135.3220  155.3309 H   0  0  0  0  0  0  0  0  0  0  0  0  # atno 10763 bound_to 10752
  154.8286  135.4551  154.0999 H   0  0  0  0  0  0  0  0  0  0  0  0  # atno 10764 bound_to 10752
  153.2182  135.6945  153.8114 H   0  0  0  0  0  0  0  0  0  0  0  0  # atno 10765 bound_to 10752
  140.0691  134.5495  155.9066 H   0  0  0  0  0  0  0  0  0  0  0  0  # atno 11005 bound_to 11000
  145.1959  140.9833  143.4184 LP  0  0  0  0  0  0  0  0  0  0  0  0  # atno 17320 bound_to 7965
  144.9816  139.3778  143.6259 LP  0  0  0  0  0  0  0  0  0  0  0  0  # atno 17321 bound_to 7965
  140.6772  143.2310  151.5476 LP  0  0  0  0  0  0  0  0  0  0  0  0  # atno 17342 bound_to 10162
  139.5482  144.2465  152.1481 LP  0  0  0  0  0  0  0  0  0  0  0  0  # atno 17343 bound_to 10162
  156.3138  130.3776  149.7637 LP  0  0  0  0  0  0  0  0  0  0  0  0  # atno 17370 bound_to 10713
  156.5229  130.8223  151.3210 LP  0  0  0  0  0  0  0  0  0  0  0  0  # atno 17371 bound_to 10713
  141.2005  133.6612  156.5898 LP  0  0  0  0  0  0  0  0  0  0  0  0  # atno 17394 bound_to 11000
  140.3654  134.7651  157.4562 LP  0  0  0  0  0  0  0  0  0  0  0  0  # atno 17395 bound_to 11000

$$$$
