AV-unprocessed.smi:3351|AV-procd|sdf|12949|dock6
  -GOLD-   2272019383D 1   1.00000     0.00000
 Structure written by MMmdl.
 34 35  0  0  0  0  0  0  0  0  1 V2000
  145.5383  134.0725  153.5094 C   0  0  0  0  0  0  0  0  0  0  0  0
  146.5730  133.8637  152.3955 C   0  0  2  0  0  0  0  0  0  0  0  0
  146.4283  132.4678  151.7489 C   0  0  0  0  0  0  0  0  0  0  0  0
  145.5186  132.4587  150.6161 N   0  0  0  0  0  0  0  0  0  0  0  0
  144.1976  132.8873  150.6003 C   0  0  0  0  0  0  0  0  0  0  0  0
  143.7277  132.6698  149.3252 C   0  0  0  0  0  0  0  0  0  0  0  0
  144.7410  132.1267  148.5390 N   0  0  0  0  0  0  0  0  0  0  0  0
  145.7721  132.0370  149.3694 C   0  0  0  0  0  0  0  0  0  0  0  0
  147.9142  134.0434  152.9507 N   0  0  0  0  0  0  0  0  0  0  0  0
  148.4841  133.2575  153.8780 C   0  0  0  0  0  0  0  0  0  0  0  0
  147.9577  132.2360  154.3201 O   0  0  0  0  0  0  0  0  0  0  0  0
  149.8580  133.6900  154.3928 C   0  0  0  0  0  0  0  0  0  0  0  0
  150.4738  132.6169  155.1714 N   0  0  0  0  0  0  0  0  0  0  0  0
  150.6610  131.3043  154.5670 C   0  0  0  0  0  0  0  0  0  0  0  0
  150.8376  130.2961  155.7035 C   0  0  0  0  0  0  0  0  0  0  0  0
  151.4767  131.1963  157.1299 S   0  0  0  0  0  0  0  0  0  0  0  0
  150.9053  132.7703  156.4820 C   0  0  0  0  0  0  0  0  0  0  0  0
  150.9066  133.7986  157.1564 O   0  0  0  0  0  0  0  0  0  0  0  0
  144.5231  133.9735  153.1242 H   0  0  0  0  0  0  0  0  0  0  0  0
  145.6273  135.0672  153.9475 H   0  0  0  0  0  0  0  0  0  0  0  0
  145.6622  133.3426  154.3103 H   0  0  0  0  0  0  0  0  0  0  0  0
  146.3830  134.6233  151.6351 H   0  0  0  0  0  0  0  0  0  0  0  0
  147.4005  132.0979  151.4194 H   0  0  0  0  0  0  0  0  0  0  0  0
  146.0545  131.7523  152.4822 H   0  0  0  0  0  0  0  0  0  0  0  0
  143.7096  133.2880  151.4765 H   0  0  0  0  0  0  0  0  0  0  0  0
  142.7463  132.8612  148.9170 H   0  0  0  0  0  0  0  0  0  0  0  0
  146.7309  131.6420  149.0675 H   0  0  0  0  0  0  0  0  0  0  0  0
  148.4260  134.8586  152.6452 H   0  0  0  0  0  0  0  0  0  0  0  0
  150.4921  133.9396  153.5412 H   0  0  0  0  0  0  0  0  0  0  0  0
  149.7774  134.5973  154.9945 H   0  0  0  0  0  0  0  0  0  0  0  0
  149.8221  131.0321  153.9253 H   0  0  0  0  0  0  0  0  0  0  0  0
  151.5565  131.3366  153.9455 H   0  0  0  0  0  0  0  0  0  0  0  0
  149.8700  129.8760  155.9806 H   0  0  0  0  0  0  0  0  0  0  0  0
  151.4940  129.4706  155.4279 H   0  0  0  0  0  0  0  0  0  0  0  0
  1  2  1  0  0  0  0
  1 19  1  0  0  0  0
  1 20  1  0  0  0  0
  1 21  1  0  0  0  0
  2  3  1  0  0  0  0
  2  9  1  0  0  0  0
  2 22  1  0  0  0  0
  3  4  1  0  0  0  0
  3 23  1  0  0  0  0
  3 24  1  0  0  0  0
  4  8  1  0  0  0  0
  4  5  1  0  0  0  0
  5  6  2  0  0  0  0
  5 25  1  0  0  0  0
  6  7  1  0  0  0  0
  6 26  1  0  0  0  0
  7  8  2  0  0  0  0
  8 27  1  0  0  0  0
  9 10  1  0  0  0  0
  9 28  1  0  0  0  0
 10 11  2  0  0  0  0
 10 12  1  0  0  0  0
 12 13  1  0  0  0  0
 12 29  1  0  0  0  0
 12 30  1  0  0  0  0
 13 17  1  0  0  0  0
 13 14  1  0  0  0  0
 14 15  1  0  0  0  0
 14 31  1  0  0  0  0
 14 32  1  0  0  0  0
 15 16  1  0  0  0  0
 15 33  1  0  0  0  0
 15 34  1  0  0  0  0
 16 17  1  0  0  0  0
 17 18  2  0  0  0  0
M  END
> <s_m_source_file>
AV-unprocessed.smi

> <i_m_source_file_index>
3351

> <i_lp_mmshare_version>
43012

> <i_f3d_flags>
0

> <s_epik_input>
W2NIXTFuW2NIXVtjSF1uMVtDSDJdW0NAQEhdKFtDSDNdKVtOSF1DKD1PKVtDSDJdTjJbQ0gyXVtDSDJdU0MyPU8=

> <s_epik_cmdline>
J2VwaWtfcHl0aG9uJywgJy1waCcsICc3LjAnLCAnLXRuJywgJzgnLCAnLW1hJywgJzIwMCcsICctbWV0YWxfYmluZGluZycsICctaW1hZScsICc8aW5maWxlLm1hZT4nLCAnLW9tYWUnLCAnPG91dGZpbGUubWFlPic=

> <r_lp_tautomer_probability>
1

> <r_epik_Ionization_Penalty>
0.618163

> <r_epik_Ionization_Penalty_Charging>
0.618163

> <r_epik_Ionization_Penalty_Neutral>
6.6929e-08

> <r_epik_State_Penalty>
0.633954

> <r_epik_Charging_Adjusted_Penalty>
1.25212

> <i_epik_Tot_Q>
0

> <i_epik_Tot_abs_Q>
0

> <r_epik_Metal_State_Penalty>
0.305924

> <b_epik_Metal_Only>
0

> <s_lp_Force_Field>
OPLS_2005

> <r_lp_Energy>
3.88922

> <b_lp_Chiralities_Consistent>
1

> <s_lp_Variant>
AV-unprocessed.smi:3351-3

> <Gold.Version>
5.8.1

> <Gold.Id.Protein>
6NUR|6NUR_protein|mol2

> <Gold.PLP.Fitness>
44.3060

> <Gold.PLP.PLP>
-34.4826

> <Gold.PLP.part.hbond>
-3.8220

> <Gold.PLP.part.metal>
0.0000

> <Gold.PLP.part.buried>
-4.5500

> <Gold.PLP.part.nonpolar>
-25.9839

> <Gold.PLP.part.repulsive>
0.5753

> <Gold.PLP.ligand.clash>
0.0000

> <Gold.PLP.ligand.torsion>
0.5737

> <Gold.PLP.Chemscore.Hbond>
1.6720

> <Gold.PLP.Chemscore.CHOScore>
1.9742

> <Gold.PLP.Chemscore.Metal>
0.0000

> <Gold.Chemscore.Hbonds>
donor molecule, donor type, donor heavy atom, donor atom, acceptor molecule, acceptor atom, score
      L1  H     9    28       P1  7948  1.00
      P1  H  6896  6909       L1    18  0.53
      L1  C     6    26       P1 10186  1.00
      L1  C     8    27       P1 10747  0.73

> <Gold.PLP.Chemscore.Internal.Correction>
0.0321

> <Gold.Rescore>
     Score         DG    S(hbond)    S(metal)    S(lipo)     H(rot)  DE(clash)    DE(int)     intcor
      9.72     -11.79       1.80        0.00      53.50       2.33       0.15       1.92       ----

> <Gold.Chemscore.Fitness>
9.7221

> <Gold.Chemscore.DG>
-11.7869

> <Gold.Chemscore.ZeroCoef>
-5.4800

> <Gold.Chemscore.Hbond>
1.8013

> <Gold.Chemscore.Metal>
0.0000

> <Gold.Chemscore.Lipo>
53.5015

> <Gold.Chemscore.Internal_Hbond>
0.0000

> <Gold.Chemscore.DEClash>
0.1456

> <Gold.Chemscore.DEInternal>
1.9192

> <Gold.Chemscore.Rot>
2.3317

> <Gold.Chemscore.Internal.Correction>
   9.000000E+99

> <Gold.Chemscore.Hbonds>
donor molecule, donor type, donor heavy atom, donor atom, acceptor molecule, acceptor atom, score
      L1  H     9    28       P1  7948  0.39
      P1  H  6896  6909       L1    18  0.52

> <Gold.Chemscore.Hbond.Weighted>
-6.0165

> <Gold.Chemscore.Metal.Weighted>
-0.0000

> <Gold.Chemscore.Lipo.Weighted>
-6.2597

> <Gold.Chemscore.Internal_Hbond.Weighted>
0.0000

> <Gold.Chemscore.DEClash.Weighted>
0.1456

> <Gold.Chemscore.DEInternal.Weighted>
1.9192

> <Gold.Chemscore.Rot.Weighted>
5.9692

> <Gold.Chemscore.Internal.Correction.Weighted>
   9.000000E+99

> <Gold.Protein.RotatedTorsions>
[ 6907 6896 6895 6894 ] final   -4.42 input  -60.11 | X-H torsion
[ 7974 7965 7964 7962 ] final  -50.06 input  175.53 | X-H torsion
[ 8008 7997 7996 7995 ] final  -37.43 input   59.86 | X-H torsion
[ 10167 10162 10161 10158 ] final -149.92 input  -65.29 | X-H torsion
[ 10718 10713 10712 10709 ] final  -87.10 input   66.30 | X-H torsion
[ 10763 10752 10751 10750 ] final   71.53 input  -60.55 | X-H torsion
[ 11005 11000 10999 10996 ] final -100.40 input  -57.11 | X-H torsion

> <Gold.Protein.ActiveResidues>
 VAL166  LYS551  ARG553  GLY616  TRP617  ASP618  TYR619  PRO620  LYS621  CYS622 
 ASP623  PHE694  ASN695  SER759  ASP760  ASP761  ALA762  ILE779  LEU786  VAL792 
 PHE793  MET794  SER795  GLU796  ALA797  LYS798  CYS799  TRP800  GLU811  SER814 

> <Gold.Protein.RotatedAtoms>
  151.4979  135.1060  159.9820 H   0  0  0  0  0  0  0  0  0  0  0  0  # atno 6907 bound_to 6896
  152.4714  133.8034  159.6975 H   0  0  0  0  0  0  0  0  0  0  0  0  # atno 6908 bound_to 6896
  150.8725  133.7422  159.2983 H   0  0  0  0  0  0  0  0  0  0  0  0  # atno 6909 bound_to 6896
  145.9339  140.7724  142.9586 H   0  0  0  0  0  0  0  0  0  0  0  0  # atno 7974 bound_to 7965
  154.4054  140.1604  156.2535 H   0  0  0  0  0  0  0  0  0  0  0  0  # atno 8008 bound_to 7997
  155.9098  140.3428  155.6068 H   0  0  0  0  0  0  0  0  0  0  0  0  # atno 8009 bound_to 7997
  155.7349  140.0785  157.2263 H   0  0  0  0  0  0  0  0  0  0  0  0  # atno 8010 bound_to 7997
  139.7400  143.8677  152.2559 H   0  0  0  0  0  0  0  0  0  0  0  0  # atno 10167 bound_to 10162
  155.9986  130.4788  150.4816 H   0  0  0  0  0  0  0  0  0  0  0  0  # atno 10718 bound_to 10713
  153.0404  135.5133  154.7607 H   0  0  0  0  0  0  0  0  0  0  0  0  # atno 10763 bound_to 10752
  154.6549  135.2930  154.9943 H   0  0  0  0  0  0  0  0  0  0  0  0  # atno 10764 bound_to 10752
  154.0814  135.6663  153.4891 H   0  0  0  0  0  0  0  0  0  0  0  0  # atno 10765 bound_to 10752
  141.1272  133.8396  157.1098 H   0  0  0  0  0  0  0  0  0  0  0  0  # atno 11005 bound_to 11000
  144.6769  140.2171  143.7370 LP  0  0  0  0  0  0  0  0  0  0  0  0  # atno 17320 bound_to 7965
  145.8390  139.2121  143.1838 LP  0  0  0  0  0  0  0  0  0  0  0  0  # atno 17321 bound_to 7965
  139.8625  144.7110  150.9083 LP  0  0  0  0  0  0  0  0  0  0  0  0  # atno 17342 bound_to 10162
  140.7784  143.3806  151.1484 LP  0  0  0  0  0  0  0  0  0  0  0  0  # atno 17343 bound_to 10162
  157.2821  131.0609  151.2191 LP  0  0  0  0  0  0  0  0  0  0  0  0  # atno 17370 bound_to 10713
  157.3233  130.6948  149.6282 LP  0  0  0  0  0  0  0  0  0  0  0  0  # atno 17371 bound_to 10713
  140.0282  134.9914  157.0728 LP  0  0  0  0  0  0  0  0  0  0  0  0  # atno 17394 bound_to 11000
  140.4328  134.1763  155.7169 LP  0  0  0  0  0  0  0  0  0  0  0  0  # atno 17395 bound_to 11000

$$$$
