AV-unprocessed.smi:1540|AV-procd|sdf|6200|dock9
  -GOLD-   22720 6373D 1   1.00000     0.00000
 Structure written by MMmdl.
 32 32  0  0  0  0  0  0  0  0  2 V2000
  147.1168  142.2736  154.2053 C   0  0  0  0  0  0  0  0  0  0  0  0
  148.0408  141.4226  154.6764 C   0  0  0  0  0  0  0  0  0  0  0  0
  148.2717  140.0263  154.1422 C   0  0  0  0  0  0  0  0  0  0  0  0
  149.1651  139.3164  154.9914 O   0  0  0  0  0  0  0  0  0  0  0  0
  150.5167  139.2552  154.5422 C   0  0  2  0  0  0  0  0  0  0  0  0
  150.8816  137.7733  154.3715 C   0  0  0  0  0  0  0  0  0  0  0  0
  151.4482  139.9433  155.5533 C   0  0  0  0  0  0  0  0  0  0  0  0
  152.6575  139.9873  155.3276 O   0  0  0  0  0  0  0  0  0  0  0  0
  150.8399  140.4610  156.6384 N   0  0  0  0  0  0  0  0  0  0  0  0
  151.4014  141.1075  157.7523 C   0  0  0  0  0  0  0  0  0  0  0  0
  151.1449  142.3955  158.1126 C   0  0  0  0  0  0  0  0  0  0  0  0
  151.7681  143.0193  159.2732 C   0  0  0  0  0  0  0  0  0  0  0  0
  151.5625  144.4730  159.6615 C   0  0  0  0  0  0  0  0  0  0  0  0
  152.1753  144.7249  160.8172 F   0  0  0  0  0  0  0  0  0  0  0  0
  152.0656  145.2920  158.7374 F   0  0  0  0  0  0  0  0  0  0  0  0
  150.2668  144.7505  159.8086 F   0  0  0  0  0  0  0  0  0  0  0  0
  152.6487  142.1702  159.9150 C   0  0  0  0  0  0  0  0  0  0  0  0
  152.9546  140.8858  159.6279 N   0  5  0  0  0  0  0  0  0  0  0  0
  152.3591  140.3096  158.5457 C   0  0  0  0  0  0  0  0  0  0  0  0
  152.6010  139.1468  158.2200 O   0  0  0  0  0  0  0  0  0  0  0  0
  146.4641  141.9984  153.3897 H   0  0  0  0  0  0  0  0  0  0  0  0
  147.0023  143.2596  154.6311 H   0  0  0  0  0  0  0  0  0  0  0  0
  148.6766  141.7327  155.4929 H   0  0  0  0  0  0  0  0  0  0  0  0
  147.3113  139.5112  154.0966 H   0  0  0  0  0  0  0  0  0  0  0  0
  148.6595  140.0895  153.1246 H   0  0  0  0  0  0  0  0  0  0  0  0
  150.5961  139.7425  153.5683 H   0  0  0  0  0  0  0  0  0  0  0  0
  151.9138  137.6558  154.0392 H   0  0  0  0  0  0  0  0  0  0  0  0
  150.2407  137.3015  153.6266 H   0  0  0  0  0  0  0  0  0  0  0  0
  150.7644  137.2203  155.3043 H   0  0  0  0  0  0  0  0  0  0  0  0
  149.8311  140.4180  156.6485 H   0  0  0  0  0  0  0  0  0  0  0  0
  150.4759  143.0086  157.5318 H   0  0  0  0  0  0  0  0  0  0  0  0
  153.1931  142.5874  160.7889 H   0  0  0  0  0  0  0  0  0  0  0  0
  1  2  2  0  0  0  0
  1 21  1  0  0  0  0
  1 22  1  0  0  0  0
  2  3  1  0  0  0  0
  2 23  1  0  0  0  0
  3  4  1  0  0  0  0
  3 24  1  0  0  0  0
  3 25  1  0  0  0  0
  4  5  1  0  0  0  0
  5  6  1  0  0  0  0
  5  7  1  0  0  0  0
  5 26  1  0  0  0  0
  6 27  1  0  0  0  0
  6 28  1  0  0  0  0
  6 29  1  0  0  0  0
  7  8  2  0  0  0  0
  7  9  1  0  0  0  0
  9 10  1  0  0  0  0
  9 30  1  0  0  0  0
 10 19  1  0  0  0  0
 10 11  2  0  0  0  0
 11 12  1  0  0  0  0
 11 31  1  0  0  0  0
 12 13  1  0  0  0  0
 12 17  2  0  0  0  0
 13 14  1  0  0  0  0
 13 15  1  0  0  0  0
 13 16  1  0  0  0  0
 17 18  1  0  0  0  0
 17 32  1  0  0  0  0
 18 19  1  0  0  0  0
 19 20  2  0  0  0  0
M  CHG  1  18  -1
M  END
> <s_m_source_file>
AV-unprocessed.smi

> <i_m_source_file_index>
1540

> <i_lp_mmshare_version>
43012

> <i_f3d_flags>
0

> <s_epik_input>
W0NIMl09W0NIXVtDSDJdT1tDQEhdKFtDSDNdKUMoPU8pW05IXWMxW2NIXWMoQyhGKShGKUYpW2NIXVtuSF1jMT1P

> <s_epik_cmdline>
J2VwaWtfcHl0aG9uJywgJy1waCcsICc3LjAnLCAnLXRuJywgJzgnLCAnLW1hJywgJzIwMCcsICctbWV0YWxfYmluZGluZycsICctaW1hZScsICc8aW5maWxlLm1hZT4nLCAnLW9tYWUnLCAnPG91dGZpbGUubWFlPic=

> <r_epik_Ionization_Penalty>
2.56803

> <r_epik_Ionization_Penalty_Charging>
0.0609694

> <r_epik_Ionization_Penalty_Neutral>
2.50706

> <r_epik_State_Penalty>
2.67253

> <r_epik_Charging_Adjusted_Penalty>
2.7335

> <i_epik_Tot_Q>
-1

> <i_epik_Tot_abs_Q>
1

> <r_epik_Metal_State_Penalty>
0.517713

> <b_epik_Metal_Only>
0

> <s_lp_Force_Field>
OPLS_2005

> <r_lp_Energy>
19.8511

> <b_lp_Chiralities_Consistent>
1

> <s_lp_Variant>
AV-unprocessed.smi:1540-3

> <Gold.Version>
5.8.1

> <Gold.Id.Protein>
6NUR|6NUR_protein|mol2

> <Gold.PLP.Fitness>
45.9659

> <Gold.PLP.PLP>
-46.5532

> <Gold.PLP.part.hbond>
-2.0000

> <Gold.PLP.part.metal>
0.0000

> <Gold.PLP.part.buried>
-5.7145

> <Gold.PLP.part.nonpolar>
-38.5333

> <Gold.PLP.part.repulsive>
0.1623

> <Gold.PLP.ligand.clash>
0.0000

> <Gold.PLP.ligand.torsion>
1.8262

> <Gold.PLP.Chemscore.Hbond>
1.0000

> <Gold.PLP.Chemscore.CHOScore>
0.0000

> <Gold.PLP.Chemscore.Metal>
0.0000

> <Gold.Chemscore.Hbonds>
donor molecule, donor type, donor heavy atom, donor atom, acceptor molecule, acceptor atom, score
      P1  H  7997  8008       L1     8  1.00

> <Gold.PLP.Chemscore.Internal.Correction>
0.0652

> <Gold.Rescore>
     Score         DG    S(hbond)    S(metal)    S(lipo)     H(rot)  DE(clash)    DE(int)     intcor
     10.31     -13.80       0.98        0.00      81.81       1.77       1.10       2.39       ----

> <Gold.Chemscore.Fitness>
10.3091

> <Gold.Chemscore.DG>
-13.7972

> <Gold.Chemscore.ZeroCoef>
-5.4800

> <Gold.Chemscore.Hbond>
0.9848

> <Gold.Chemscore.Metal>
0.0000

> <Gold.Chemscore.Lipo>
81.8111

> <Gold.Chemscore.Internal_Hbond>
0.0000

> <Gold.Chemscore.DEClash>
1.0957

> <Gold.Chemscore.DEInternal>
2.3924

> <Gold.Chemscore.Rot>
1.7750

> <Gold.Chemscore.Internal.Correction>
   9.000000E+99

> <Gold.Chemscore.Hbonds>
donor molecule, donor type, donor heavy atom, donor atom, acceptor molecule, acceptor atom, score
      P1  H  7997  8008       L1     8  0.99

> <Gold.Chemscore.Hbond.Weighted>
-3.2891

> <Gold.Chemscore.Metal.Weighted>
-0.0000

> <Gold.Chemscore.Lipo.Weighted>
-9.5719

> <Gold.Chemscore.Internal_Hbond.Weighted>
0.0000

> <Gold.Chemscore.DEClash.Weighted>
1.0957

> <Gold.Chemscore.DEInternal.Weighted>
2.3924

> <Gold.Chemscore.Rot.Weighted>
4.5439

> <Gold.Chemscore.Internal.Correction.Weighted>
   9.000000E+99

> <Gold.Protein.RotatedTorsions>
[ 6907 6896 6895 6894 ] final  -31.53 input  -60.11 | X-H torsion
[ 7974 7965 7964 7962 ] final  -80.73 input  175.53 | X-H torsion
[ 8008 7997 7996 7995 ] final  -36.29 input   59.86 | X-H torsion
[ 10167 10162 10161 10158 ] final  -35.67 input  -65.29 | X-H torsion
[ 10718 10713 10712 10709 ] final   18.83 input   66.30 | X-H torsion
[ 10763 10752 10751 10750 ] final  141.40 input  -60.55 | X-H torsion
[ 11005 11000 10999 10996 ] final   55.67 input  -57.11 | X-H torsion

> <Gold.Protein.ActiveResidues>
 VAL166  LYS551  ARG553  GLY616  TRP617  ASP618  TYR619  PRO620  LYS621  CYS622 
 ASP623  PHE694  ASN695  SER759  ASP760  ASP761  ALA762  ILE779  LEU786  VAL792 
 PHE793  MET794  SER795  GLU796  ALA797  LYS798  CYS799  TRP800  GLU811  SER814 

> <Gold.Protein.RotatedAtoms>
  151.0908  134.9915  159.8401 H   0  0  0  0  0  0  0  0  0  0  0  0  # atno 6907 bound_to 6896
  152.5429  134.2068  159.8744 H   0  0  0  0  0  0  0  0  0  0  0  0  # atno 6908 bound_to 6896
  151.2104  133.4515  159.2631 H   0  0  0  0  0  0  0  0  0  0  0  0  # atno 6909 bound_to 6896
  145.5560  140.9489  143.1473 H   0  0  0  0  0  0  0  0  0  0  0  0  # atno 7974 bound_to 7965
  154.4076  140.1635  156.2349 H   0  0  0  0  0  0  0  0  0  0  0  0  # atno 8008 bound_to 7997
  155.9251  140.3418  155.6181 H   0  0  0  0  0  0  0  0  0  0  0  0  # atno 8009 bound_to 7997
  155.7175  140.0764  157.2335 H   0  0  0  0  0  0  0  0  0  0  0  0  # atno 8010 bound_to 7997
  140.7160  143.3461  151.2253 H   0  0  0  0  0  0  0  0  0  0  0  0  # atno 10167 bound_to 10162
  157.1018  130.6471  149.5874 H   0  0  0  0  0  0  0  0  0  0  0  0  # atno 10718 bound_to 10713
  153.9387  135.2982  155.3443 H   0  0  0  0  0  0  0  0  0  0  0  0  # atno 10763 bound_to 10752
  154.7489  135.4990  153.9256 H   0  0  0  0  0  0  0  0  0  0  0  0  # atno 10764 bound_to 10752
  153.1054  135.6745  153.9703 H   0  0  0  0  0  0  0  0  0  0  0  0  # atno 10765 bound_to 10752
  140.0589  134.5630  155.9175 H   0  0  0  0  0  0  0  0  0  0  0  0  # atno 11005 bound_to 11000
  144.7506  139.7204  143.7274 LP  0  0  0  0  0  0  0  0  0  0  0  0  # atno 17320 bound_to 7965
  146.1884  139.5111  142.9821 LP  0  0  0  0  0  0  0  0  0  0  0  0  # atno 17321 bound_to 7965
  139.6981  143.9579  152.2892 LP  0  0  0  0  0  0  0  0  0  0  0  0  # atno 17342 bound_to 10162
  139.9263  144.6769  150.8409 LP  0  0  0  0  0  0  0  0  0  0  0  0  # atno 17343 bound_to 10162
  155.9871  130.4909  150.7112 LP  0  0  0  0  0  0  0  0  0  0  0  0  # atno 17370 bound_to 10713
  157.4634  131.0885  151.0721 LP  0  0  0  0  0  0  0  0  0  0  0  0  # atno 17371 bound_to 10713
  141.1964  133.6591  156.5692 LP  0  0  0  0  0  0  0  0  0  0  0  0  # atno 17394 bound_to 11000
  140.3801  134.7531  157.4655 LP  0  0  0  0  0  0  0  0  0  0  0  0  # atno 17395 bound_to 11000

$$$$
