AV-unprocessed.smi:3140|AV-procd|sdf|11958|dock3
  -GOLD-   2272017353D 1   1.00000     0.00000
 Structure written by MMmdl.
 38 39  0  0  0  0  0  0  0  0  2 V2000
  150.5269  138.5424  154.9361 C   0  0  0  0  0  0  0  0  0  0  0  0
  150.0681  139.7475  155.7742 C   0  0  2  0  0  0  0  0  0  0  0  0
  149.8811  140.9921  154.8840 C   0  0  0  0  0  0  0  0  0  0  0  0
  148.5371  141.0882  154.3413 N   0  0  0  0  0  0  0  0  0  0  0  0
  147.6665  142.1565  154.3940 C   0  0  0  0  0  0  0  0  0  0  0  0
  146.5264  141.7836  153.7415 C   0  0  0  0  0  0  0  0  0  0  0  0
  146.7970  140.4516  153.3209 C   0  0  0  0  0  0  0  0  0  0  0  0
  148.0023  140.0390  153.6793 N   0  0  0  0  0  0  0  0  0  0  0  0
  151.0318  140.0368  156.8612 N   0  3  0  0  0  0  0  0  0  0  0  0
  150.8763  141.3510  157.5167 C   0  0  0  0  0  0  0  0  0  0  0  0
  151.9936  141.5806  158.5456 C   0  0  0  0  0  0  0  0  0  0  0  0
  152.0043  142.9590  159.0275 N   0  0  0  0  0  0  0  0  0  0  0  0
  152.2206  144.0677  158.1132 C   0  0  0  0  0  0  0  0  0  0  0  0
  151.9619  145.3285  158.9509 C   0  0  0  0  0  0  0  0  0  0  0  0
  151.9667  144.8658  160.4121 C   0  0  0  0  0  0  0  0  0  0  0  0
  151.8769  143.3533  160.2997 C   0  0  0  0  0  0  0  0  0  0  0  0
  151.7093  142.6183  161.2717 O   0  0  0  0  0  0  0  0  0  0  0  0
  149.8336  138.3505  154.1167 H   0  0  0  0  0  0  0  0  0  0  0  0
  150.5769  137.6304  155.5306 H   0  0  0  0  0  0  0  0  0  0  0  0
  151.5125  138.7133  154.5017 H   0  0  0  0  0  0  0  0  0  0  0  0
  149.1023  139.5091  156.2228 H   0  0  0  0  0  0  0  0  0  0  0  0
  150.1074  141.9045  155.4388 H   0  0  0  0  0  0  0  0  0  0  0  0
  150.5770  140.9605  154.0445 H   0  0  0  0  0  0  0  0  0  0  0  0
  147.9275  143.0829  154.8845 H   0  0  0  0  0  0  0  0  0  0  0  0
  145.6335  142.3720  153.5897 H   0  0  0  0  0  0  0  0  0  0  0  0
  146.1590  139.7774  152.7685 H   0  0  0  0  0  0  0  0  0  0  0  0
  150.9729  139.3067  157.5567 H   0  0  0  0  0  0  0  0  0  0  0  0
  150.9049  142.1383  156.7622 H   0  0  0  0  0  0  0  0  0  0  0  0
  149.9018  141.4027  158.0023 H   0  0  0  0  0  0  0  0  0  0  0  0
  151.8714  140.9044  159.3936 H   0  0  0  0  0  0  0  0  0  0  0  0
  152.9626  141.3461  158.1027 H   0  0  0  0  0  0  0  0  0  0  0  0
  153.2497  144.0424  157.7524 H   0  0  0  0  0  0  0  0  0  0  0  0
  151.5541  144.0109  157.2516 H   0  0  0  0  0  0  0  0  0  0  0  0
  152.7102  146.0994  158.7633 H   0  0  0  0  0  0  0  0  0  0  0  0
  150.9873  145.7502  158.7012 H   0  0  0  0  0  0  0  0  0  0  0  0
  152.8965  145.1371  160.9131 H   0  0  0  0  0  0  0  0  0  0  0  0
  151.1299  145.2761  160.9780 H   0  0  0  0  0  0  0  0  0  0  0  0
  151.9564  140.0119  156.4539 H   0  0  0  0  0  0  0  0  0  0  0  0
  1  2  1  0  0  0  0
  1 18  1  0  0  0  0
  1 19  1  0  0  0  0
  1 20  1  0  0  0  0
  2  3  1  0  0  0  0
  2  9  1  0  0  0  0
  2 21  1  0  0  0  0
  3  4  1  0  0  0  0
  3 22  1  0  0  0  0
  3 23  1  0  0  0  0
  4  8  1  0  0  0  0
  4  5  1  0  0  0  0
  5  6  2  0  0  0  0
  5 24  1  0  0  0  0
  6  7  1  0  0  0  0
  6 25  1  0  0  0  0
  7  8  2  0  0  0  0
  7 26  1  0  0  0  0
  9 10  1  0  0  0  0
  9 27  1  0  0  0  0
  9 38  1  0  0  0  0
 10 11  1  0  0  0  0
 10 28  1  0  0  0  0
 10 29  1  0  0  0  0
 11 12  1  0  0  0  0
 11 30  1  0  0  0  0
 11 31  1  0  0  0  0
 12 16  1  0  0  0  0
 12 13  1  0  0  0  0
 13 14  1  0  0  0  0
 13 32  1  0  0  0  0
 13 33  1  0  0  0  0
 14 15  1  0  0  0  0
 14 34  1  0  0  0  0
 14 35  1  0  0  0  0
 15 16  1  0  0  0  0
 15 36  1  0  0  0  0
 15 37  1  0  0  0  0
 16 17  2  0  0  0  0
M  CHG  1   9   1
M  END
> <s_m_source_file>
AV-unprocessed.smi

> <i_m_source_file_index>
3140

> <i_lp_mmshare_version>
43012

> <i_f3d_flags>
0

> <s_epik_input>
bjFbY0hdW2NIXVtjSF1uMVtDSDJdW0NAQEhdKFtDSDNdKVtOSF1bQ0gyXVtDSDJdTjJbQ0gyXVtDSDJdW0NIMl1DMj1P

> <s_epik_cmdline>
J2VwaWtfcHl0aG9uJywgJy1waCcsICc3LjAnLCAnLXRuJywgJzgnLCAnLW1hJywgJzIwMCcsICctbWV0YWxfYmluZGluZycsICctaW1hZScsICc8aW5maWxlLm1hZT4nLCAnLW9tYWUnLCAnPG91dGZpbGUubWFlPic=

> <r_lp_tautomer_probability>
1

> <r_epik_Ionization_Penalty>
0.00826299

> <r_epik_Ionization_Penalty_Charging>
0.00825899

> <r_epik_Ionization_Penalty_Neutral>
3.99893e-06

> <r_epik_State_Penalty>
0.00621436

> <r_epik_Charging_Adjusted_Penalty>
0.0144734

> <i_epik_Tot_Q>
1

> <i_epik_Tot_abs_Q>
1

> <r_epik_Metal_State_Penalty>
0.00621472

> <b_epik_Metal_Only>
0

> <s_lp_Force_Field>
OPLS_2005

> <r_lp_Energy>
18.6849

> <b_lp_Chiralities_Consistent>
1

> <s_lp_Variant>
AV-unprocessed.smi:3140-1

> <Gold.Version>
5.8.1

> <Gold.Id.Protein>
6NUR|6NUR_protein|mol2

> <Gold.PLP.Fitness>
44.7002

> <Gold.PLP.PLP>
-39.6727

> <Gold.PLP.part.hbond>
-1.0000

> <Gold.PLP.part.metal>
0.0000

> <Gold.PLP.part.buried>
-3.5535

> <Gold.PLP.part.nonpolar>
-37.9001

> <Gold.PLP.part.repulsive>
0.9577

> <Gold.PLP.ligand.clash>
0.0000

> <Gold.PLP.ligand.torsion>
0.6027

> <Gold.PLP.Chemscore.Hbond>
0.4160

> <Gold.PLP.Chemscore.CHOScore>
1.6359

> <Gold.PLP.Chemscore.Metal>
0.0000

> <Gold.Chemscore.Hbonds>
donor molecule, donor type, donor heavy atom, donor atom, acceptor molecule, acceptor atom, score
      P1  H  6933  6945       L1    17  0.41
      L1  C     5    24       P1  8028  0.96
      L1  C     7    26       P1 10175  0.64

> <Gold.PLP.Chemscore.Internal.Correction>
0.0773

> <Gold.Rescore>
     Score         DG    S(hbond)    S(metal)    S(lipo)     H(rot)  DE(clash)    DE(int)     intcor
     12.03     -12.75       0.56        0.00      91.14       2.06       0.05       0.66       ----

> <Gold.Chemscore.Fitness>
12.0336

> <Gold.Chemscore.DG>
-12.7499

> <Gold.Chemscore.ZeroCoef>
-5.4800

> <Gold.Chemscore.Hbond>
0.5595

> <Gold.Chemscore.Metal>
0.0000

> <Gold.Chemscore.Lipo>
91.1438

> <Gold.Chemscore.Internal_Hbond>
0.0000

> <Gold.Chemscore.DEClash>
0.0515

> <Gold.Chemscore.DEInternal>
0.6648

> <Gold.Chemscore.Rot>
2.0557

> <Gold.Chemscore.Internal.Correction>
   9.000000E+99

> <Gold.Chemscore.Hbonds>
donor molecule, donor type, donor heavy atom, donor atom, acceptor molecule, acceptor atom, score
      P1  H  6933  6945       L1    17  0.39

> <Gold.Chemscore.Hbond.Weighted>
-1.8688

> <Gold.Chemscore.Metal.Weighted>
-0.0000

> <Gold.Chemscore.Lipo.Weighted>
-10.6638

> <Gold.Chemscore.Internal_Hbond.Weighted>
0.0000

> <Gold.Chemscore.DEClash.Weighted>
0.0515

> <Gold.Chemscore.DEInternal.Weighted>
0.6648

> <Gold.Chemscore.Rot.Weighted>
5.2627

> <Gold.Chemscore.Internal.Correction.Weighted>
   9.000000E+99

> <Gold.Protein.RotatedTorsions>
[ 6907 6896 6895 6894 ] final   90.40 input  -60.11 | X-H torsion
[ 7974 7965 7964 7962 ] final   76.07 input  175.53 | X-H torsion
[ 8008 7997 7996 7995 ] final   85.78 input   59.86 | X-H torsion
[ 10167 10162 10161 10158 ] final   91.05 input  -65.29 | X-H torsion
[ 10718 10713 10712 10709 ] final   41.42 input   66.30 | X-H torsion
[ 10763 10752 10751 10750 ] final    9.10 input  -60.55 | X-H torsion
[ 11005 11000 10999 10996 ] final  128.33 input  -57.11 | X-H torsion

> <Gold.Protein.ActiveResidues>
 VAL166  LYS551  ARG553  GLY616  TRP617  ASP618  TYR619  PRO620  LYS621  CYS622 
 ASP623  PHE694  ASN695  SER759  ASP760  ASP761  ALA762  ILE779  LEU786  VAL792 
 PHE793  MET794  SER795  GLU796  ALA797  LYS798  CYS799  TRP800  GLU811  SER814 

> <Gold.Protein.RotatedAtoms>
  152.5444  134.1818  159.8638 H   0  0  0  0  0  0  0  0  0  0  0  0  # atno 6907 bound_to 6896
  151.1820  133.4712  159.2601 H   0  0  0  0  0  0  0  0  0  0  0  0  # atno 6908 bound_to 6896
  151.1169  135.0069  159.8576 H   0  0  0  0  0  0  0  0  0  0  0  0  # atno 6909 bound_to 6896
  145.7075  139.2603  143.1669 H   0  0  0  0  0  0  0  0  0  0  0  0  # atno 7974 bound_to 7965
  155.9544  140.3398  155.6435 H   0  0  0  0  0  0  0  0  0  0  0  0  # atno 8008 bound_to 7997
  155.6879  140.0745  157.2478 H   0  0  0  0  0  0  0  0  0  0  0  0  # atno 8009 bound_to 7997
  154.4129  140.1662  156.2041 H   0  0  0  0  0  0  0  0  0  0  0  0  # atno 8010 bound_to 7997
  139.8413  144.6640  150.9280 H   0  0  0  0  0  0  0  0  0  0  0  0  # atno 10167 bound_to 10162
  157.3934  130.7819  149.7288 H   0  0  0  0  0  0  0  0  0  0  0  0  # atno 10718 bound_to 10713
  153.2178  135.6877  153.8036 H   0  0  0  0  0  0  0  0  0  0  0  0  # atno 10763 bound_to 10752
  153.7246  135.3262  155.3274 H   0  0  0  0  0  0  0  0  0  0  0  0  # atno 10764 bound_to 10752
  154.8254  135.4621  154.1012 H   0  0  0  0  0  0  0  0  0  0  0  0  # atno 10765 bound_to 10752
  139.9555  134.9614  156.8987 H   0  0  0  0  0  0  0  0  0  0  0  0  # atno 11005 bound_to 11000
  146.0742  140.7835  142.9673 LP  0  0  0  0  0  0  0  0  0  0  0  0  # atno 17320 bound_to 7965
  144.6951  140.3389  143.7203 LP  0  0  0  0  0  0  0  0  0  0  0  0  # atno 17321 bound_to 7965
  140.7798  143.3910  151.1309 LP  0  0  0  0  0  0  0  0  0  0  0  0  # atno 17342 bound_to 10162
  139.7556  143.8712  152.3088 LP  0  0  0  0  0  0  0  0  0  0  0  0  # atno 17343 bound_to 10162
  155.9804  130.4030  150.3531 LP  0  0  0  0  0  0  0  0  0  0  0  0  # atno 17370 bound_to 10713
  157.1650  131.0354  151.2823 LP  0  0  0  0  0  0  0  0  0  0  0  0  # atno 17371 bound_to 10713
  140.5619  134.0526  155.7401 LP  0  0  0  0  0  0  0  0  0  0  0  0  # atno 17394 bound_to 11000
  141.1226  133.9437  157.2700 LP  0  0  0  0  0  0  0  0  0  0  0  0  # atno 17395 bound_to 11000

$$$$
