#       Name:                AV-unprocessed.smi:537
#       Creating user name   scv26
#       Creation time:       Thu Mar 26 23:35:40 2020


#       File generated by GOLD software.
#

@<TRIPOS>MOLECULE
AV-unprocessed.smi:537
    40    41     1
SMALL
NO_CHARGES


@<TRIPOS>ATOM
      1 ****         1.7082   3.0846   0.5613 C.3            1 S1                 0.0000
      2 ****         0.3387   2.6109   0.5774 N.pl3          1 S1                 0.0000
      3 ****        -0.1929   1.3280   0.6110 C.2            1 S1                 0.0000
      4 ****        -1.4992   1.0513   0.6198 N.2            1 S1                 0.0000
      5 ****        -1.5146  -0.3362   0.6502 C.2            1 S1                 0.0000
      6 ****        -0.2535  -0.8386   0.6599 C.2            1 S1                 0.0000
      7 ****         0.0190  -2.2811   0.6836 C.2            1 S1                 0.0000
      8 ****         1.1513  -2.7589   0.6864 O.2            1 S1                 0.0000
      9 ****        -1.1088  -3.0327   0.7013 N.am           1 S1                 0.0000
     10 ****        -2.4045  -2.5922   0.6936 C.2            1 S1                 0.0000
     11 ****        -3.3254  -3.4084   0.7099 O.2            1 S1                 0.0000
     12 ****        -2.6162  -1.2357   0.6662 N.am           1 S1                 0.0000
     13 ****        -3.9630  -0.6608   0.6471 C.3            1 S1                 0.0000
     14 ****         0.6241   0.2457   0.6353 N.pl3          1 S1                 0.0000
     15 ****         2.0836   0.2334   0.6271 C.3            1 S1                 0.0000
     16 ****         2.6544   0.2723  -0.7981 C.3            1 S1                 0.0000
     17 ****         2.1747  -0.8349  -1.5434 O.3            1 S1                 0.0000
     18 ****         2.6758  -0.8590  -2.8679 C.3            1 S1                 0.0000
     19 ****        -0.9779  -4.0336   0.7205 H              1 S1                 0.0000
     20 ****         1.7311   4.1733   0.5178 H              1 S1                 0.0000
     21 ****         2.2351   2.6908  -0.3082 H              1 S1                 0.0000
     22 ****         2.2314   2.7607   1.4611 H              1 S1                 0.0000
     23 ****        -0.3475   3.3511   0.5538 H              1 S1                 0.0000
     24 ****        -4.7635  -1.4010   0.6701 H              1 S1                 0.0000
     25 ****        -4.0980  -0.0625  -0.2545 H              1 S1                 0.0000
     26 ****        -4.1003  -0.0053   1.5077 H              1 S1                 0.0000
     27 ****         2.4497   1.0871   1.1981 H              1 S1                 0.0000
     28 ****         2.4429  -0.6466   1.1583 H              1 S1                 0.0000
     29 ****         2.3655   1.2028  -1.2893 H              1 S1                 0.0000
     30 ****         3.7443   0.2509  -0.7575 H              1 S1                 0.0000
     31 ****         2.2803  -1.7288  -3.3922 H              1 S1                 0.0000
     32 ****         3.7643  -0.9273  -2.8761 H              1 S1                 0.0000
     33 ****         2.3758   0.0326  -3.4201 H              1 S1                 0.0000
     34 ****        -2.2726   1.6851   0.6076 LP             1 S1                 0.0000
     35 ****         1.9486  -2.1555   0.6721 LP             1 S1                 0.0000
     36 ****         1.2753  -3.7510   0.7030 LP             1 S1                 0.0000
     37 ****        -3.1251  -4.3879   0.7287 LP             1 S1                 0.0000
     38 ****        -4.2740  -3.0920   0.7044 LP             1 S1                 0.0000
     39 ****         1.1764  -0.7881  -1.5796 LP             1 S1                 0.0000
     40 ****         2.4524  -1.6767  -1.0807 LP             1 S1                 0.0000
@<TRIPOS>BOND
    1    1    2 1     
    2    1   20 1     
    3    1   21 1     
    4    1   22 1     
    5    2    3 1     
    6    2   23 1     
    7    3   14 1     
    8    3    4 2     
    9    4    5 1     
   10    5   12 1     
   11    5    6 2     
   12    6    7 1     
   13    6   14 1     
   14    7    8 2     
   15    7    9 1     
   16    9   19 1     
   17    9   10 1     
   18   10   11 2     
   19   10   12 1     
   20   12   13 1     
   21   13   24 1     
   22   13   25 1     
   23   13   26 1     
   24   14   15 1     
   25   15   16 1     
   26   15   27 1     
   27   15   28 1     
   28   16   17 1     
   29   16   29 1     
   30   16   30 1     
   31   17   18 1     
   32   18   31 1     
   33   18   32 1     
   34   18   33 1     
   35    4   34 1     
   36    8   35 1     
   37    8   36 1     
   38   11   37 1     
   39   11   38 1     
   40   17   39 1     
   41   17   40 1     
@<TRIPOS>SUBSTRUCTURE
      1 S1             1
@<TRIPOS>SET
LONE_PAIRS      STATIC     ATOMS    <user>   **** ""
7 34 35 36 37 38 39 40
DONOR_HYDROGENS      STATIC     ATOMS    <user>   **** ""
2 23 19
ATOM$BLUE        STATIC     ATOMS    COLORGROUP SYSTEM
7 34 35 36 37 38 39 40
ATOM$RED        STATIC     ATOMS    COLORGROUP SYSTEM
2 23 19
