#       Name:                AV-unprocessed.smi:1933
#       Creating user name   scv26
#       Creation time:       Fri Mar 27 09:56:44 2020


#       File generated by GOLD software.
#

@<TRIPOS>MOLECULE
AV-unprocessed.smi:1933
    55    57     1
SMALL
NO_CHARGES


@<TRIPOS>ATOM
      1 ****        -2.9821   0.1147  -0.3848 O.2            1 S1                 0.0000
      2 ****        -2.1520   0.9210   0.0356 C.2            1 S1                 0.0000
      3 ****        -0.9277   0.5687   0.4507 N.am           1 S1                 0.0000
      4 ****        -0.4107  -0.7941   0.4523 C.3            1 S1                 0.0000
      5 ****         1.1403  -0.8423   0.4654 C.3            1 S1                 0.0000
      6 ****         1.8017  -0.2943  -0.8318 C.3            1 S1                 0.0000
      7 ****         1.6290   1.1923  -1.1011 C.3            1 S1                 0.0000
      8 ****         2.7533   1.4860  -2.0895 C.3            1 S1                 0.0000
      9 ****         3.7914   0.5621  -1.7859 O.3            1 S1                 0.0000
     10 ****         3.3325  -0.3829  -0.8276 C.3            1 S1                 0.0000
     11 ****         1.6491  -2.2198   0.7423 N.4            1 S1                 1.0000
     12 ****         1.6042  -2.6054   2.1737 C.3            1 S1                 0.0000
     13 ****         2.3278  -3.9468   2.3805 C.3            1 S1                 0.0000
     14 ****         1.7407  -4.9421   1.5504 O.3            1 S1                 0.0000
     15 ****         1.8475  -4.6194   0.1687 C.3            1 S1                 0.0000
     16 ****         1.1009  -3.3048  -0.1113 C.3            1 S1                 0.0000
     17 ****        -2.3379   2.2484   0.1425 N.am           1 S1                 0.0000
     18 ****        -3.4874   3.0047  -0.2101 C.ar           1 S1                 0.0000
     19 ****        -3.3944   4.3911   0.0482 C.ar           1 S1                 0.0000
     20 ****        -4.4818   5.2287  -0.2672 C.ar           1 S1                 0.0000
     21 ****        -5.6351   4.6578  -0.8340 C.ar           1 S1                 0.0000
     22 ****        -5.6453   3.2693  -1.0598 C.ar           1 S1                 0.0000
     23 ****        -4.6044   2.4646  -0.7582 N.ar           1 S1                 0.0000
     24 ****        -0.3105   1.2938   0.7860 H              1 S1                 0.0000
     25 ****        -0.8211  -1.2939   1.3298 H              1 S1                 0.0000
     26 ****        -0.7901  -1.3265  -0.4214 H              1 S1                 0.0000
     27 ****         1.4854  -0.2096   1.2848 H              1 S1                 0.0000
     28 ****         1.4248  -0.8372  -1.6996 H              1 S1                 0.0000
     29 ****         0.6537   1.4493  -1.5146 H              1 S1                 0.0000
     30 ****         1.7770   1.7672  -0.1859 H              1 S1                 0.0000
     31 ****         2.4186   1.3059  -3.1118 H              1 S1                 0.0000
     32 ****         3.1044   2.5162  -2.0248 H              1 S1                 0.0000
     33 ****         3.7326  -0.1018   0.1476 H              1 S1                 0.0000
     34 ****         3.6950  -1.3838  -1.0636 H              1 S1                 0.0000
     35 ****         2.0811  -1.8378   2.7840 H              1 S1                 0.0000
     36 ****         0.5704  -2.6877   2.5103 H              1 S1                 0.0000
     37 ****         3.3920  -3.8529   2.1579 H              1 S1                 0.0000
     38 ****         2.2467  -4.2612   3.4211 H              1 S1                 0.0000
     39 ****         2.8969  -4.5415  -0.1205 H              1 S1                 0.0000
     40 ****         1.4144  -5.4297  -0.4179 H              1 S1                 0.0000
     41 ****         0.0386  -3.4474   0.0905 H              1 S1                 0.0000
     42 ****         1.1982  -3.0492  -1.1659 H              1 S1                 0.0000
     43 ****        -1.5676   2.7818   0.5171 H              1 S1                 0.0000
     44 ****        -2.5010   4.8135   0.4846 H              1 S1                 0.0000
     45 ****        -4.4310   6.2906  -0.0771 H              1 S1                 0.0000
     46 ****        -6.4892   5.2676  -1.0893 H              1 S1                 0.0000
     47 ****        -6.5110   2.7916  -1.4941 H              1 S1                 0.0000
     48 ****         2.6338  -2.1758   0.5217 H              1 S1                 0.0000
     49 ****        -2.7562  -0.8584  -0.4289 LP             1 S1                 0.0000
     50 ****        -3.8823   0.4330  -0.6821 LP             1 S1                 0.0000
     51 ****         4.5771   1.0565  -1.4142 LP             1 S1                 0.0000
     52 ****         4.0634   0.0829  -2.6203 LP             1 S1                 0.0000
     53 ****         0.7730  -5.0294   1.7871 LP             1 S1                 0.0000
     54 ****         2.2039  -5.8130   1.7147 LP             1 S1                 0.0000
     55 ****        -4.6562   1.4820  -0.9367 LP             1 S1                 0.0000
@<TRIPOS>BOND
    1    1    2 2     
    2    2    3 am    
    3    2   17 am    
    4    3    4 1     
    5    3   24 1     
    6    4    5 1     
    7    4   25 1     
    8    4   26 1     
    9    5    6 1     
   10    5   11 1     
   11    5   27 1     
   12    6   10 1     
   13    6    7 1     
   14    6   28 1     
   15    7    8 1     
   16    7   29 1     
   17    7   30 1     
   18    8    9 1     
   19    8   31 1     
   20    8   32 1     
   21    9   10 1     
   22   10   33 1     
   23   10   34 1     
   24   11   16 1     
   25   11   12 1     
   26   11   48 1     
   27   12   13 1     
   28   12   35 1     
   29   12   36 1     
   30   13   14 1     
   31   13   37 1     
   32   13   38 1     
   33   14   15 1     
   34   15   16 1     
   35   15   39 1     
   36   15   40 1     
   37   16   41 1     
   38   16   42 1     
   39   17   18 1     
   40   17   43 1     
   41   18   23 ar    
   42   18   19 ar    
   43   19   20 ar    
   44   19   44 1     
   45   20   21 ar    
   46   20   45 1     
   47   21   22 ar    
   48   21   46 1     
   49   22   23 ar    
   50   22   47 1     
   51    1   49 1     
   52    1   50 1     
   53    9   51 1     
   54    9   52 1     
   55   14   53 1     
   56   14   54 1     
   57   23   55 1     
@<TRIPOS>SUBSTRUCTURE
      1 S1             1
@<TRIPOS>SET
LONE_PAIRS      STATIC     ATOMS    <user>   **** ""
7 49 50 51 52 53 54 55
DONOR_HYDROGENS      STATIC     ATOMS    <user>   **** ""
3 24 48 43
ATOM$BLUE        STATIC     ATOMS    COLORGROUP SYSTEM
7 49 50 51 52 53 54 55
ATOM$RED        STATIC     ATOMS    COLORGROUP SYSTEM
3 24 48 43
