#       Name:                AV-unprocessed.smi:1451
#       Creating user name   scv26
#       Creation time:       Fri Mar 27 05:58:44 2020


#       File generated by GOLD software.
#

@<TRIPOS>MOLECULE
AV-unprocessed.smi:1451
    51    52     1
SMALL
NO_CHARGES


@<TRIPOS>ATOM
      1 ****        -5.1236   0.2267  -0.2370 C.3            1 S1                 0.0000
      2 ****        -4.6346   1.2057   0.8449 C.3            1 S1                 0.0000
      3 ****        -5.1821   2.6318   0.6522 C.3            1 S1                 0.0000
      4 ****        -4.4834   3.3437  -0.5147 C.3            1 S1                 0.0000
      5 ****        -2.9560   3.3052  -0.3498 C.3            1 S1                 0.0000
      6 ****        -2.4667   1.9096  -0.2063 N.4            1 S1                 1.0000
      7 ****        -0.9838   1.8334  -0.2005 C.3            1 S1                 0.0000
      8 ****        -0.4648   0.4466  -0.6150 C.3            1 S1                 0.0000
      9 ****         0.9916   0.4358  -0.6423 N.am           1 S1                 0.0000
     10 ****         1.7447  -0.6733  -0.6279 C.2            1 S1                 0.0000
     11 ****         1.2698  -1.8094  -0.6123 O.2            1 S1                 0.0000
     12 ****         3.2646  -0.4612  -0.6566 C.3            1 S1                 0.0000
     13 ****         4.0014  -1.4973   0.0862 N.am           1 S1                 0.0000
     14 ****         4.5817  -2.5394  -0.6637 C.2            1 S1                 0.0000
     15 ****         5.2657  -3.5541  -0.1009 C.2            1 S1                 0.0000
     16 ****         5.9244  -4.6376  -0.9406 C.3            1 S1                 0.0000
     17 ****         6.9916  -5.1430  -0.3214 F              1 S1                 0.0000
     18 ****         5.0619  -5.6293  -1.1578 F              1 S1                 0.0000
     19 ****         6.3141  -4.1596  -2.1231 F              1 S1                 0.0000
     20 ****         5.4127  -3.5122   1.3409 C.2            1 S1                 0.0000
     21 ****         4.8701  -2.5193   2.0723 C.2            1 S1                 0.0000
     22 ****         4.1083  -1.4356   1.4476 C.2            1 S1                 0.0000
     23 ****         3.5977  -0.5287   2.1057 O.2            1 S1                 0.0000
     24 ****        -3.0961   1.2281   0.9581 C.3            1 S1                 0.0000
     25 ****        -4.7626   0.4998  -1.2285 H              1 S1                 0.0000
     26 ****        -6.2128   0.1994  -0.2771 H              1 S1                 0.0000
     27 ****        -4.7795  -0.7872  -0.0304 H              1 S1                 0.0000
     28 ****        -5.0263   0.8341   1.7928 H              1 S1                 0.0000
     29 ****        -6.2609   2.6112   0.4934 H              1 S1                 0.0000
     30 ****        -5.0193   3.2049   1.5661 H              1 S1                 0.0000
     31 ****        -4.7640   2.8768  -1.4593 H              1 S1                 0.0000
     32 ****        -4.8235   4.3781  -0.5736 H              1 S1                 0.0000
     33 ****        -2.4945   3.7729  -1.2204 H              1 S1                 0.0000
     34 ****        -2.6548   3.8892   0.5215 H              1 S1                 0.0000
     35 ****        -0.5839   2.5651  -0.9042 H              1 S1                 0.0000
     36 ****        -0.6036   2.1124   0.7837 H              1 S1                 0.0000
     37 ****        -0.8165  -0.3191   0.0770 H              1 S1                 0.0000
     38 ****        -0.8391   0.1823  -1.6050 H              1 S1                 0.0000
     39 ****         1.4612   1.3296  -0.6653 H              1 S1                 0.0000
     40 ****         3.5817  -0.4333  -1.6998 H              1 S1                 0.0000
     41 ****         3.5081   0.5261  -0.2587 H              1 S1                 0.0000
     42 ****         4.4308  -2.4641  -1.7308 H              1 S1                 0.0000
     43 ****         5.9627  -4.2931   1.8449 H              1 S1                 0.0000
     44 ****         4.9972  -2.5217   3.1450 H              1 S1                 0.0000
     45 ****        -2.8025   1.7457   1.8729 H              1 S1                 0.0000
     46 ****        -2.7311   0.2063   1.0536 H              1 S1                 0.0000
     47 ****        -2.7737   1.4194  -1.0344 H              1 S1                 0.0000
     48 ****         0.2779  -1.9368  -0.6099 LP             1 S1                 0.0000
     49 ****         1.8760  -2.6047  -0.6021 LP             1 S1                 0.0000
     50 ****         3.0840   0.1952   1.6451 LP             1 S1                 0.0000
     51 ****         3.6966  -0.5162   3.1007 LP             1 S1                 0.0000
@<TRIPOS>BOND
    1    1    2 1     
    2    1   25 1     
    3    1   26 1     
    4    1   27 1     
    5    2   24 1     
    6    2    3 1     
    7    2   28 1     
    8    3    4 1     
    9    3   29 1     
   10    3   30 1     
   11    4    5 1     
   12    4   31 1     
   13    4   32 1     
   14    5    6 1     
   15    5   33 1     
   16    5   34 1     
   17    6    7 1     
   18    6   24 1     
   19    6   47 1     
   20    7    8 1     
   21    7   35 1     
   22    7   36 1     
   23    8    9 1     
   24    8   37 1     
   25    8   38 1     
   26    9   10 am    
   27    9   39 1     
   28   10   11 2     
   29   10   12 1     
   30   12   13 1     
   31   12   40 1     
   32   12   41 1     
   33   13   22 am    
   34   13   14 1     
   35   14   15 2     
   36   14   42 1     
   37   15   16 1     
   38   15   20 1     
   39   16   17 1     
   40   16   18 1     
   41   16   19 1     
   42   20   21 2     
   43   20   43 1     
   44   21   22 1     
   45   21   44 1     
   46   22   23 2     
   47   24   45 1     
   48   24   46 1     
   49   11   48 1     
   50   11   49 1     
   51   23   50 1     
   52   23   51 1     
@<TRIPOS>SUBSTRUCTURE
      1 S1             1
@<TRIPOS>SET
LONE_PAIRS      STATIC     ATOMS    <user>   **** ""
4 48 49 50 51
DONOR_HYDROGENS      STATIC     ATOMS    <user>   **** ""
2 47 39
ATOM$BLUE        STATIC     ATOMS    COLORGROUP SYSTEM
4 48 49 50 51
ATOM$RED        STATIC     ATOMS    COLORGROUP SYSTEM
2 47 39
