#       Name:                AV-unprocessed.smi:334
#       Creating user name   scv26
#       Creation time:       Thu Mar 26 22:28:05 2020


#       File generated by GOLD software.
#

@<TRIPOS>MOLECULE
AV-unprocessed.smi:334
    50    52     1
SMALL
NO_CHARGES


@<TRIPOS>ATOM
      1 ****        -2.4699   1.8369   1.5543 C.3            1 S1                 0.0000
      2 ****        -1.4963   1.3403   0.4721 C.3            1 S1                 0.0000
      3 ****        -0.1368   1.3042   0.9983 N.am           1 S1                 0.0000
      4 ****         0.7227   2.3358   1.0495 C.2            1 S1                 0.0000
      5 ****         0.4050   3.4862   0.7509 O.2            1 S1                 0.0000
      6 ****         2.1758   2.0401   1.4602 C.3            1 S1                 0.0000
      7 ****         2.4928   0.6040   1.5670 N.am           1 S1                 0.0000
      8 ****         2.7796  -0.0673   0.3616 C.2            1 S1                 0.0000
      9 ****         3.0315  -1.3897   0.3200 C.2            1 S1                 0.0000
     10 ****         3.2765  -2.0683  -0.9330 N.pl3          1 S1                 1.0000
     11 ****         3.5928  -3.2532  -0.9080 O.2            1 S1                 0.0000
     12 ****         3.1553  -1.4425  -1.9819 O.2            1 S1                -1.0000
     13 ****         3.0207  -2.1171   1.5741 C.2            1 S1                 0.0000
     14 ****         2.7428  -1.4821   2.7299 C.2            1 S1                 0.0000
     15 ****         2.4428  -0.0470   2.7692 C.2            1 S1                 0.0000
     16 ****         2.1547   0.5301   3.8172 O.2            1 S1                 0.0000
     17 ****        -1.8774  -0.0655  -0.0504 C.3            1 S1                 0.0000
     18 ****        -3.1481  -0.1047  -0.9283 C.3            1 S1                 0.0000
     19 ****        -2.6849  -0.8870  -2.1721 C.3            1 S1                 0.0000
     20 ****        -1.7668   0.0118  -3.0219 C.3            1 S1                 0.0000
     21 ****        -0.4744   0.0618  -2.1869 C.3            1 S1                 0.0000
     22 ****        -0.8369  -0.7833  -0.9493 C.3            1 S1                 0.0000
     23 ****        -1.6912  -1.8786  -1.5781 C.3            1 S1                 0.0000
     24 ****        -3.4916   1.8805   1.1766 H              1 S1                 0.0000
     25 ****        -2.2063   2.8389   1.8937 H              1 S1                 0.0000
     26 ****        -2.4656   1.1797   2.4246 H              1 S1                 0.0000
     27 ****        -1.5283   2.0432  -0.3620 H              1 S1                 0.0000
     28 ****         0.2089   0.3972   1.2756 H              1 S1                 0.0000
     29 ****         2.8371   2.4979   0.7230 H              1 S1                 0.0000
     30 ****         2.3855   2.5682   2.3915 H              1 S1                 0.0000
     31 ****         2.7495   0.5625  -0.5164 H              1 S1                 0.0000
     32 ****         3.2356  -3.1754   1.5955 H              1 S1                 0.0000
     33 ****         2.7394  -2.0435   3.6527 H              1 S1                 0.0000
     34 ****        -2.0440  -0.7073   0.8170 H              1 S1                 0.0000
     35 ****        -3.9522  -0.6305  -0.4118 H              1 S1                 0.0000
     36 ****        -3.5184   0.8871  -1.1910 H              1 S1                 0.0000
     37 ****        -3.5032  -1.3341  -2.7371 H              1 S1                 0.0000
     38 ****        -1.5749  -0.4365  -3.9976 H              1 S1                 0.0000
     39 ****        -2.1941   1.0018  -3.1861 H              1 S1                 0.0000
     40 ****         0.3479  -0.4009  -2.7342 H              1 S1                 0.0000
     41 ****        -0.1676   1.0783  -1.9427 H              1 S1                 0.0000
     42 ****         0.0325  -1.1521  -0.4045 H              1 S1                 0.0000
     43 ****        -2.1380  -2.5560  -0.8480 H              1 S1                 0.0000
     44 ****        -1.1609  -2.4641  -2.3315 H              1 S1                 0.0000
     45 ****        -0.5289   3.6860   0.4541 LP             1 S1                 0.0000
     46 ****         1.0805   4.2215   0.8049 LP             1 S1                 0.0000
     47 ****         3.6765  -3.7300  -0.0330 LP             1 S1                 0.0000
     48 ****         3.7669  -3.7424  -1.7627 LP             1 S1                 0.0000
     49 ****         1.9471   1.5083   3.8086 LP             1 S1                 0.0000
     50 ****         2.1282   0.0209   4.6774 LP             1 S1                 0.0000
@<TRIPOS>BOND
    1    1    2 1     
    2    1   24 1     
    3    1   25 1     
    4    1   26 1     
    5    2    3 1     
    6    2   17 1     
    7    2   27 1     
    8    3    4 am    
    9    3   28 1     
   10    4    5 2     
   11    4    6 1     
   12    6    7 1     
   13    6   29 1     
   14    6   30 1     
   15    7   15 am    
   16    7    8 1     
   17    8    9 2     
   18    8   31 1     
   19    9   10 1     
   20    9   13 1     
   21   10   11 2     
   22   10   12 1     
   23   13   14 2     
   24   13   32 1     
   25   14   15 1     
   26   14   33 1     
   27   15   16 2     
   28   17   22 1     
   29   17   18 1     
   30   17   34 1     
   31   18   19 1     
   32   18   35 1     
   33   18   36 1     
   34   19   23 1     
   35   19   20 1     
   36   19   37 1     
   37   20   21 1     
   38   20   38 1     
   39   20   39 1     
   40   21   22 1     
   41   21   40 1     
   42   21   41 1     
   43   22   23 1     
   44   22   42 1     
   45   23   43 1     
   46   23   44 1     
   47    5   45 1     
   48    5   46 1     
   49   11   47 1     
   50   11   48 1     
   51   16   49 1     
   52   16   50 1     
@<TRIPOS>SUBSTRUCTURE
      1 S1             1
@<TRIPOS>SET
LONE_PAIRS      STATIC     ATOMS    <user>   **** ""
7 45 46 47 48 12 49 50
DONOR_HYDROGENS      STATIC     ATOMS    <user>   **** ""
1 28
ATOM$BLUE        STATIC     ATOMS    COLORGROUP SYSTEM
7 45 46 47 48 12 49 50
ATOM$RED        STATIC     ATOMS    COLORGROUP SYSTEM
1 28
