AV-unprocessed.smi:72|AV-procd|sdf|752|dock5
  -GOLD-   2262017 83D 1   1.00000     0.00000
 Structure written by MMmdl.
 29 30  0  0  0  0  0  0  0  0  1 V2000
  150.8758  138.0151  159.1598 N   0  0  0  0  0  0  0  0  0  0  0  0
  150.4463  138.5795  157.9774 C   0  0  0  0  0  0  0  0  0  0  0  0
  149.0599  138.6483  157.7877 N   0  0  0  0  0  0  0  0  0  0  0  0
  148.6512  139.1916  156.6854 C   0  0  0  0  0  0  0  0  0  0  0  0
  149.5891  139.7286  155.7108 N   0  0  0  0  0  0  0  0  0  0  0  0
  149.1447  140.3486  154.3936 C   0  0  1  0  0  0  0  0  0  0  0  0
  148.5875  139.3762  153.5604 O   0  0  0  0  0  0  0  0  0  0  0  0
  147.1767  139.3462  153.7388 C   0  0  2  0  0  0  0  0  0  0  0  0
  146.5106  138.6616  152.5361 C   0  0  0  0  0  0  0  0  0  0  0  0
  147.3537  138.7450  151.4068 O   0  0  0  0  0  0  0  0  0  0  0  0
  146.8407  140.8330  153.8655 C   0  0  1  0  0  0  0  0  0  0  0  0
  145.6571  141.0060  154.6184 O   0  0  0  0  0  0  0  0  0  0  0  0
  148.0433  141.4112  154.6102 C   0  0  2  0  0  0  0  0  0  0  0  0
  148.4068  142.6574  154.0521 O   0  0  0  0  0  0  0  0  0  0  0  0
  150.9842  139.5733  155.9483 C   0  0  0  0  0  0  0  0  0  0  0  0
  151.8001  139.9492  155.1067 O   0  0  0  0  0  0  0  0  0  0  0  0
  151.3723  138.9866  157.1582 N   0  0  0  0  0  0  0  0  0  0  0  0
  150.0642  140.7335  153.9486 H   0  0  0  0  0  0  0  0  0  0  0  0
  146.9266  138.8319  154.6688 H   0  0  0  0  0  0  0  0  0  0  0  0
  146.7351  141.2822  152.8763 H   0  0  0  0  0  0  0  0  0  0  0  0
  147.8344  141.5276  155.6750 H   0  0  0  0  0  0  0  0  0  0  0  0
  151.8500  137.9105  159.4034 H   0  0  0  0  0  0  0  0  0  0  0  0
  150.2485  137.6605  159.8668 H   0  0  0  0  0  0  0  0  0  0  0  0
  147.5947  139.2723  156.4300 H   0  0  0  0  0  0  0  0  0  0  0  0
  146.3515  137.6038  152.7479 H   0  0  0  0  0  0  0  0  0  0  0  0
  145.5363  139.0995  152.3178 H   0  0  0  0  0  0  0  0  0  0  0  0
  147.9945  139.4227  151.5591 H   0  0  0  0  0  0  0  0  0  0  0  0
  144.9255  141.0395  154.0209 H   0  0  0  0  0  0  0  0  0  0  0  0
  148.7794  143.1944  154.7348 H   0  0  0  0  0  0  0  0  0  0  0  0
  1  2  1  0  0  0  0
  1 22  1  0  0  0  0
  1 23  1  0  0  0  0
  2 17  2  0  0  0  0
  2  3  1  0  0  0  0
  3  4  2  0  0  0  0
  4  5  1  0  0  0  0
  4 24  1  0  0  0  0
  5  6  1  0  0  0  0
  5 15  1  0  0  0  0
  6 18  1  0  0  0  0
  6 13  1  0  0  0  0
  6  7  1  0  0  0  0
  7  8  1  0  0  0  0
  8 19  1  0  0  0  0
  8  9  1  0  0  0  0
  8 11  1  0  0  0  0
  9 10  1  0  0  0  0
  9 25  1  0  0  0  0
  9 26  1  0  0  0  0
 10 27  1  0  0  0  0
 11 20  1  0  0  0  0
 11 12  1  0  0  0  0
 11 13  1  0  0  0  0
 12 28  1  0  0  0  0
 13 21  1  0  0  0  0
 13 14  1  0  0  0  0
 14 29  1  0  0  0  0
 15 16  2  0  0  0  0
 15 17  1  0  0  0  0
M  END
> <s_m_source_file>
AV-unprocessed.smi

> <i_m_source_file_index>
72

> <i_lp_mmshare_version>
43012

> <i_f3d_flags>
0

> <s_epik_input>
W05IMl1jMW5bY0hdbihjKD1PKW4xKVtDQEBIXTJPW0NASF0oW0NIMl1bT0hdKVtDQEBIXShbT0hdKVtDQEhdMltPSF0=

> <s_epik_cmdline>
J2VwaWtfcHl0aG9uJywgJy1waCcsICc3LjAnLCAnLXRuJywgJzgnLCAnLW1hJywgJzIwMCcsICctbWV0YWxfYmluZGluZycsICctaW1hZScsICc8aW5maWxlLm1hZT4nLCAnLW9tYWUnLCAnPG91dGZpbGUubWFlPic=

> <r_lp_tautomer_probability>
4.77166e-05

> <r_epik_Ionization_Penalty>
1.3546

> <r_epik_Ionization_Penalty_Charging>
1.46833e-10

> <r_epik_Ionization_Penalty_Neutral>
1.3546

> <r_epik_State_Penalty>
3.51908

> <r_epik_Charging_Adjusted_Penalty>
3.51908

> <i_epik_Tot_Q>
0

> <i_epik_Tot_abs_Q>
0

> <r_epik_Metal_State_Penalty>
3.44088

> <b_epik_Metal_Only>
1

> <s_epik_Chemistry_Notes>
This compound contains an acetal/aminal-like group ( X-CH(R)-Y where X, Y are N, S, or O) that may be acid/base labile, releasing an aldehyde.

> <s_lp_Force_Field>
OPLS_2005

> <r_lp_Energy>
23.1081

> <b_lp_Chiralities_Consistent>
1

> <s_lp_Variant>
AV-unprocessed.smi:72-90

> <Gold.Version>
5.8.1

> <Gold.Id.Protein>
6NUR|6NUR_protein|mol2

> <Gold.PLP.Fitness>
36.5895

> <Gold.PLP.PLP>
-23.4103

> <Gold.PLP.part.hbond>
-7.7999

> <Gold.PLP.part.metal>
0.0000

> <Gold.PLP.part.buried>
-4.4860

> <Gold.PLP.part.nonpolar>
-14.0462

> <Gold.PLP.part.repulsive>
3.1455

> <Gold.PLP.ligand.clash>
0.0000

> <Gold.PLP.ligand.torsion>
0.6641

> <Gold.PLP.Chemscore.Hbond>
4.8217

> <Gold.PLP.Chemscore.CHOScore>
0.0000

> <Gold.PLP.Chemscore.Metal>
0.0000

> <Gold.Chemscore.Hbonds>
donor molecule, donor type, donor heavy atom, donor atom, acceptor molecule, acceptor atom, score
      L1  H    10    27       P1  7957  0.90
      L1  H    12    28       P1 10175  0.96
      L1  H    14    29       P1  8028  1.00
      P1  H  7954  7966       L1    10  0.91
      P1  H  7989  7998       L1    16  0.96
      P1  H  8011  8017       L1    14  0.04

> <Gold.PLP.Chemscore.Internal.Correction>
0.0422

> <Gold.Rescore>
     Score         DG    S(hbond)    S(metal)    S(lipo)     H(rot)  DE(clash)    DE(int)     intcor
     10.10     -12.21       4.20        0.00      26.47       4.06       1.49       0.62       ----

> <Gold.Chemscore.Fitness>
10.1007

> <Gold.Chemscore.DG>
-12.2109

> <Gold.Chemscore.ZeroCoef>
-5.4800

> <Gold.Chemscore.Hbond>
4.1997

> <Gold.Chemscore.Metal>
0.0000

> <Gold.Chemscore.Lipo>
26.4747

> <Gold.Chemscore.Internal_Hbond>
0.0000

> <Gold.Chemscore.DEClash>
1.4895

> <Gold.Chemscore.DEInternal>
0.6206

> <Gold.Chemscore.Rot>
4.0600

> <Gold.Chemscore.Internal.Correction>
   9.000000E+99

> <Gold.Chemscore.Hbonds>
donor molecule, donor type, donor heavy atom, donor atom, acceptor molecule, acceptor atom, score
      L1  H    10    27       P1  7957  0.87
      L1  H    12    28       P1 10175  0.75
      L1  H    14    29       P1  8028  0.94
      P1  H  7954  7966       L1    10  0.20
      P1  H  7989  7998       L1    16  0.92
      P1  H  8011  8017       L1    14  0.04

> <Gold.Chemscore.Hbond.Weighted>
-14.0269

> <Gold.Chemscore.Metal.Weighted>
-0.0000

> <Gold.Chemscore.Lipo.Weighted>
-3.0975

> <Gold.Chemscore.Internal_Hbond.Weighted>
0.0000

> <Gold.Chemscore.DEClash.Weighted>
1.4895

> <Gold.Chemscore.DEInternal.Weighted>
0.6206

> <Gold.Chemscore.Rot.Weighted>
10.3936

> <Gold.Chemscore.Internal.Correction.Weighted>
   9.000000E+99

> <Gold.Protein.RotatedTorsions>
[ 6907 6896 6895 6894 ] final -147.58 input  -60.11 | X-H torsion
[ 7974 7965 7964 7962 ] final -118.20 input  175.53 | X-H torsion
[ 8008 7997 7996 7995 ] final   75.98 input   59.86 | X-H torsion
[ 10167 10162 10161 10158 ] final  173.57 input  -65.29 | X-H torsion
[ 10718 10713 10712 10709 ] final  -33.93 input   66.30 | X-H torsion
[ 10763 10752 10751 10750 ] final  167.55 input  -60.55 | X-H torsion
[ 11005 11000 10999 10996 ] final  -27.40 input  -57.11 | X-H torsion

> <Gold.Protein.ActiveResidues>
 VAL166  LYS551  ARG553  GLY616  TRP617  ASP618  TYR619  PRO620  LYS621  CYS622 
 ASP623  PHE694  ASN695  SER759  ASP760  ASP761  ALA762  ILE779  LEU786  VAL792 
 PHE793  MET794  SER795  GLU796  ALA797  LYS798  CYS799  TRP800  GLU811  SER814 

> <Gold.Protein.RotatedAtoms>
  151.1576  133.4866  159.2594 H   0  0  0  0  0  0  0  0  0  0  0  0  # atno 6907 bound_to 6896
  151.1488  135.0216  159.8669 H   0  0  0  0  0  0  0  0  0  0  0  0  # atno 6908 bound_to 6896
  152.5463  134.1463  159.8553 H   0  0  0  0  0  0  0  0  0  0  0  0  # atno 6909 bound_to 6896
  145.0765  140.8396  143.4064 H   0  0  0  0  0  0  0  0  0  0  0  0  # atno 7974 bound_to 7965
  155.8207  140.3470  155.5512 H   0  0  0  0  0  0  0  0  0  0  0  0  # atno 8008 bound_to 7997
  155.8345  140.0932  157.1792 H   0  0  0  0  0  0  0  0  0  0  0  0  # atno 8009 bound_to 7997
  154.4004  140.1406  156.3641 H   0  0  0  0  0  0  0  0  0  0  0  0  # atno 8010 bound_to 7997
  139.5113  144.3245  152.0171 H   0  0  0  0  0  0  0  0  0  0  0  0  # atno 10167 bound_to 10162
  156.3567  130.4317  149.7658 H   0  0  0  0  0  0  0  0  0  0  0  0  # atno 10718 bound_to 10713
  154.3556  135.2753  155.2348 H   0  0  0  0  0  0  0  0  0  0  0  0  # atno 10763 bound_to 10752
  154.4559  135.5919  153.6226 H   0  0  0  0  0  0  0  0  0  0  0  0  # atno 10764 bound_to 10752
  152.9847  135.6053  154.3771 H   0  0  0  0  0  0  0  0  0  0  0  0  # atno 10765 bound_to 10752
  140.9116  133.7457  156.0678 H   0  0  0  0  0  0  0  0  0  0  0  0  # atno 11005 bound_to 11000
  145.1229  139.2682  143.5579 LP  0  0  0  0  0  0  0  0  0  0  0  0  # atno 17320 bound_to 7965
  146.3530  140.0858  142.8615 LP  0  0  0  0  0  0  0  0  0  0  0  0  # atno 17321 bound_to 7965
  140.2686  144.3989  150.6159 LP  0  0  0  0  0  0  0  0  0  0  0  0  # atno 17342 bound_to 10162
  140.6105  143.2169  151.6896 LP  0  0  0  0  0  0  0  0  0  0  0  0  # atno 17343 bound_to 10162
  156.4837  130.8053  151.3066 LP  0  0  0  0  0  0  0  0  0  0  0  0  # atno 17370 bound_to 10713
  157.7468  130.9997  150.2900 LP  0  0  0  0  0  0  0  0  0  0  0  0  # atno 17371 bound_to 10713
  140.8103  134.3407  157.5414 LP  0  0  0  0  0  0  0  0  0  0  0  0  # atno 17394 bound_to 11000
  139.8758  134.9250  156.3363 LP  0  0  0  0  0  0  0  0  0  0  0  0  # atno 17395 bound_to 11000

$$$$
