AV-unprocessed.smi:920|AV-procd|sdf|4168|dock1
  -GOLD-   22720 2 73D 1   1.00000     0.00000
 Structure written by MMmdl.
 37 38  0  0  0  0  0  0  0  0  1 V2000
  152.4945  130.9549  157.5910 C   0  0  0  0  0  0  0  0  0  0  0  0
  151.9550  132.2719  157.6186 O   0  0  0  0  0  0  0  0  0  0  0  0
  151.1229  132.6602  156.5886 C   0  0  0  0  0  0  0  0  0  0  0  0
  150.5850  131.6677  155.7453 C   0  0  0  0  0  0  0  0  0  0  0  0
  149.7366  132.0558  154.6907 C   0  0  0  0  0  0  0  0  0  0  0  0
  149.4597  133.4314  154.5073 C   0  0  0  0  0  0  0  0  0  0  0  0
  148.6047  133.9458  153.4958 N   0  0  0  0  0  0  0  0  0  0  0  0
  147.5338  133.3618  152.9317 C   0  0  0  0  0  0  0  0  0  0  0  0
  147.1309  132.2261  153.1827 O   0  0  0  0  0  0  0  0  0  0  0  0
  146.9615  134.1741  152.0313 N   0  0  0  0  0  0  0  0  0  0  0  0
  145.7878  133.8630  151.2194 C   0  0  0  0  0  0  0  0  0  0  0  0
  144.6188  133.4438  152.1314 C   0  0  0  0  0  0  0  0  0  0  0  0
  143.3896  133.0174  151.3122 C   0  0  0  0  0  0  0  0  0  0  0  0
  143.7417  131.9006  150.3169 C   0  0  0  0  0  0  0  0  0  0  0  0
  144.9003  132.3223  149.3996 C   0  0  0  0  0  0  0  0  0  0  0  0
  146.1323  132.7456  150.2161 C   0  0  0  0  0  0  0  0  0  0  0  0
  150.0360  134.3439  155.4148 C   0  0  0  0  0  0  0  0  0  0  0  0
  150.8495  133.9784  156.4277 N   0  0  0  0  0  0  0  0  0  0  0  0
  153.1225  130.8038  158.4688 H   0  0  0  0  0  0  0  0  0  0  0  0
  153.1163  130.7981  156.7082 H   0  0  0  0  0  0  0  0  0  0  0  0
  151.7078  130.1996  157.6135 H   0  0  0  0  0  0  0  0  0  0  0  0
  150.8150  130.6249  155.9073 H   0  0  0  0  0  0  0  0  0  0  0  0
  149.3069  131.2949  154.0579 H   0  0  0  0  0  0  0  0  0  0  0  0
  148.8698  134.8448  153.1209 H   0  0  0  0  0  0  0  0  0  0  0  0
  147.3725  135.0858  151.8935 H   0  0  0  0  0  0  0  0  0  0  0  0
  145.4765  134.7407  150.6500 H   0  0  0  0  0  0  0  0  0  0  0  0
  144.9276  132.6170  152.7729 H   0  0  0  0  0  0  0  0  0  0  0  0
  144.3497  134.2663  152.7952 H   0  0  0  0  0  0  0  0  0  0  0  0
  142.5952  132.6831  151.9801 H   0  0  0  0  0  0  0  0  0  0  0  0
  142.9960  133.8783  150.7704 H   0  0  0  0  0  0  0  0  0  0  0  0
  144.0168  130.9968  150.8623 H   0  0  0  0  0  0  0  0  0  0  0  0
  142.8668  131.6463  149.7180 H   0  0  0  0  0  0  0  0  0  0  0  0
  145.1617  131.5029  148.7296 H   0  0  0  0  0  0  0  0  0  0  0  0
  144.5810  133.1502  148.7651 H   0  0  0  0  0  0  0  0  0  0  0  0
  146.9218  133.0799  149.5418 H   0  0  0  0  0  0  0  0  0  0  0  0
  146.5267  131.8784  150.7480 H   0  0  0  0  0  0  0  0  0  0  0  0
  149.8430  135.4029  155.3242 H   0  0  0  0  0  0  0  0  0  0  0  0
  1  2  1  0  0  0  0
  1 19  1  0  0  0  0
  1 20  1  0  0  0  0
  1 21  1  0  0  0  0
  2  3  1  0  0  0  0
  3 18  1  0  0  0  0
  3  4  2  0  0  0  0
  4  5  1  0  0  0  0
  4 22  1  0  0  0  0
  5  6  2  0  0  0  0
  5 23  1  0  0  0  0
  6  7  1  0  0  0  0
  6 17  1  0  0  0  0
  7  8  1  0  0  0  0
  7 24  1  0  0  0  0
  8  9  2  0  0  0  0
  8 10  1  0  0  0  0
 10 11  1  0  0  0  0
 10 25  1  0  0  0  0
 11 16  1  0  0  0  0
 11 12  1  0  0  0  0
 11 26  1  0  0  0  0
 12 13  1  0  0  0  0
 12 27  1  0  0  0  0
 12 28  1  0  0  0  0
 13 14  1  0  0  0  0
 13 29  1  0  0  0  0
 13 30  1  0  0  0  0
 14 15  1  0  0  0  0
 14 31  1  0  0  0  0
 14 32  1  0  0  0  0
 15 16  1  0  0  0  0
 15 33  1  0  0  0  0
 15 34  1  0  0  0  0
 16 35  1  0  0  0  0
 16 36  1  0  0  0  0
 17 18  2  0  0  0  0
 17 37  1  0  0  0  0
M  END
> <s_m_source_file>
AV-unprocessed.smi

> <i_m_source_file_index>
920

> <i_lp_mmshare_version>
43012

> <i_f3d_flags>
0

> <s_epik_input>
W0NIM11PYzFbY0hdW2NIXWMoW2NIXW4xKVtOSF1DKD1PKVtOSF1bQ0hdMltDSDJdW0NIMl1bQ0gyXVtDSDJdW0NIMl0y

> <s_epik_cmdline>
J2VwaWtfcHl0aG9uJywgJy1waCcsICc3LjAnLCAnLXRuJywgJzgnLCAnLW1hJywgJzIwMCcsICctbWV0YWxfYmluZGluZycsICctaW1hZScsICc8aW5maWxlLm1hZT4nLCAnLW9tYWUnLCAnPG91dGZpbGUubWFlPic=

> <r_lp_tautomer_probability>
1

> <r_epik_Ionization_Penalty>
9.99378e-05

> <r_epik_Ionization_Penalty_Charging>
0

> <r_epik_Ionization_Penalty_Neutral>
9.99378e-05

> <r_epik_State_Penalty>
-0

> <r_epik_Charging_Adjusted_Penalty>
0

> <i_epik_Tot_Q>
0

> <i_epik_Tot_abs_Q>
0

> <r_epik_Metal_State_Penalty>
-0

> <b_epik_Metal_Only>
0

> <s_lp_Force_Field>
OPLS_2005

> <r_lp_Energy>
12.0005

> <b_lp_Chiralities_Consistent>
1

> <s_lp_Variant>
AV-unprocessed.smi:920-1

> <Gold.Version>
5.8.1

> <Gold.Id.Protein>
6NUR|6NUR_protein|mol2

> <Gold.PLP.Fitness>
41.9656

> <Gold.PLP.PLP>
-34.1943

> <Gold.PLP.part.hbond>
-3.0000

> <Gold.PLP.part.metal>
0.0000

> <Gold.PLP.part.buried>
-4.7665

> <Gold.PLP.part.nonpolar>
-27.0106

> <Gold.PLP.part.repulsive>
0.1312

> <Gold.PLP.ligand.clash>
0.0088

> <Gold.PLP.ligand.torsion>
0.4318

> <Gold.PLP.Chemscore.Hbond>
2.8760

> <Gold.PLP.Chemscore.CHOScore>
0.0000

> <Gold.PLP.Chemscore.Metal>
0.0000

> <Gold.Chemscore.Hbonds>
donor molecule, donor type, donor heavy atom, donor atom, acceptor molecule, acceptor atom, score
      L1  H     7    24       P1  7948  0.90
      L1  H    10    25       P1  7948  0.98
      P1  H  6896  6909       L1     2  1.00

> <Gold.PLP.Chemscore.Internal.Correction>
0.0156

> <Gold.Rescore>
     Score         DG    S(hbond)    S(metal)    S(lipo)     H(rot)  DE(clash)    DE(int)     intcor
     16.64     -18.52       2.21        0.00      75.27       1.23       0.02       1.86       ----

> <Gold.Chemscore.Fitness>
16.6413

> <Gold.Chemscore.DG>
-18.5223

> <Gold.Chemscore.ZeroCoef>
-5.4800

> <Gold.Chemscore.Hbond>
2.2070

> <Gold.Chemscore.Metal>
0.0000

> <Gold.Chemscore.Lipo>
75.2716

> <Gold.Chemscore.Internal_Hbond>
0.0000

> <Gold.Chemscore.DEClash>
0.0221

> <Gold.Chemscore.DEInternal>
1.8588

> <Gold.Chemscore.Rot>
1.2250

> <Gold.Chemscore.Internal.Correction>
   9.000000E+99

> <Gold.Chemscore.Hbonds>
donor molecule, donor type, donor heavy atom, donor atom, acceptor molecule, acceptor atom, score
      L1  H     7    24       P1  7948  0.18
      L1  H    10    25       P1  7948  0.88
      P1  H  6896  6909       L1     2  0.86

> <Gold.Chemscore.Hbond.Weighted>
-7.3715

> <Gold.Chemscore.Metal.Weighted>
-0.0000

> <Gold.Chemscore.Lipo.Weighted>
-8.8068

> <Gold.Chemscore.Internal_Hbond.Weighted>
0.0000

> <Gold.Chemscore.DEClash.Weighted>
0.0221

> <Gold.Chemscore.DEInternal.Weighted>
1.8588

> <Gold.Chemscore.Rot.Weighted>
3.1360

> <Gold.Chemscore.Internal.Correction.Weighted>
   9.000000E+99

> <Gold.Protein.RotatedTorsions>
[ 6907 6896 6895 6894 ] final  -76.57 input  -60.11 | X-H torsion
[ 7974 7965 7964 7962 ] final -149.52 input  175.53 | X-H torsion
[ 8008 7997 7996 7995 ] final  -33.34 input   59.86 | X-H torsion
[ 10167 10162 10161 10158 ] final    5.55 input  -65.29 | X-H torsion
[ 10718 10713 10712 10709 ] final   59.50 input   66.30 | X-H torsion
[ 10763 10752 10751 10750 ] final -103.10 input  -60.55 | X-H torsion
[ 11005 11000 10999 10996 ] final    1.40 input  -57.11 | X-H torsion

> <Gold.Protein.ActiveResidues>
 VAL166  LYS551  ARG553  GLY616  TRP617  ASP618  TYR619  PRO620  LYS621  CYS622 
 ASP623  PHE694  ASN695  SER759  ASP760  ASP761  ALA762  ILE779  LEU786  VAL792 
 PHE793  MET794  SER795  GLU796  ALA797  LYS798  CYS799  TRP800  GLU811  SER814 

> <Gold.Protein.RotatedAtoms>
  150.7023  134.4552  159.5354 H   0  0  0  0  0  0  0  0  0  0  0  0  # atno 6907 bound_to 6896
  152.2237  134.8386  160.0492 H   0  0  0  0  0  0  0  0  0  0  0  0  # atno 6908 bound_to 6896
  151.9227  133.3555  159.3939 H   0  0  0  0  0  0  0  0  0  0  0  0  # atno 6909 bound_to 6896
  144.7963  140.5054  143.5738 H   0  0  0  0  0  0  0  0  0  0  0  0  # atno 7974 bound_to 7965
  154.4152  140.1713  156.1872 H   0  0  0  0  0  0  0  0  0  0  0  0  # atno 8008 bound_to 7997
  155.9633  140.3391  155.6486 H   0  0  0  0  0  0  0  0  0  0  0  0  # atno 8009 bound_to 7997
  155.6720  140.0713  157.2507 H   0  0  0  0  0  0  0  0  0  0  0  0  # atno 8010 bound_to 7997
  140.6476  143.7624  150.7523 H   0  0  0  0  0  0  0  0  0  0  0  0  # atno 10167 bound_to 10162
  157.5680  130.8886  149.9220 H   0  0  0  0  0  0  0  0  0  0  0  0  # atno 10718 bound_to 10713
  154.7783  135.4836  153.9790 H   0  0  0  0  0  0  0  0  0  0  0  0  # atno 10763 bound_to 10752
  153.1458  135.6781  153.8964 H   0  0  0  0  0  0  0  0  0  0  0  0  # atno 10764 bound_to 10752
  153.8624  135.3153  155.3417 H   0  0  0  0  0  0  0  0  0  0  0  0  # atno 10765 bound_to 10752
  140.6159  133.9706  155.8200 H   0  0  0  0  0  0  0  0  0  0  0  0  # atno 11005 bound_to 11000
  145.5666  139.1481  143.3311 LP  0  0  0  0  0  0  0  0  0  0  0  0  # atno 17320 bound_to 7965
  146.2231  140.5801  142.9008 LP  0  0  0  0  0  0  0  0  0  0  0  0  # atno 17321 bound_to 7965
  140.1269  143.4561  152.2279 LP  0  0  0  0  0  0  0  0  0  0  0  0  # atno 17342 bound_to 10162
  139.5688  144.7450  151.3949 LP  0  0  0  0  0  0  0  0  0  0  0  0  # atno 17343 bound_to 10162
  156.0727  130.3683  150.0742 LP  0  0  0  0  0  0  0  0  0  0  0  0  # atno 17370 bound_to 10713
  156.8898  130.9585  151.3590 LP  0  0  0  0  0  0  0  0  0  0  0  0  # atno 17371 bound_to 10713
  141.0776  134.0111  157.3434 LP  0  0  0  0  0  0  0  0  0  0  0  0  # atno 17394 bound_to 11000
  139.9173  135.0198  156.7930 LP  0  0  0  0  0  0  0  0  0  0  0  0  # atno 17395 bound_to 11000

$$$$
