#       Name:                AV-unprocessed.smi:2848
#       Creating user name   scv26
#       Creation time:       Fri Mar 27 15:41:06 2020


#       File generated by GOLD software.
#

@<TRIPOS>MOLECULE
AV-unprocessed.smi:2848
    31    32     1
SMALL
NO_CHARGES


@<TRIPOS>ATOM
      1 ****        -3.4486  -0.0233  -0.7180 Cl             1 S1                 0.0000
      2 ****        -2.6121   1.4378  -0.3240 C.ar           1 S1                 0.0000
      3 ****        -3.3246   2.6546  -0.3037 C.ar           1 S1                 0.0000
      4 ****        -2.6879   3.8053   0.0006 N.pl3          1 S1                 1.0000
      5 ****        -1.3717   3.8539   0.2952 C.ar           1 S1                 0.0000
      6 ****        -0.6059   2.6704   0.2923 C.ar           1 S1                 0.0000
      7 ****        -1.2275   1.4360  -0.0227 C.ar           1 S1                 0.0000
      8 ****        -0.5207   0.2240  -0.0489 N.pl3          1 S1                 0.0000
      9 ****         0.8626   0.1434   0.3968 C.3            1 S1                 0.0000
     10 ****         1.4536  -1.2421   0.2297 C.2            1 S1                 0.0000
     11 ****         2.3323  -1.8019   1.0868 C.2            1 S1                 0.0000
     12 ****         2.7979  -3.0862   0.9618 O.3            1 S1                 0.0000
     13 ****         2.0680  -3.8878   0.0393 C.3            1 S1                 0.0000
     14 ****         1.7317  -3.0823  -1.2265 C.3            1 S1                 0.0000
     15 ****         1.0151  -1.8955  -0.8983 O.3            1 S1                 0.0000
     16 ****        -4.3792   2.7407  -0.5213 H              1 S1                 0.0000
     17 ****        -0.9721   4.8316   0.5226 H              1 S1                 0.0000
     18 ****         0.4456   2.7303   0.5300 H              1 S1                 0.0000
     19 ****        -1.0297  -0.6393  -0.1802 H              1 S1                 0.0000
     20 ****         1.4741   0.8387  -0.1789 H              1 S1                 0.0000
     21 ****         0.9239   0.4388   1.4451 H              1 S1                 0.0000
     22 ****         2.7078  -1.3188   1.9770 H              1 S1                 0.0000
     23 ****         2.6577  -4.7689  -0.2142 H              1 S1                 0.0000
     24 ****         1.1535  -4.2410   0.5178 H              1 S1                 0.0000
     25 ****         2.6460  -2.8096  -1.7553 H              1 S1                 0.0000
     26 ****         1.1328  -3.6819  -1.9121 H              1 S1                 0.0000
     27 ****        -3.2237   4.6737   0.0080 H              1 S1                 0.0000
     28 ****         2.7540  -3.5239   1.8599 LP             1 S1                 0.0000
     29 ****         3.7495  -3.0459   0.6569 LP             1 S1                 0.0000
     30 ****         1.0903  -1.2647  -1.6706 LP             1 S1                 0.0000
     31 ****         0.0556  -2.1411  -0.7607 LP             1 S1                 0.0000
@<TRIPOS>BOND
    1    1    2 1     
    2    2    7 ar    
    3    2    3 ar    
    4    3    4 ar    
    5    3   16 1     
    6    4    5 ar    
    7    4   27 1     
    8    5    6 ar    
    9    5   17 1     
   10    6    7 ar    
   11    6   18 1     
   12    7    8 1     
   13    8    9 1     
   14    8   19 1     
   15    9   10 1     
   16    9   20 1     
   17    9   21 1     
   18   10   15 1     
   19   10   11 2     
   20   11   12 1     
   21   11   22 1     
   22   12   13 1     
   23   13   14 1     
   24   13   23 1     
   25   13   24 1     
   26   14   15 1     
   27   14   25 1     
   28   14   26 1     
   29   12   28 1     
   30   12   29 1     
   31   15   30 1     
   32   15   31 1     
@<TRIPOS>SUBSTRUCTURE
      1 S1             1
@<TRIPOS>SET
LONE_PAIRS      STATIC     ATOMS    <user>   **** ""
4 28 29 30 31
DONOR_HYDROGENS      STATIC     ATOMS    <user>   **** ""
2 27 19
ATOM$BLUE        STATIC     ATOMS    COLORGROUP SYSTEM
4 28 29 30 31
ATOM$RED        STATIC     ATOMS    COLORGROUP SYSTEM
2 27 19
