AV-unprocessed.smi:1230|AV-procd|sdf|5155|dock3
  -GOLD-   22720 4223D 1   1.00000     0.00000
 Structure written by MMmdl.
 38 39  0  0  0  0  0  0  0  0  2 V2000
  145.4404  129.9729  151.9196 C   0  0  0  0  0  0  0  0  0  0  0  0
  145.5701  131.3143  151.1796 C   0  0  1  0  0  0  0  0  0  0  0  0
  144.2610  131.6543  150.4391 C   0  0  0  0  0  0  0  0  0  0  0  0
  144.3575  132.9949  149.6957 C   0  0  0  0  0  0  0  0  0  0  0  0
  144.7439  134.1287  150.6550 C   0  0  0  0  0  0  0  0  0  0  0  0
  146.0545  133.8069  151.3877 C   0  0  0  0  0  0  0  0  0  0  0  0
  145.9724  132.4595  152.1368 C   0  0  2  0  0  0  0  0  0  0  0  0
  147.2468  132.1418  152.6830 O   0  0  0  0  0  0  0  0  0  0  0  0
  147.7393  133.0888  153.6186 C   0  0  0  0  0  0  0  0  0  0  0  0
  149.1122  132.6132  154.1144 C   0  0  0  0  0  0  0  0  0  0  0  0
  149.6367  133.4912  155.1682 N   0  0  0  0  0  0  0  0  0  0  0  0
  149.7655  134.8584  154.8704 C   0  0  0  0  0  0  0  0  0  0  0  0
  150.2371  135.7370  155.7753 C   0  0  0  0  0  0  0  0  0  0  0  0
  150.3779  137.1287  155.4986 C   0  0  0  0  0  0  0  0  0  0  0  0
  150.5128  138.2519  155.2514 N   0  0  0  0  0  0  0  0  0  0  0  0
  150.6233  135.2434  157.0949 C   0  0  0  0  0  0  0  0  0  0  0  0
  151.0500  136.0251  157.9439 O   0  0  0  0  0  0  0  0  0  0  0  0
  150.4883  133.9040  157.3257 N   0  5  0  0  0  0  0  0  0  0  0  0
  150.0096  133.0194  156.3957 C   0  0  0  0  0  0  0  0  0  0  0  0
  149.9047  131.8147  156.6267 O   0  0  0  0  0  0  0  0  0  0  0  0
  144.6726  130.0193  152.6925 H   0  0  0  0  0  0  0  0  0  0  0  0
  146.3781  129.6910  152.3990 H   0  0  0  0  0  0  0  0  0  0  0  0
  145.1723  129.1703  151.2321 H   0  0  0  0  0  0  0  0  0  0  0  0
  146.3576  131.2056  150.4322 H   0  0  0  0  0  0  0  0  0  0  0  0
  144.0182  130.8627  149.7295 H   0  0  0  0  0  0  0  0  0  0  0  0
  143.4347  131.6937  151.1503 H   0  0  0  0  0  0  0  0  0  0  0  0
  145.0981  132.9201  148.8983 H   0  0  0  0  0  0  0  0  0  0  0  0
  143.4061  133.2229  149.2143 H   0  0  0  0  0  0  0  0  0  0  0  0
  144.8463  135.0639  150.1038 H   0  0  0  0  0  0  0  0  0  0  0  0
  143.9458  134.2829  151.3823 H   0  0  0  0  0  0  0  0  0  0  0  0
  146.8729  133.7741  150.6672 H   0  0  0  0  0  0  0  0  0  0  0  0
  146.2859  134.6175  152.0782 H   0  0  0  0  0  0  0  0  0  0  0  0
  145.2255  132.5251  152.9306 H   0  0  0  0  0  0  0  0  0  0  0  0
  147.8257  134.0745  153.1614 H   0  0  0  0  0  0  0  0  0  0  0  0
  147.0479  133.1740  154.4582 H   0  0  0  0  0  0  0  0  0  0  0  0
  149.0302  131.5908  154.4857 H   0  0  0  0  0  0  0  0  0  0  0  0
  149.8120  132.5570  153.2790 H   0  0  0  0  0  0  0  0  0  0  0  0
  149.4640  135.1432  153.8729 H   0  0  0  0  0  0  0  0  0  0  0  0
  1  2  1  0  0  0  0
  1 21  1  0  0  0  0
  1 22  1  0  0  0  0
  1 23  1  0  0  0  0
  2  7  1  0  0  0  0
  2  3  1  0  0  0  0
  2 24  1  0  0  0  0
  3  4  1  0  0  0  0
  3 25  1  0  0  0  0
  3 26  1  0  0  0  0
  4  5  1  0  0  0  0
  4 27  1  0  0  0  0
  4 28  1  0  0  0  0
  5  6  1  0  0  0  0
  5 29  1  0  0  0  0
  5 30  1  0  0  0  0
  6  7  1  0  0  0  0
  6 31  1  0  0  0  0
  6 32  1  0  0  0  0
  7  8  1  0  0  0  0
  7 33  1  0  0  0  0
  8  9  1  0  0  0  0
  9 10  1  0  0  0  0
  9 34  1  0  0  0  0
  9 35  1  0  0  0  0
 10 11  1  0  0  0  0
 10 36  1  0  0  0  0
 10 37  1  0  0  0  0
 11 19  1  0  0  0  0
 11 12  1  0  0  0  0
 12 13  2  0  0  0  0
 12 38  1  0  0  0  0
 13 14  1  0  0  0  0
 13 16  1  0  0  0  0
 14 15  3  0  0  0  0
 16 17  2  0  0  0  0
 16 18  1  0  0  0  0
 18 19  1  0  0  0  0
 19 20  2  0  0  0  0
M  CHG  1  18  -1
M  END
> <s_m_source_file>
AV-unprocessed.smi

> <i_m_source_file_index>
1230

> <i_lp_mmshare_version>
43012

> <i_f3d_flags>
0

> <s_epik_input>
W0NIM11bQ0BASF0xW0NIMl1bQ0gyXVtDSDJdW0NIMl1bQ0BIXTFPW0NIMl1bQ0gyXW4yW2NIXWMoQyNOKWMoPU8pW25IXWMyPU8=

> <s_epik_cmdline>
J2VwaWtfcHl0aG9uJywgJy1waCcsICc3LjAnLCAnLXRuJywgJzgnLCAnLW1hJywgJzIwMCcsICctbWV0YWxfYmluZGluZycsICctaW1hZScsICc8aW5maWxlLm1hZT4nLCAnLW9tYWUnLCAnPG91dGZpbGUubWFlPic=

> <r_epik_Ionization_Penalty>
0.400014

> <r_epik_Ionization_Penalty_Charging>
4.81474e-10

> <r_epik_Ionization_Penalty_Neutral>
0.400014

> <r_epik_State_Penalty>
0.399305

> <r_epik_Charging_Adjusted_Penalty>
0.399305

> <i_epik_Tot_Q>
-1

> <i_epik_Tot_abs_Q>
1

> <r_epik_Metal_State_Penalty>
0.00056968

> <b_epik_Metal_Only>
0

> <s_lp_Force_Field>
OPLS_2005

> <r_lp_Energy>
22.5171

> <b_lp_Chiralities_Consistent>
1

> <s_lp_Variant>
AV-unprocessed.smi:1230-4

> <Gold.Version>
5.8.1

> <Gold.Id.Protein>
6NUR|6NUR_protein|mol2

> <Gold.PLP.Fitness>
41.6821

> <Gold.PLP.PLP>
-34.3150

> <Gold.PLP.part.hbond>
-2.0000

> <Gold.PLP.part.metal>
0.0000

> <Gold.PLP.part.buried>
-5.3690

> <Gold.PLP.part.nonpolar>
-29.6211

> <Gold.PLP.part.repulsive>
0.2392

> <Gold.PLP.ligand.clash>
0.0000

> <Gold.PLP.ligand.torsion>
0.0223

> <Gold.PLP.Chemscore.Hbond>
1.6646

> <Gold.PLP.Chemscore.CHOScore>
0.8032

> <Gold.PLP.Chemscore.Metal>
0.0000

> <Gold.Chemscore.Hbonds>
donor molecule, donor type, donor heavy atom, donor atom, acceptor molecule, acceptor atom, score
      P1  H  6896  6907       L1    17  0.28
      P1  H  6896  6909       L1    18  1.41
      L1  C    12    38       P1  7948  0.88

> <Gold.PLP.Chemscore.Internal.Correction>
0.0083

> <Gold.Rescore>
     Score         DG    S(hbond)    S(metal)    S(lipo)     H(rot)  DE(clash)    DE(int)     intcor
     12.07     -12.73       0.82        0.00      80.13       1.90       0.64       0.02       ----

> <Gold.Chemscore.Fitness>
12.0664

> <Gold.Chemscore.DG>
-12.7333

> <Gold.Chemscore.ZeroCoef>
-5.4800

> <Gold.Chemscore.Hbond>
0.8198

> <Gold.Chemscore.Metal>
0.0000

> <Gold.Chemscore.Lipo>
80.1292

> <Gold.Chemscore.Internal_Hbond>
0.0000

> <Gold.Chemscore.DEClash>
0.6443

> <Gold.Chemscore.DEInternal>
0.0227

> <Gold.Chemscore.Rot>
1.8984

> <Gold.Chemscore.Internal.Correction>
   9.000000E+99

> <Gold.Chemscore.Hbonds>
donor molecule, donor type, donor heavy atom, donor atom, acceptor molecule, acceptor atom, score
      P1  H  6896  6907       L1    17  0.23
      P1  H  6896  6909       L1    18  0.41

> <Gold.Chemscore.Hbond.Weighted>
-2.7380

> <Gold.Chemscore.Metal.Weighted>
-0.0000

> <Gold.Chemscore.Lipo.Weighted>
-9.3751

> <Gold.Chemscore.Internal_Hbond.Weighted>
0.0000

> <Gold.Chemscore.DEClash.Weighted>
0.6443

> <Gold.Chemscore.DEInternal.Weighted>
0.0227

> <Gold.Chemscore.Rot.Weighted>
4.8598

> <Gold.Chemscore.Internal.Correction.Weighted>
   9.000000E+99

> <Gold.Protein.RotatedTorsions>
[ 6907 6896 6895 6894 ] final  -17.48 input  -60.11 | X-H torsion
[ 7974 7965 7964 7962 ] final -167.56 input  175.53 | X-H torsion
[ 8008 7997 7996 7995 ] final   58.02 input   59.86 | X-H torsion
[ 10167 10162 10161 10158 ] final   90.79 input  -65.29 | X-H torsion
[ 10718 10713 10712 10709 ] final   65.52 input   66.30 | X-H torsion
[ 10763 10752 10751 10750 ] final   10.65 input  -60.55 | X-H torsion
[ 11005 11000 10999 10996 ] final -138.64 input  -57.11 | X-H torsion

> <Gold.Protein.ActiveResidues>
 VAL166  LYS551  ARG553  GLY616  TRP617  ASP618  TYR619  PRO620  LYS621  CYS622 
 ASP623  PHE694  ASN695  SER759  ASP760  ASP761  ALA762  ILE779  LEU786  VAL792 
 PHE793  MET794  SER795  GLU796  ALA797  LYS798  CYS799  TRP800  GLU811  SER814 

> <Gold.Protein.RotatedAtoms>
  151.2927  135.0746  159.9209 H   0  0  0  0  0  0  0  0  0  0  0  0  # atno 6907 bound_to 6896
  152.5313  133.9915  159.7863 H   0  0  0  0  0  0  0  0  0  0  0  0  # atno 6908 bound_to 6896
  151.0187  133.5845  159.2704 H   0  0  0  0  0  0  0  0  0  0  0  0  # atno 6909 bound_to 6896
  144.7221  140.2501  143.6279 H   0  0  0  0  0  0  0  0  0  0  0  0  # atno 7974 bound_to 7965
  155.5432  140.3485  155.4451 H   0  0  0  0  0  0  0  0  0  0  0  0  # atno 8008 bound_to 7997
  156.0636  140.1346  156.9938 H   0  0  0  0  0  0  0  0  0  0  0  0  # atno 8009 bound_to 7997
  154.4492  140.0980  156.6539 H   0  0  0  0  0  0  0  0  0  0  0  0  # atno 8010 bound_to 7997
  139.8439  144.6627  150.9250 H   0  0  0  0  0  0  0  0  0  0  0  0  # atno 10167 bound_to 10162
  157.6110  130.9218  149.9987 H   0  0  0  0  0  0  0  0  0  0  0  0  # atno 10718 bound_to 10713
  153.2010  135.6856  153.8232 H   0  0  0  0  0  0  0  0  0  0  0  0  # atno 10763 bound_to 10752
  153.7498  135.3225  155.3320 H   0  0  0  0  0  0  0  0  0  0  0  0  # atno 10764 bound_to 10752
  154.8171  135.4678  154.0776 H   0  0  0  0  0  0  0  0  0  0  0  0  # atno 10765 bound_to 10752
  140.8596  134.2185  157.4715 H   0  0  0  0  0  0  0  0  0  0  0  0  # atno 11005 bound_to 11000
  145.8236  139.2054  143.1923 LP  0  0  0  0  0  0  0  0  0  0  0  0  # atno 17320 bound_to 7965
  146.0492  140.8086  142.9790 LP  0  0  0  0  0  0  0  0  0  0  0  0  # atno 17321 bound_to 7965
  140.7795  143.3888  151.1346 LP  0  0  0  0  0  0  0  0  0  0  0  0  # atno 17342 bound_to 10162
  139.7532  143.8747  152.3082 LP  0  0  0  0  0  0  0  0  0  0  0  0  # atno 17343 bound_to 10162
  156.1213  130.3646  149.9882 LP  0  0  0  0  0  0  0  0  0  0  0  0  # atno 17370 bound_to 10713
  156.7961  130.9274  151.3646 LP  0  0  0  0  0  0  0  0  0  0  0  0  # atno 17371 bound_to 10713
  139.8706  134.9723  156.4768 LP  0  0  0  0  0  0  0  0  0  0  0  0  # atno 17394 bound_to 11000
  140.8697  133.7997  155.9352 LP  0  0  0  0  0  0  0  0  0  0  0  0  # atno 17395 bound_to 11000

$$$$
