AV-unprocessed.smi:266|AV-procd|sdf|2037|dock9
  -GOLD-   2262021253D 1   1.00000     0.00000
 Structure written by MMmdl.
 52 55  0  0  0  0  0  0  0  0  1 V2000
  144.6257  131.8029  149.1774 C   0  0  0  0  0  0  0  0  0  0  0  0
  144.1510  132.5589  150.4306 C   0  0  2  0  0  0  0  0  0  0  0  0
  143.5688  133.7819  149.9751 O   0  0  0  0  0  0  0  0  0  0  0  0
  144.1359  134.8901  150.6589 C   0  0  0  0  0  0  0  0  0  0  0  0
  145.5240  134.4068  151.0489 C   0  0  0  0  0  0  0  0  0  0  0  0
  145.2602  132.9564  151.4379 C   0  0  2  0  0  0  0  0  0  0  0  0
  146.4524  132.2108  151.2642 O   0  0  0  0  0  0  0  0  0  0  0  0
  144.7751  132.7695  152.9010 C   0  0  0  0  0  0  0  0  0  0  0  0
  145.4329  133.6361  153.8676 N   0  0  0  0  0  0  0  0  0  0  0  0
  146.6462  133.4131  154.4775 C   0  0  0  0  0  0  0  0  0  0  0  0
  147.0283  134.3410  155.3108 N   0  0  0  0  0  0  0  0  0  0  0  0
  146.0134  135.2899  155.2583 C   0  0  0  0  0  0  0  0  0  0  0  0
  145.7811  136.5455  155.8939 C   0  0  0  0  0  0  0  0  0  0  0  0
  146.6105  137.1451  156.7827 N   0  0  0  0  0  0  0  0  0  0  0  0
  147.2991  136.1897  157.6395 C   0  0  0  0  0  0  0  0  0  0  0  0
  147.3656  138.3277  156.3695 C   0  0  0  0  0  0  0  0  0  0  0  0
  148.8975  138.1417  156.4150 C   0  0  1  0  0  0  0  0  0  0  0  0
  149.4730  137.5329  155.1198 C   0  0  0  0  0  0  0  0  0  0  0  0
  150.9989  137.6672  155.1520 C   0  0  0  0  0  0  0  0  0  0  0  0
  151.3399  139.2274  156.0490 S   0  0  0  0  0  0  0  0  0  0  0  0
  152.2349  138.9417  157.1805 O   0  0  0  0  0  0  0  0  0  0  0  0
  151.6542  140.2925  155.0846 O   0  0  0  0  0  0  0  0  0  0  0  0
  149.6309  139.4672  156.6663 C   0  0  0  0  0  0  0  0  0  0  0  0
  144.6283  137.1970  155.5970 N   0  0  0  0  0  0  0  0  0  0  0  0
  143.7645  136.6741  154.7224 C   0  0  0  0  0  0  0  0  0  0  0  0
  143.8530  135.5270  154.0473 N   0  0  0  0  0  0  0  0  0  0  0  0
  145.0013  134.8584  154.3534 C   0  0  0  0  0  0  0  0  0  0  0  0
  145.0458  130.8304  149.4352 H   0  0  0  0  0  0  0  0  0  0  0  0
  145.3856  132.3672  148.6358 H   0  0  0  0  0  0  0  0  0  0  0  0
  143.7944  131.6272  148.4942 H   0  0  0  0  0  0  0  0  0  0  0  0
  143.3803  131.9639  150.9229 H   0  0  0  0  0  0  0  0  0  0  0  0
  144.1606  135.7787  150.0278 H   0  0  0  0  0  0  0  0  0  0  0  0
  143.5392  135.1163  151.5434 H   0  0  0  0  0  0  0  0  0  0  0  0
  146.1718  134.4529  150.1719 H   0  0  0  0  0  0  0  0  0  0  0  0
  145.9882  135.0129  151.8255 H   0  0  0  0  0  0  0  0  0  0  0  0
  146.5553  131.6321  152.0044 H   0  0  0  0  0  0  0  0  0  0  0  0
  143.7016  132.9501  152.9694 H   0  0  0  0  0  0  0  0  0  0  0  0
  144.9225  131.7351  153.2147 H   0  0  0  0  0  0  0  0  0  0  0  0
  147.2384  132.5289  154.2908 H   0  0  0  0  0  0  0  0  0  0  0  0
  146.5896  135.5734  158.1929 H   0  0  0  0  0  0  0  0  0  0  0  0
  147.9252  136.7060  158.3677 H   0  0  0  0  0  0  0  0  0  0  0  0
  147.9379  135.5338  157.0467 H   0  0  0  0  0  0  0  0  0  0  0  0
  147.0727  138.5820  155.3503 H   0  0  0  0  0  0  0  0  0  0  0  0
  147.0678  139.1792  156.9810 H   0  0  0  0  0  0  0  0  0  0  0  0
  149.1667  137.4761  157.2355 H   0  0  0  0  0  0  0  0  0  0  0  0
  149.1713  136.4929  154.9914 H   0  0  0  0  0  0  0  0  0  0  0  0
  149.0873  138.0846  154.2613 H   0  0  0  0  0  0  0  0  0  0  0  0
  151.4473  136.8492  155.7160 H   0  0  0  0  0  0  0  0  0  0  0  0
  151.4470  137.6950  154.1586 H   0  0  0  0  0  0  0  0  0  0  0  0
  149.1824  140.2794  156.0933 H   0  0  0  0  0  0  0  0  0  0  0  0
  149.6464  139.7522  157.7184 H   0  0  0  0  0  0  0  0  0  0  0  0
  142.8752  137.2583  154.5366 H   0  0  0  0  0  0  0  0  0  0  0  0
  1  2  1  0  0  0  0
  1 28  1  0  0  0  0
  1 29  1  0  0  0  0
  1 30  1  0  0  0  0
  2  6  1  0  0  0  0
  2  3  1  0  0  0  0
  2 31  1  0  0  0  0
  3  4  1  0  0  0  0
  4  5  1  0  0  0  0
  4 32  1  0  0  0  0
  4 33  1  0  0  0  0
  5  6  1  0  0  0  0
  5 34  1  0  0  0  0
  5 35  1  0  0  0  0
  6  7  1  0  0  0  0
  6  8  1  0  0  0  0
  7 36  1  0  0  0  0
  8  9  1  0  0  0  0
  8 37  1  0  0  0  0
  8 38  1  0  0  0  0
  9 27  1  0  0  0  0
  9 10  1  0  0  0  0
 10 11  2  0  0  0  0
 10 39  1  0  0  0  0
 11 12  1  0  0  0  0
 12 27  2  0  0  0  0
 12 13  1  0  0  0  0
 13 14  1  0  0  0  0
 13 24  2  0  0  0  0
 14 15  1  0  0  0  0
 14 16  1  0  0  0  0
 15 40  1  0  0  0  0
 15 41  1  0  0  0  0
 15 42  1  0  0  0  0
 16 17  1  0  0  0  0
 16 43  1  0  0  0  0
 16 44  1  0  0  0  0
 17 23  1  0  0  0  0
 17 18  1  0  0  0  0
 17 45  1  0  0  0  0
 18 19  1  0  0  0  0
 18 46  1  0  0  0  0
 18 47  1  0  0  0  0
 19 20  1  0  0  0  0
 19 48  1  0  0  0  0
 19 49  1  0  0  0  0
 20 21  2  0  0  0  0
 20 22  2  0  0  0  0
 20 23  1  0  0  0  0
 23 50  1  0  0  0  0
 23 51  1  0  0  0  0
 24 25  1  0  0  0  0
 25 26  2  0  0  0  0
 25 52  1  0  0  0  0
 26 27  1  0  0  0  0
M  END
> <s_m_source_file>
AV-unprocessed.smi

> <i_m_source_file_index>
266

> <i_lp_mmshare_version>
43012

> <i_f3d_flags>
0

> <s_epik_input>
W0NIMl0xW0NIMl1PW0NAQEhdKFtDSDNdKVtDQEBdMShbT0hdKVtDSDJdbihbY0hdbjIpYyhjMjMpbltjSF1uYzNOKFtDSDNdKVtDSDJdW0NAQEhdKFtDSDJdNClbQ0gyXVtDSDJdUzQoPU8pPU8=

> <s_epik_cmdline>
J2VwaWtfcHl0aG9uJywgJy1waCcsICc3LjAnLCAnLXRuJywgJzgnLCAnLW1hJywgJzIwMCcsICctbWV0YWxfYmluZGluZycsICctaW1hZScsICc8aW5maWxlLm1hZT4nLCAnLW9tYWUnLCAnPG91dGZpbGUubWFlPic=

> <r_lp_tautomer_probability>
1

> <r_epik_Ionization_Penalty>
0.00155497

> <r_epik_Ionization_Penalty_Charging>
0

> <r_epik_Ionization_Penalty_Neutral>
0.00155497

> <r_epik_State_Penalty>
-0

> <r_epik_Charging_Adjusted_Penalty>
0

> <i_epik_Tot_Q>
0

> <i_epik_Tot_abs_Q>
0

> <r_epik_Metal_State_Penalty>
-0

> <b_epik_Metal_Only>
0

> <s_lp_Force_Field>
OPLS_2005

> <r_lp_Energy>
32.6677

> <b_lp_Chiralities_Consistent>
1

> <s_lp_Variant>
AV-unprocessed.smi:266-7

> <Gold.Version>
5.8.1

> <Gold.Id.Protein>
6NUR|6NUR_protein|mol2

> <Gold.PLP.Fitness>
44.7170

> <Gold.PLP.PLP>
-36.8521

> <Gold.PLP.part.hbond>
-4.5209

> <Gold.PLP.part.metal>
0.0000

> <Gold.PLP.part.buried>
-5.2354

> <Gold.PLP.part.nonpolar>
-27.5093

> <Gold.PLP.part.repulsive>
0.5135

> <Gold.PLP.ligand.clash>
0.0000

> <Gold.PLP.ligand.torsion>
2.1495

> <Gold.PLP.Chemscore.Hbond>
2.8465

> <Gold.PLP.Chemscore.CHOScore>
1.0000

> <Gold.PLP.Chemscore.Metal>
0.0000

> <Gold.Chemscore.Hbonds>
donor molecule, donor type, donor heavy atom, donor atom, acceptor molecule, acceptor atom, score
      P1  H  7989  7998       L1    22  0.91

> <Gold.PLP.Chemscore.Internal.Correction>
0.6244

> <Gold.Rescore>
     Score         DG    S(hbond)    S(metal)    S(lipo)     H(rot)  DE(clash)    DE(int)     intcor
     14.10     -17.20       2.84        0.00      79.47       2.76       0.35       2.75       ----

> <Gold.Chemscore.Fitness>
14.1013

> <Gold.Chemscore.DG>
-17.2042

> <Gold.Chemscore.ZeroCoef>
-5.4800

> <Gold.Chemscore.Hbond>
2.8445

> <Gold.Chemscore.Metal>
0.0000

> <Gold.Chemscore.Lipo>
79.4746

> <Gold.Chemscore.Internal_Hbond>
0.0000

> <Gold.Chemscore.DEClash>
0.3525

> <Gold.Chemscore.DEInternal>
2.7505

> <Gold.Chemscore.Rot>
2.7637

> <Gold.Chemscore.Internal.Correction>
   9.000000E+99

> <Gold.Chemscore.Hbonds>
donor molecule, donor type, donor heavy atom, donor atom, acceptor molecule, acceptor atom, score
      P1  H  7989  7998       L1    22  0.89

> <Gold.Chemscore.Hbond.Weighted>
-9.5007

> <Gold.Chemscore.Metal.Weighted>
-0.0000

> <Gold.Chemscore.Lipo.Weighted>
-9.2985

> <Gold.Chemscore.Internal_Hbond.Weighted>
0.0000

> <Gold.Chemscore.DEClash.Weighted>
0.3525

> <Gold.Chemscore.DEInternal.Weighted>
2.7505

> <Gold.Chemscore.Rot.Weighted>
7.0750

> <Gold.Chemscore.Internal.Correction.Weighted>
   9.000000E+99

> <Gold.Protein.RotatedTorsions>
[ 6907 6896 6895 6894 ] final -105.78 input  -60.11 | X-H torsion
[ 7974 7965 7964 7962 ] final -133.23 input  175.53 | X-H torsion
[ 8008 7997 7996 7995 ] final  -31.97 input   59.86 | X-H torsion
[ 10167 10162 10161 10158 ] final   93.81 input  -65.29 | X-H torsion
[ 10718 10713 10712 10709 ] final   28.65 input   66.30 | X-H torsion
[ 10763 10752 10751 10750 ] final  -27.31 input  -60.55 | X-H torsion
[ 11005 11000 10999 10996 ] final   -8.61 input  -57.11 | X-H torsion

> <Gold.Protein.ActiveResidues>
 VAL166  LYS551  ARG553  GLY616  TRP617  ASP618  TYR619  PRO620  LYS621  CYS622 
 ASP623  PHE694  ASN695  SER759  ASP760  ASP761  ALA762  ILE779  LEU786  VAL792 
 PHE793  MET794  SER795  GLU796  ALA797  LYS798  CYS799  TRP800  GLU811  SER814 

> <Gold.Protein.RotatedAtoms>
  150.7354  134.0075  159.3658 H   0  0  0  0  0  0  0  0  0  0  0  0  # atno 6907 bound_to 6896
  151.8033  135.0700  160.0412 H   0  0  0  0  0  0  0  0  0  0  0  0  # atno 6908 bound_to 6896
  152.3125  133.5731  159.5726 H   0  0  0  0  0  0  0  0  0  0  0  0  # atno 6909 bound_to 6896
  144.9212  140.7017  143.4964 H   0  0  0  0  0  0  0  0  0  0  0  0  # atno 7974 bound_to 7965
  154.4195  140.1750  156.1652 H   0  0  0  0  0  0  0  0  0  0  0  0  # atno 8008 bound_to 7997
  155.9805  140.3378  155.6635 H   0  0  0  0  0  0  0  0  0  0  0  0  # atno 8009 bound_to 7997
  155.6506  140.0690  157.2579 H   0  0  0  0  0  0  0  0  0  0  0  0  # atno 8010 bound_to 7997
  139.8144  144.6759  150.9599 H   0  0  0  0  0  0  0  0  0  0  0  0  # atno 10167 bound_to 10162
  157.2362  130.7047  149.6336 H   0  0  0  0  0  0  0  0  0  0  0  0  # atno 10718 bound_to 10713
  153.7300  135.6939  153.4991 H   0  0  0  0  0  0  0  0  0  0  0  0  # atno 10763 bound_to 10752
  153.2142  135.4392  155.0414 H   0  0  0  0  0  0  0  0  0  0  0  0  # atno 10764 bound_to 10752
  154.8256  135.3444  154.6830 H   0  0  0  0  0  0  0  0  0  0  0  0  # atno 10765 bound_to 10752
  140.7253  133.8794  155.8851 H   0  0  0  0  0  0  0  0  0  0  0  0  # atno 11005 bound_to 11000
  145.3292  139.1764  143.4546 LP  0  0  0  0  0  0  0  0  0  0  0  0  # atno 17320 bound_to 7965
  146.3206  140.3320  142.8641 LP  0  0  0  0  0  0  0  0  0  0  0  0  # atno 17321 bound_to 7965
  140.7816  143.4153  151.0927 LP  0  0  0  0  0  0  0  0  0  0  0  0  # atno 17342 bound_to 10162
  139.7818  143.8344  152.3139 LP  0  0  0  0  0  0  0  0  0  0  0  0  # atno 17343 bound_to 10162
  155.9672  130.4473  150.5574 LP  0  0  0  0  0  0  0  0  0  0  0  0  # atno 17370 bound_to 10713
  157.3427  131.0719  151.1775 LP  0  0  0  0  0  0  0  0  0  0  0  0  # atno 17371 bound_to 10713
  140.9968  134.1204  157.4356 LP  0  0  0  0  0  0  0  0  0  0  0  0  # atno 17394 bound_to 11000
  139.8838  135.0057  156.6329 LP  0  0  0  0  0  0  0  0  0  0  0  0  # atno 17395 bound_to 11000

$$$$
