AV-unprocessed.smi:1762|AV-procd|sdf|7126|dock5
  -GOLD-   22720 8363D 1   1.00000     0.00000
 Structure written by MMmdl.
 52 53  0  0  0  0  0  0  0  0  3 V2000
  146.1737  141.7885  155.0712 C   0  0  0  0  0  0  0  0  0  0  0  0
  147.3291  141.6680  154.0614 C   0  0  1  0  0  0  0  0  0  0  0  0
  148.6448  141.1747  154.6898 C   0  0  0  0  0  0  0  0  0  0  0  0
  148.5861  139.7237  155.0323 N   0  3  2  0  0  0  0  0  0  0  0  0
  149.8180  139.2346  155.7403 C   0  0  1  0  0  0  0  0  0  0  0  0
  149.6582  137.7502  156.1518 C   0  0  0  0  0  0  0  0  0  0  0  0
  149.4612  136.9109  155.2659 O   0  0  0  0  0  0  0  0  0  0  0  0
  149.7259  137.5995  157.5038 N   0  5  0  0  0  0  0  0  0  0  0  0
  148.9433  136.6206  158.2563 C   0  0  0  0  0  0  0  0  0  0  0  0
  149.3498  136.6432  159.7482 C   0  0  0  0  0  0  0  0  0  0  0  0
  148.3169  136.0339  160.6907 C   0  0  0  0  0  0  0  0  0  0  0  0
  148.1003  134.6370  160.7126 C   0  0  0  0  0  0  0  0  0  0  0  0
  147.1486  134.1151  161.6098 C   0  0  0  0  0  0  0  0  0  0  0  0
  146.4528  135.0026  162.4529 C   0  0  0  0  0  0  0  0  0  0  0  0
  146.7426  136.3785  162.3624 C   0  0  0  0  0  0  0  0  0  0  0  0
  147.6543  136.8894  161.5073 N   0  0  0  0  0  0  0  0  0  0  0  0
  151.1562  139.4629  154.9574 C   0  0  0  0  0  0  0  0  0  0  0  0
  151.5645  138.2978  154.0310 C   0  0  0  0  0  0  0  0  0  0  0  0
  152.3331  139.8445  155.8767 C   0  0  0  0  0  0  0  0  0  0  0  0
  148.2125  138.9572  153.8121 C   0  0  0  0  0  0  0  0  0  0  0  0
  146.8867  139.4705  153.2211 C   0  0  2  0  0  0  0  0  0  0  0  0
  146.5239  138.7525  151.9164 C   0  0  0  0  0  0  0  0  0  0  0  0
  146.9906  140.8608  152.9371 O   0  0  0  0  0  0  0  0  0  0  0  0
  146.4121  142.5205  155.8435 H   0  0  0  0  0  0  0  0  0  0  0  0
  145.9628  140.8461  155.5762 H   0  0  0  0  0  0  0  0  0  0  0  0
  145.2589  142.1175  154.5780 H   0  0  0  0  0  0  0  0  0  0  0  0
  147.5062  142.6693  153.6675 H   0  0  0  0  0  0  0  0  0  0  0  0
  149.4670  141.3387  153.9910 H   0  0  0  0  0  0  0  0  0  0  0  0
  148.8570  141.7923  155.5622 H   0  0  0  0  0  0  0  0  0  0  0  0
  149.8915  139.8483  156.6419 H   0  0  0  0  0  0  0  0  0  0  0  0
  147.8705  136.7976  158.1683 H   0  0  0  0  0  0  0  0  0  0  0  0
  149.1050  135.6161  157.8646 H   0  0  0  0  0  0  0  0  0  0  0  0
  150.2926  136.1101  159.8798 H   0  0  0  0  0  0  0  0  0  0  0  0
  149.5405  137.6698  160.0652 H   0  0  0  0  0  0  0  0  0  0  0  0
  148.6495  133.9805  160.0535 H   0  0  0  0  0  0  0  0  0  0  0  0
  146.9567  133.0531  161.6514 H   0  0  0  0  0  0  0  0  0  0  0  0
  145.7158  134.6382  163.1531 H   0  0  0  0  0  0  0  0  0  0  0  0
  146.2302  137.0875  162.9957 H   0  0  0  0  0  0  0  0  0  0  0  0
  151.0220  140.3420  154.3285 H   0  0  0  0  0  0  0  0  0  0  0  0
  151.8643  137.4163  154.5972 H   0  0  0  0  0  0  0  0  0  0  0  0
  152.4131  138.5806  153.4079 H   0  0  0  0  0  0  0  0  0  0  0  0
  150.7573  138.0013  153.3622 H   0  0  0  0  0  0  0  0  0  0  0  0
  152.6441  139.0128  156.5096 H   0  0  0  0  0  0  0  0  0  0  0  0
  152.0685  140.6778  156.5283 H   0  0  0  0  0  0  0  0  0  0  0  0
  153.2014  140.1492  155.2922 H   0  0  0  0  0  0  0  0  0  0  0  0
  149.0153  139.0309  153.0767 H   0  0  0  0  0  0  0  0  0  0  0  0
  148.0739  137.9009  154.0326 H   0  0  0  0  0  0  0  0  0  0  0  0
  146.0793  139.2989  153.9330 H   0  0  0  0  0  0  0  0  0  0  0  0
  146.4095  137.6801  152.0766 H   0  0  0  0  0  0  0  0  0  0  0  0
  147.2934  138.8978  151.1575 H   0  0  0  0  0  0  0  0  0  0  0  0
  145.5837  139.1294  151.5133 H   0  0  0  0  0  0  0  0  0  0  0  0
  147.8282  139.6101  155.6901 H   0  0  0  0  0  0  0  0  0  0  0  0
  1  2  1  0  0  0  0
  1 24  1  0  0  0  0
  1 25  1  0  0  0  0
  1 26  1  0  0  0  0
  2 23  1  0  0  0  0
  2  3  1  0  0  0  0
  2 27  1  0  0  0  0
  3  4  1  0  0  0  0
  3 28  1  0  0  0  0
  3 29  1  0  0  0  0
  4  5  1  0  0  0  0
  4 20  1  0  0  0  0
  4 52  1  0  0  0  0
  5  6  1  0  0  0  0
  5 17  1  0  0  0  0
  5 30  1  0  0  0  0
  6  7  2  0  0  0  0
  6  8  1  0  0  0  0
  8  9  1  0  0  0  0
  9 10  1  0  0  0  0
  9 31  1  0  0  0  0
  9 32  1  0  0  0  0
 10 11  1  0  0  0  0
 10 33  1  0  0  0  0
 10 34  1  0  0  0  0
 11 16  1  0  0  0  0
 11 12  2  0  0  0  0
 12 13  1  0  0  0  0
 12 35  1  0  0  0  0
 13 14  2  0  0  0  0
 13 36  1  0  0  0  0
 14 15  1  0  0  0  0
 14 37  1  0  0  0  0
 15 16  2  0  0  0  0
 15 38  1  0  0  0  0
 17 18  1  0  0  0  0
 17 19  1  0  0  0  0
 17 39  1  0  0  0  0
 18 40  1  0  0  0  0
 18 41  1  0  0  0  0
 18 42  1  0  0  0  0
 19 43  1  0  0  0  0
 19 44  1  0  0  0  0
 19 45  1  0  0  0  0
 20 21  1  0  0  0  0
 20 46  1  0  0  0  0
 20 47  1  0  0  0  0
 21 22  1  0  0  0  0
 21 23  1  0  0  0  0
 21 48  1  0  0  0  0
 22 49  1  0  0  0  0
 22 50  1  0  0  0  0
 22 51  1  0  0  0  0
M  CHG  1   4   1
M  CHG  1   8  -1
M  END
> <s_m_source_file>
AV-unprocessed.smi

> <i_m_source_file_index>
1762

> <i_lp_mmshare_version>
43012

> <i_f3d_flags>
0

> <s_epik_input>
W0NIM11bQ0BASF0xW0NIMl1OKFtDSDJdW0NASF0oTzEpW0NIM10pW0NAQEhdKFtDSF0oW0NIM10pW0NIM10pQyg9TylbTkhdW0NIMl1bQ0gyXWMyW2NIXVtjSF1bY0hdW2NIXW4y

> <s_epik_cmdline>
J2VwaWtfcHl0aG9uJywgJy1waCcsICc3LjAnLCAnLXRuJywgJzgnLCAnLW1hJywgJzIwMCcsICctbWV0YWxfYmluZGluZycsICctaW1hZScsICc8aW5maWxlLm1hZT4nLCAnLW9tYWUnLCAnPG91dGZpbGUubWFlPic=

> <r_epik_Ionization_Penalty>
7.82966

> <r_epik_Ionization_Penalty_Charging>
7.7461

> <r_epik_Ionization_Penalty_Neutral>
0.0835571

> <r_epik_State_Penalty>
8.52273

> <r_epik_Charging_Adjusted_Penalty>
16.2688

> <i_epik_Tot_Q>
0

> <i_epik_Tot_abs_Q>
2

> <r_epik_Metal_State_Penalty>
4.47451

> <b_epik_Metal_Only>
1

> <s_lp_Force_Field>
OPLS_2005

> <r_lp_Energy>
24.57

> <b_lp_Chiralities_Consistent>
1

> <s_lp_Variant>
AV-unprocessed.smi:1762-28

> <Gold.Version>
5.8.1

> <Gold.Id.Protein>
6NUR|6NUR_protein|mol2

> <Gold.PLP.Fitness>
45.1263

> <Gold.PLP.PLP>
-42.1798

> <Gold.PLP.part.hbond>
-2.0000

> <Gold.PLP.part.metal>
0.0000

> <Gold.PLP.part.buried>
-2.0051

> <Gold.PLP.part.nonpolar>
-38.6111

> <Gold.PLP.part.repulsive>
0.3593

> <Gold.PLP.ligand.clash>
0.0000

> <Gold.PLP.ligand.torsion>
1.3204

> <Gold.PLP.Chemscore.Hbond>
1.7840

> <Gold.PLP.Chemscore.CHOScore>
0.0000

> <Gold.PLP.Chemscore.Metal>
0.0000

> <Gold.Chemscore.Hbonds>
donor molecule, donor type, donor heavy atom, donor atom, acceptor molecule, acceptor atom, score
      P1  H  6931  6943       L1    16  1.00
      P1  H  6934  6947       L1    16  0.37

> <Gold.PLP.Chemscore.Internal.Correction>
0.2354

> <Gold.Rescore>
     Score         DG    S(hbond)    S(metal)    S(lipo)     H(rot)  DE(clash)    DE(int)     intcor
     12.54     -17.70       0.80        0.00     116.59       1.60       0.40       4.75       ----

> <Gold.Chemscore.Fitness>
12.5412

> <Gold.Chemscore.DG>
-17.6975

> <Gold.Chemscore.ZeroCoef>
-5.4800

> <Gold.Chemscore.Hbond>
0.8011

> <Gold.Chemscore.Metal>
0.0000

> <Gold.Chemscore.Lipo>
116.5867

> <Gold.Chemscore.Internal_Hbond>
0.0000

> <Gold.Chemscore.DEClash>
0.4028

> <Gold.Chemscore.DEInternal>
4.7535

> <Gold.Chemscore.Rot>
1.6012

> <Gold.Chemscore.Internal.Correction>
   9.000000E+99

> <Gold.Chemscore.Hbonds>
donor molecule, donor type, donor heavy atom, donor atom, acceptor molecule, acceptor atom, score
      P1  H  6931  6943       L1    16  0.38
      P1  H  6934  6947       L1    16  0.29

> <Gold.Chemscore.Hbond.Weighted>
-2.6758

> <Gold.Chemscore.Metal.Weighted>
-0.0000

> <Gold.Chemscore.Lipo.Weighted>
-13.6406

> <Gold.Chemscore.Internal_Hbond.Weighted>
0.0000

> <Gold.Chemscore.DEClash.Weighted>
0.4028

> <Gold.Chemscore.DEInternal.Weighted>
4.7535

> <Gold.Chemscore.Rot.Weighted>
4.0990

> <Gold.Chemscore.Internal.Correction.Weighted>
   9.000000E+99

> <Gold.Protein.RotatedTorsions>
[ 6907 6896 6895 6894 ] final  -53.92 input  -60.11 | X-H torsion
[ 7974 7965 7964 7962 ] final   15.97 input  175.53 | X-H torsion
[ 8008 7997 7996 7995 ] final -138.07 input   59.86 | X-H torsion
[ 10167 10162 10161 10158 ] final   89.58 input  -65.29 | X-H torsion
[ 10718 10713 10712 10709 ] final    9.72 input   66.30 | X-H torsion
[ 10763 10752 10751 10750 ] final -174.06 input  -60.55 | X-H torsion
[ 11005 11000 10999 10996 ] final  -47.58 input  -57.11 | X-H torsion

> <Gold.Protein.ActiveResidues>
 VAL166  LYS551  ARG553  GLY616  TRP617  ASP618  TYR619  PRO620  LYS621  CYS622 
 ASP623  PHE694  ASN695  SER759  ASP760  ASP761  ALA762  ILE779  LEU786  VAL792 
 PHE793  MET794  SER795  GLU796  ALA797  LYS798  CYS799  TRP800  GLU811  SER814 

> <Gold.Protein.RotatedAtoms>
  150.8383  134.7665  159.6911 H   0  0  0  0  0  0  0  0  0  0  0  0  # atno 6907 bound_to 6896
  152.4476  134.5459  159.9862 H   0  0  0  0  0  0  0  0  0  0  0  0  # atno 6908 bound_to 6896
  151.5604  133.3366  159.3006 H   0  0  0  0  0  0  0  0  0  0  0  0  # atno 6909 bound_to 6896
  146.2263  139.8816  142.8570 H   0  0  0  0  0  0  0  0  0  0  0  0  # atno 7974 bound_to 7965
  155.4222  140.0519  157.3025 H   0  0  0  0  0  0  0  0  0  0  0  0  # atno 8008 bound_to 7997
  154.4897  140.2115  155.9534 H   0  0  0  0  0  0  0  0  0  0  0  0  # atno 8009 bound_to 7997
  156.1325  140.3169  155.8376 H   0  0  0  0  0  0  0  0  0  0  0  0  # atno 8010 bound_to 7997
  139.8559  144.6569  150.9115 H   0  0  0  0  0  0  0  0  0  0  0  0  # atno 10167 bound_to 10162
  156.9705  130.5967  149.5668 H   0  0  0  0  0  0  0  0  0  0  0  0  # atno 10718 bound_to 10713
  154.6006  135.2854  155.0539 H   0  0  0  0  0  0  0  0  0  0  0  0  # atno 10763 bound_to 10752
  154.1805  135.6457  153.5037 H   0  0  0  0  0  0  0  0  0  0  0  0  # atno 10764 bound_to 10752
  153.0155  135.5422  154.6724 H   0  0  0  0  0  0  0  0  0  0  0  0  # atno 10765 bound_to 10752
  141.0649  133.6697  156.3317 H   0  0  0  0  0  0  0  0  0  0  0  0  # atno 11005 bound_to 11000
  145.2507  141.0043  143.3883 LP  0  0  0  0  0  0  0  0  0  0  0  0  # atno 17320 bound_to 7965
  144.9377  139.4225  143.6464 LP  0  0  0  0  0  0  0  0  0  0  0  0  # atno 17321 bound_to 7965
  140.7781  143.3786  151.1517 LP  0  0  0  0  0  0  0  0  0  0  0  0  # atno 17342 bound_to 10162
  139.7420  143.8909  152.3053 LP  0  0  0  0  0  0  0  0  0  0  0  0  # atno 17343 bound_to 10162
  156.0284  130.5377  150.8470 LP  0  0  0  0  0  0  0  0  0  0  0  0  # atno 17370 bound_to 10713
  157.5596  131.0945  150.9579 LP  0  0  0  0  0  0  0  0  0  0  0  0  # atno 17371 bound_to 10713
  140.5794  134.5761  157.5476 LP  0  0  0  0  0  0  0  0  0  0  0  0  # atno 17394 bound_to 11000
  139.9467  134.7690  156.0546 LP  0  0  0  0  0  0  0  0  0  0  0  0  # atno 17395 bound_to 11000

$$$$
