AV-unprocessed.smi:2489|AV-procd|sdf|9798|dock10
  -GOLD-   2272013433D 1   1.00000     0.00000
 Structure written by MMmdl.
 33 34  0  0  0  0  0  0  0  0  1 V2000
  151.2295  144.8040  158.8380 C   0  0  0  0  0  0  0  0  0  0  0  0
  151.8327  144.0023  159.8429 O   0  0  0  0  0  0  0  0  0  0  0  0
  152.3048  142.7603  159.4775 C   0  0  0  0  0  0  0  0  0  0  0  0
  153.3456  142.0703  160.1429 C   0  0  0  0  0  0  0  0  0  0  0  0
  153.7266  140.8050  159.6599 C   0  0  0  0  0  0  0  0  0  0  0  0
  153.1501  140.2145  158.5935 N   0  0  0  0  0  0  0  0  0  0  0  0
  152.1520  140.8608  157.9436 C   0  0  0  0  0  0  0  0  0  0  0  0
  151.4788  140.3340  156.8100 N   0  0  0  0  0  0  0  0  0  0  0  0
  151.9868  139.6107  155.7932 C   0  0  0  0  0  0  0  0  0  0  0  0
  153.1750  139.3057  155.6853 O   0  0  0  0  0  0  0  0  0  0  0  0
  150.9960  139.1762  154.6981 C   0  0  1  0  0  0  0  0  0  0  0  0
  149.9117  138.2015  155.2018 C   0  0  0  0  0  0  0  0  0  0  0  0
  148.6037  138.8850  154.8456 C   0  0  0  0  0  0  0  0  0  0  0  0
  148.9987  140.3559  154.8022 C   0  0  2  0  0  0  0  0  0  0  0  0
  148.0481  141.2404  153.9891 C   0  0  0  0  0  0  0  0  0  0  0  0
  150.2807  140.3076  154.1950 O   0  0  0  0  0  0  0  0  0  0  0  0
  151.7088  142.1346  158.3636 C   0  0  0  0  0  0  0  0  0  0  0  0
  150.9081  145.7488  159.2759 H   0  0  0  0  0  0  0  0  0  0  0  0
  150.3478  144.3189  158.4169 H   0  0  0  0  0  0  0  0  0  0  0  0
  151.9326  145.0343  158.0363 H   0  0  0  0  0  0  0  0  0  0  0  0
  153.8538  142.4793  161.0028 H   0  0  0  0  0  0  0  0  0  0  0  0
  154.5173  140.2511  160.1436 H   0  0  0  0  0  0  0  0  0  0  0  0
  150.4864  140.5156  156.7679 H   0  0  0  0  0  0  0  0  0  0  0  0
  151.5614  138.7340  153.8773 H   0  0  0  0  0  0  0  0  0  0  0  0
  149.9923  137.2204  154.7331 H   0  0  0  0  0  0  0  0  0  0  0  0
  149.9628  138.0528  156.2816 H   0  0  0  0  0  0  0  0  0  0  0  0
  148.2718  138.5532  153.8607 H   0  0  0  0  0  0  0  0  0  0  0  0
  147.8061  138.6788  155.5600 H   0  0  0  0  0  0  0  0  0  0  0  0
  149.1015  140.7461  155.8164 H   0  0  0  0  0  0  0  0  0  0  0  0
  147.0527  141.2556  154.4332 H   0  0  0  0  0  0  0  0  0  0  0  0
  147.9531  140.8820  152.9635 H   0  0  0  0  0  0  0  0  0  0  0  0
  148.4115  142.2674  153.9504 H   0  0  0  0  0  0  0  0  0  0  0  0
  150.9114  142.6365  157.8346 H   0  0  0  0  0  0  0  0  0  0  0  0
  1  2  1  0  0  0  0
  1 18  1  0  0  0  0
  1 19  1  0  0  0  0
  1 20  1  0  0  0  0
  2  3  1  0  0  0  0
  3 17  1  0  0  0  0
  3  4  2  0  0  0  0
  4  5  1  0  0  0  0
  4 21  1  0  0  0  0
  5  6  2  0  0  0  0
  5 22  1  0  0  0  0
  6  7  1  0  0  0  0
  7  8  1  0  0  0  0
  7 17  2  0  0  0  0
  8  9  1  0  0  0  0
  8 23  1  0  0  0  0
  9 10  2  0  0  0  0
  9 11  1  0  0  0  0
 11 16  1  0  0  0  0
 11 12  1  0  0  0  0
 11 24  1  0  0  0  0
 12 13  1  0  0  0  0
 12 25  1  0  0  0  0
 12 26  1  0  0  0  0
 13 14  1  0  0  0  0
 13 27  1  0  0  0  0
 13 28  1  0  0  0  0
 14 15  1  0  0  0  0
 14 16  1  0  0  0  0
 14 29  1  0  0  0  0
 15 30  1  0  0  0  0
 15 31  1  0  0  0  0
 15 32  1  0  0  0  0
 17 33  1  0  0  0  0
M  END
> <s_m_source_file>
AV-unprocessed.smi

> <i_m_source_file_index>
2489

> <i_lp_mmshare_version>
43012

> <i_f3d_flags>
0

> <s_epik_input>
W0NIM11PYzFbY0hdW2NIXW5jKFtjSF0xKVtOSF1DKD1PKVtDQEBIXTJbQ0gyXVtDSDJdW0NASF0oTzIpW0NIM10=

> <s_epik_cmdline>
J2VwaWtfcHl0aG9uJywgJy1waCcsICc3LjAnLCAnLXRuJywgJzgnLCAnLW1hJywgJzIwMCcsICctbWV0YWxfYmluZGluZycsICctaW1hZScsICc8aW5maWxlLm1hZT4nLCAnLW9tYWUnLCAnPG91dGZpbGUubWFlPic=

> <r_epik_Ionization_Penalty>
0.0871917

> <r_epik_Ionization_Penalty_Charging>
0

> <r_epik_Ionization_Penalty_Neutral>
0.0871917

> <r_epik_State_Penalty>
0.146479

> <r_epik_Charging_Adjusted_Penalty>
0.146479

> <i_epik_Tot_Q>
0

> <i_epik_Tot_abs_Q>
0

> <r_epik_Metal_State_Penalty>
0.067489

> <b_epik_Metal_Only>
0

> <s_lp_Force_Field>
OPLS_2005

> <r_lp_Energy>
22.8638

> <b_lp_Chiralities_Consistent>
1

> <s_lp_Variant>
AV-unprocessed.smi:2489-4

> <Gold.Version>
5.8.1

> <Gold.Id.Protein>
6NUR|6NUR_protein|mol2

> <Gold.PLP.Fitness>
40.6153

> <Gold.PLP.PLP>
-36.0144

> <Gold.PLP.part.hbond>
-2.3597

> <Gold.PLP.part.metal>
0.0000

> <Gold.PLP.part.buried>
-4.8606

> <Gold.PLP.part.nonpolar>
-28.7576

> <Gold.PLP.part.repulsive>
0.4946

> <Gold.PLP.ligand.clash>
0.0000

> <Gold.PLP.ligand.torsion>
0.6901

> <Gold.PLP.Chemscore.Hbond>
1.9913

> <Gold.PLP.Chemscore.CHOScore>
0.0000

> <Gold.PLP.Chemscore.Metal>
0.0000

> <Gold.Chemscore.Hbonds>
donor molecule, donor type, donor heavy atom, donor atom, acceptor molecule, acceptor atom, score
      P1  H  7989  7998       L1    16  0.53
      P1  H  7997  8010       L1    10  0.99

> <Gold.PLP.Chemscore.Internal.Correction>
0.0074

> <Gold.Rescore>
     Score         DG    S(hbond)    S(metal)    S(lipo)     H(rot)  DE(clash)    DE(int)     intcor
     16.45     -17.99       1.76        0.00      83.60       1.23       0.11       1.44       ----

> <Gold.Chemscore.Fitness>
16.4456

> <Gold.Chemscore.DG>
-17.9909

> <Gold.Chemscore.ZeroCoef>
-5.4800

> <Gold.Chemscore.Hbond>
1.7574

> <Gold.Chemscore.Metal>
0.0000

> <Gold.Chemscore.Lipo>
83.5950

> <Gold.Chemscore.Internal_Hbond>
0.0000

> <Gold.Chemscore.DEClash>
0.1071

> <Gold.Chemscore.DEInternal>
1.4382

> <Gold.Chemscore.Rot>
1.2264

> <Gold.Chemscore.Internal.Correction>
   9.000000E+99

> <Gold.Chemscore.Hbonds>
donor molecule, donor type, donor heavy atom, donor atom, acceptor molecule, acceptor atom, score
      P1  H  7989  7998       L1    16  0.03
      P1  H  7997  8010       L1    10  0.92

> <Gold.Chemscore.Hbond.Weighted>
-5.8699

> <Gold.Chemscore.Metal.Weighted>
-0.0000

> <Gold.Chemscore.Lipo.Weighted>
-9.7806

> <Gold.Chemscore.Internal_Hbond.Weighted>
0.0000

> <Gold.Chemscore.DEClash.Weighted>
0.1071

> <Gold.Chemscore.DEInternal.Weighted>
1.4382

> <Gold.Chemscore.Rot.Weighted>
3.1396

> <Gold.Chemscore.Internal.Correction.Weighted>
   9.000000E+99

> <Gold.Protein.RotatedTorsions>
[ 6907 6896 6895 6894 ] final  -91.99 input  -60.11 | X-H torsion
[ 7974 7965 7964 7962 ] final   64.81 input  175.53 | X-H torsion
[ 8008 7997 7996 7995 ] final   95.50 input   59.86 | X-H torsion
[ 10167 10162 10161 10158 ] final  -34.45 input  -65.29 | X-H torsion
[ 10718 10713 10712 10709 ] final  125.37 input   66.30 | X-H torsion
[ 10763 10752 10751 10750 ] final   42.51 input  -60.55 | X-H torsion
[ 11005 11000 10999 10996 ] final  152.54 input  -57.11 | X-H torsion

> <Gold.Protein.ActiveResidues>
 VAL166  LYS551  ARG553  GLY616  TRP617  ASP618  TYR619  PRO620  LYS621  CYS622 
 ASP623  PHE694  ASN695  SER759  ASP760  ASP761  ALA762  ILE779  LEU786  VAL792 
 PHE793  MET794  SER795  GLU796  ALA797  LYS798  CYS799  TRP800  GLU811  SER814 

> <Gold.Protein.RotatedAtoms>
  150.6900  134.2191  159.4389 H   0  0  0  0  0  0  0  0  0  0  0  0  # atno 6907 bound_to 6896
  152.0148  134.9853  160.0578 H   0  0  0  0  0  0  0  0  0  0  0  0  # atno 6908 bound_to 6896
  152.1454  133.4454  159.4824 H   0  0  0  0  0  0  0  0  0  0  0  0  # atno 6909 bound_to 6896
  145.8458  139.3223  143.0904 H   0  0  0  0  0  0  0  0  0  0  0  0  # atno 7974 bound_to 7965
  156.0695  140.3285  155.7559 H   0  0  0  0  0  0  0  0  0  0  0  0  # atno 8008 bound_to 7997
  155.5327  140.0595  157.2903 H   0  0  0  0  0  0  0  0  0  0  0  0  # atno 8009 bound_to 7997
  154.4523  140.1924  156.0500 H   0  0  0  0  0  0  0  0  0  0  0  0  # atno 8010 bound_to 7997
  140.7185  143.3547  151.2084 H   0  0  0  0  0  0  0  0  0  0  0  0  # atno 10167 bound_to 10162
  157.5508  131.1094  150.8705 H   0  0  0  0  0  0  0  0  0  0  0  0  # atno 10718 bound_to 10713
  152.9881  135.6129  154.2960 H   0  0  0  0  0  0  0  0  0  0  0  0  # atno 10763 bound_to 10752
  154.2683  135.2780  155.2751 H   0  0  0  0  0  0  0  0  0  0  0  0  # atno 10764 bound_to 10752
  154.5145  135.5832  153.6688 H   0  0  0  0  0  0  0  0  0  0  0  0  # atno 10765 bound_to 10752
  140.1317  134.8797  157.2212 H   0  0  0  0  0  0  0  0  0  0  0  0  # atno 11005 bound_to 11000
  145.9413  140.8977  143.0306 LP  0  0  0  0  0  0  0  0  0  0  0  0  # atno 17320 bound_to 7965
  144.6731  140.1553  143.7427 LP  0  0  0  0  0  0  0  0  0  0  0  0  # atno 17321 bound_to 7965
  139.7085  143.9415  152.2937 LP  0  0  0  0  0  0  0  0  0  0  0  0  # atno 17342 bound_to 10162
  139.9132  144.6844  150.8540 LP  0  0  0  0  0  0  0  0  0  0  0  0  # atno 17343 bound_to 10162
  156.9230  130.5322  149.5279 LP  0  0  0  0  0  0  0  0  0  0  0  0  # atno 17370 bound_to 10713
  156.0575  130.5634  150.9123 LP  0  0  0  0  0  0  0  0  0  0  0  0  # atno 17371 bound_to 10713
  140.2834  134.3324  155.7336 LP  0  0  0  0  0  0  0  0  0  0  0  0  # atno 17394 bound_to 11000
  141.2171  133.7491  156.9397 LP  0  0  0  0  0  0  0  0  0  0  0  0  # atno 17395 bound_to 11000

$$$$
