AV-unprocessed.smi:829|AV-procd|sdf|3866|dock1
  -GOLD-   22720 1313D 1   1.00000     0.00000
 Structure written by MMmdl.
 49 51  0  0  0  0  0  0  0  0  2 V2000
  150.5964  136.3212  155.9186 O   0  0  0  0  0  0  0  0  0  0  0  0
  150.1088  136.3845  154.7904 C   0  0  0  0  0  0  0  0  0  0  0  0
  149.6780  135.3397  154.0619 N   0  0  0  0  0  0  0  0  0  0  0  0
  149.6679  133.9562  154.3920 C   0  0  0  0  0  0  0  0  0  0  0  0
  149.1248  133.0657  153.4426 C   0  0  0  0  0  0  0  0  0  0  0  0
  149.0895  131.6892  153.7422 C   0  0  0  0  0  0  0  0  0  0  0  0
  149.5463  131.1705  154.9011 N   0  0  0  0  0  0  0  0  0  0  0  0
  150.0563  132.0242  155.8137 C   0  0  0  0  0  0  0  0  0  0  0  0
  150.1371  133.4172  155.6150 C   0  0  0  0  0  0  0  0  0  0  0  0
  149.9532  137.5367  154.1219 N   0  0  0  0  0  0  0  0  0  0  0  0
  150.3353  138.8545  154.6213 C   0  0  2  0  0  0  0  0  0  0  0  0
  151.7866  138.8479  155.1349 C   0  0  0  0  0  0  0  0  0  0  0  0
  152.1641  140.2038  155.7551 C   0  0  0  0  0  0  0  0  0  0  0  0
  151.2222  140.5789  156.8413 N   0  3  1  0  0  0  0  0  0  0  0  0
  151.6312  141.8106  157.5646 C   0  0  0  0  0  0  0  0  0  0  0  0
  152.3086  141.4877  158.9099 C   0  0  0  0  0  0  0  0  0  0  0  0
  152.8715  142.6965  159.6636 C   0  0  0  0  0  0  0  0  0  0  0  0
  153.8783  142.1081  160.6565 C   0  0  0  0  0  0  0  0  0  0  0  0
  154.3355  140.7694  160.0582 C   0  0  0  0  0  0  0  0  0  0  0  0
  153.5342  140.5812  158.7647 C   0  0  0  0  0  0  0  0  0  0  0  0
  149.8193  140.6301  156.3531 C   0  0  0  0  0  0  0  0  0  0  0  0
  149.3909  139.2793  155.7569 C   0  0  0  0  0  0  0  0  0  0  0  0
  149.3546  135.5571  153.1308 H   0  0  0  0  0  0  0  0  0  0  0  0
  148.7433  133.4251  152.4980 H   0  0  0  0  0  0  0  0  0  0  0  0
  148.6820  130.9860  153.0310 H   0  0  0  0  0  0  0  0  0  0  0  0
  150.4077  131.5838  156.7351 H   0  0  0  0  0  0  0  0  0  0  0  0
  150.5445  134.0306  156.4028 H   0  0  0  0  0  0  0  0  0  0  0  0
  149.5471  137.4989  153.1983 H   0  0  0  0  0  0  0  0  0  0  0  0
  150.2459  139.5841  153.8138 H   0  0  0  0  0  0  0  0  0  0  0  0
  151.9127  138.0615  155.8807 H   0  0  0  0  0  0  0  0  0  0  0  0
  152.4745  138.6141  154.3213 H   0  0  0  0  0  0  0  0  0  0  0  0
  153.1779  140.1421  156.1535 H   0  0  0  0  0  0  0  0  0  0  0  0
  152.1683  140.9813  154.9894 H   0  0  0  0  0  0  0  0  0  0  0  0
  152.3478  142.3683  156.9595 H   0  0  0  0  0  0  0  0  0  0  0  0
  150.7813  142.4812  157.7025 H   0  0  0  0  0  0  0  0  0  0  0  0
  151.5917  140.9790  159.5570 H   0  0  0  0  0  0  0  0  0  0  0  0
  153.3927  143.3587  158.9707 H   0  0  0  0  0  0  0  0  0  0  0  0
  152.0968  143.2795  160.1624 H   0  0  0  0  0  0  0  0  0  0  0  0
  154.7134  142.7873  160.8316 H   0  0  0  0  0  0  0  0  0  0  0  0
  153.3939  141.9329  161.6180 H   0  0  0  0  0  0  0  0  0  0  0  0
  155.4083  140.7570  159.8625 H   0  0  0  0  0  0  0  0  0  0  0  0
  154.1235  139.9596  160.7578 H   0  0  0  0  0  0  0  0  0  0  0  0
  153.2649  139.5390  158.5915 H   0  0  0  0  0  0  0  0  0  0  0  0
  154.1381  140.9081  157.9170 H   0  0  0  0  0  0  0  0  0  0  0  0
  149.1461  140.8911  157.1688 H   0  0  0  0  0  0  0  0  0  0  0  0
  149.7224  141.4168  155.6030 H   0  0  0  0  0  0  0  0  0  0  0  0
  148.3675  139.3485  155.3861 H   0  0  0  0  0  0  0  0  0  0  0  0
  149.3857  138.5218  156.5424 H   0  0  0  0  0  0  0  0  0  0  0  0
  151.2692  139.8302  157.5176 H   0  0  0  0  0  0  0  0  0  0  0  0
  1  2  2  0  0  0  0
  2  3  1  0  0  0  0
  2 10  1  0  0  0  0
  3  4  1  0  0  0  0
  3 23  1  0  0  0  0
  4  9  1  0  0  0  0
  4  5  2  0  0  0  0
  5  6  1  0  0  0  0
  5 24  1  0  0  0  0
  6  7  2  0  0  0  0
  6 25  1  0  0  0  0
  7  8  1  0  0  0  0
  8  9  2  0  0  0  0
  8 26  1  0  0  0  0
  9 27  1  0  0  0  0
 10 11  1  0  0  0  0
 10 28  1  0  0  0  0
 11 22  1  0  0  0  0
 11 12  1  0  0  0  0
 11 29  1  0  0  0  0
 12 13  1  0  0  0  0
 12 30  1  0  0  0  0
 12 31  1  0  0  0  0
 13 14  1  0  0  0  0
 13 32  1  0  0  0  0
 13 33  1  0  0  0  0
 14 15  1  0  0  0  0
 14 21  1  0  0  0  0
 14 49  1  0  0  0  0
 15 16  1  0  0  0  0
 15 34  1  0  0  0  0
 15 35  1  0  0  0  0
 16 20  1  0  0  0  0
 16 17  1  0  0  0  0
 16 36  1  0  0  0  0
 17 18  1  0  0  0  0
 17 37  1  0  0  0  0
 17 38  1  0  0  0  0
 18 19  1  0  0  0  0
 18 39  1  0  0  0  0
 18 40  1  0  0  0  0
 19 20  1  0  0  0  0
 19 41  1  0  0  0  0
 19 42  1  0  0  0  0
 20 43  1  0  0  0  0
 20 44  1  0  0  0  0
 21 22  1  0  0  0  0
 21 45  1  0  0  0  0
 21 46  1  0  0  0  0
 22 47  1  0  0  0  0
 22 48  1  0  0  0  0
M  CHG  1  14   1
M  END
> <s_m_source_file>
AV-unprocessed.smi

> <i_m_source_file_index>
829

> <i_lp_mmshare_version>
43012

> <i_f3d_flags>
0

> <s_epik_input>
W2NIXTFbY0hdbltjSF1bY0hdYzFbTkhdQyg9TylbTkhdW0NIXTJbQ0gyXVtDSDJdTihbQ0gyXVtDSDJdMilbQ0gyXVtDSF0zW0NIMl1bQ0gyXVtDSDJdW0NIMl0z

> <s_epik_cmdline>
J2VwaWtfcHl0aG9uJywgJy1waCcsICc3LjAnLCAnLXRuJywgJzgnLCAnLW1hJywgJzIwMCcsICctbWV0YWxfYmluZGluZycsICctaW1hZScsICc8aW5maWxlLm1hZT4nLCAnLW9tYWUnLCAnPG91dGZpbGUubWFlPic=

> <r_epik_Ionization_Penalty>
0.101981

> <r_epik_Ionization_Penalty_Charging>
0.00207989

> <r_epik_Ionization_Penalty_Neutral>
0.0999008

> <r_epik_State_Penalty>
0.0935668

> <r_epik_Charging_Adjusted_Penalty>
0.0956467

> <i_epik_Tot_Q>
1

> <i_epik_Tot_abs_Q>
1

> <r_epik_Metal_State_Penalty>
0.0787682

> <b_epik_Metal_Only>
0

> <s_lp_Force_Field>
OPLS_2005

> <r_lp_Energy>
43.2002

> <b_lp_Chiralities_Consistent>
1

> <s_lp_Variant>
AV-unprocessed.smi:829-1

> <Gold.Version>
5.8.1

> <Gold.Id.Protein>
6NUR|6NUR_protein|mol2

> <Gold.PLP.Fitness>
45.8444

> <Gold.PLP.PLP>
-40.3997

> <Gold.PLP.part.hbond>
-2.6018

> <Gold.PLP.part.metal>
0.0000

> <Gold.PLP.part.buried>
-4.1699

> <Gold.PLP.part.nonpolar>
-34.2496

> <Gold.PLP.part.repulsive>
0.1659

> <Gold.PLP.ligand.clash>
0.0000

> <Gold.PLP.ligand.torsion>
0.7354

> <Gold.PLP.Chemscore.Hbond>
1.8233

> <Gold.PLP.Chemscore.CHOScore>
0.4642

> <Gold.PLP.Chemscore.Metal>
0.0000

> <Gold.Chemscore.Hbonds>
donor molecule, donor type, donor heavy atom, donor atom, acceptor molecule, acceptor atom, score
      L1  H     3    23       P1  7948  0.64
      L1  H    10    28       P1  7948  0.83
      L1  C     6    25       P1 10747  0.46

> <Gold.PLP.Chemscore.Internal.Correction>
0.0533

> <Gold.Rescore>
     Score         DG    S(hbond)    S(metal)    S(lipo)     H(rot)  DE(clash)    DE(int)     intcor
     16.98     -20.17       1.64        0.00     108.17       1.35       0.07       3.13       ----

> <Gold.Chemscore.Fitness>
16.9800

> <Gold.Chemscore.DG>
-20.1748

> <Gold.Chemscore.ZeroCoef>
-5.4800

> <Gold.Chemscore.Hbond>
1.6417

> <Gold.Chemscore.Metal>
0.0000

> <Gold.Chemscore.Lipo>
108.1695

> <Gold.Chemscore.Internal_Hbond>
0.0000

> <Gold.Chemscore.DEClash>
0.0683

> <Gold.Chemscore.DEInternal>
3.1265

> <Gold.Chemscore.Rot>
1.3455

> <Gold.Chemscore.Internal.Correction>
   9.000000E+99

> <Gold.Chemscore.Hbonds>
donor molecule, donor type, donor heavy atom, donor atom, acceptor molecule, acceptor atom, score
      L1  H     3    23       P1  7948  0.09
      L1  H    10    28       P1  7948  0.69

> <Gold.Chemscore.Hbond.Weighted>
-5.4834

> <Gold.Chemscore.Metal.Weighted>
-0.0000

> <Gold.Chemscore.Lipo.Weighted>
-12.6558

> <Gold.Chemscore.Internal_Hbond.Weighted>
0.0000

> <Gold.Chemscore.DEClash.Weighted>
0.0683

> <Gold.Chemscore.DEInternal.Weighted>
3.1265

> <Gold.Chemscore.Rot.Weighted>
3.4445

> <Gold.Chemscore.Internal.Correction.Weighted>
   9.000000E+99

> <Gold.Protein.RotatedTorsions>
[ 6907 6896 6895 6894 ] final   74.62 input  -60.11 | X-H torsion
[ 7974 7965 7964 7962 ] final  -39.41 input  175.53 | X-H torsion
[ 8008 7997 7996 7995 ] final  -77.09 input   59.86 | X-H torsion
[ 10167 10162 10161 10158 ] final  -65.72 input  -65.29 | X-H torsion
[ 10718 10713 10712 10709 ] final   41.79 input   66.30 | X-H torsion
[ 10763 10752 10751 10750 ] final -104.80 input  -60.55 | X-H torsion
[ 11005 11000 10999 10996 ] final   91.59 input  -57.11 | X-H torsion

> <Gold.Protein.ActiveResidues>
 VAL166  LYS551  ARG553  GLY616  TRP617  ASP618  TYR619  PRO620  LYS621  CYS622 
 ASP623  PHE694  ASN695  SER759  ASP760  ASP761  ALA762  ILE779  LEU786  VAL792 
 PHE793  MET794  SER795  GLU796  ALA797  LYS798  CYS799  TRP800  GLU811  SER814 

> <Gold.Protein.RotatedAtoms>
  152.4985  134.4243  159.9490 H   0  0  0  0  0  0  0  0  0  0  0  0  # atno 6907 bound_to 6896
  151.4218  133.3690  159.2765 H   0  0  0  0  0  0  0  0  0  0  0  0  # atno 6908 bound_to 6896
  150.9217  134.8657  159.7553 H   0  0  0  0  0  0  0  0  0  0  0  0  # atno 6909 bound_to 6896
  146.0399  140.6623  142.9092 H   0  0  0  0  0  0  0  0  0  0  0  0  # atno 7974 bound_to 7965
  154.5564  140.0716  156.8750 H   0  0  0  0  0  0  0  0  0  0  0  0  # atno 8008 bound_to 7997
  155.2895  140.3377  155.4235 H   0  0  0  0  0  0  0  0  0  0  0  0  # atno 8009 bound_to 7997
  156.2005  140.1720  156.7894 H   0  0  0  0  0  0  0  0  0  0  0  0  # atno 8010 bound_to 7997
  140.5709  143.2318  151.6540 H   0  0  0  0  0  0  0  0  0  0  0  0  # atno 10167 bound_to 10162
  157.3975  130.7841  149.7321 H   0  0  0  0  0  0  0  0  0  0  0  0  # atno 10718 bound_to 10713
  154.7903  135.4772  154.0038 H   0  0  0  0  0  0  0  0  0  0  0  0  # atno 10763 bound_to 10752
  153.1621  135.6810  153.8734 H   0  0  0  0  0  0  0  0  0  0  0  0  # atno 10764 bound_to 10752
  153.8344  135.3187  155.3399 H   0  0  0  0  0  0  0  0  0  0  0  0  # atno 10765 bound_to 10752
  139.8836  134.8683  156.3450 H   0  0  0  0  0  0  0  0  0  0  0  0  # atno 11005 bound_to 11000
  144.7069  140.3888  143.7111 LP  0  0  0  0  0  0  0  0  0  0  0  0  # atno 17320 bound_to 7965
  145.6902  139.1637  143.2651 LP  0  0  0  0  0  0  0  0  0  0  0  0  # atno 17321 bound_to 7965
  139.5117  144.3500  152.0661 LP  0  0  0  0  0  0  0  0  0  0  0  0  # atno 17342 bound_to 10162
  140.2638  144.4039  150.6176 LP  0  0  0  0  0  0  0  0  0  0  0  0  # atno 17343 bound_to 10162
  155.9814  130.4019  150.3472 LP  0  0  0  0  0  0  0  0  0  0  0  0  # atno 17370 bound_to 10713
  157.1596  131.0341  151.2847 LP  0  0  0  0  0  0  0  0  0  0  0  0  # atno 17371 bound_to 10713
  140.9633  133.7375  156.0431 LP  0  0  0  0  0  0  0  0  0  0  0  0  # atno 17394 bound_to 11000
  140.7963  134.3560  157.5451 LP  0  0  0  0  0  0  0  0  0  0  0  0  # atno 17395 bound_to 11000

$$$$
