#       Name:                AV-unprocessed.smi:545
#       Creating user name   scv26
#       Creation time:       Thu Mar 26 23:37:39 2020


#       File generated by GOLD software.
#

@<TRIPOS>MOLECULE
AV-unprocessed.smi:545
    43    44     1
SMALL
NO_CHARGES


@<TRIPOS>ATOM
      1 ****        -2.9813   2.5157  -0.6657 C.3            1 S1                 0.0000
      2 ****        -2.3464   1.2502  -0.6914 O.3            1 S1                 0.0000
      3 ****        -2.5946   0.4913   0.4806 C.3            1 S1                 0.0000
      4 ****        -1.8598  -0.8539   0.3963 C.3            1 S1                 0.0000
      5 ****        -0.4131  -0.6813   0.2605 N.pl3          1 S1                 0.0000
      6 ****         0.3554  -0.5481  -0.8627 C.2            1 S1                 0.0000
      7 ****        -0.1515  -0.5791  -2.1696 N.pl3          1 S1                 0.0000
      8 ****        -1.5679  -0.7590  -2.4633 C.3            1 S1                 0.0000
      9 ****         0.5444  -0.2702  -3.4126 C.3            1 S1                 0.0000
     10 ****         1.6529  -0.3409  -0.6133 N.2            1 S1                 0.0000
     11 ****         1.7263  -0.3539   0.7685 C.2            1 S1                 0.0000
     12 ****         0.4984  -0.5431   1.3120 C.2            1 S1                 0.0000
     13 ****         0.2797  -0.5517   2.7670 C.2            1 S1                 0.0000
     14 ****        -0.8235  -0.6940   3.2896 O.2            1 S1                 0.0000
     15 ****         1.4191  -0.3756   3.4788 N.am           1 S1                 0.0000
     16 ****         2.6834  -0.1892   2.9924 C.2            1 S1                 0.0000
     17 ****         3.6256  -0.0364   3.7698 O.2            1 S1                 0.0000
     18 ****         2.8458  -0.1779   1.6311 N.am           1 S1                 0.0000
     19 ****         4.1763   0.0242   1.0545 C.3            1 S1                 0.0000
     20 ****         1.3231  -0.3757   4.4838 H              1 S1                 0.0000
     21 ****        -2.7601   3.0541  -1.5871 H              1 S1                 0.0000
     22 ****        -2.6249   3.1188   0.1705 H              1 S1                 0.0000
     23 ****        -4.0643   2.4122  -0.5873 H              1 S1                 0.0000
     24 ****        -2.2588   1.0434   1.3599 H              1 S1                 0.0000
     25 ****        -3.6660   0.3198   0.5929 H              1 S1                 0.0000
     26 ****        -2.0680  -1.4492   1.2835 H              1 S1                 0.0000
     27 ****        -2.2576  -1.4520  -0.4150 H              1 S1                 0.0000
     28 ****        -2.0733  -1.2682  -1.6421 H              1 S1                 0.0000
     29 ****        -1.7131  -1.3632  -3.3598 H              1 S1                 0.0000
     30 ****        -2.0514   0.2069  -2.6128 H              1 S1                 0.0000
     31 ****         1.3268   0.4681  -3.2370 H              1 S1                 0.0000
     32 ****        -0.1244   0.1524  -4.1640 H              1 S1                 0.0000
     33 ****         0.9924  -1.1708  -3.8330 H              1 S1                 0.0000
     34 ****         4.8847  -0.7037   1.4525 H              1 S1                 0.0000
     35 ****         4.5442   1.0233   1.2912 H              1 S1                 0.0000
     36 ****         4.1837  -0.0805  -0.0303 H              1 S1                 0.0000
     37 ****        -1.3601   1.3886  -0.7804 LP             1 S1                 0.0000
     38 ****        -2.6839   0.7386  -1.4816 LP             1 S1                 0.0000
     39 ****         2.3949  -0.2079  -1.2703 LP             1 S1                 0.0000
     40 ****        -1.6358  -0.8126   2.7185 LP             1 S1                 0.0000
     41 ****        -0.9089  -0.6911   4.2860 LP             1 S1                 0.0000
     42 ****         3.4663  -0.0486   4.7570 LP             1 S1                 0.0000
     43 ****         4.5502   0.0999   3.4142 LP             1 S1                 0.0000
@<TRIPOS>BOND
    1    1    2 1     
    2    1   21 1     
    3    1   22 1     
    4    1   23 1     
    5    2    3 1     
    6    3    4 1     
    7    3   24 1     
    8    3   25 1     
    9    4    5 1     
   10    4   26 1     
   11    4   27 1     
   12    5   12 1     
   13    5    6 1     
   14    6    7 1     
   15    6   10 2     
   16    7    8 1     
   17    7    9 1     
   18    8   28 1     
   19    8   29 1     
   20    8   30 1     
   21    9   31 1     
   22    9   32 1     
   23    9   33 1     
   24   10   11 1     
   25   11   18 1     
   26   11   12 2     
   27   12   13 1     
   28   13   14 2     
   29   13   15 1     
   30   15   20 1     
   31   15   16 1     
   32   16   17 2     
   33   16   18 1     
   34   18   19 1     
   35   19   34 1     
   36   19   35 1     
   37   19   36 1     
   38    2   37 1     
   39    2   38 1     
   40   10   39 1     
   41   14   40 1     
   42   14   41 1     
   43   17   42 1     
   44   17   43 1     
@<TRIPOS>SUBSTRUCTURE
      1 S1             1
@<TRIPOS>SET
LONE_PAIRS      STATIC     ATOMS    <user>   **** ""
7 37 38 39 40 41 42 43
DONOR_HYDROGENS      STATIC     ATOMS    <user>   **** ""
1 20
ATOM$BLUE        STATIC     ATOMS    COLORGROUP SYSTEM
7 37 38 39 40 41 42 43
ATOM$RED        STATIC     ATOMS    COLORGROUP SYSTEM
1 20
