AV-unprocessed.smi:265|AV-procd|sdf|2019|dock2
  -GOLD-   2262021223D 1   1.00000     0.00000
 Structure written by MMmdl.
 52 56  0  0  0  0  0  0  0  0  1 V2000
  152.6800  140.8645  159.3513 C   0  0  0  0  0  0  0  0  0  0  0  0
  151.7807  141.6988  158.4253 C   0  0  2  0  0  0  0  0  0  0  0  0
  150.7318  142.2491  159.2180 O   0  0  0  0  0  0  0  0  0  0  0  0
  149.5843  142.4155  158.4050 C   0  0  0  0  0  0  0  0  0  0  0  0
  149.5948  141.1467  157.5666 C   0  0  0  0  0  0  0  0  0  0  0  0
  151.0772  140.9446  157.2609 C   0  0  1  0  0  0  0  0  0  0  0  0
  151.3700  141.6371  156.0590 O   0  0  0  0  0  0  0  0  0  0  0  0
  151.4723  139.4569  157.0665 C   0  0  0  0  0  0  0  0  0  0  0  0
  150.8293  138.5566  158.0124 N   0  0  0  0  0  0  0  0  0  0  0  0
  151.4310  137.8759  159.0480 C   0  0  0  0  0  0  0  0  0  0  0  0
  150.6352  137.1249  159.7601 N   0  0  0  0  0  0  0  0  0  0  0  0
  149.3935  137.2924  159.1615 C   0  0  0  0  0  0  0  0  0  0  0  0
  148.0992  136.7682  159.4134 C   0  0  0  0  0  0  0  0  0  0  0  0
  147.8603  135.9142  160.4316 N   0  0  0  0  0  0  0  0  0  0  0  0
  147.5160  136.5950  161.6752 C   0  0  0  0  0  0  0  0  0  0  0  0
  147.5213  135.6066  162.8518 C   0  0  0  0  0  0  0  0  0  0  0  0
  146.6301  134.3829  162.5768 C   0  0  1  0  0  0  0  0  0  0  0  0
  145.2601  134.7631  162.5627 O   0  0  0  0  0  0  0  0  0  0  0  0
  144.3561  133.6583  162.4970 C   0  0  0  0  0  0  0  0  0  0  0  0
  144.7305  132.6595  161.3861 C   0  0  0  0  0  0  0  0  0  0  0  0
  143.9123  131.8219  161.0136 O   0  0  0  0  0  0  0  0  0  0  0  0
  145.9739  132.7106  160.8820 N   0  0  0  0  0  0  0  0  0  0  0  0
  146.9505  133.7453  161.2066 C   0  0  1  0  0  0  0  0  0  0  0  0
  146.9768  134.8046  160.0859 C   0  0  0  0  0  0  0  0  0  0  0  0
  147.0831  137.1577  158.5991 N   0  0  0  0  0  0  0  0  0  0  0  0
  147.3228  138.0087  157.5963 C   0  0  0  0  0  0  0  0  0  0  0  0
  148.4778  138.5767  157.2406 N   0  0  0  0  0  0  0  0  0  0  0  0
  149.4964  138.1868  158.0601 C   0  0  0  0  0  0  0  0  0  0  0  0
  146.7833  133.6559  163.3769 H   0  0  0  0  0  0  0  0  0  0  0  0
  147.9319  133.2725  161.2618 H   0  0  0  0  0  0  0  0  0  0  0  0
  153.5178  140.4288  158.8069 H   0  0  0  0  0  0  0  0  0  0  0  0
  152.1250  140.0574  159.8295 H   0  0  0  0  0  0  0  0  0  0  0  0
  153.0964  141.4867  160.1437 H   0  0  0  0  0  0  0  0  0  0  0  0
  152.3687  142.5330  158.0374 H   0  0  0  0  0  0  0  0  0  0  0  0
  148.6788  142.5209  159.0026 H   0  0  0  0  0  0  0  0  0  0  0  0
  149.6961  143.3034  157.7808 H   0  0  0  0  0  0  0  0  0  0  0  0
  149.2230  140.3238  158.1784 H   0  0  0  0  0  0  0  0  0  0  0  0
  148.9638  141.2121  156.6789 H   0  0  0  0  0  0  0  0  0  0  0  0
  151.1507  142.5487  156.1771 H   0  0  0  0  0  0  0  0  0  0  0  0
  151.2208  139.1265  156.0579 H   0  0  0  0  0  0  0  0  0  0  0  0
  152.5499  139.3301  157.1728 H   0  0  0  0  0  0  0  0  0  0  0  0
  152.4865  137.9560  159.2628 H   0  0  0  0  0  0  0  0  0  0  0  0
  148.2246  137.4019  161.8676 H   0  0  0  0  0  0  0  0  0  0  0  0
  146.5300  137.0521  161.5779 H   0  0  0  0  0  0  0  0  0  0  0  0
  148.5438  135.2699  163.0270 H   0  0  0  0  0  0  0  0  0  0  0  0
  147.2014  136.1081  163.7656 H   0  0  0  0  0  0  0  0  0  0  0  0
  144.3522  133.1352  163.4540 H   0  0  0  0  0  0  0  0  0  0  0  0
  143.3463  134.0341  162.3303 H   0  0  0  0  0  0  0  0  0  0  0  0
  146.2329  132.0337  160.1792 H   0  0  0  0  0  0  0  0  0  0  0  0
  145.9699  135.1880  159.9127 H   0  0  0  0  0  0  0  0  0  0  0  0
  147.3090  134.3491  159.1519 H   0  0  0  0  0  0  0  0  0  0  0  0
  146.4669  138.2733  156.9928 H   0  0  0  0  0  0  0  0  0  0  0  0
  1  2  1  0  0  0  0
  1 31  1  0  0  0  0
  1 32  1  0  0  0  0
  1 33  1  0  0  0  0
  2  6  1  0  0  0  0
  2  3  1  0  0  0  0
  2 34  1  0  0  0  0
  3  4  1  0  0  0  0
  4  5  1  0  0  0  0
  4 35  1  0  0  0  0
  4 36  1  0  0  0  0
  5  6  1  0  0  0  0
  5 37  1  0  0  0  0
  5 38  1  0  0  0  0
  6  7  1  0  0  0  0
  6  8  1  0  0  0  0
  7 39  1  0  0  0  0
  8  9  1  0  0  0  0
  8 40  1  0  0  0  0
  8 41  1  0  0  0  0
  9 28  1  0  0  0  0
  9 10  1  0  0  0  0
 10 11  2  0  0  0  0
 10 42  1  0  0  0  0
 11 12  1  0  0  0  0
 12 28  2  0  0  0  0
 12 13  1  0  0  0  0
 13 14  1  0  0  0  0
 13 25  2  0  0  0  0
 14 24  1  0  0  0  0
 14 15  1  0  0  0  0
 15 16  1  0  0  0  0
 15 43  1  0  0  0  0
 15 44  1  0  0  0  0
 16 17  1  0  0  0  0
 16 45  1  0  0  0  0
 16 46  1  0  0  0  0
 17 29  1  0  0  0  0
 17 23  1  0  0  0  0
 17 18  1  0  0  0  0
 18 19  1  0  0  0  0
 19 20  1  0  0  0  0
 19 47  1  0  0  0  0
 19 48  1  0  0  0  0
 20 21  2  0  0  0  0
 20 22  1  0  0  0  0
 22 23  1  0  0  0  0
 22 49  1  0  0  0  0
 23 30  1  0  0  0  0
 23 24  1  0  0  0  0
 24 50  1  0  0  0  0
 24 51  1  0  0  0  0
 25 26  1  0  0  0  0
 26 27  2  0  0  0  0
 26 52  1  0  0  0  0
 27 28  1  0  0  0  0
M  END
> <s_m_source_file>
AV-unprocessed.smi

> <i_m_source_file_index>
265

> <i_lp_mmshare_version>
43012

> <i_f3d_flags>
0

> <s_epik_input>
W0NIMl0xW0NIMl1PW0NAQEhdKFtDSDNdKVtDQEBdMShbT0hdKVtDSDJdbihbY0hdbjIpYyhjMjMpbltjSF1uYzNOKFtDSDJdW0NIMl00KVtDSDJdW0NAQEhdKFtDQEhdNDUpW05IXUMoPU8pW0NIMl1PNQ==

> <s_epik_cmdline>
J2VwaWtfcHl0aG9uJywgJy1waCcsICc3LjAnLCAnLXRuJywgJzgnLCAnLW1hJywgJzIwMCcsICctbWV0YWxfYmluZGluZycsICctaW1hZScsICc8aW5maWxlLm1hZT4nLCAnLW9tYWUnLCAnPG91dGZpbGUubWFlPic=

> <r_lp_tautomer_probability>
1

> <r_epik_Ionization_Penalty>
0.00221504

> <r_epik_Ionization_Penalty_Charging>
0

> <r_epik_Ionization_Penalty_Neutral>
0.00221504

> <r_epik_State_Penalty>
-0

> <r_epik_Charging_Adjusted_Penalty>
0

> <i_epik_Tot_Q>
0

> <i_epik_Tot_abs_Q>
0

> <r_epik_Metal_State_Penalty>
-0

> <b_epik_Metal_Only>
0

> <s_lp_Force_Field>
OPLS_2005

> <r_lp_Energy>
45.6992

> <b_lp_Chiralities_Consistent>
1

> <s_lp_Variant>
AV-unprocessed.smi:265-5

> <Gold.Version>
5.8.1

> <Gold.Id.Protein>
6NUR|6NUR_protein|mol2

> <Gold.PLP.Fitness>
39.1166

> <Gold.PLP.PLP>
-38.5948

> <Gold.PLP.part.hbond>
-2.4030

> <Gold.PLP.part.metal>
0.0000

> <Gold.PLP.part.buried>
-4.2732

> <Gold.PLP.part.nonpolar>
-31.5825

> <Gold.PLP.part.repulsive>
0.1234

> <Gold.PLP.ligand.clash>
0.0000

> <Gold.PLP.ligand.torsion>
0.9754

> <Gold.PLP.Chemscore.Hbond>
0.7638

> <Gold.PLP.Chemscore.CHOScore>
0.0000

> <Gold.PLP.Chemscore.Metal>
0.0000

> <Gold.Chemscore.Hbonds>
donor molecule, donor type, donor heavy atom, donor atom, acceptor molecule, acceptor atom, score
      P1  H  6896  6909       L1    11  0.86

> <Gold.PLP.Chemscore.Internal.Correction>
0.1815

> <Gold.Rescore>
     Score         DG    S(hbond)    S(metal)    S(lipo)     H(rot)  DE(clash)    DE(int)     intcor
     10.31     -12.44       0.91        0.00      82.71       2.25       0.38       1.75       ----

> <Gold.Chemscore.Fitness>
10.3114

> <Gold.Chemscore.DG>
-12.4446

> <Gold.Chemscore.ZeroCoef>
-5.4800

> <Gold.Chemscore.Hbond>
0.9087

> <Gold.Chemscore.Metal>
0.0000

> <Gold.Chemscore.Lipo>
82.7134

> <Gold.Chemscore.Internal_Hbond>
0.0000

> <Gold.Chemscore.DEClash>
0.3840

> <Gold.Chemscore.DEInternal>
1.7492

> <Gold.Chemscore.Rot>
2.2453

> <Gold.Chemscore.Internal.Correction>
   9.000000E+99

> <Gold.Chemscore.Hbonds>
donor molecule, donor type, donor heavy atom, donor atom, acceptor molecule, acceptor atom, score
      P1  H  6896  6909       L1    11  0.65

> <Gold.Chemscore.Hbond.Weighted>
-3.0350

> <Gold.Chemscore.Metal.Weighted>
-0.0000

> <Gold.Chemscore.Lipo.Weighted>
-9.6775

> <Gold.Chemscore.Internal_Hbond.Weighted>
0.0000

> <Gold.Chemscore.DEClash.Weighted>
0.3840

> <Gold.Chemscore.DEInternal.Weighted>
1.7492

> <Gold.Chemscore.Rot.Weighted>
5.7479

> <Gold.Chemscore.Internal.Correction.Weighted>
   9.000000E+99

> <Gold.Protein.RotatedTorsions>
[ 6907 6896 6895 6894 ] final   99.65 input  -60.11 | X-H torsion
[ 7974 7965 7964 7962 ] final  -54.62 input  175.53 | X-H torsion
[ 8008 7997 7996 7995 ] final  113.62 input   59.86 | X-H torsion
[ 10167 10162 10161 10158 ] final  -88.17 input  -65.29 | X-H torsion
[ 10718 10713 10712 10709 ] final -168.56 input   66.30 | X-H torsion
[ 10763 10752 10751 10750 ] final   77.37 input  -60.55 | X-H torsion
[ 11005 11000 10999 10996 ] final  101.64 input  -57.11 | X-H torsion

> <Gold.Protein.ActiveResidues>
 VAL166  LYS551  ARG553  GLY616  TRP617  ASP618  TYR619  PRO620  LYS621  CYS622 
 ASP623  PHE694  ASN695  SER759  ASP760  ASP761  ALA762  ILE779  LEU786  VAL792 
 PHE793  MET794  SER795  GLU796  ALA797  LYS798  CYS799  TRP800  GLU811  SER814 

> <Gold.Protein.RotatedAtoms>
  152.5388  134.0396  159.8061 H   0  0  0  0  0  0  0  0  0  0  0  0  # atno 6907 bound_to 6896
  151.0554  133.5581  159.2646 H   0  0  0  0  0  0  0  0  0  0  0  0  # atno 6908 bound_to 6896
  151.2500  135.0626  159.9112 H   0  0  0  0  0  0  0  0  0  0  0  0  # atno 6909 bound_to 6896
  145.8835  140.8126  142.9827 H   0  0  0  0  0  0  0  0  0  0  0  0  # atno 7974 bound_to 7965
  156.2270  140.2976  156.0091 H   0  0  0  0  0  0  0  0  0  0  0  0  # atno 8008 bound_to 7997
  155.2330  140.0419  157.2982 H   0  0  0  0  0  0  0  0  0  0  0  0  # atno 8009 bound_to 7997
  154.5931  140.2407  155.7901 H   0  0  0  0  0  0  0  0  0  0  0  0  # atno 8010 bound_to 7997
  140.3773  143.2765  151.9427 H   0  0  0  0  0  0  0  0  0  0  0  0  # atno 10167 bound_to 10162
  156.6987  130.9188  151.3077 H   0  0  0  0  0  0  0  0  0  0  0  0  # atno 10718 bound_to 10713
  153.0794  135.4916  154.8471 H   0  0  0  0  0  0  0  0  0  0  0  0  # atno 10763 bound_to 10752
  154.7130  135.3024  154.9169 H   0  0  0  0  0  0  0  0  0  0  0  0  # atno 10764 bound_to 10752
  153.9857  135.6784  153.4805 H   0  0  0  0  0  0  0  0  0  0  0  0  # atno 10765 bound_to 10752
  139.8774  134.9191  156.4937 H   0  0  0  0  0  0  0  0  0  0  0  0  # atno 11005 bound_to 11000
  144.6728  140.1420  143.7436 LP  0  0  0  0  0  0  0  0  0  0  0  0  # atno 17320 bound_to 7965
  145.8995  139.2422  143.1502 LP  0  0  0  0  0  0  0  0  0  0  0  0  # atno 17321 bound_to 7965
  139.4798  144.5852  151.7866 LP  0  0  0  0  0  0  0  0  0  0  0  0  # atno 17342 bound_to 10162
  140.4973  144.1221  150.5963 LP  0  0  0  0  0  0  0  0  0  0  0  0  # atno 17343 bound_to 10162
  157.6981  130.9304  150.0705 LP  0  0  0  0  0  0  0  0  0  0  0  0  # atno 17370 bound_to 10713
  156.1745  130.3647  149.9120 LP  0  0  0  0  0  0  0  0  0  0  0  0  # atno 17371 bound_to 10713
  140.8640  133.8038  155.9294 LP  0  0  0  0  0  0  0  0  0  0  0  0  # atno 17394 bound_to 11000
  140.9021  134.2366  157.5036 LP  0  0  0  0  0  0  0  0  0  0  0  0  # atno 17395 bound_to 11000

$$$$
