#       Name:                AV-unprocessed.smi:2177
#       Creating user name   scv26
#       Creation time:       Fri Mar 27 12:04:10 2020


#       File generated by GOLD software.
#

@<TRIPOS>MOLECULE
AV-unprocessed.smi:2177
    47    48     1
SMALL
NO_CHARGES


@<TRIPOS>ATOM
      1 ****        -3.3940   2.6588  -1.2182 C.3            1 S1                 0.0000
      2 ****        -3.1873   1.1768  -1.3487 C.2            1 S1                 0.0000
      3 ****        -4.2179   0.3605  -1.2042 N.2            1 S1                 0.0000
      4 ****        -3.7041  -0.8748  -1.3682 N.pl3          1 S1                 0.0000
      5 ****        -4.5807  -2.0255  -1.2681 C.3            1 S1                 0.0000
      6 ****        -2.3470  -0.8388  -1.6244 C.2            1 S1                 0.0000
      7 ****        -1.5442  -2.0813  -1.8408 C.3            1 S1                 0.0000
      8 ****        -1.9735   0.4790  -1.6176 C.2            1 S1                 0.0000
      9 ****        -0.6059   1.0777  -1.8330 C.3            1 S1                 0.0000
     10 ****         0.1006   1.2538  -0.4887 C.2            1 S1                 0.0000
     11 ****         0.2634   2.3813  -0.0231 O.2            1 S1                 0.0000
     12 ****         0.5124   0.1299   0.1197 N.am           1 S1                 0.0000
     13 ****         1.1844   0.0537   1.4137 C.3            1 S1                 0.0000
     14 ****         0.5974  -1.1322   2.1943 C.3            1 S1                 0.0000
     15 ****         2.7072  -0.0772   1.2066 C.3            1 S1                 0.0000
     16 ****         3.5288  -0.1019   2.4966 C.3            1 S1                 0.0000
     17 ****         4.8970   0.4007   2.0630 C.3            1 S1                 0.0000
     18 ****         4.6452   1.0328   0.6918 C.3            1 S1                 0.0000
     19 ****         3.2321   1.0694   0.5548 O.3            1 S1                 0.0000
     20 ****        -2.7009   3.0857  -0.4931 H              1 S1                 0.0000
     21 ****        -4.4054   2.9002  -0.8896 H              1 S1                 0.0000
     22 ****        -3.2263   3.1599  -2.1715 H              1 S1                 0.0000
     23 ****        -4.7992  -2.4053  -2.2662 H              1 S1                 0.0000
     24 ****        -5.5166  -1.7533  -0.7784 H              1 S1                 0.0000
     25 ****        -4.0980  -2.8099  -0.6848 H              1 S1                 0.0000
     26 ****        -0.5385  -1.8487  -2.1893 H              1 S1                 0.0000
     27 ****        -2.0134  -2.7237  -2.5860 H              1 S1                 0.0000
     28 ****        -1.4534  -2.6470  -0.9135 H              1 S1                 0.0000
     29 ****         0.0120   0.4547  -2.4801 H              1 S1                 0.0000
     30 ****        -0.6740   2.0465  -2.3291 H              1 S1                 0.0000
     31 ****         0.3323  -0.7466  -0.3474 H              1 S1                 0.0000
     32 ****         0.9829   0.9600   1.9876 H              1 S1                 0.0000
     33 ****         1.0237  -1.2011   3.1951 H              1 S1                 0.0000
     34 ****         0.7888  -2.0772   1.6848 H              1 S1                 0.0000
     35 ****        -0.4821  -1.0288   2.3087 H              1 S1                 0.0000
     36 ****         2.9360  -0.9593   0.6048 H              1 S1                 0.0000
     37 ****         3.1040   0.5883   3.2265 H              1 S1                 0.0000
     38 ****         3.5676  -1.0913   2.9526 H              1 S1                 0.0000
     39 ****         5.2898   1.1254   2.7766 H              1 S1                 0.0000
     40 ****         5.6159  -0.4152   1.9826 H              1 S1                 0.0000
     41 ****         5.0732   2.0317   0.6049 H              1 S1                 0.0000
     42 ****         5.0661   0.4117  -0.0999 H              1 S1                 0.0000
     43 ****        -5.1687   0.6057  -1.0150 LP             1 S1                 0.0000
     44 ****        -0.0663   3.1815  -0.5240 LP             1 S1                 0.0000
     45 ****         0.7255   2.4973   0.8561 LP             1 S1                 0.0000
     46 ****         2.8698   1.8989   0.9798 LP             1 S1                 0.0000
     47 ****         2.9831   1.0550  -0.4136 LP             1 S1                 0.0000
@<TRIPOS>BOND
    1    1    2 1     
    2    1   20 1     
    3    1   21 1     
    4    1   22 1     
    5    2    8 1     
    6    2    3 2     
    7    3    4 1     
    8    4    5 1     
    9    4    6 1     
   10    5   23 1     
   11    5   24 1     
   12    5   25 1     
   13    6    7 1     
   14    6    8 2     
   15    7   26 1     
   16    7   27 1     
   17    7   28 1     
   18    8    9 1     
   19    9   10 1     
   20    9   29 1     
   21    9   30 1     
   22   10   11 2     
   23   10   12 am    
   24   12   13 1     
   25   12   31 1     
   26   13   14 1     
   27   13   15 1     
   28   13   32 1     
   29   14   33 1     
   30   14   34 1     
   31   14   35 1     
   32   15   19 1     
   33   15   16 1     
   34   15   36 1     
   35   16   17 1     
   36   16   37 1     
   37   16   38 1     
   38   17   18 1     
   39   17   39 1     
   40   17   40 1     
   41   18   19 1     
   42   18   41 1     
   43   18   42 1     
   44    3   43 1     
   45   11   44 1     
   46   11   45 1     
   47   19   46 1     
   48   19   47 1     
@<TRIPOS>SUBSTRUCTURE
      1 S1             1
@<TRIPOS>SET
LONE_PAIRS      STATIC     ATOMS    <user>   **** ""
5 43 44 45 46 47
DONOR_HYDROGENS      STATIC     ATOMS    <user>   **** ""
1 31
ATOM$BLUE        STATIC     ATOMS    COLORGROUP SYSTEM
5 43 44 45 46 47
ATOM$RED        STATIC     ATOMS    COLORGROUP SYSTEM
1 31
