AV-unprocessed.smi:788|AV-procd|sdf|3737|dock3
  -GOLD-   22720 1173D 1   1.00000     0.00000
 Structure written by MMmdl.
 34 35  0  0  0  0  0  0  0  0  2 V2000
  153.7419  142.0588  160.5978 C   0  0  0  0  0  0  0  0  0  0  0  0
  152.8064  142.8894  159.7000 C   0  0  2  0  0  0  0  0  0  0  0  0
  152.1161  143.9947  160.5215 C   0  0  0  0  0  0  0  0  0  0  0  0
  151.1949  144.8565  159.6491 C   0  0  0  0  0  0  0  0  0  0  0  0
  150.1468  143.9907  158.9393 C   0  0  0  0  0  0  0  0  0  0  0  0
  150.8044  142.8845  158.0925 C   0  0  2  0  0  0  0  0  0  0  0  0
  149.7295  142.0459  157.3768 C   0  0  0  0  0  0  0  0  0  0  0  0
  151.7579  142.0197  158.9578 C   0  0  1  0  0  0  0  0  0  0  0  0
  152.4359  141.0402  158.1063 N   0  0  0  0  0  0  0  0  0  0  0  0
  152.4871  139.7039  158.2776 C   0  0  0  0  0  0  0  0  0  0  0  0
  151.9353  139.2018  159.2556 O   0  0  0  0  0  0  0  0  0  0  0  0
  153.1558  138.9737  157.3465 N   0  5  0  0  0  0  0  0  0  0  0  0
  152.5317  138.3539  156.3277 C   0  0  0  0  0  0  0  0  0  0  0  0
  152.5505  137.0198  156.1758 N   0  0  0  0  0  0  0  0  0  0  0  0
  151.8516  136.5884  155.0566 N   0  0  0  0  0  0  0  0  0  0  0  0
  151.3129  137.6126  154.3954 C   0  0  0  0  0  0  0  0  0  0  0  0
  151.6118  139.1969  155.0780 S   0  0  0  0  0  0  0  0  0  0  0  0
  153.1781  141.4980  161.3438 H   0  0  0  0  0  0  0  0  0  0  0  0
  154.4483  142.6991  161.1265 H   0  0  0  0  0  0  0  0  0  0  0  0
  154.3283  141.3450  160.0191 H   0  0  0  0  0  0  0  0  0  0  0  0
  153.4295  143.3792  158.9498 H   0  0  0  0  0  0  0  0  0  0  0  0
  151.5362  143.5459  161.3293 H   0  0  0  0  0  0  0  0  0  0  0  0
  152.8646  144.6302  160.9958 H   0  0  0  0  0  0  0  0  0  0  0  0
  150.7000  145.6097  160.2626 H   0  0  0  0  0  0  0  0  0  0  0  0
  151.7872  145.3979  158.9104 H   0  0  0  0  0  0  0  0  0  0  0  0
  149.4827  143.5431  159.6799 H   0  0  0  0  0  0  0  0  0  0  0  0
  149.5222  144.6233  158.3077 H   0  0  0  0  0  0  0  0  0  0  0  0
  151.4009  143.3736  157.3206 H   0  0  0  0  0  0  0  0  0  0  0  0
  149.1210  141.4918  158.0920 H   0  0  0  0  0  0  0  0  0  0  0  0
  150.1714  141.3253  156.6883 H   0  0  0  0  0  0  0  0  0  0  0  0
  149.0624  142.6798  156.7925 H   0  0  0  0  0  0  0  0  0  0  0  0
  151.1516  141.5116  159.7096 H   0  0  0  0  0  0  0  0  0  0  0  0
  152.9104  141.4117  157.2966 H   0  0  0  0  0  0  0  0  0  0  0  0
  150.7355  137.4340  153.5008 H   0  0  0  0  0  0  0  0  0  0  0  0
  1  2  1  0  0  0  0
  1 18  1  0  0  0  0
  1 19  1  0  0  0  0
  1 20  1  0  0  0  0
  2  8  1  0  0  0  0
  2  3  1  0  0  0  0
  2 21  1  0  0  0  0
  3  4  1  0  0  0  0
  3 22  1  0  0  0  0
  3 23  1  0  0  0  0
  4  5  1  0  0  0  0
  4 24  1  0  0  0  0
  4 25  1  0  0  0  0
  5  6  1  0  0  0  0
  5 26  1  0  0  0  0
  5 27  1  0  0  0  0
  6  7  1  0  0  0  0
  6  8  1  0  0  0  0
  6 28  1  0  0  0  0
  7 29  1  0  0  0  0
  7 30  1  0  0  0  0
  7 31  1  0  0  0  0
  8  9  1  0  0  0  0
  8 32  1  0  0  0  0
  9 10  1  0  0  0  0
  9 33  1  0  0  0  0
 10 11  2  0  0  0  0
 10 12  1  0  0  0  0
 12 13  1  0  0  0  0
 13 17  1  0  0  0  0
 13 14  2  0  0  0  0
 14 15  1  0  0  0  0
 15 16  2  0  0  0  0
 16 17  1  0  0  0  0
 16 34  1  0  0  0  0
M  CHG  1  12  -1
M  END
> <s_m_source_file>
AV-unprocessed.smi

> <i_m_source_file_index>
788

> <i_lp_mmshare_version>
43012

> <i_f3d_flags>
0

> <s_epik_input>
W0NIM11bQ0BASF0xW0NIMl1bQ0gyXVtDSDJdW0NAQEhdKFtDSDNdKVtDQEhdMVtOSF1DKD1PKVtOSF1jMm5uW2NIXXMy

> <s_epik_cmdline>
J2VwaWtfcHl0aG9uJywgJy1waCcsICc3LjAnLCAnLXRuJywgJzgnLCAnLW1hJywgJzIwMCcsICctbWV0YWxfYmluZGluZycsICctaW1hZScsICc8aW5maWxlLm1hZT4nLCAnLW9tYWUnLCAnPG91dGZpbGUubWFlPic=

> <r_lp_tautomer_probability>
1

> <r_epik_Ionization_Penalty>
4.58638

> <r_epik_Ionization_Penalty_Charging>
4.53816

> <r_epik_Ionization_Penalty_Neutral>
0.048215

> <r_epik_State_Penalty>
4.53788

> <r_epik_Charging_Adjusted_Penalty>
9.07605

> <i_epik_Tot_Q>
-1

> <i_epik_Tot_abs_Q>
1

> <r_epik_Metal_State_Penalty>
0.838628

> <b_epik_Metal_Only>
1

> <s_lp_Force_Field>
OPLS_2005

> <r_lp_Energy>
11.4954

> <b_lp_Chiralities_Consistent>
1

> <s_lp_Variant>
AV-unprocessed.smi:788-7

> <Gold.Version>
5.8.1

> <Gold.Id.Protein>
6NUR|6NUR_protein|mol2

> <Gold.PLP.Fitness>
44.1579

> <Gold.PLP.PLP>
-35.3020

> <Gold.PLP.part.hbond>
-2.9614

> <Gold.PLP.part.metal>
0.0000

> <Gold.PLP.part.buried>
-4.1490

> <Gold.PLP.part.nonpolar>
-28.4981

> <Gold.PLP.part.repulsive>
0.1961

> <Gold.PLP.ligand.clash>
0.0000

> <Gold.PLP.ligand.torsion>
1.3878

> <Gold.PLP.Chemscore.Hbond>
2.7500

> <Gold.PLP.Chemscore.CHOScore>
1.1226

> <Gold.PLP.Chemscore.Metal>
0.0000

> <Gold.Chemscore.Hbonds>
donor molecule, donor type, donor heavy atom, donor atom, acceptor molecule, acceptor atom, score
      P1  H  7997  8008       L1    12  2.00
      P1  H 10752 10764       L1    15  0.75
      L1  C    16    34       P1  7948  0.34
      L1  C    16    34       P1  7949  0.79

> <Gold.PLP.Chemscore.Internal.Correction>
0.0138

> <Gold.Rescore>
     Score         DG    S(hbond)    S(metal)    S(lipo)     H(rot)  DE(clash)    DE(int)     intcor
     15.11     -16.86       0.89        0.00      93.86       1.00       0.24       1.51       ----

> <Gold.Chemscore.Fitness>
15.1135

> <Gold.Chemscore.DG>
-16.8583

> <Gold.Chemscore.ZeroCoef>
-5.4800

> <Gold.Chemscore.Hbond>
0.8854

> <Gold.Chemscore.Metal>
0.0000

> <Gold.Chemscore.Lipo>
93.8559

> <Gold.Chemscore.Internal_Hbond>
0.0000

> <Gold.Chemscore.DEClash>
0.2353

> <Gold.Chemscore.DEInternal>
1.5095

> <Gold.Chemscore.Rot>
1.0000

> <Gold.Chemscore.Internal.Correction>
   9.000000E+99

> <Gold.Chemscore.Hbonds>
donor molecule, donor type, donor heavy atom, donor atom, acceptor molecule, acceptor atom, score
      P1  H  7997  8008       L1    12  0.36
      P1  H 10752 10764       L1    15  0.09

> <Gold.Chemscore.Hbond.Weighted>
-2.9572

> <Gold.Chemscore.Metal.Weighted>
-0.0000

> <Gold.Chemscore.Lipo.Weighted>
-10.9811

> <Gold.Chemscore.Internal_Hbond.Weighted>
0.0000

> <Gold.Chemscore.DEClash.Weighted>
0.2353

> <Gold.Chemscore.DEInternal.Weighted>
1.5095

> <Gold.Chemscore.Rot.Weighted>
2.5600

> <Gold.Chemscore.Internal.Correction.Weighted>
   9.000000E+99

> <Gold.Protein.RotatedTorsions>
[ 6907 6896 6895 6894 ] final   80.17 input  -60.11 | X-H torsion
[ 7974 7965 7964 7962 ] final  140.23 input  175.53 | X-H torsion
[ 8008 7997 7996 7995 ] final  -61.03 input   59.86 | X-H torsion
[ 10167 10162 10161 10158 ] final  177.36 input  -65.29 | X-H torsion
[ 10718 10713 10712 10709 ] final   62.62 input   66.30 | X-H torsion
[ 10763 10752 10751 10750 ] final  -58.94 input  -60.55 | X-H torsion
[ 11005 11000 10999 10996 ] final  136.78 input  -57.11 | X-H torsion

> <Gold.Protein.ActiveResidues>
 VAL166  LYS551  ARG553  GLY616  TRP617  ASP618  TYR619  PRO620  LYS621  CYS622 
 ASP623  PHE694  ASN695  SER759  ASP760  ASP761  ALA762  ILE779  LEU786  VAL792 
 PHE793  MET794  SER795  GLU796  ALA797  LYS798  CYS799  TRP800  GLU811  SER814 

> <Gold.Protein.RotatedAtoms>
  152.5225  134.3399  159.9213 H   0  0  0  0  0  0  0  0  0  0  0  0  # atno 6907 bound_to 6896
  151.3349  133.3979  159.2673 H   0  0  0  0  0  0  0  0  0  0  0  0  # atno 6908 bound_to 6896
  150.9850  134.9215  159.7924 H   0  0  0  0  0  0  0  0  0  0  0  0  # atno 6909 bound_to 6896
  144.9205  139.5173  143.5665 H   0  0  0  0  0  0  0  0  0  0  0  0  # atno 7974 bound_to 7965
  154.4427  140.1026  156.6366 H   0  0  0  0  0  0  0  0  0  0  0  0  # atno 8008 bound_to 7997
  155.5547  140.3486  155.4458 H   0  0  0  0  0  0  0  0  0  0  0  0  # atno 8009 bound_to 7997
  156.0503  140.1302  157.0046 H   0  0  0  0  0  0  0  0  0  0  0  0  # atno 8010 bound_to 7997
  139.5250  144.2807  152.0549 H   0  0  0  0  0  0  0  0  0  0  0  0  # atno 10167 bound_to 10162
  157.5914  130.9060  149.9611 H   0  0  0  0  0  0  0  0  0  0  0  0  # atno 10718 bound_to 10713
  154.2460  135.6335  153.5223 H   0  0  0  0  0  0  0  0  0  0  0  0  # atno 10763 bound_to 10752
  152.9921  135.5553  154.5859 H   0  0  0  0  0  0  0  0  0  0  0  0  # atno 10764 bound_to 10752
  154.5375  135.2892  155.1100 H   0  0  0  0  0  0  0  0  0  0  0  0  # atno 10765 bound_to 10752
  140.0069  134.9455  157.0195 H   0  0  0  0  0  0  0  0  0  0  0  0  # atno 11005 bound_to 11000
  146.3202  139.8082  142.8951 LP  0  0  0  0  0  0  0  0  0  0  0  0  # atno 17320 bound_to 7965
  145.3303  141.0265  143.3450 LP  0  0  0  0  0  0  0  0  0  0  0  0  # atno 17321 bound_to 7965
  140.2262  144.4415  150.6320 LP  0  0  0  0  0  0  0  0  0  0  0  0  # atno 17342 bound_to 10162
  140.6385  143.2199  151.6341 LP  0  0  0  0  0  0  0  0  0  0  0  0  # atno 17343 bound_to 10162
  156.0969  130.3658  150.0290 LP  0  0  0  0  0  0  0  0  0  0  0  0  # atno 17370 bound_to 10713
  156.8412  130.9426  151.3632 LP  0  0  0  0  0  0  0  0  0  0  0  0  # atno 17371 bound_to 10713
  140.4624  134.1470  155.7193 LP  0  0  0  0  0  0  0  0  0  0  0  0  # atno 17394 bound_to 11000
  141.1683  133.8658  157.1647 LP  0  0  0  0  0  0  0  0  0  0  0  0  # atno 17395 bound_to 11000

$$$$
