#       Name:                AV-unprocessed.smi:3255
#       Creating user name   scv26
#       Creation time:       Fri Mar 27 18:35:30 2020


#       File generated by GOLD software.
#

@<TRIPOS>MOLECULE
AV-unprocessed.smi:3255
    43    44     1
SMALL
NO_CHARGES


@<TRIPOS>ATOM
      1 ****        -3.4774  -0.3898   2.7491 C.3            1 S1                 0.0000
      2 ****        -2.7600   0.0229   1.4557 C.3            1 S1                 0.0000
      3 ****        -1.3145  -0.0552   1.6619 N.am           1 S1                 0.0000
      4 ****        -0.4010   0.7148   1.0548 C.2            1 S1                 0.0000
      5 ****        -0.6708   1.6180   0.2625 O.2            1 S1                 0.0000
      6 ****         0.8482   0.3734   1.3996 N.am           1 S1                 0.0000
      7 ****         2.0506   1.0071   0.8728 C.3            1 S1                 0.0000
      8 ****         2.3912   0.4841  -0.5329 C.3            1 S1                 0.0000
      9 ****         3.5295   1.1969  -1.1131 N.pl3          1 S1                 0.0000
     10 ****         4.8567   0.8650  -1.0225 C.2            1 S1                 0.0000
     11 ****         5.5468   1.8251  -1.7175 C.2            1 S1                 0.0000
     12 ****         4.6122   2.7015  -2.2009 N.pl3          1 S1                 1.0000
     13 ****         3.3858   2.3178  -1.8318 C.2            1 S1                 0.0000
     14 ****        -3.2162  -0.8287   0.2477 C.3            1 S1                 0.0000
     15 ****        -2.7942  -2.3044   0.2567 C.3            1 S1                 0.0000
     16 ****        -2.7416  -2.6211  -1.2205 C.3            1 S1                 0.0000
     17 ****        -2.1722  -1.3255  -1.7860 C.3            1 S1                 0.0000
     18 ****        -2.7187  -0.2897  -0.9767 O.3            1 S1                 0.0000
     19 ****        -4.5591  -0.3071   2.6402 H              1 S1                 0.0000
     20 ****        -3.1827   0.2489   3.5824 H              1 S1                 0.0000
     21 ****        -3.2483  -1.4202   3.0226 H              1 S1                 0.0000
     22 ****        -3.0332   1.0614   1.2595 H              1 S1                 0.0000
     23 ****        -0.9870  -0.7686   2.2965 H              1 S1                 0.0000
     24 ****         0.9752  -0.3806   2.0590 H              1 S1                 0.0000
     25 ****         1.9183   2.0905   0.8582 H              1 S1                 0.0000
     26 ****         2.8751   0.8050   1.5571 H              1 S1                 0.0000
     27 ****         2.6368  -0.5782  -0.5012 H              1 S1                 0.0000
     28 ****         1.5445   0.5968  -1.2123 H              1 S1                 0.0000
     29 ****         5.2023  -0.0059  -0.4843 H              1 S1                 0.0000
     30 ****         6.6047   1.9476  -1.8989 H              1 S1                 0.0000
     31 ****         2.4614   2.8155  -2.0665 H              1 S1                 0.0000
     32 ****        -4.3038  -0.7831   0.1719 H              1 S1                 0.0000
     33 ****        -1.8030  -2.4401   0.6898 H              1 S1                 0.0000
     34 ****        -3.4911  -2.9398   0.8037 H              1 S1                 0.0000
     35 ****        -2.1296  -3.4932  -1.4527 H              1 S1                 0.0000
     36 ****        -3.7474  -2.7927  -1.6061 H              1 S1                 0.0000
     37 ****        -1.0864  -1.3101  -1.6819 H              1 S1                 0.0000
     38 ****        -2.4158  -1.1822  -2.8389 H              1 S1                 0.0000
     39 ****         4.8164   3.5226  -2.7571 H              1 S1                 0.0000
     40 ****        -1.6245   1.8158   0.0356 LP             1 S1                 0.0000
     41 ****         0.0637   2.1538  -0.1540 LP             1 S1                 0.0000
     42 ****        -2.0064   0.3828  -0.7759 LP             1 S1                 0.0000
     43 ****        -3.4668   0.1544  -1.4698 LP             1 S1                 0.0000
@<TRIPOS>BOND
    1    1    2 1     
    2    1   19 1     
    3    1   20 1     
    4    1   21 1     
    5    2    3 1     
    6    2   14 1     
    7    2   22 1     
    8    3    4 am    
    9    3   23 1     
   10    4    5 2     
   11    4    6 am    
   12    6    7 1     
   13    6   24 1     
   14    7    8 1     
   15    7   25 1     
   16    7   26 1     
   17    8    9 1     
   18    8   27 1     
   19    8   28 1     
   20    9   13 1     
   21    9   10 1     
   22   10   11 2     
   23   10   29 1     
   24   11   12 1     
   25   11   30 1     
   26   12   13 2     
   27   12   39 1     
   28   13   31 1     
   29   14   18 1     
   30   14   15 1     
   31   14   32 1     
   32   15   16 1     
   33   15   33 1     
   34   15   34 1     
   35   16   17 1     
   36   16   35 1     
   37   16   36 1     
   38   17   18 1     
   39   17   37 1     
   40   17   38 1     
   41    5   40 1     
   42    5   41 1     
   43   18   42 1     
   44   18   43 1     
@<TRIPOS>SUBSTRUCTURE
      1 S1             1
@<TRIPOS>SET
LONE_PAIRS      STATIC     ATOMS    <user>   **** ""
4 40 41 42 43
DONOR_HYDROGENS      STATIC     ATOMS    <user>   **** ""
3 23 24 39
ATOM$BLUE        STATIC     ATOMS    COLORGROUP SYSTEM
4 40 41 42 43
ATOM$RED        STATIC     ATOMS    COLORGROUP SYSTEM
3 23 24 39
