AV-unprocessed.smi:35|AV-procd|sdf|265|dock8
  -GOLD-   2262016 33D 1   1.00000     0.00000
 Structure written by MMmdl.
 28 29  0  0  0  0  0  0  0  0  2 V2000
  150.3846  134.3109  155.8856 O   0  0  0  0  0  0  0  0  0  0  0  0
  150.4356  135.5066  155.6029 C   0  0  0  0  0  0  0  0  0  0  0  0
  151.6055  136.2069  155.5508 N   0  5  0  0  0  0  0  0  0  0  0  0
  151.6574  137.5360  155.2400 C   0  0  0  0  0  0  0  0  0  0  0  0
  152.7112  138.1677  155.1668 O   0  0  0  0  0  0  0  0  0  0  0  0
  150.4429  138.2281  154.9782 N   0  0  0  0  0  0  0  0  0  0  0  0
  150.4807  139.6995  154.6279 C   0  0  2  0  0  0  0  0  0  0  0  0
  150.9714  140.4136  155.7269 O   0  0  0  0  0  0  0  0  0  0  0  0
  150.0627  141.4452  156.0979 C   0  0  2  0  0  0  0  0  0  0  0  0
  150.1645  141.6918  157.6114 C   0  0  0  0  0  0  0  0  0  0  0  0
  149.3362  142.7685  157.9970 O   0  0  0  0  0  0  0  0  0  0  0  0
  148.7057  140.9257  155.6186 C   0  0  1  0  0  0  0  0  0  0  0  0
  147.7450  141.9494  155.4406 O   0  0  0  0  0  0  0  0  0  0  0  0
  149.0634  140.2085  154.3224 C   0  0  1  0  0  0  0  0  0  0  0  0
  149.0698  141.0725  153.2006 O   0  0  0  0  0  0  0  0  0  0  0  0
  149.2421  137.5390  155.0045 C   0  0  0  0  0  0  0  0  0  0  0  0
  149.1999  136.2253  155.3037 C   0  0  0  0  0  0  0  0  0  0  0  0
  147.4127  135.3698  155.3015 Br  0  0  0  0  0  0  0  0  0  0  0  0
  151.1817  139.7999  153.7978 H   0  0  0  0  0  0  0  0  0  0  0  0
  150.3436  142.3417  155.5421 H   0  0  0  0  0  0  0  0  0  0  0  0
  149.8937  140.7987  158.1751 H   0  0  0  0  0  0  0  0  0  0  0  0
  151.1916  141.9410  157.8788 H   0  0  0  0  0  0  0  0  0  0  0  0
  148.8497  143.0590  157.2407 H   0  0  0  0  0  0  0  0  0  0  0  0
  148.3189  140.1973  156.3326 H   0  0  0  0  0  0  0  0  0  0  0  0
  148.1817  142.7840  155.5178 H   0  0  0  0  0  0  0  0  0  0  0  0
  148.3833  139.3818  154.1122 H   0  0  0  0  0  0  0  0  0  0  0  0
  149.2149  140.5525  152.4254 H   0  0  0  0  0  0  0  0  0  0  0  0
  148.3193  138.0508  154.7782 H   0  0  0  0  0  0  0  0  0  0  0  0
  1  2  2  0  0  0  0
  2 17  1  0  0  0  0
  2  3  1  0  0  0  0
  3  4  1  0  0  0  0
  4  5  2  0  0  0  0
  4  6  1  0  0  0  0
  6  7  1  0  0  0  0
  6 16  1  0  0  0  0
  7 14  1  0  0  0  0
  7  8  1  0  0  0  0
  7 19  1  0  0  0  0
  8  9  1  0  0  0  0
  9 10  1  0  0  0  0
  9 12  1  0  0  0  0
  9 20  1  0  0  0  0
 10 11  1  0  0  0  0
 10 21  1  0  0  0  0
 10 22  1  0  0  0  0
 11 23  1  0  0  0  0
 12 13  1  0  0  0  0
 12 14  1  0  0  0  0
 12 24  1  0  0  0  0
 13 25  1  0  0  0  0
 14 15  1  0  0  0  0
 14 26  1  0  0  0  0
 15 27  1  0  0  0  0
 16 17  2  0  0  0  0
 16 28  1  0  0  0  0
 17 18  1  0  0  0  0
M  CHG  1   3  -1
M  END
> <s_m_source_file>
AV-unprocessed.smi

> <i_m_source_file_index>
35

> <i_lp_mmshare_version>
43012

> <i_f3d_flags>
0

> <s_epik_input>
Tz1jMVtuSF1jKD1PKW4oW2NIXWMxQnIpW0NAQEhdMk9bQ0BASF0oW0NIMl1bT0hdKVtDQEBIXShbT0hdKVtDQEhdMltPSF0=

> <s_epik_cmdline>
J2VwaWtfcHl0aG9uJywgJy1waCcsICc3LjAnLCAnLXRuJywgJzgnLCAnLW1hJywgJzIwMCcsICctbWV0YWxfYmluZGluZycsICctaW1hZScsICc8aW5maWxlLm1hZT4nLCAnLW9tYWUnLCAnPG91dGZpbGUubWFlPic=

> <r_epik_Ionization_Penalty>
1.06112

> <r_epik_Ionization_Penalty_Charging>
2.1796e-09

> <r_epik_Ionization_Penalty_Neutral>
1.06112

> <r_epik_State_Penalty>
1.11484

> <r_epik_Charging_Adjusted_Penalty>
1.11484

> <i_epik_Tot_Q>
-1

> <i_epik_Tot_abs_Q>
1

> <r_epik_Metal_State_Penalty>
0.0032876

> <b_epik_Metal_Only>
0

> <s_epik_Chemistry_Notes>
This compound contains an acetal/aminal-like group ( X-CH(R)-Y where X, Y are N, S, or O) that may be acid/base labile, releasing an aldehyde.

> <s_lp_Force_Field>
OPLS_2005

> <r_lp_Energy>
41.5323

> <b_lp_Chiralities_Consistent>
1

> <s_lp_Variant>
AV-unprocessed.smi:35-19

> <Gold.Version>
5.8.1

> <Gold.Id.Protein>
6NUR|6NUR_protein|mol2

> <Gold.PLP.Fitness>
45.2089

> <Gold.PLP.PLP>
-28.0108

> <Gold.PLP.part.hbond>
-7.1802

> <Gold.PLP.part.metal>
0.0000

> <Gold.PLP.part.buried>
-3.3952

> <Gold.PLP.part.nonpolar>
-17.4340

> <Gold.PLP.part.repulsive>
0.1232

> <Gold.PLP.ligand.clash>
0.0000

> <Gold.PLP.ligand.torsion>
0.0338

> <Gold.PLP.Chemscore.Hbond>
5.7516

> <Gold.PLP.Chemscore.CHOScore>
0.0000

> <Gold.PLP.Chemscore.Metal>
0.0000

> <Gold.Chemscore.Hbonds>
donor molecule, donor type, donor heavy atom, donor atom, acceptor molecule, acceptor atom, score
      L1  H    11    23       P1  8028  0.30
      L1  H    13    25       P1  8028  0.96
      L1  H    15    27       P1  7957  0.71
      P1  H  8011  8017       L1    15  0.35
      P1  H 10752 10765       L1     3  2.00

> <Gold.PLP.Chemscore.Internal.Correction>
0.0109

> <Gold.Rescore>
     Score         DG    S(hbond)    S(metal)    S(lipo)     H(rot)  DE(clash)    DE(int)     intcor
     10.98     -12.43       3.76        0.00      31.55       3.63       1.01       0.44       ----

> <Gold.Chemscore.Fitness>
10.9822

> <Gold.Chemscore.DG>
-12.4309

> <Gold.Chemscore.ZeroCoef>
-5.4800

> <Gold.Chemscore.Hbond>
3.7551

> <Gold.Chemscore.Metal>
0.0000

> <Gold.Chemscore.Lipo>
31.5526

> <Gold.Chemscore.Internal_Hbond>
0.0000

> <Gold.Chemscore.DEClash>
1.0089

> <Gold.Chemscore.DEInternal>
0.4398

> <Gold.Chemscore.Rot>
3.6261

> <Gold.Chemscore.Internal.Correction>
   9.000000E+99

> <Gold.Chemscore.Hbonds>
donor molecule, donor type, donor heavy atom, donor atom, acceptor molecule, acceptor atom, score
      L1  H    11    23       P1  8028  0.18
      L1  H    13    25       P1  8028  0.87
      L1  H    15    27       P1  7957  0.71
      P1  H  8011  8017       L1    15  0.01
      P1  H 10752 10765       L1     3  0.55

> <Gold.Chemscore.Hbond.Weighted>
-12.5420

> <Gold.Chemscore.Metal.Weighted>
-0.0000

> <Gold.Chemscore.Lipo.Weighted>
-3.6917

> <Gold.Chemscore.Internal_Hbond.Weighted>
0.0000

> <Gold.Chemscore.DEClash.Weighted>
1.0089

> <Gold.Chemscore.DEInternal.Weighted>
0.4398

> <Gold.Chemscore.Rot.Weighted>
9.2828

> <Gold.Chemscore.Internal.Correction.Weighted>
   9.000000E+99

> <Gold.Protein.RotatedTorsions>
[ 6907 6896 6895 6894 ] final -168.45 input  -60.11 | X-H torsion
[ 7974 7965 7964 7962 ] final  146.69 input  175.53 | X-H torsion
[ 8008 7997 7996 7995 ] final   34.73 input   59.86 | X-H torsion
[ 10167 10162 10161 10158 ] final  117.60 input  -65.29 | X-H torsion
[ 10718 10713 10712 10709 ] final -146.60 input   66.30 | X-H torsion
[ 10763 10752 10751 10750 ] final -158.57 input  -60.55 | X-H torsion
[ 11005 11000 10999 10996 ] final  -72.82 input  -57.11 | X-H torsion

> <Gold.Protein.ActiveResidues>
 VAL166  LYS551  ARG553  GLY616  TRP617  ASP618  TYR619  PRO620  LYS621  CYS622 
 ASP623  PHE694  ASN695  SER759  ASP760  ASP761  ALA762  ILE779  LEU786  VAL792 
 PHE793  MET794  SER795  GLU796  ALA797  LYS798  CYS799  TRP800  GLU811  SER814 

> <Gold.Protein.RotatedAtoms>
  151.4757  133.3558  159.2830 H   0  0  0  0  0  0  0  0  0  0  0  0  # atno 6907 bound_to 6896
  150.8931  134.8338  159.7318 H   0  0  0  0  0  0  0  0  0  0  0  0  # atno 6908 bound_to 6896
  152.4835  134.4669  159.9675 H   0  0  0  0  0  0  0  0  0  0  0  0  # atno 6909 bound_to 6896
  144.8650  139.5937  143.5913 H   0  0  0  0  0  0  0  0  0  0  0  0  # atno 7974 bound_to 7965
  155.1595  140.3282  155.4414 H   0  0  0  0  0  0  0  0  0  0  0  0  # atno 8008 bound_to 7997
  156.2547  140.1962  156.6654 H   0  0  0  0  0  0  0  0  0  0  0  0  # atno 8009 bound_to 7997
  154.6415  140.0569  156.9837 H   0  0  0  0  0  0  0  0  0  0  0  0  # atno 8010 bound_to 7997
  139.6168  144.7093  151.2722 H   0  0  0  0  0  0  0  0  0  0  0  0  # atno 10167 bound_to 10162
  156.3970  130.7914  151.2122 H   0  0  0  0  0  0  0  0  0  0  0  0  # atno 10718 bound_to 10713
  154.7546  135.3101  154.8495 H   0  0  0  0  0  0  0  0  0  0  0  0  # atno 10763 bound_to 10752
  153.9272  135.6789  153.4750 H   0  0  0  0  0  0  0  0  0  0  0  0  # atno 10764 bound_to 10752
  153.1142  135.4852  154.9017 H   0  0  0  0  0  0  0  0  0  0  0  0  # atno 10765 bound_to 10752
  141.1614  133.6858  156.7117 H   0  0  0  0  0  0  0  0  0  0  0  0  # atno 11005 bound_to 11000
  146.2889  139.7083  142.9175 LP  0  0  0  0  0  0  0  0  0  0  0  0  # atno 17320 bound_to 7965
  145.4238  141.0409  143.2949 LP  0  0  0  0  0  0  0  0  0  0  0  0  # atno 17321 bound_to 7965
  140.7356  143.6732  150.8063 LP  0  0  0  0  0  0  0  0  0  0  0  0  # atno 17342 bound_to 10162
  140.0336  143.5418  152.2749 LP  0  0  0  0  0  0  0  0  0  0  0  0  # atno 17343 bound_to 10162
  157.7502  131.0298  150.4110 LP  0  0  0  0  0  0  0  0  0  0  0  0  # atno 17370 bound_to 10713
  156.4382  130.3986  149.6715 LP  0  0  0  0  0  0  0  0  0  0  0  0  # atno 17371 bound_to 10713
  140.2882  134.8262  157.3994 LP  0  0  0  0  0  0  0  0  0  0  0  0  # atno 17394 bound_to 11000
  140.1370  134.5020  155.8060 LP  0  0  0  0  0  0  0  0  0  0  0  0  # atno 17395 bound_to 11000

$$$$
