#       Name:                AV-unprocessed.smi:1703
#       Creating user name   scv26
#       Creation time:       Fri Mar 27 08:04:12 2020


#       File generated by GOLD software.
#

@<TRIPOS>MOLECULE
AV-unprocessed.smi:1703
    56    58     1
SMALL
NO_CHARGES


@<TRIPOS>ATOM
      1 ****        -5.4519   1.8756   1.5520 C.3            1 S1                 0.0000
      2 ****        -3.9725   2.0085   1.1758 C.3            1 S1                 0.0000
      3 ****        -3.3559   0.6602   0.7624 C.3            1 S1                 0.0000
      4 ****        -1.9720   0.8052   0.3301 N.3            1 S1                 0.0000
      5 ****        -1.3863  -0.4905  -0.0121 C.3            1 S1                 0.0000
      6 ****         0.1378  -0.4732  -0.2571 C.3            1 S1                 0.0000
      7 ****         0.3813  -0.3427  -1.6448 O.3            1 S1                 0.0000
      8 ****         0.8172  -1.7614   0.2513 C.3            1 S1                 0.0000
      9 ****         2.2644  -1.7446   0.0794 N.pl3          1 S1                 0.0000
     10 ****         3.1983  -1.2304   0.9192 C.2            1 S1                 0.0000
     11 ****         2.8097  -0.5802   2.2174 C.3            1 S1                 0.0000
     12 ****         3.8892   0.0161   2.9083 O.3            1 S1                 0.0000
     13 ****         4.4654  -1.3539   0.5167 N.2            1 S1                 0.0000
     14 ****         4.3410  -2.0081  -0.6929 C.ar           1 S1                 0.0000
     15 ****         5.3263  -2.4300  -1.6140 C.ar           1 S1                 0.0000
     16 ****         4.9553  -3.0922  -2.8027 C.ar           1 S1                 0.0000
     17 ****         3.5971  -3.3425  -3.0859 C.ar           1 S1                 0.0000
     18 ****         2.5996  -2.9310  -2.1810 C.ar           1 S1                 0.0000
     19 ****         2.9750  -2.2694  -0.9962 C.ar           1 S1                 0.0000
     20 ****        -1.9164   1.7559  -0.7781 C.3            1 S1                 0.0000
     21 ****        -2.5537   3.1156  -0.4288 C.3            1 S1                 0.0000
     22 ****        -1.6864   3.9695   0.5120 C.3            1 S1                 0.0000
     23 ****        -3.8716   2.9275   0.0897 O.3            1 S1                 0.0000
     24 ****        -5.5827   1.1953   2.3939 H              1 S1                 0.0000
     25 ****        -6.0398   1.4927   0.7171 H              1 S1                 0.0000
     26 ****        -5.8688   2.8414   1.8381 H              1 S1                 0.0000
     27 ****        -3.4349   2.4056   2.0374 H              1 S1                 0.0000
     28 ****        -3.4079  -0.0294   1.6058 H              1 S1                 0.0000
     29 ****        -3.9489   0.2170  -0.0395 H              1 S1                 0.0000
     30 ****        -1.5750  -1.1641   0.8250 H              1 S1                 0.0000
     31 ****        -1.9084  -0.9360  -0.8608 H              1 S1                 0.0000
     32 ****         0.5811   0.3837   0.2509 H              1 S1                 0.0000
     33 ****         0.0123  -1.0915  -2.0871 H              1 S1                 0.0000
     34 ****         0.5951  -1.9141   1.3076 H              1 S1                 0.0000
     35 ****         0.4145  -2.6322  -0.2678 H              1 S1                 0.0000
     36 ****         2.0614   0.1889   2.0291 H              1 S1                 0.0000
     37 ****         2.3539  -1.3284   2.8665 H              1 S1                 0.0000
     38 ****         3.5596   0.4018   3.7053 H              1 S1                 0.0000
     39 ****         6.3694  -2.2430  -1.4057 H              1 S1                 0.0000
     40 ****         5.7167  -3.4096  -3.5001 H              1 S1                 0.0000
     41 ****         3.3210  -3.8501  -3.9986 H              1 S1                 0.0000
     42 ****         1.5589  -3.1202  -2.3969 H              1 S1                 0.0000
     43 ****        -0.8846   1.9192  -1.0888 H              1 S1                 0.0000
     44 ****        -2.4341   1.3347  -1.6413 H              1 S1                 0.0000
     45 ****        -2.6667   3.6795  -1.3551 H              1 S1                 0.0000
     46 ****        -0.7254   4.1982   0.0510 H              1 S1                 0.0000
     47 ****        -1.4815   3.4626   1.4547 H              1 S1                 0.0000
     48 ****        -2.1762   4.9161   0.7408 H              1 S1                 0.0000
     49 ****        -1.4199   1.1667   1.0814 LP             1 S1                 0.0000
     50 ****         1.3665  -0.3045  -1.8119 LP             1 S1                 0.0000
     51 ****        -0.0472   0.4944  -1.9849 LP             1 S1                 0.0000
     52 ****         4.3046   0.7244   2.3376 LP             1 S1                 0.0000
     53 ****         4.5739  -0.6789   3.1281 LP             1 S1                 0.0000
     54 ****         5.2986  -1.0482   0.9774 LP             1 S1                 0.0000
     55 ****        -4.2102   3.8147   0.4029 LP             1 S1                 0.0000
     56 ****        -4.4513   2.5929  -0.6533 LP             1 S1                 0.0000
@<TRIPOS>BOND
    1    1    2 1     
    2    1   24 1     
    3    1   25 1     
    4    1   26 1     
    5    2   23 1     
    6    2    3 1     
    7    2   27 1     
    8    3    4 1     
    9    3   28 1     
   10    3   29 1     
   11    4    5 1     
   12    4   20 1     
   13    5    6 1     
   14    5   30 1     
   15    5   31 1     
   16    6    7 1     
   17    6    8 1     
   18    6   32 1     
   19    7   33 1     
   20    8    9 1     
   21    8   34 1     
   22    8   35 1     
   23    9   19 1     
   24    9   10 1     
   25   10   11 1     
   26   10   13 2     
   27   11   12 1     
   28   11   36 1     
   29   11   37 1     
   30   12   38 1     
   31   13   14 1     
   32   14   19 ar    
   33   14   15 ar    
   34   15   16 ar    
   35   15   39 1     
   36   16   17 ar    
   37   16   40 1     
   38   17   18 ar    
   39   17   41 1     
   40   18   19 ar    
   41   18   42 1     
   42   20   21 1     
   43   20   43 1     
   44   20   44 1     
   45   21   22 1     
   46   21   23 1     
   47   21   45 1     
   48   22   46 1     
   49   22   47 1     
   50   22   48 1     
   51    4   49 1     
   52    7   50 1     
   53    7   51 1     
   54   12   52 1     
   55   12   53 1     
   56   13   54 1     
   57   23   55 1     
   58   23   56 1     
@<TRIPOS>SUBSTRUCTURE
      1 S1             1
@<TRIPOS>SET
LONE_PAIRS      STATIC     ATOMS    <user>   **** ""
8 49 50 51 52 53 54 55 56
DONOR_HYDROGENS      STATIC     ATOMS    <user>   **** ""
2 33 38
ATOM$BLUE        STATIC     ATOMS    COLORGROUP SYSTEM
8 49 50 51 52 53 54 55 56
ATOM$RED        STATIC     ATOMS    COLORGROUP SYSTEM
2 33 38
