AV-unprocessed.smi:1570|AV-procd|sdf|6319|dock2
  -GOLD-   22720 6523D 1   1.00000     0.00000
 Structure written by MMmdl.
 52 54  0  0  0  0  0  0  0  0  2 V2000
  152.1702  145.1158  159.0299 C   0  0  0  0  0  0  0  0  0  0  0  0
  150.9792  144.1620  159.1871 C   0  0  0  0  0  0  0  0  0  0  0  0
  151.3602  142.7868  158.8751 N   0  0  0  0  0  0  0  0  0  0  0  0
  150.8569  142.0155  157.8834 C   0  0  0  0  0  0  0  0  0  0  0  0
  149.9785  142.3424  157.0851 O   0  0  0  0  0  0  0  0  0  0  0  0
  151.5016  140.8247  157.9070 N   0  0  0  0  0  0  0  0  0  0  0  0
  151.2723  139.6970  157.0043 C   0  0  0  0  0  0  0  0  0  0  0  0
  151.3857  140.1150  155.5238 C   0  0  1  0  0  0  0  0  0  0  0  0
  152.7539  140.1042  155.1654 O   0  0  0  0  0  0  0  0  0  0  0  0
  150.6509  139.1291  154.5929 C   0  0  0  0  0  0  0  0  0  0  0  0
  149.2004  139.4298  154.4823 N   0  3  1  0  0  0  0  0  0  0  0  0
  148.9267  140.8810  154.3612 C   0  0  0  0  0  0  0  0  0  0  0  0
  147.4091  141.1427  154.3176 C   0  0  1  0  0  0  0  0  0  0  0  0
  147.0840  142.6262  154.1122 C   0  0  0  0  0  0  0  0  0  0  0  0
  146.8422  140.4108  153.2362 O   0  0  0  0  0  0  0  0  0  0  0  0
  147.0167  139.0050  153.3744 C   0  0  1  0  0  0  0  0  0  0  0  0
  146.2935  138.3167  152.2113 C   0  0  0  0  0  0  0  0  0  0  0  0
  148.5231  138.6856  153.3915 C   0  0  0  0  0  0  0  0  0  0  0  0
  152.4564  140.8405  158.9345 C   0  0  0  0  0  0  0  0  0  0  0  0
  153.3836  139.8704  159.3544 C   0  0  0  0  0  0  0  0  0  0  0  0
  154.2285  140.2090  160.4374 C   0  0  0  0  0  0  0  0  0  0  0  0
  154.1347  141.4789  161.0637 C   0  0  0  0  0  0  0  0  0  0  0  0
  153.1948  142.4381  160.6198 C   0  0  0  0  0  0  0  0  0  0  0  0
  152.3668  142.0755  159.5431 C   0  0  0  0  0  0  0  0  0  0  0  0
  151.8805  146.1401  159.2646 H   0  0  0  0  0  0  0  0  0  0  0  0
  152.5533  145.1046  158.0092 H   0  0  0  0  0  0  0  0  0  0  0  0
  152.9874  144.8410  159.6978 H   0  0  0  0  0  0  0  0  0  0  0  0
  150.5909  144.2120  160.2046 H   0  0  0  0  0  0  0  0  0  0  0  0
  150.1625  144.4786  158.5364 H   0  0  0  0  0  0  0  0  0  0  0  0
  151.9368  138.8633  157.2329 H   0  0  0  0  0  0  0  0  0  0  0  0
  150.2650  139.3276  157.2040 H   0  0  0  0  0  0  0  0  0  0  0  0
  150.9911  141.1214  155.3907 H   0  0  0  0  0  0  0  0  0  0  0  0
  152.8212  140.1613  154.2243 H   0  0  0  0  0  0  0  0  0  0  0  0
  151.1171  139.1637  153.6068 H   0  0  0  0  0  0  0  0  0  0  0  0
  150.7713  138.1038  154.9462 H   0  0  0  0  0  0  0  0  0  0  0  0
  149.3652  141.4099  155.2084 H   0  0  0  0  0  0  0  0  0  0  0  0
  149.4043  141.2671  153.4588 H   0  0  0  0  0  0  0  0  0  0  0  0
  146.9518  140.8132  155.2524 H   0  0  0  0  0  0  0  0  0  0  0  0
  147.4838  143.2324  154.9255 H   0  0  0  0  0  0  0  0  0  0  0  0
  146.0062  142.7877  154.0768 H   0  0  0  0  0  0  0  0  0  0  0  0
  147.5065  142.9976  153.1781 H   0  0  0  0  0  0  0  0  0  0  0  0
  146.5601  138.6761  154.3096 H   0  0  0  0  0  0  0  0  0  0  0  0
  146.3891  137.2325  152.2750 H   0  0  0  0  0  0  0  0  0  0  0  0
  146.7000  138.6330  151.2501 H   0  0  0  0  0  0  0  0  0  0  0  0
  145.2298  138.5562  152.2172 H   0  0  0  0  0  0  0  0  0  0  0  0
  148.9734  138.9540  152.4342 H   0  0  0  0  0  0  0  0  0  0  0  0
  148.6629  137.6126  153.5176 H   0  0  0  0  0  0  0  0  0  0  0  0
  153.4562  138.9066  158.8733 H   0  0  0  0  0  0  0  0  0  0  0  0
  154.9554  139.4925  160.7907 H   0  0  0  0  0  0  0  0  0  0  0  0
  154.7905  141.7169  161.8882 H   0  0  0  0  0  0  0  0  0  0  0  0
  153.1219  143.4076  161.0899 H   0  0  0  0  0  0  0  0  0  0  0  0
  148.7807  139.1337  155.3526 H   0  0  0  0  0  0  0  0  0  0  0  0
  1  2  1  0  0  0  0
  1 25  1  0  0  0  0
  1 26  1  0  0  0  0
  1 27  1  0  0  0  0
  2  3  1  0  0  0  0
  2 28  1  0  0  0  0
  2 29  1  0  0  0  0
  3 24  1  0  0  0  0
  3  4  1  0  0  0  0
  4  5  2  0  0  0  0
  4  6  1  0  0  0  0
  6  7  1  0  0  0  0
  6 19  1  0  0  0  0
  7  8  1  0  0  0  0
  7 30  1  0  0  0  0
  7 31  1  0  0  0  0
  8  9  1  0  0  0  0
  8 10  1  0  0  0  0
  8 32  1  0  0  0  0
  9 33  1  0  0  0  0
 10 11  1  0  0  0  0
 10 34  1  0  0  0  0
 10 35  1  0  0  0  0
 11 18  1  0  0  0  0
 11 12  1  0  0  0  0
 11 52  1  0  0  0  0
 12 13  1  0  0  0  0
 12 36  1  0  0  0  0
 12 37  1  0  0  0  0
 13 14  1  0  0  0  0
 13 15  1  0  0  0  0
 13 38  1  0  0  0  0
 14 39  1  0  0  0  0
 14 40  1  0  0  0  0
 14 41  1  0  0  0  0
 15 16  1  0  0  0  0
 16 17  1  0  0  0  0
 16 18  1  0  0  0  0
 16 42  1  0  0  0  0
 17 43  1  0  0  0  0
 17 44  1  0  0  0  0
 17 45  1  0  0  0  0
 18 46  1  0  0  0  0
 18 47  1  0  0  0  0
 19 24  2  0  0  0  0
 19 20  1  0  0  0  0
 20 21  2  0  0  0  0
 20 48  1  0  0  0  0
 21 22  1  0  0  0  0
 21 49  1  0  0  0  0
 22 23  2  0  0  0  0
 22 50  1  0  0  0  0
 23 24  1  0  0  0  0
 23 51  1  0  0  0  0
M  CHG  1  11   1
M  END
> <s_m_source_file>
AV-unprocessed.smi

> <i_m_source_file_index>
1570

> <i_lp_mmshare_version>
43012

> <i_f3d_flags>
0

> <s_epik_input>
W2NIXTFbY0hdW2NIXVtjSF1jKGMxMiluKFtDSDJdW0NIM10pYyg9TyluMltDSDJdW0NASF0oW09IXSlbQ0gyXU4zW0NIMl1bQ0BASF0oW0NIM10pT1tDQEBIXShbQ0gzXSlbQ0gyXTM=

> <s_epik_cmdline>
J2VwaWtfcHl0aG9uJywgJy1waCcsICc3LjAnLCAnLXRuJywgJzgnLCAnLW1hJywgJzIwMCcsICctbWV0YWxfYmluZGluZycsICctaW1hZScsICc8aW5maWxlLm1hZT4nLCAnLW9tYWUnLCAnPG91dGZpbGUubWFlPic=

> <r_epik_Ionization_Penalty>
0.706332

> <r_epik_Ionization_Penalty_Charging>
0.706318

> <r_epik_Ionization_Penalty_Neutral>
1.42224e-05

> <r_epik_State_Penalty>
0.729493

> <r_epik_Charging_Adjusted_Penalty>
1.43581

> <i_epik_Tot_Q>
1

> <i_epik_Tot_abs_Q>
1

> <r_epik_Metal_State_Penalty>
0.729493

> <b_epik_Metal_Only>
0

> <s_lp_Force_Field>
OPLS_2005

> <r_lp_Energy>
52.3817

> <b_lp_Chiralities_Consistent>
1

> <s_lp_Variant>
AV-unprocessed.smi:1570-8

> <Gold.Version>
5.8.1

> <Gold.Id.Protein>
6NUR|6NUR_protein|mol2

> <Gold.PLP.Fitness>
51.7671

> <Gold.PLP.PLP>
-49.9020

> <Gold.PLP.part.hbond>
-2.0000

> <Gold.PLP.part.metal>
0.0000

> <Gold.PLP.part.buried>
-2.2745

> <Gold.PLP.part.nonpolar>
-47.1449

> <Gold.PLP.part.repulsive>
1.4108

> <Gold.PLP.ligand.clash>
0.0000

> <Gold.PLP.ligand.torsion>
0.6260

> <Gold.PLP.Chemscore.Hbond>
1.0000

> <Gold.PLP.Chemscore.CHOScore>
0.0000

> <Gold.PLP.Chemscore.Metal>
0.0000

> <Gold.Chemscore.Hbonds>
donor molecule, donor type, donor heavy atom, donor atom, acceptor molecule, acceptor atom, score
      P1  H  7997  8008       L1     9  1.00

> <Gold.PLP.Chemscore.Internal.Correction>
0.1172

> <Gold.Rescore>
     Score         DG    S(hbond)    S(metal)    S(lipo)     H(rot)  DE(clash)    DE(int)     intcor
     17.16     -19.14       0.97        0.00     135.68       2.13       1.33       0.66       ----

> <Gold.Chemscore.Fitness>
17.1578

> <Gold.Chemscore.DG>
-19.1435

> <Gold.Chemscore.ZeroCoef>
-5.4800

> <Gold.Chemscore.Hbond>
0.9707

> <Gold.Chemscore.Metal>
0.0000

> <Gold.Chemscore.Lipo>
135.6839

> <Gold.Chemscore.Internal_Hbond>
0.0000

> <Gold.Chemscore.DEClash>
1.3279

> <Gold.Chemscore.DEInternal>
0.6578

> <Gold.Chemscore.Rot>
2.1303

> <Gold.Chemscore.Internal.Correction>
   9.000000E+99

> <Gold.Chemscore.Hbonds>
donor molecule, donor type, donor heavy atom, donor atom, acceptor molecule, acceptor atom, score
      P1  H  7997  8008       L1     9  0.82

> <Gold.Chemscore.Hbond.Weighted>
-3.2420

> <Gold.Chemscore.Metal.Weighted>
-0.0000

> <Gold.Chemscore.Lipo.Weighted>
-15.8750

> <Gold.Chemscore.Internal_Hbond.Weighted>
0.0000

> <Gold.Chemscore.DEClash.Weighted>
1.3279

> <Gold.Chemscore.DEInternal.Weighted>
0.6578

> <Gold.Chemscore.Rot.Weighted>
5.4535

> <Gold.Chemscore.Internal.Correction.Weighted>
   9.000000E+99

> <Gold.Protein.RotatedTorsions>
[ 6907 6896 6895 6894 ] final  106.06 input  -60.11 | X-H torsion
[ 7974 7965 7964 7962 ] final  -48.18 input  175.53 | X-H torsion
[ 8008 7997 7996 7995 ] final  -22.76 input   59.86 | X-H torsion
[ 10167 10162 10161 10158 ] final  -29.17 input  -65.29 | X-H torsion
[ 10718 10713 10712 10709 ] final  -97.75 input   66.30 | X-H torsion
[ 10763 10752 10751 10750 ] final    3.82 input  -60.55 | X-H torsion
[ 11005 11000 10999 10996 ] final  116.09 input  -57.11 | X-H torsion

> <Gold.Protein.ActiveResidues>
 VAL166  LYS551  ARG553  GLY616  TRP617  ASP618  TYR619  PRO620  LYS621  CYS622 
 ASP623  PHE694  ASN695  SER759  ASP760  ASP761  ALA762  ILE779  LEU786  VAL792 
 PHE793  MET794  SER795  GLU796  ALA797  LYS798  CYS799  TRP800  GLU811  SER814 

> <Gold.Protein.RotatedAtoms>
  152.5207  133.9436  159.7637 H   0  0  0  0  0  0  0  0  0  0  0  0  # atno 6907 bound_to 6896
  150.9761  133.6285  159.2737 H   0  0  0  0  0  0  0  0  0  0  0  0  # atno 6908 bound_to 6896
  151.3480  135.0884  159.9446 H   0  0  0  0  0  0  0  0  0  0  0  0  # atno 6909 bound_to 6896
  145.9539  140.7546  142.9491 H   0  0  0  0  0  0  0  0  0  0  0  0  # atno 7974 bound_to 7965
  154.4625  140.1999  156.0206 H   0  0  0  0  0  0  0  0  0  0  0  0  # atno 8008 bound_to 7997
  156.0867  140.3264  155.7734 H   0  0  0  0  0  0  0  0  0  0  0  0  # atno 8009 bound_to 7997
  155.5024  140.0555  157.2927 H   0  0  0  0  0  0  0  0  0  0  0  0  # atno 8010 bound_to 7997
  140.7263  143.3950  151.1363 H   0  0  0  0  0  0  0  0  0  0  0  0  # atno 10167 bound_to 10162
  156.0091  130.5208  150.6420 H   0  0  0  0  0  0  0  0  0  0  0  0  # atno 10718 bound_to 10713
  153.2787  135.6938  153.7407 H   0  0  0  0  0  0  0  0  0  0  0  0  # atno 10763 bound_to 10752
  153.6403  135.3394  155.3070 H   0  0  0  0  0  0  0  0  0  0  0  0  # atno 10764 bound_to 10752
  154.8488  135.4430  154.1833 H   0  0  0  0  0  0  0  0  0  0  0  0  # atno 10765 bound_to 10752
  139.9030  134.9593  156.7145 H   0  0  0  0  0  0  0  0  0  0  0  0  # atno 11005 bound_to 11000
  144.6801  140.2479  143.7335 LP  0  0  0  0  0  0  0  0  0  0  0  0  # atno 17320 bound_to 7965
  145.8134  139.2012  143.1980 LP  0  0  0  0  0  0  0  0  0  0  0  0  # atno 17321 bound_to 7965
  139.7561  143.8705  152.3089 LP  0  0  0  0  0  0  0  0  0  0  0  0  # atno 17342 bound_to 10162
  139.8575  144.7134  150.9139 LP  0  0  0  0  0  0  0  0  0  0  0  0  # atno 17343 bound_to 10162
  157.4198  131.0835  151.1141 LP  0  0  0  0  0  0  0  0  0  0  0  0  # atno 17370 bound_to 10713
  157.1747  130.6283  149.5652 LP  0  0  0  0  0  0  0  0  0  0  0  0  # atno 17371 bound_to 10713
  140.7050  133.9273  155.8048 LP  0  0  0  0  0  0  0  0  0  0  0  0  # atno 17394 bound_to 11000
  141.0343  134.0711  157.3977 LP  0  0  0  0  0  0  0  0  0  0  0  0  # atno 17395 bound_to 11000

$$$$
