AV-unprocessed.smi:2747|AV-procd|sdf|10579|dock10
  -GOLD-   2272015 33D 1   1.00000     0.00000
 Structure written by MMmdl.
 23 24  0  0  0  0  0  0  0  0  2 V2000
  155.2562  139.0243  158.6881 O   0  5  0  0  0  0  0  0  0  0  0  0
  154.2493  139.0432  159.5296 C   0  0  2  0  0  0  0  0  0  0  0  0
  154.8033  139.4749  160.9159 C   0  0  0  0  0  0  0  0  0  0  0  0
  154.2464  140.7230  161.4330 N   0  0  0  0  0  0  0  0  0  0  0  0
  154.5307  141.1150  162.7108 N   0  0  0  0  0  0  0  0  0  0  0  0
  153.9551  142.2585  162.9361 N   0  0  0  0  0  0  0  0  0  0  0  0
  153.2849  142.6347  161.7842 C   0  0  0  0  0  0  0  0  0  0  0  0
  152.5098  143.7749  161.4753 C   0  0  0  0  0  0  0  0  0  0  0  0
  151.9288  143.9184  160.1960 C   0  0  0  0  0  0  0  0  0  0  0  0
  150.9892  145.3282  159.8562 Cl  0  0  0  0  0  0  0  0  0  0  0  0
  152.1168  142.9202  159.2095 C   0  0  0  0  0  0  0  0  0  0  0  0
  151.4129  143.0798  157.6397 Cl  0  0  0  0  0  0  0  0  0  0  0  0
  152.8886  141.7789  159.5037 C   0  0  0  0  0  0  0  0  0  0  0  0
  153.4576  141.6554  160.7826 C   0  0  0  0  0  0  0  0  0  0  0  0
  153.6535  137.6153  159.5830 C   0  0  0  0  0  0  0  0  0  0  0  0
  154.5977  136.7295  159.9058 F   0  0  0  0  0  0  0  0  0  0  0  0
  152.6551  137.5312  160.4657 F   0  0  0  0  0  0  0  0  0  0  0  0
  153.1780  137.2834  158.3819 F   0  0  0  0  0  0  0  0  0  0  0  0
  153.3987  139.7006  159.3421 H   0  0  0  0  0  0  0  0  0  0  0  0
  154.6097  138.6925  161.6510 H   0  0  0  0  0  0  0  0  0  0  0  0
  155.8886  139.5812  160.8771 H   0  0  0  0  0  0  0  0  0  0  0  0
  152.3642  144.5409  162.2227 H   0  0  0  0  0  0  0  0  0  0  0  0
  153.0382  141.0066  158.7633 H   0  0  0  0  0  0  0  0  0  0  0  0
  1  2  1  0  0  0  0
  2  3  1  0  0  0  0
  2 15  1  0  0  0  0
  2 19  1  0  0  0  0
  3  4  1  0  0  0  0
  3 20  1  0  0  0  0
  3 21  1  0  0  0  0
  4 14  1  0  0  0  0
  4  5  1  0  0  0  0
  5  6  2  0  0  0  0
  6  7  1  0  0  0  0
  7 14  2  0  0  0  0
  7  8  1  0  0  0  0
  8  9  2  0  0  0  0
  8 22  1  0  0  0  0
  9 10  1  0  0  0  0
  9 11  1  0  0  0  0
 11 12  1  0  0  0  0
 11 13  2  0  0  0  0
 13 14  1  0  0  0  0
 13 23  1  0  0  0  0
 15 16  1  0  0  0  0
 15 17  1  0  0  0  0
 15 18  1  0  0  0  0
M  CHG  1   1  -1
M  END
> <s_m_source_file>
AV-unprocessed.smi

> <i_m_source_file_index>
2747

> <i_lp_mmshare_version>
43012

> <i_f3d_flags>
0

> <s_epik_input>
RkMoRikoRilbQ0BIXShbT0hdKVtDSDJdbihubjEpYyhjMTIpW2NIXWMoQ2wpYyhDbClbY0hdMg==

> <s_epik_cmdline>
J2VwaWtfcHl0aG9uJywgJy1waCcsICc3LjAnLCAnLXRuJywgJzgnLCAnLW1hJywgJzIwMCcsICctbWV0YWxfYmluZGluZycsICctaW1hZScsICc8aW5maWxlLm1hZT4nLCAnLW9tYWUnLCAnPG91dGZpbGUubWFlPic=

> <r_lp_tautomer_probability>
1

> <r_epik_Ionization_Penalty>
1.2724

> <r_epik_Ionization_Penalty_Charging>
1.2724

> <r_epik_Ionization_Penalty_Neutral>
1.57383e-10

> <r_epik_State_Penalty>
1.34397

> <r_epik_Charging_Adjusted_Penalty>
2.61637

> <i_epik_Tot_Q>
-1

> <i_epik_Tot_abs_Q>
1

> <r_epik_Metal_State_Penalty>
1.34397

> <b_epik_Metal_Only>
0

> <s_lp_Force_Field>
OPLS_2005

> <r_lp_Energy>
12.5023

> <b_lp_Chiralities_Consistent>
1

> <s_lp_Variant>
AV-unprocessed.smi:2747-3

> <Gold.Version>
5.8.1

> <Gold.Id.Protein>
6NUR|6NUR_protein|mol2

> <Gold.PLP.Fitness>
45.0339

> <Gold.PLP.PLP>
-40.6957

> <Gold.PLP.part.hbond>
-2.9753

> <Gold.PLP.part.metal>
0.0000

> <Gold.PLP.part.buried>
-5.4651

> <Gold.PLP.part.nonpolar>
-31.5758

> <Gold.PLP.part.repulsive>
0.0339

> <Gold.PLP.ligand.clash>
0.0000

> <Gold.PLP.ligand.torsion>
0.8359

> <Gold.PLP.Chemscore.Hbond>
2.0000

> <Gold.PLP.Chemscore.CHOScore>
0.0000

> <Gold.PLP.Chemscore.Metal>
0.0000

> <Gold.Chemscore.Hbonds>
donor molecule, donor type, donor heavy atom, donor atom, acceptor molecule, acceptor atom, score
      P1  H  7997  8008       L1     1  2.00

> <Gold.PLP.Chemscore.Internal.Correction>
0.0099

> <Gold.Rescore>
     Score         DG    S(hbond)    S(metal)    S(lipo)     H(rot)  DE(clash)    DE(int)     intcor
     15.91     -17.52       0.99        0.00     104.06       1.35       0.02       1.60       ----

> <Gold.Chemscore.Fitness>
15.9065

> <Gold.Chemscore.DG>
-17.5201

> <Gold.Chemscore.ZeroCoef>
-5.4800

> <Gold.Chemscore.Hbond>
0.9922

> <Gold.Chemscore.Metal>
0.0000

> <Gold.Chemscore.Lipo>
104.0648

> <Gold.Chemscore.Internal_Hbond>
0.0000

> <Gold.Chemscore.DEClash>
0.0162

> <Gold.Chemscore.DEInternal>
1.5974

> <Gold.Chemscore.Rot>
1.3474

> <Gold.Chemscore.Internal.Correction>
   9.000000E+99

> <Gold.Chemscore.Hbonds>
donor molecule, donor type, donor heavy atom, donor atom, acceptor molecule, acceptor atom, score
      P1  H  7997  8008       L1     1  1.00

> <Gold.Chemscore.Hbond.Weighted>
-3.3139

> <Gold.Chemscore.Metal.Weighted>
-0.0000

> <Gold.Chemscore.Lipo.Weighted>
-12.1756

> <Gold.Chemscore.Internal_Hbond.Weighted>
0.0000

> <Gold.Chemscore.DEClash.Weighted>
0.0162

> <Gold.Chemscore.DEInternal.Weighted>
1.5974

> <Gold.Chemscore.Rot.Weighted>
3.4494

> <Gold.Chemscore.Internal.Correction.Weighted>
   9.000000E+99

> <Gold.Protein.RotatedTorsions>
[ 6907 6896 6895 6894 ] final  -54.91 input  -60.11 | X-H torsion
[ 7974 7965 7964 7962 ] final   30.68 input  175.53 | X-H torsion
[ 8008 7997 7996 7995 ] final -139.72 input   59.86 | X-H torsion
[ 10167 10162 10161 10158 ] final -107.90 input  -65.29 | X-H torsion
[ 10718 10713 10712 10709 ] final  -41.85 input   66.30 | X-H torsion
[ 10763 10752 10751 10750 ] final   45.10 input  -60.55 | X-H torsion
[ 11005 11000 10999 10996 ] final  -48.81 input  -57.11 | X-H torsion

> <Gold.Protein.ActiveResidues>
 VAL166  LYS551  ARG553  GLY616  TRP617  ASP618  TYR619  PRO620  LYS621  CYS622 
 ASP623  PHE694  ASN695  SER759  ASP760  ASP761  ALA762  ILE779  LEU786  VAL792 
 PHE793  MET794  SER795  GLU796  ALA797  LYS798  CYS799  TRP800  GLU811  SER814 

> <Gold.Protein.RotatedAtoms>
  150.8297  134.7544  159.6842 H   0  0  0  0  0  0  0  0  0  0  0  0  # atno 6907 bound_to 6896
  152.4403  134.5600  159.9901 H   0  0  0  0  0  0  0  0  0  0  0  0  # atno 6908 bound_to 6896
  151.5764  133.3345  159.3035 H   0  0  0  0  0  0  0  0  0  0  0  0  # atno 6909 bound_to 6896
  146.1597  139.6757  142.9042 H   0  0  0  0  0  0  0  0  0  0  0  0  # atno 7974 bound_to 7965
  155.4495  140.0537  157.3002 H   0  0  0  0  0  0  0  0  0  0  0  0  # atno 8008 bound_to 7997
  154.4783  140.2070  155.9780 H   0  0  0  0  0  0  0  0  0  0  0  0  # atno 8009 bound_to 7997
  156.1167  140.3195  155.8153 H   0  0  0  0  0  0  0  0  0  0  0  0  # atno 8010 bound_to 7997
  140.1719  143.4035  152.1347 H   0  0  0  0  0  0  0  0  0  0  0  0  # atno 10167 bound_to 10162
  156.2659  130.4201  149.8491 H   0  0  0  0  0  0  0  0  0  0  0  0  # atno 10718 bound_to 10713
  152.9830  135.6050  154.3382 H   0  0  0  0  0  0  0  0  0  0  0  0  # atno 10763 bound_to 10752
  154.3081  135.2771  155.2581 H   0  0  0  0  0  0  0  0  0  0  0  0  # atno 10764 bound_to 10752
  154.4803  135.5919  153.6440 H   0  0  0  0  0  0  0  0  0  0  0  0  # atno 10765 bound_to 10752
  141.0723  133.6675  156.3495 H   0  0  0  0  0  0  0  0  0  0  0  0  # atno 11005 bound_to 11000
  145.4619  141.0433  143.2746 LP  0  0  0  0  0  0  0  0  0  0  0  0  # atno 17320 bound_to 7965
  144.8010  139.6140  143.7071 LP  0  0  0  0  0  0  0  0  0  0  0  0  # atno 17321 bound_to 7965
  139.5334  144.7184  151.4977 LP  0  0  0  0  0  0  0  0  0  0  0  0  # atno 17342 bound_to 10162
  140.6576  143.8566  150.6852 LP  0  0  0  0  0  0  0  0  0  0  0  0  # atno 17343 bound_to 10162
  156.5989  130.8538  151.3427 LP  0  0  0  0  0  0  0  0  0  0  0  0  # atno 17370 bound_to 10713
  157.7267  130.9633  150.1668 LP  0  0  0  0  0  0  0  0  0  0  0  0  # atno 17371 bound_to 10713
  140.5648  134.5899  157.5443 LP  0  0  0  0  0  0  0  0  0  0  0  0  # atno 17394 bound_to 11000
  139.9536  134.7574  156.0393 LP  0  0  0  0  0  0  0  0  0  0  0  0  # atno 17395 bound_to 11000

$$$$
