AV-unprocessed.smi:676|AV-procd|sdf|3309|dock6
  -GOLD-   22720 0273D 1   1.00000     0.00000
 Structure written by MMmdl.
 42 43  0  0  0  0  0  0  0  0  1 V2000
  154.1306  137.5558  156.5170 C   0  0  0  0  0  0  0  0  0  0  0  0
  153.4971  138.6781  157.1187 O   0  0  0  0  0  0  0  0  0  0  0  0
  152.1588  138.9812  156.7012 C   0  0  1  0  0  0  0  0  0  0  0  0
  152.1670  139.6973  155.3449 C   0  0  0  0  0  0  0  0  0  0  0  0
  151.2481  137.7546  156.9030 C   0  0  0  0  0  0  0  0  0  0  0  0
  151.1082  138.1910  158.3600 C   0  0  2  0  0  0  0  0  0  0  0  0
  149.7658  137.9713  158.8876 N   0  0  0  0  0  0  0  0  0  0  0  0
  149.1251  136.7941  158.8605 C   0  0  0  0  0  0  0  0  0  0  0  0
  149.6204  135.7693  158.3893 O   0  0  0  0  0  0  0  0  0  0  0  0
  147.7222  136.7789  159.4838 C   0  0  0  0  0  0  0  0  0  0  0  0
  147.5558  135.7504  160.5241 N   0  0  0  0  0  0  0  0  0  0  0  0
  147.5273  134.4072  160.0991 C   0  0  0  0  0  0  0  0  0  0  0  0
  147.3771  133.3919  160.9644 C   0  0  0  0  0  0  0  0  0  0  0  0
  147.2427  133.7050  162.3673 C   0  0  0  0  0  0  0  0  0  0  0  0
  147.2651  134.9865  162.7841 C   0  0  0  0  0  0  0  0  0  0  0  0
  147.4268  136.0997  161.8415 C   0  0  0  0  0  0  0  0  0  0  0  0
  147.4458  137.2733  162.2133 O   0  0  0  0  0  0  0  0  0  0  0  0
  151.4046  139.6424  157.9016 C   0  0  0  0  0  0  0  0  0  0  0  0
  152.2499  140.4885  158.8601 C   0  0  0  0  0  0  0  0  0  0  0  0
  150.1889  140.5151  157.5360 C   0  0  0  0  0  0  0  0  0  0  0  0
  155.0638  137.3516  157.0412 H   0  0  0  0  0  0  0  0  0  0  0  0
  154.3838  137.7489  155.4748 H   0  0  0  0  0  0  0  0  0  0  0  0
  153.5196  136.6553  156.5683 H   0  0  0  0  0  0  0  0  0  0  0  0
  151.1697  140.0246  155.0533 H   0  0  0  0  0  0  0  0  0  0  0  0
  152.5174  139.0488  154.5425 H   0  0  0  0  0  0  0  0  0  0  0  0
  152.8070  140.5796  155.3675 H   0  0  0  0  0  0  0  0  0  0  0  0
  150.3180  137.8198  156.3356 H   0  0  0  0  0  0  0  0  0  0  0  0
  151.7169  136.7801  156.7721 H   0  0  0  0  0  0  0  0  0  0  0  0
  151.9018  137.7711  158.9828 H   0  0  0  0  0  0  0  0  0  0  0  0
  149.2949  138.7655  159.2960 H   0  0  0  0  0  0  0  0  0  0  0  0
  147.5230  137.7706  159.8923 H   0  0  0  0  0  0  0  0  0  0  0  0
  146.9782  136.6400  158.6971 H   0  0  0  0  0  0  0  0  0  0  0  0
  147.6265  134.2588  159.0336 H   0  0  0  0  0  0  0  0  0  0  0  0
  147.3529  132.3685  160.6199 H   0  0  0  0  0  0  0  0  0  0  0  0
  147.1228  132.9078  163.0862 H   0  0  0  0  0  0  0  0  0  0  0  0
  147.1620  135.2018  163.8375 H   0  0  0  0  0  0  0  0  0  0  0  0
  151.6612  140.8468  159.7053 H   0  0  0  0  0  0  0  0  0  0  0  0
  152.6702  141.3598  158.3570 H   0  0  0  0  0  0  0  0  0  0  0  0
  153.0821  139.9227  159.2791 H   0  0  0  0  0  0  0  0  0  0  0  0
  149.6139  140.7956  158.4192 H   0  0  0  0  0  0  0  0  0  0  0  0
  149.5028  140.0046  156.8599 H   0  0  0  0  0  0  0  0  0  0  0  0
  150.4944  141.4398  157.0455 H   0  0  0  0  0  0  0  0  0  0  0  0
  1  2  1  0  0  0  0
  1 21  1  0  0  0  0
  1 22  1  0  0  0  0
  1 23  1  0  0  0  0
  2  3  1  0  0  0  0
  3 18  1  0  0  0  0
  3  4  1  0  0  0  0
  3  5  1  0  0  0  0
  4 24  1  0  0  0  0
  4 25  1  0  0  0  0
  4 26  1  0  0  0  0
  5  6  1  0  0  0  0
  5 27  1  0  0  0  0
  5 28  1  0  0  0  0
  6  7  1  0  0  0  0
  6 18  1  0  0  0  0
  6 29  1  0  0  0  0
  7  8  1  0  0  0  0
  7 30  1  0  0  0  0
  8  9  2  0  0  0  0
  8 10  1  0  0  0  0
 10 11  1  0  0  0  0
 10 31  1  0  0  0  0
 10 32  1  0  0  0  0
 11 16  1  0  0  0  0
 11 12  1  0  0  0  0
 12 13  2  0  0  0  0
 12 33  1  0  0  0  0
 13 14  1  0  0  0  0
 13 34  1  0  0  0  0
 14 15  2  0  0  0  0
 14 35  1  0  0  0  0
 15 16  1  0  0  0  0
 15 36  1  0  0  0  0
 16 17  2  0  0  0  0
 18 19  1  0  0  0  0
 18 20  1  0  0  0  0
 19 37  1  0  0  0  0
 19 38  1  0  0  0  0
 19 39  1  0  0  0  0
 20 40  1  0  0  0  0
 20 41  1  0  0  0  0
 20 42  1  0  0  0  0
M  END
> <s_m_source_file>
AV-unprocessed.smi

> <i_m_source_file_index>
676

> <i_lp_mmshare_version>
43012

> <i_f3d_flags>
0

> <s_epik_input>
W0NIM11PW0NAQF0xKFtDSDNdKVtDSDJdW0NASF0oQzEoW0NIM10pW0NIM10pW05IXUMoPU8pW0NIMl1uMltjSF1bY0hdW2NIXVtjSF1jMj1P

> <s_epik_cmdline>
J2VwaWtfcHl0aG9uJywgJy1waCcsICc3LjAnLCAnLXRuJywgJzgnLCAnLW1hJywgJzIwMCcsICctbWV0YWxfYmluZGluZycsICctaW1hZScsICc8aW5maWxlLm1hZT4nLCAnLW9tYWUnLCAnPG91dGZpbGUubWFlPic=

> <r_lp_tautomer_probability>
1

> <r_epik_Ionization_Penalty>
4.09771e-07

> <r_epik_Ionization_Penalty_Charging>
3.90712e-07

> <r_epik_Ionization_Penalty_Neutral>
1.90591e-08

> <r_epik_State_Penalty>
-0

> <r_epik_Charging_Adjusted_Penalty>
3.90712e-07

> <i_epik_Tot_Q>
0

> <i_epik_Tot_abs_Q>
0

> <r_epik_Metal_State_Penalty>
-0

> <b_epik_Metal_Only>
0

> <s_lp_Force_Field>
OPLS_2005

> <r_lp_Energy>
31.664

> <b_lp_Chiralities_Consistent>
1

> <s_lp_Variant>
AV-unprocessed.smi:676-3

> <Gold.Version>
5.8.1

> <Gold.Id.Protein>
6NUR|6NUR_protein|mol2

> <Gold.PLP.Fitness>
44.7237

> <Gold.PLP.PLP>
-35.1434

> <Gold.PLP.part.hbond>
-4.0000

> <Gold.PLP.part.metal>
0.0000

> <Gold.PLP.part.buried>
-2.6936

> <Gold.PLP.part.nonpolar>
-27.7126

> <Gold.PLP.part.repulsive>
0.1947

> <Gold.PLP.ligand.clash>
0.0000

> <Gold.PLP.ligand.torsion>
0.6054

> <Gold.PLP.Chemscore.Hbond>
3.4720

> <Gold.PLP.Chemscore.CHOScore>
0.0000

> <Gold.PLP.Chemscore.Metal>
0.0000

> <Gold.Chemscore.Hbonds>
donor molecule, donor type, donor heavy atom, donor atom, acceptor molecule, acceptor atom, score
      P1  H  6896  6909       L1     9  1.00
      P1  H  6931  6943       L1    17  0.83
      P1  H  6934  6947       L1    17  0.40
      P1  H  7997  8010       L1     2  1.00

> <Gold.PLP.Chemscore.Internal.Correction>
0.3751

> <Gold.Rescore>
     Score         DG    S(hbond)    S(metal)    S(lipo)     H(rot)  DE(clash)    DE(int)     intcor
     18.43     -20.42       3.24        0.00      70.50       1.62       0.00       1.99       ----

> <Gold.Chemscore.Fitness>
18.4262

> <Gold.Chemscore.DG>
-20.4173

> <Gold.Chemscore.ZeroCoef>
-5.4800

> <Gold.Chemscore.Hbond>
3.2423

> <Gold.Chemscore.Metal>
0.0000

> <Gold.Chemscore.Lipo>
70.5020

> <Gold.Chemscore.Internal_Hbond>
0.0000

> <Gold.Chemscore.DEClash>
0.0000

> <Gold.Chemscore.DEInternal>
1.9912

> <Gold.Chemscore.Rot>
1.6175

> <Gold.Chemscore.Internal.Correction>
   9.000000E+99

> <Gold.Chemscore.Hbonds>
donor molecule, donor type, donor heavy atom, donor atom, acceptor molecule, acceptor atom, score
      P1  H  6896  6909       L1     9  0.95
      P1  H  6931  6943       L1    17  0.80
      P1  H  6934  6947       L1    17  0.39
      P1  H  7997  8010       L1     2  0.41

> <Gold.Chemscore.Hbond.Weighted>
-10.8293

> <Gold.Chemscore.Metal.Weighted>
-0.0000

> <Gold.Chemscore.Lipo.Weighted>
-8.2487

> <Gold.Chemscore.Internal_Hbond.Weighted>
0.0000

> <Gold.Chemscore.DEClash.Weighted>
0.0000

> <Gold.Chemscore.DEInternal.Weighted>
1.9912

> <Gold.Chemscore.Rot.Weighted>
4.1408

> <Gold.Chemscore.Internal.Correction.Weighted>
   9.000000E+99

> <Gold.Protein.RotatedTorsions>
[ 6907 6896 6895 6894 ] final   44.37 input  -60.11 | X-H torsion
[ 7974 7965 7964 7962 ] final  140.95 input  175.53 | X-H torsion
[ 8008 7997 7996 7995 ] final   46.90 input   59.86 | X-H torsion
[ 10167 10162 10161 10158 ] final  153.97 input  -65.29 | X-H torsion
[ 10718 10713 10712 10709 ] final  174.95 input   66.30 | X-H torsion
[ 10763 10752 10751 10750 ] final  -27.77 input  -60.55 | X-H torsion
[ 11005 11000 10999 10996 ] final  175.57 input  -57.11 | X-H torsion

> <Gold.Protein.ActiveResidues>
 VAL166  LYS551  ARG553  GLY616  TRP617  ASP618  TYR619  PRO620  LYS621  CYS622 
 ASP623  PHE694  ASN695  SER759  ASP760  ASP761  ALA762  ILE779  LEU786  VAL792 
 PHE793  MET794  SER795  GLU796  ALA797  LYS798  CYS799  TRP800  GLU811  SER814 

> <Gold.Protein.RotatedAtoms>
  152.2317  134.8315  160.0472 H   0  0  0  0  0  0  0  0  0  0  0  0  # atno 6907 bound_to 6896
  151.9062  133.3545  159.3856 H   0  0  0  0  0  0  0  0  0  0  0  0  # atno 6908 bound_to 6896
  150.7027  134.4704  159.5467 H   0  0  0  0  0  0  0  0  0  0  0  0  # atno 6909 bound_to 6896
  144.9140  139.5254  143.5695 H   0  0  0  0  0  0  0  0  0  0  0  0  # atno 7974 bound_to 7965
  155.3601  140.3418  155.4240 H   0  0  0  0  0  0  0  0  0  0  0  0  # atno 8008 bound_to 7997
  156.1718  140.1634  156.8468 H   0  0  0  0  0  0  0  0  0  0  0  0  # atno 8009 bound_to 7997
  154.5241  140.0760  156.8209 H   0  0  0  0  0  0  0  0  0  0  0  0  # atno 8010 bound_to 7997
  139.4825  144.5227  151.7851 H   0  0  0  0  0  0  0  0  0  0  0  0  # atno 10167 bound_to 10162
  156.9421  131.0004  151.2966 H   0  0  0  0  0  0  0  0  0  0  0  0  # atno 10718 bound_to 10713
  153.7374  135.6935  153.4975 H   0  0  0  0  0  0  0  0  0  0  0  0  # atno 10763 bound_to 10752
  153.2093  135.4408  155.0359 H   0  0  0  0  0  0  0  0  0  0  0  0  # atno 10764 bound_to 10752
  154.8232  135.3432  154.6901 H   0  0  0  0  0  0  0  0  0  0  0  0  # atno 10765 bound_to 10752
  140.3636  134.7091  157.4347 H   0  0  0  0  0  0  0  0  0  0  0  0  # atno 11005 bound_to 11000
  146.3173  139.7969  142.8973 LP  0  0  0  0  0  0  0  0  0  0  0  0  # atno 17320 bound_to 7965
  145.3406  141.0287  143.3395 LP  0  0  0  0  0  0  0  0  0  0  0  0  # atno 17321 bound_to 7965
  140.4743  144.1542  150.5922 LP  0  0  0  0  0  0  0  0  0  0  0  0  # atno 17342 bound_to 10162
  140.4348  143.2552  151.9549 LP  0  0  0  0  0  0  0  0  0  0  0  0  # atno 17343 bound_to 10162
  157.5778  130.8355  149.8480 LP  0  0  0  0  0  0  0  0  0  0  0  0  # atno 17370 bound_to 10713
  156.0400  130.3741  150.1461 LP  0  0  0  0  0  0  0  0  0  0  0  0  # atno 17371 bound_to 10713
  140.0607  134.6000  155.8752 LP  0  0  0  0  0  0  0  0  0  0  0  0  # atno 17394 bound_to 11000
  141.1976  133.6597  156.5752 LP  0  0  0  0  0  0  0  0  0  0  0  0  # atno 17395 bound_to 11000

$$$$
