AV-unprocessed.smi:1311|AV-procd|sdf|5446|dock1
  -GOLD-   22720 5 13D 1   1.00000     0.00000
 Structure written by MMmdl.
 46 47  0  0  0  0  0  0  0  0  2 V2000
  148.5346  132.3922  153.9487 C   0  0  0  0  0  0  0  0  0  0  0  0
  148.4475  133.8939  154.2664 C   0  0  0  0  0  0  0  0  0  0  0  0
  149.7529  134.5161  154.8334 C   0  0  2  0  0  0  0  0  0  0  0  0
  149.9841  134.1634  156.3274 C   0  0  0  0  0  0  0  0  0  0  0  0
  148.8132  134.4441  157.1546 N   0  0  0  0  0  0  0  0  0  0  0  0
  148.3523  133.6741  158.1529 C   0  0  0  0  0  0  0  0  0  0  0  0
  148.8815  132.6189  158.5000 O   0  0  0  0  0  0  0  0  0  0  0  0
  147.0967  134.1693  158.8702 C   0  0  0  0  0  0  0  0  0  0  0  0
  147.4885  135.0745  160.0085 C   0  0  0  0  0  0  0  0  0  0  0  0
  147.2223  134.9005  161.3970 C   0  0  0  0  0  0  0  0  0  0  0  0
  146.4894  133.7766  162.0720 C   0  0  0  0  0  0  0  0  0  0  0  0
  147.7134  135.8915  162.1222 N   0  0  0  0  0  0  0  0  0  0  0  0
  148.3273  136.7615  161.2161 O   0  0  0  0  0  0  0  0  0  0  0  0
  148.1804  136.2535  159.9660 C   0  0  0  0  0  0  0  0  0  0  0  0
  148.7716  137.0421  158.8469 C   0  0  0  0  0  0  0  0  0  0  0  0
  149.7919  135.9901  154.5951 N   0  3  0  0  0  0  0  0  0  0  0  0
  148.7475  136.7853  155.2775 C   0  0  0  0  0  0  0  0  0  0  0  0
  149.2798  138.2135  155.2859 C   0  0  0  0  0  0  0  0  0  0  0  0
  150.7746  138.0198  155.5101 C   0  0  0  0  0  0  0  0  0  0  0  0
  151.0893  136.6484  154.8967 C   0  0  0  0  0  0  0  0  0  0  0  0
  147.5875  132.0310  153.5475 H   0  0  0  0  0  0  0  0  0  0  0  0
  148.7561  131.8056  154.8402 H   0  0  0  0  0  0  0  0  0  0  0  0
  149.3035  132.1774  153.2081 H   0  0  0  0  0  0  0  0  0  0  0  0
  148.1462  134.4259  153.3641 H   0  0  0  0  0  0  0  0  0  0  0  0
  147.6237  134.0527  154.9618 H   0  0  0  0  0  0  0  0  0  0  0  0
  150.5853  134.0852  154.2743 H   0  0  0  0  0  0  0  0  0  0  0  0
  150.1766  133.0973  156.4436 H   0  0  0  0  0  0  0  0  0  0  0  0
  150.8726  134.6696  156.7077 H   0  0  0  0  0  0  0  0  0  0  0  0
  148.3025  135.2898  156.9447 H   0  0  0  0  0  0  0  0  0  0  0  0
  146.4645  134.6889  158.1495 H   0  0  0  0  0  0  0  0  0  0  0  0
  146.5135  133.3171  159.2219 H   0  0  0  0  0  0  0  0  0  0  0  0
  147.0433  132.8421  161.9810 H   0  0  0  0  0  0  0  0  0  0  0  0
  145.5085  133.6253  161.6218 H   0  0  0  0  0  0  0  0  0  0  0  0
  146.3384  133.9709  163.1345 H   0  0  0  0  0  0  0  0  0  0  0  0
  148.0161  137.2733  158.0963 H   0  0  0  0  0  0  0  0  0  0  0  0
  149.5704  136.4817  158.3616 H   0  0  0  0  0  0  0  0  0  0  0  0
  149.1890  137.9833  159.2053 H   0  0  0  0  0  0  0  0  0  0  0  0
  147.7838  136.7144  154.7724 H   0  0  0  0  0  0  0  0  0  0  0  0
  148.6256  136.4328  156.3032 H   0  0  0  0  0  0  0  0  0  0  0  0
  149.1071  138.6805  154.3154 H   0  0  0  0  0  0  0  0  0  0  0  0
  148.8125  138.8369  156.0488 H   0  0  0  0  0  0  0  0  0  0  0  0
  151.3688  138.8223  155.0722 H   0  0  0  0  0  0  0  0  0  0  0  0
  150.9844  137.9990  156.5802 H   0  0  0  0  0  0  0  0  0  0  0  0
  151.6867  136.0650  155.5985 H   0  0  0  0  0  0  0  0  0  0  0  0
  151.6628  136.7484  153.9747 H   0  0  0  0  0  0  0  0  0  0  0  0
  149.6354  136.1294  153.6069 H   0  0  0  0  0  0  0  0  0  0  0  0
  1  2  1  0  0  0  0
  1 21  1  0  0  0  0
  1 22  1  0  0  0  0
  1 23  1  0  0  0  0
  2  3  1  0  0  0  0
  2 24  1  0  0  0  0
  2 25  1  0  0  0  0
  3  4  1  0  0  0  0
  3 16  1  0  0  0  0
  3 26  1  0  0  0  0
  4  5  1  0  0  0  0
  4 27  1  0  0  0  0
  4 28  1  0  0  0  0
  5  6  1  0  0  0  0
  5 29  1  0  0  0  0
  6  7  2  0  0  0  0
  6  8  1  0  0  0  0
  8  9  1  0  0  0  0
  8 30  1  0  0  0  0
  8 31  1  0  0  0  0
  9 14  2  0  0  0  0
  9 10  1  0  0  0  0
 10 11  1  0  0  0  0
 10 12  2  0  0  0  0
 11 32  1  0  0  0  0
 11 33  1  0  0  0  0
 11 34  1  0  0  0  0
 12 13  1  0  0  0  0
 13 14  1  0  0  0  0
 14 15  1  0  0  0  0
 15 35  1  0  0  0  0
 15 36  1  0  0  0  0
 15 37  1  0  0  0  0
 16 20  1  0  0  0  0
 16 17  1  0  0  0  0
 16 46  1  0  0  0  0
 17 18  1  0  0  0  0
 17 38  1  0  0  0  0
 17 39  1  0  0  0  0
 18 19  1  0  0  0  0
 18 40  1  0  0  0  0
 18 41  1  0  0  0  0
 19 20  1  0  0  0  0
 19 42  1  0  0  0  0
 19 43  1  0  0  0  0
 20 44  1  0  0  0  0
 20 45  1  0  0  0  0
M  CHG  1  16   1
M  END
> <s_m_source_file>
AV-unprocessed.smi

> <i_m_source_file_index>
1311

> <i_lp_mmshare_version>
43012

> <i_f3d_flags>
0

> <s_epik_input>
W0NIMl0xW0NIMl1bQ0gyXVtDSDJdTjFbQ0BIXShbQ0gyXVtDSDNdKVtDSDJdW05IXUMoPU8pW0NIMl1jMmMoW0NIM10pbm9jMltDSDNd

> <s_epik_cmdline>
J2VwaWtfcHl0aG9uJywgJy1waCcsICc3LjAnLCAnLXRuJywgJzgnLCAnLW1hJywgJzIwMCcsICctbWV0YWxfYmluZGluZycsICctaW1hZScsICc8aW5maWxlLm1hZT4nLCAnLW9tYWUnLCAnPG91dGZpbGUubWFlPic=

> <r_epik_Ionization_Penalty>
0.00366311

> <r_epik_Ionization_Penalty_Charging>
0.00366302

> <r_epik_Ionization_Penalty_Neutral>
9.25085e-08

> <r_epik_State_Penalty>
0.00260703

> <r_epik_Charging_Adjusted_Penalty>
0.00627005

> <i_epik_Tot_Q>
1

> <i_epik_Tot_abs_Q>
1

> <r_epik_Metal_State_Penalty>
-0

> <b_epik_Metal_Only>
0

> <s_lp_Force_Field>
OPLS_2005

> <r_lp_Energy>
28.3188

> <b_lp_Chiralities_Consistent>
1

> <s_lp_Variant>
AV-unprocessed.smi:1311-1

> <Gold.Version>
5.8.1

> <Gold.Id.Protein>
6NUR|6NUR_protein|mol2

> <Gold.PLP.Fitness>
41.6650

> <Gold.PLP.PLP>
-29.3303

> <Gold.PLP.part.hbond>
-4.0753

> <Gold.PLP.part.metal>
0.0000

> <Gold.PLP.part.buried>
-3.6009

> <Gold.PLP.part.nonpolar>
-22.3629

> <Gold.PLP.part.repulsive>
0.1017

> <Gold.PLP.ligand.clash>
0.0000

> <Gold.PLP.ligand.torsion>
0.8053

> <Gold.PLP.Chemscore.Hbond>
4.5536

> <Gold.PLP.Chemscore.CHOScore>
0.0000

> <Gold.PLP.Chemscore.Metal>
0.0000

> <Gold.Chemscore.Hbonds>
donor molecule, donor type, donor heavy atom, donor atom, acceptor molecule, acceptor atom, score
      L1  H    16    46       P1  7948  2.00
      P1  H  6896  6909       L1     7  0.12
      P1  H  6931  6943       L1    13  1.00

> <Gold.PLP.Chemscore.Internal.Correction>
0.2845

> <Gold.Rescore>
     Score         DG    S(hbond)    S(metal)    S(lipo)     H(rot)  DE(clash)    DE(int)     intcor
     16.61     -18.46       2.85        0.00      68.87       1.80       0.10       1.75       ----

> <Gold.Chemscore.Fitness>
16.6064

> <Gold.Chemscore.DG>
-18.4574

> <Gold.Chemscore.ZeroCoef>
-5.4800

> <Gold.Chemscore.Hbond>
2.8527

> <Gold.Chemscore.Metal>
0.0000

> <Gold.Chemscore.Lipo>
68.8746

> <Gold.Chemscore.Internal_Hbond>
0.0000

> <Gold.Chemscore.DEClash>
0.1015

> <Gold.Chemscore.DEInternal>
1.7495

> <Gold.Chemscore.Rot>
1.8004

> <Gold.Chemscore.Internal.Correction>
   9.000000E+99

> <Gold.Chemscore.Hbonds>
donor molecule, donor type, donor heavy atom, donor atom, acceptor molecule, acceptor atom, score
      L1  H    16    46       P1  7948  0.35
      P1  H  6896  6909       L1     7  0.02
      P1  H  6931  6943       L1    13  0.92

> <Gold.Chemscore.Hbond.Weighted>
-9.5280

> <Gold.Chemscore.Metal.Weighted>
-0.0000

> <Gold.Chemscore.Lipo.Weighted>
-8.0583

> <Gold.Chemscore.Internal_Hbond.Weighted>
0.0000

> <Gold.Chemscore.DEClash.Weighted>
0.1015

> <Gold.Chemscore.DEInternal.Weighted>
1.7495

> <Gold.Chemscore.Rot.Weighted>
4.6090

> <Gold.Chemscore.Internal.Correction.Weighted>
   9.000000E+99

> <Gold.Protein.RotatedTorsions>
[ 6907 6896 6895 6894 ] final  -11.14 input  -60.11 | X-H torsion
[ 7974 7965 7964 7962 ] final  -96.21 input  175.53 | X-H torsion
[ 8008 7997 7996 7995 ] final -172.73 input   59.86 | X-H torsion
[ 10167 10162 10161 10158 ] final -140.56 input  -65.29 | X-H torsion
[ 10718 10713 10712 10709 ] final -106.84 input   66.30 | X-H torsion
[ 10763 10752 10751 10750 ] final   42.76 input  -60.55 | X-H torsion
[ 11005 11000 10999 10996 ] final  142.73 input  -57.11 | X-H torsion

> <Gold.Protein.ActiveResidues>
 VAL166  LYS551  ARG553  GLY616  TRP617  ASP618  TYR619  PRO620  LYS621  CYS622 
 ASP623  PHE694  ASN695  SER759  ASP760  ASP761  ALA762  ILE779  LEU786  VAL792 
 PHE793  MET794  SER795  GLU796  ALA797  LYS798  CYS799  TRP800  GLU811  SER814 

> <Gold.Protein.RotatedAtoms>
  151.3908  135.0955  159.9525 H   0  0  0  0  0  0  0  0  0  0  0  0  # atno 6907 bound_to 6896
  152.5080  133.8981  159.7438 H   0  0  0  0  0  0  0  0  0  0  0  0  # atno 6908 bound_to 6896
  150.9434  133.6574  159.2815 H   0  0  0  0  0  0  0  0  0  0  0  0  # atno 6909 bound_to 6896
  145.3498  140.9474  143.2560 H   0  0  0  0  0  0  0  0  0  0  0  0  # atno 7974 bound_to 7965
  155.9484  140.1121  157.0998 H   0  0  0  0  0  0  0  0  0  0  0  0  # atno 8008 bound_to 7997
  154.4104  140.1205  156.5085 H   0  0  0  0  0  0  0  0  0  0  0  0  # atno 8009 bound_to 7997
  155.6874  140.3473  155.4882 H   0  0  0  0  0  0  0  0  0  0  0  0  # atno 8010 bound_to 7997
  139.8270  143.7498  152.2666 H   0  0  0  0  0  0  0  0  0  0  0  0  # atno 10167 bound_to 10162
  156.0408  130.5633  150.7737 H   0  0  0  0  0  0  0  0  0  0  0  0  # atno 10718 bound_to 10713
  152.9875  135.6122  154.3002 H   0  0  0  0  0  0  0  0  0  0  0  0  # atno 10763 bound_to 10752
  154.2723  135.2779  155.2735 H   0  0  0  0  0  0  0  0  0  0  0  0  # atno 10764 bound_to 10752
  154.5112  135.5840  153.6663 H   0  0  0  0  0  0  0  0  0  0  0  0  # atno 10765 bound_to 10752
  140.0499  134.9261  157.0998 H   0  0  0  0  0  0  0  0  0  0  0  0  # atno 11005 bound_to 11000
  144.8726  139.5016  143.6760 LP  0  0  0  0  0  0  0  0  0  0  0  0  # atno 17320 bound_to 7965
  146.2972  139.7316  142.9117 LP  0  0  0  0  0  0  0  0  0  0  0  0  # atno 17321 bound_to 7965
  139.7694  144.7481  151.0247 LP  0  0  0  0  0  0  0  0  0  0  0  0  # atno 17342 bound_to 10162
  140.7809  143.4662  151.0209 LP  0  0  0  0  0  0  0  0  0  0  0  0  # atno 17343 bound_to 10162
  157.5224  131.0932  151.0062 LP  0  0  0  0  0  0  0  0  0  0  0  0  # atno 17370 bound_to 10713
  157.0389  130.5741  149.5353 LP  0  0  0  0  0  0  0  0  0  0  0  0  # atno 17371 bound_to 10713
  140.3933  134.2160  155.7165 LP  0  0  0  0  0  0  0  0  0  0  0  0  # atno 17394 bound_to 11000
  141.1925  133.8171  157.0836 LP  0  0  0  0  0  0  0  0  0  0  0  0  # atno 17395 bound_to 11000

$$$$
