AV-unprocessed.smi:35|AV-procd|sdf|263|dock2
  -GOLD-   2262016 33D 1   1.00000     0.00000
 Structure written by MMmdl.
 28 29  0  0  0  0  0  0  0  0  2 V2000
  152.9160  141.2600  159.0607 O   0  0  0  0  0  0  0  0  0  0  0  0
  152.3039  141.1105  158.0047 C   0  0  0  0  0  0  0  0  0  0  0  0
  152.4684  140.0210  157.2008 N   0  5  0  0  0  0  0  0  0  0  0  0
  151.7787  139.8547  156.0342 C   0  0  0  0  0  0  0  0  0  0  0  0
  151.9350  138.8823  155.2953 O   0  0  0  0  0  0  0  0  0  0  0  0
  150.8323  140.8429  155.6428 N   0  0  0  0  0  0  0  0  0  0  0  0
  150.0749  140.6497  154.3397 C   0  0  2  0  0  0  0  0  0  0  0  0
  149.1988  141.7224  154.1441 O   0  0  0  0  0  0  0  0  0  0  0  0
  147.8939  141.3631  154.5882 C   0  0  1  0  0  0  0  0  0  0  0  0
  146.8281  142.3231  154.0322 C   0  0  0  0  0  0  0  0  0  0  0  0
  145.5564  141.9820  154.5425 O   0  0  0  0  0  0  0  0  0  0  0  0
  147.7929  139.9093  154.1167 C   0  0  1  0  0  0  0  0  0  0  0  0
  147.4488  139.8546  152.7413 O   0  0  0  0  0  0  0  0  0  0  0  0
  149.1990  139.3780  154.3944 C   0  0  1  0  0  0  0  0  0  0  0  0
  149.5969  138.3809  153.4720 O   0  0  0  0  0  0  0  0  0  0  0  0
  150.6667  141.9746  156.4274 C   0  0  0  0  0  0  0  0  0  0  0  0
  151.3568  142.1349  157.5745 C   0  0  0  0  0  0  0  0  0  0  0  0
  151.0127  143.7982  158.5951 Br  0  0  0  0  0  0  0  0  0  0  0  0
  150.8379  140.6478  153.5592 H   0  0  0  0  0  0  0  0  0  0  0  0
  147.8648  141.3668  155.6794 H   0  0  0  0  0  0  0  0  0  0  0  0
  147.0639  143.3613  154.2680 H   0  0  0  0  0  0  0  0  0  0  0  0
  146.7770  142.2384  152.9465 H   0  0  0  0  0  0  0  0  0  0  0  0
  145.4849  141.0400  154.5639 H   0  0  0  0  0  0  0  0  0  0  0  0
  147.0394  139.3543  154.6762 H   0  0  0  0  0  0  0  0  0  0  0  0
  148.2478  139.7808  152.2416 H   0  0  0  0  0  0  0  0  0  0  0  0
  149.2289  138.9614  155.4025 H   0  0  0  0  0  0  0  0  0  0  0  0
  149.5989  138.7662  152.6080 H   0  0  0  0  0  0  0  0  0  0  0  0
  149.9814  142.7547  156.1337 H   0  0  0  0  0  0  0  0  0  0  0  0
  1  2  2  0  0  0  0
  2 17  1  0  0  0  0
  2  3  1  0  0  0  0
  3  4  1  0  0  0  0
  4  5  2  0  0  0  0
  4  6  1  0  0  0  0
  6  7  1  0  0  0  0
  6 16  1  0  0  0  0
  7 14  1  0  0  0  0
  7  8  1  0  0  0  0
  7 19  1  0  0  0  0
  8  9  1  0  0  0  0
  9 10  1  0  0  0  0
  9 12  1  0  0  0  0
  9 20  1  0  0  0  0
 10 11  1  0  0  0  0
 10 21  1  0  0  0  0
 10 22  1  0  0  0  0
 11 23  1  0  0  0  0
 12 13  1  0  0  0  0
 12 14  1  0  0  0  0
 12 24  1  0  0  0  0
 13 25  1  0  0  0  0
 14 15  1  0  0  0  0
 14 26  1  0  0  0  0
 15 27  1  0  0  0  0
 16 17  2  0  0  0  0
 16 28  1  0  0  0  0
 17 18  1  0  0  0  0
M  CHG  1   3  -1
M  END
> <s_m_source_file>
AV-unprocessed.smi

> <i_m_source_file_index>
35

> <i_lp_mmshare_version>
43012

> <i_f3d_flags>
0

> <s_epik_input>
Tz1jMVtuSF1jKD1PKW4oW2NIXWMxQnIpW0NAQEhdMk9bQ0BASF0oW0NIMl1bT0hdKVtDQEBIXShbT0hdKVtDQEhdMltPSF0=

> <s_epik_cmdline>
J2VwaWtfcHl0aG9uJywgJy1waCcsICc3LjAnLCAnLXRuJywgJzgnLCAnLW1hJywgJzIwMCcsICctbWV0YWxfYmluZGluZycsICctaW1hZScsICc8aW5maWxlLm1hZT4nLCAnLW9tYWUnLCAnPG91dGZpbGUubWFlPic=

> <r_epik_Ionization_Penalty>
1.06112

> <r_epik_Ionization_Penalty_Charging>
2.1796e-09

> <r_epik_Ionization_Penalty_Neutral>
1.06112

> <r_epik_State_Penalty>
1.11484

> <r_epik_Charging_Adjusted_Penalty>
1.11484

> <i_epik_Tot_Q>
-1

> <i_epik_Tot_abs_Q>
1

> <r_epik_Metal_State_Penalty>
0.0032876

> <b_epik_Metal_Only>
0

> <s_epik_Chemistry_Notes>
This compound contains an acetal/aminal-like group ( X-CH(R)-Y where X, Y are N, S, or O) that may be acid/base labile, releasing an aldehyde.

> <s_lp_Force_Field>
OPLS_2005

> <r_lp_Energy>
42.0638

> <b_lp_Chiralities_Consistent>
1

> <s_lp_Variant>
AV-unprocessed.smi:35-17

> <Gold.Version>
5.8.1

> <Gold.Id.Protein>
6NUR|6NUR_protein|mol2

> <Gold.PLP.Fitness>
49.7417

> <Gold.PLP.PLP>
-33.1494

> <Gold.PLP.part.hbond>
-6.4181

> <Gold.PLP.part.metal>
0.0000

> <Gold.PLP.part.buried>
-2.3884

> <Gold.PLP.part.nonpolar>
-23.9989

> <Gold.PLP.part.repulsive>
0.2034

> <Gold.PLP.ligand.clash>
0.0000

> <Gold.PLP.ligand.torsion>
0.0232

> <Gold.PLP.Chemscore.Hbond>
4.5392

> <Gold.PLP.Chemscore.CHOScore>
1.0000

> <Gold.PLP.Chemscore.Metal>
0.0000

> <Gold.Chemscore.Hbonds>
donor molecule, donor type, donor heavy atom, donor atom, acceptor molecule, acceptor atom, score
      L1  H    13    25       P1  7957  1.00
      L1  H    15    27       P1  7957  1.00
      P1  H  7997  8009       L1     3  2.00
      P1  H  8011  8017       L1     8  0.54
      L1  C    16    28       P1  8028  1.00

> <Gold.PLP.Chemscore.Internal.Correction>
0.0210

> <Gold.Rescore>
     Score         DG    S(hbond)    S(metal)    S(lipo)     H(rot)  DE(clash)    DE(int)     intcor
      6.85      -9.56       2.33        0.00      47.67       3.63       1.51       1.20       ----

> <Gold.Chemscore.Fitness>
6.8499

> <Gold.Chemscore.DG>
-9.5571

> <Gold.Chemscore.ZeroCoef>
-5.4800

> <Gold.Chemscore.Hbond>
2.3302

> <Gold.Chemscore.Metal>
0.0000

> <Gold.Chemscore.Lipo>
47.6672

> <Gold.Chemscore.Internal_Hbond>
0.0000

> <Gold.Chemscore.DEClash>
1.5115

> <Gold.Chemscore.DEInternal>
1.1956

> <Gold.Chemscore.Rot>
3.6261

> <Gold.Chemscore.Internal.Correction>
   9.000000E+99

> <Gold.Chemscore.Hbonds>
donor molecule, donor type, donor heavy atom, donor atom, acceptor molecule, acceptor atom, score
      L1  H    13    25       P1  7957  1.00
      L1  H    15    27       P1  7957  0.74
      P1  H  7997  8009       L1     3  0.16
      P1  H  8011  8017       L1     8  0.18

> <Gold.Chemscore.Hbond.Weighted>
-7.7828

> <Gold.Chemscore.Metal.Weighted>
-0.0000

> <Gold.Chemscore.Lipo.Weighted>
-5.5771

> <Gold.Chemscore.Internal_Hbond.Weighted>
0.0000

> <Gold.Chemscore.DEClash.Weighted>
1.5115

> <Gold.Chemscore.DEInternal.Weighted>
1.1956

> <Gold.Chemscore.Rot.Weighted>
9.2828

> <Gold.Chemscore.Internal.Correction.Weighted>
   9.000000E+99

> <Gold.Protein.RotatedTorsions>
[ 6907 6896 6895 6894 ] final  148.14 input  -60.11 | X-H torsion
[ 7974 7965 7964 7962 ] final -110.72 input  175.53 | X-H torsion
[ 8008 7997 7996 7995 ] final -173.26 input   59.86 | X-H torsion
[ 10167 10162 10161 10158 ] final  124.26 input  -65.29 | X-H torsion
[ 10718 10713 10712 10709 ] final   71.31 input   66.30 | X-H torsion
[ 10763 10752 10751 10750 ] final  -16.96 input  -60.55 | X-H torsion
[ 11005 11000 10999 10996 ] final -165.69 input  -57.11 | X-H torsion

> <Gold.Protein.ActiveResidues>
 VAL166  LYS551  ARG553  GLY616  TRP617  ASP618  TYR619  PRO620  LYS621  CYS622 
 ASP623  PHE694  ASN695  SER759  ASP760  ASP761  ALA762  ILE779  LEU786  VAL792 
 PHE793  MET794  SER795  GLU796  ALA797  LYS798  CYS799  TRP800  GLU811  SER814 

> <Gold.Protein.RotatedAtoms>
  152.1454  133.4489  159.4787 H   0  0  0  0  0  0  0  0  0  0  0  0  # atno 6907 bound_to 6896
  150.6890  134.2254  159.4422 H   0  0  0  0  0  0  0  0  0  0  0  0  # atno 6908 bound_to 6896
  152.0147  134.9856  160.0619 H   0  0  0  0  0  0  0  0  0  0  0  0  # atno 6909 bound_to 6896
  145.1648  140.8896  143.3570 H   0  0  0  0  0  0  0  0  0  0  0  0  # atno 7974 bound_to 7965
  155.9552  140.1134  157.0943 H   0  0  0  0  0  0  0  0  0  0  0  0  # atno 8008 bound_to 7997
  154.4119  140.1192  156.5172 H   0  0  0  0  0  0  0  0  0  0  0  0  # atno 8009 bound_to 7997
  155.6791  140.3473  155.4850 H   0  0  0  0  0  0  0  0  0  0  0  0  # atno 8010 bound_to 7997
  139.5751  144.6959  151.3673 H   0  0  0  0  0  0  0  0  0  0  0  0  # atno 10167 bound_to 10162
  157.6445  130.9522  150.0772 H   0  0  0  0  0  0  0  0  0  0  0  0  # atno 10718 bound_to 10713
  153.5665  135.7008  153.5524 H   0  0  0  0  0  0  0  0  0  0  0  0  # atno 10763 bound_to 10752
  153.3382  135.4028  155.1550 H   0  0  0  0  0  0  0  0  0  0  0  0  # atno 10764 bound_to 10752
  154.8640  135.3735  154.5185 H   0  0  0  0  0  0  0  0  0  0  0  0  # atno 10765 bound_to 10752
  140.5729  134.5220  157.5165 H   0  0  0  0  0  0  0  0  0  0  0  0  # atno 11005 bound_to 11000
  145.0294  139.3354  143.6032 LP  0  0  0  0  0  0  0  0  0  0  0  0  # atno 17320 bound_to 7965
  146.3477  139.9625  142.8715 LP  0  0  0  0  0  0  0  0  0  0  0  0  # atno 17321 bound_to 7965
  140.7034  143.7574  150.7441 LP  0  0  0  0  0  0  0  0  0  0  0  0  # atno 17342 bound_to 10162
  140.1091  143.4716  152.2380 LP  0  0  0  0  0  0  0  0  0  0  0  0  # atno 17343 bound_to 10162
  156.1759  130.3648  149.9101 LP  0  0  0  0  0  0  0  0  0  0  0  0  # atno 17370 bound_to 10713
  156.7066  130.8953  151.3605 LP  0  0  0  0  0  0  0  0  0  0  0  0  # atno 17371 bound_to 10713
  139.9353  134.7886  156.0819 LP  0  0  0  0  0  0  0  0  0  0  0  0  # atno 17394 bound_to 11000
  141.1045  133.6665  156.2831 LP  0  0  0  0  0  0  0  0  0  0  0  0  # atno 17395 bound_to 11000

$$$$
