#       Name:                AV-unprocessed.smi:158
#       Creating user name   scv26
#       Creation time:       Thu Mar 26 19:02:53 2020


#       File generated by GOLD software.
#

@<TRIPOS>MOLECULE
AV-unprocessed.smi:158
    40    42     1
SMALL
NO_CHARGES


@<TRIPOS>ATOM
      1 ****        -4.9707  -0.1476   0.3906 N.pl3          1 S1                 0.0000
      2 ****        -3.6637   0.1494   0.3770 C.ar           1 S1                 0.0000
      3 ****        -3.2993   1.4526   0.3673 N.ar           1 S1                 0.0000
      4 ****        -2.0045   1.7907   0.3557 C.ar           1 S1                 0.0000
      5 ****        -1.6486   3.4776   0.3460 Cl             1 S1                 0.0000
      6 ****        -0.9525   0.9663   0.3507 N.ar           1 S1                 0.0000
      7 ****        -1.3120  -0.3495   0.3592 C.ar           1 S1                 0.0000
      8 ****        -2.6470  -0.8368   0.3735 C.ar           1 S1                 0.0000
      9 ****        -2.6458  -2.2242   0.3817 N.2            1 S1                 0.0000
     10 ****        -1.3776  -2.5354   0.3730 C.2            1 S1                 0.0000
     11 ****        -0.5032  -1.4704   0.3569 N.pl3          1 S1                 0.0000
     12 ****         0.9935  -1.5399   0.3359 C.3            1 S1                 0.0000
     13 ****         1.5122  -0.4516   1.0462 O.3            1 S1                 0.0000
     14 ****         2.4234   0.2819   0.2277 C.3            1 S1                 0.0000
     15 ****         2.4346   1.7618   0.6445 C.3            1 S1                 0.0000
     16 ****         3.4944   2.4466   0.0108 O.3            1 S1                 0.0000
     17 ****         1.9262   0.0110  -1.1944 C.3            1 S1                 0.0000
     18 ****         2.9067   0.2178  -2.1911 O.3            1 S1                 0.0000
     19 ****         1.5141  -1.4475  -1.1024 C.3            1 S1                 0.0000
     20 ****         2.5726  -2.2560  -1.1996 F              1 S1                 0.0000
     21 ****         1.2283  -2.4846   0.8283 H              1 S1                 0.0000
     22 ****         3.4116  -0.1593   0.3721 H              1 S1                 0.0000
     23 ****         1.0562   0.6273  -1.4200 H              1 S1                 0.0000
     24 ****         0.7736  -1.7582  -1.8407 H              1 S1                 0.0000
     25 ****        -5.2662  -1.1133   0.3989 H              1 S1                 0.0000
     26 ****        -5.6566   0.5935   0.3952 H              1 S1                 0.0000
     27 ****        -1.0415  -3.5622   0.3749 H              1 S1                 0.0000
     28 ****         1.4908   2.2508   0.4049 H              1 S1                 0.0000
     29 ****         2.5748   1.8438   1.7225 H              1 S1                 0.0000
     30 ****         3.4910   3.3442   0.3069 H              1 S1                 0.0000
     31 ****         3.1853   1.1204  -2.1509 H              1 S1                 0.0000
     32 ****        -4.0003   2.1658   0.3688 LP             1 S1                 0.0000
     33 ****        -0.0032   1.2806   0.3416 LP             1 S1                 0.0000
     34 ****        -3.4324  -2.8416   0.3918 LP             1 S1                 0.0000
     35 ****         1.9920  -0.7851   1.8576 LP             1 S1                 0.0000
     36 ****         0.7624   0.1483   1.3253 LP             1 S1                 0.0000
     37 ****         3.3693   2.4181  -0.9810 LP             1 S1                 0.0000
     38 ****         4.3648   2.0160   0.2494 LP             1 S1                 0.0000
     39 ****         2.5191   0.0234  -3.0922 LP             1 S1                 0.0000
     40 ****         3.6878  -0.3847  -2.0272 LP             1 S1                 0.0000
@<TRIPOS>BOND
    1    1    2 1     
    2    1   25 1     
    3    1   26 1     
    4    2    8 ar    
    5    2    3 ar    
    6    3    4 ar    
    7    4    5 1     
    8    4    6 ar    
    9    6    7 ar    
   10    7   11 1     
   11    7    8 ar    
   12    8    9 1     
   13    9   10 2     
   14   10   11 1     
   15   10   27 1     
   16   11   12 1     
   17   12   21 1     
   18   12   19 1     
   19   12   13 1     
   20   13   14 1     
   21   14   22 1     
   22   14   15 1     
   23   14   17 1     
   24   15   16 1     
   25   15   28 1     
   26   15   29 1     
   27   16   30 1     
   28   17   23 1     
   29   17   18 1     
   30   17   19 1     
   31   18   31 1     
   32   19   24 1     
   33   19   20 1     
   34    3   32 1     
   35    6   33 1     
   36    9   34 1     
   37   13   35 1     
   38   13   36 1     
   39   16   37 1     
   40   16   38 1     
   41   18   39 1     
   42   18   40 1     
@<TRIPOS>SUBSTRUCTURE
      1 S1             1
@<TRIPOS>SET
LONE_PAIRS      STATIC     ATOMS    <user>   **** ""
9 32 33 34 35 36 37 38 39 40
DONOR_HYDROGENS      STATIC     ATOMS    <user>   **** ""
4 25 26 30 31
ATOM$BLUE        STATIC     ATOMS    COLORGROUP SYSTEM
9 32 33 34 35 36 37 38 39 40
ATOM$RED        STATIC     ATOMS    COLORGROUP SYSTEM
4 25 26 30 31
