AV-unprocessed.smi:102|AV-procd|sdf|946|dock3
  -GOLD-   2262017473D 1   1.00000     0.00000
 Structure written by MMmdl.
 44 45  0  0  0  0  0  0  0  0  1 V2000
  147.2020  134.8640  161.1267 C   0  0  0  0  0  0  0  0  0  0  0  0
  147.6086  136.1982  160.5150 C   0  0  0  0  0  0  0  0  0  0  0  0
  147.4389  137.2592  161.1159 O   0  0  0  0  0  0  0  0  0  0  0  0
  148.1452  136.0597  159.2926 O   0  0  0  0  0  0  0  0  0  0  0  0
  149.1145  136.9913  158.8402 C   0  0  0  0  0  0  0  0  0  0  0  0
  149.6581  136.5341  157.4735 C   0  0  1  0  0  0  0  0  0  0  0  0
  148.9340  137.1934  156.4341 O   0  0  0  0  0  0  0  0  0  0  0  0
  149.6406  138.2943  155.9313 C   0  0  1  0  0  0  0  0  0  0  0  0
  148.8111  139.5541  156.0864 N   0  0  0  0  0  0  0  0  0  0  0  0
  147.5460  139.5521  156.6615 C   0  0  0  0  0  0  0  0  0  0  0  0
  146.8103  140.6768  156.8256 C   0  0  0  0  0  0  0  0  0  0  0  0
  145.5946  140.5963  157.3927 F   0  0  0  0  0  0  0  0  0  0  0  0
  147.3228  141.9729  156.3911 C   0  0  0  0  0  0  0  0  0  0  0  0
  146.7330  143.0459  156.5015 O   0  0  0  0  0  0  0  0  0  0  0  0
  148.5924  141.9256  155.8083 N   0  0  0  0  0  0  0  0  0  0  0  0
  149.3607  140.7737  155.6334 C   0  0  0  0  0  0  0  0  0  0  0  0
  150.4727  140.8455  155.1124 O   0  0  0  0  0  0  0  0  0  0  0  0
  150.9874  138.3638  156.6811 C   0  0  1  0  0  0  0  0  0  0  0  0
  150.9305  139.3094  157.7506 O   0  0  0  0  0  0  0  0  0  0  0  0
  152.0516  139.7444  158.3498 C   0  0  0  0  0  0  0  0  0  0  0  0
  151.7757  140.8589  159.3497 C   0  0  0  0  0  0  0  0  0  0  0  0
  153.1923  139.3280  158.1504 O   0  0  0  0  0  0  0  0  0  0  0  0
  151.1088  136.9359  157.1957 C   0  0  1  0  0  0  0  0  0  0  0  0
  151.9675  136.7955  158.3226 O   0  0  0  0  0  0  0  0  0  0  0  0
  153.2667  136.4946  158.1507 C   0  0  0  0  0  0  0  0  0  0  0  0
  154.0251  136.4226  159.4690 C   0  0  0  0  0  0  0  0  0  0  0  0
  153.8295  136.3039  157.0727 O   0  0  0  0  0  0  0  0  0  0  0  0
  148.9870  142.7987  155.4902 H   0  0  0  0  0  0  0  0  0  0  0  0
  146.7175  134.2341  160.3806 H   0  0  0  0  0  0  0  0  0  0  0  0
  146.5050  135.0184  161.9507 H   0  0  0  0  0  0  0  0  0  0  0  0
  148.0784  134.3401  161.5079 H   0  0  0  0  0  0  0  0  0  0  0  0
  148.6862  137.9912  158.7712 H   0  0  0  0  0  0  0  0  0  0  0  0
  149.9182  137.0328  159.5757 H   0  0  0  0  0  0  0  0  0  0  0  0
  149.5452  135.4532  157.3827 H   0  0  0  0  0  0  0  0  0  0  0  0
  149.7586  138.1497  154.8557 H   0  0  0  0  0  0  0  0  0  0  0  0
  147.1043  138.6283  156.9996 H   0  0  0  0  0  0  0  0  0  0  0  0
  151.7780  138.6048  155.9691 H   0  0  0  0  0  0  0  0  0  0  0  0
  150.7998  140.7231  159.8163 H   0  0  0  0  0  0  0  0  0  0  0  0
  151.7879  141.8263  158.8473 H   0  0  0  0  0  0  0  0  0  0  0  0
  152.5341  140.8644  160.1326 H   0  0  0  0  0  0  0  0  0  0  0  0
  151.4665  136.3056  156.3797 H   0  0  0  0  0  0  0  0  0  0  0  0
  153.4687  135.8330  160.1977 H   0  0  0  0  0  0  0  0  0  0  0  0
  154.1735  137.4245  159.8724 H   0  0  0  0  0  0  0  0  0  0  0  0
  155.0018  135.9602  159.3238 H   0  0  0  0  0  0  0  0  0  0  0  0
  1  2  1  0  0  0  0
  1 29  1  0  0  0  0
  1 30  1  0  0  0  0
  1 31  1  0  0  0  0
  2  3  2  0  0  0  0
  2  4  1  0  0  0  0
  4  5  1  0  0  0  0
  5  6  1  0  0  0  0
  5 32  1  0  0  0  0
  5 33  1  0  0  0  0
  6 23  1  0  0  0  0
  6  7  1  0  0  0  0
  6 34  1  0  0  0  0
  7  8  1  0  0  0  0
  8  9  1  0  0  0  0
  8 18  1  0  0  0  0
  8 35  1  0  0  0  0
  9 16  1  0  0  0  0
  9 10  1  0  0  0  0
 10 11  2  0  0  0  0
 10 36  1  0  0  0  0
 11 12  1  0  0  0  0
 11 13  1  0  0  0  0
 13 14  2  0  0  0  0
 13 15  1  0  0  0  0
 15 28  1  0  0  0  0
 15 16  1  0  0  0  0
 16 17  2  0  0  0  0
 18 19  1  0  0  0  0
 18 23  1  0  0  0  0
 18 37  1  0  0  0  0
 19 20  1  0  0  0  0
 20 21  1  0  0  0  0
 20 22  2  0  0  0  0
 21 38  1  0  0  0  0
 21 39  1  0  0  0  0
 21 40  1  0  0  0  0
 23 24  1  0  0  0  0
 23 41  1  0  0  0  0
 24 25  1  0  0  0  0
 25 26  1  0  0  0  0
 25 27  2  0  0  0  0
 26 42  1  0  0  0  0
 26 43  1  0  0  0  0
 26 44  1  0  0  0  0
M  END
> <s_m_source_file>
AV-unprocessed.smi

> <i_m_source_file_index>
102

> <i_lp_mmshare_version>
43012

> <i_f3d_flags>
0

> <s_epik_input>
W0NIM11DKD1PKU9bQ0gyXVtDQEBIXTFPW0NASF0oW0NAQEhdKE9DKD1PKVtDSDNdKVtDQEhdMU9DKD1PKVtDSDNdKW4yW2NIXWMoRiljKD1PKVtuSF1jMj1P

> <s_epik_cmdline>
J2VwaWtfcHl0aG9uJywgJy1waCcsICc3LjAnLCAnLXRuJywgJzgnLCAnLW1hJywgJzIwMCcsICctbWV0YWxfYmluZGluZycsICctaW1hZScsICc8aW5maWxlLm1hZT4nLCAnLW9tYWUnLCAnPG91dGZpbGUubWFlPic=

> <r_lp_tautomer_probability>
0.999537

> <r_epik_Ionization_Penalty>
0.058267

> <r_epik_Ionization_Penalty_Charging>
0.058267

> <r_epik_Ionization_Penalty_Neutral>
6.57791e-16

> <r_epik_State_Penalty>
0.0503774

> <r_epik_Charging_Adjusted_Penalty>
0.108644

> <i_epik_Tot_Q>
0

> <i_epik_Tot_abs_Q>
0

> <r_epik_Metal_State_Penalty>
2.6644

> <b_epik_Metal_Only>
0

> <s_epik_Chemistry_Notes>
This compound has an ester and may undergo hydrolysis at high or low pH. This compound contains an acetal/aminal-like group ( X-CH(R)-Y where X, Y are N, S, or O) that may be acid/base labile, releasing an aldehyde.

> <s_lp_Force_Field>
OPLS_2005

> <r_lp_Energy>
16.4745

> <b_lp_Chiralities_Consistent>
1

> <s_lp_Variant>
AV-unprocessed.smi:102-2

> <Gold.Version>
5.8.1

> <Gold.Id.Protein>
6NUR|6NUR_protein|mol2

> <Gold.PLP.Fitness>
38.3943

> <Gold.PLP.PLP>
-24.1959

> <Gold.PLP.part.hbond>
-6.1883

> <Gold.PLP.part.metal>
0.0000

> <Gold.PLP.part.buried>
-4.5022

> <Gold.PLP.part.nonpolar>
-12.4620

> <Gold.PLP.part.repulsive>
0.5099

> <Gold.PLP.ligand.clash>
0.0000

> <Gold.PLP.ligand.torsion>
1.4329

> <Gold.PLP.Chemscore.Hbond>
5.6240

> <Gold.PLP.Chemscore.CHOScore>
0.0000

> <Gold.PLP.Chemscore.Metal>
0.0000

> <Gold.Chemscore.Hbonds>
donor molecule, donor type, donor heavy atom, donor atom, acceptor molecule, acceptor atom, score
      L1  H    15    28       P1  8028  0.88
      P1  H  6931  6943       L1     3  0.82
      P1  H  6934  6947       L1     3  0.99
      P1  H  7989  7998       L1    17  0.80
      P1  H  7997  8009       L1    22  1.00
      P1  H 10752 10765       L1    27  1.00

> <Gold.PLP.Chemscore.Internal.Correction>
0.1921

> <Gold.Rescore>
     Score         DG    S(hbond)    S(metal)    S(lipo)     H(rot)  DE(clash)    DE(int)     intcor
     12.43     -16.36       5.36        0.00      28.79       4.05       0.01       3.92       ----

> <Gold.Chemscore.Fitness>
12.4317

> <Gold.Chemscore.DG>
-16.3627

> <Gold.Chemscore.ZeroCoef>
-5.4800

> <Gold.Chemscore.Hbond>
5.3554

> <Gold.Chemscore.Metal>
0.0000

> <Gold.Chemscore.Lipo>
28.7926

> <Gold.Chemscore.Internal_Hbond>
0.0000

> <Gold.Chemscore.DEClash>
0.0127

> <Gold.Chemscore.DEInternal>
3.9183

> <Gold.Chemscore.Rot>
4.0520

> <Gold.Chemscore.Internal.Correction>
   9.000000E+99

> <Gold.Chemscore.Hbonds>
donor molecule, donor type, donor heavy atom, donor atom, acceptor molecule, acceptor atom, score
      L1  H    15    28       P1  8028  0.86
      P1  H  6931  6943       L1     3  0.76
      P1  H  6934  6947       L1     3  0.94
      P1  H  7989  7998       L1    17  0.78
      P1  H  7997  8009       L1    22  0.98
      P1  H 10752 10765       L1    27  0.99

> <Gold.Chemscore.Hbond.Weighted>
-17.8871

> <Gold.Chemscore.Metal.Weighted>
-0.0000

> <Gold.Chemscore.Lipo.Weighted>
-3.3687

> <Gold.Chemscore.Internal_Hbond.Weighted>
0.0000

> <Gold.Chemscore.DEClash.Weighted>
0.0127

> <Gold.Chemscore.DEInternal.Weighted>
3.9183

> <Gold.Chemscore.Rot.Weighted>
10.3732

> <Gold.Chemscore.Internal.Correction.Weighted>
   9.000000E+99

> <Gold.Protein.RotatedTorsions>
[ 6907 6896 6895 6894 ] final  -87.40 input  -60.11 | X-H torsion
[ 7974 7965 7964 7962 ] final -119.31 input  175.53 | X-H torsion
[ 8008 7997 7996 7995 ] final  168.98 input   59.86 | X-H torsion
[ 10167 10162 10161 10158 ] final   -2.41 input  -65.29 | X-H torsion
[ 10718 10713 10712 10709 ] final   -5.05 input   66.30 | X-H torsion
[ 10763 10752 10751 10750 ] final -106.65 input  -60.55 | X-H torsion
[ 11005 11000 10999 10996 ] final -134.16 input  -57.11 | X-H torsion

> <Gold.Protein.ActiveResidues>
 VAL166  LYS551  ARG553  GLY616  TRP617  ASP618  TYR619  PRO620  LYS621  CYS622 
 ASP623  PHE694  ASN695  SER759  ASP760  ASP761  ALA762  ILE779  LEU786  VAL792 
 PHE793  MET794  SER795  GLU796  ALA797  LYS798  CYS799  TRP800  GLU811  SER814 

> <Gold.Protein.RotatedAtoms>
  150.6866  134.2902  159.4663 H   0  0  0  0  0  0  0  0  0  0  0  0  # atno 6907 bound_to 6896
  152.0808  134.9470  160.0582 H   0  0  0  0  0  0  0  0  0  0  0  0  # atno 6908 bound_to 6896
  152.0823  133.4124  159.4544 H   0  0  0  0  0  0  0  0  0  0  0  0  # atno 6909 bound_to 6896
  145.0640  140.8311  143.4135 H   0  0  0  0  0  0  0  0  0  0  0  0  # atno 7974 bound_to 7965
  156.1499  140.1576  156.8787 H   0  0  0  0  0  0  0  0  0  0  0  0  # atno 8008 bound_to 7997
  154.5061  140.0812  156.7935 H   0  0  0  0  0  0  0  0  0  0  0  0  # atno 8009 bound_to 7997
  155.3916  140.3410  155.4254 H   0  0  0  0  0  0  0  0  0  0  0  0  # atno 8010 bound_to 7997
  140.6850  143.6661  150.8225 H   0  0  0  0  0  0  0  0  0  0  0  0  # atno 10167 bound_to 10162
  156.7522  130.5243  149.5801 H   0  0  0  0  0  0  0  0  0  0  0  0  # atno 10718 bound_to 10713
  154.8026  135.4704  154.0312 H   0  0  0  0  0  0  0  0  0  0  0  0  # atno 10763 bound_to 10752
  153.1806  135.6840  153.8490 H   0  0  0  0  0  0  0  0  0  0  0  0  # atno 10764 bound_to 10752
  153.8041  135.3226  155.3371 H   0  0  0  0  0  0  0  0  0  0  0  0  # atno 10765 bound_to 10752
  140.9015  134.1684  157.4457 H   0  0  0  0  0  0  0  0  0  0  0  0  # atno 11005 bound_to 11000
  145.1374  139.2594  143.5508 LP  0  0  0  0  0  0  0  0  0  0  0  0  # atno 17320 bound_to 7965
  146.3526  140.1041  142.8606 LP  0  0  0  0  0  0  0  0  0  0  0  0  # atno 17321 bound_to 7965
  140.0366  143.5389  152.2736 LP  0  0  0  0  0  0  0  0  0  0  0  0  # atno 17342 bound_to 10162
  139.6201  144.7627  151.2760 LP  0  0  0  0  0  0  0  0  0  0  0  0  # atno 17343 bound_to 10162
  156.1393  130.6233  151.0445 LP  0  0  0  0  0  0  0  0  0  0  0  0  # atno 17370 bound_to 10713
  157.6772  131.0847  150.7465 LP  0  0  0  0  0  0  0  0  0  0  0  0  # atno 17371 bound_to 10713
  139.8743  134.9900  156.5482 LP  0  0  0  0  0  0  0  0  0  0  0  0  # atno 17394 bound_to 11000
  140.8224  133.8343  155.8907 LP  0  0  0  0  0  0  0  0  0  0  0  0  # atno 17395 bound_to 11000

$$$$
