AV-unprocessed.smi:1727|AV-procd|sdf|6965|dock2
  -GOLD-   22720 8173D 1   1.00000     0.00000
 Structure written by MMmdl.
 49 51  0  0  0  0  0  0  0  0  1 V2000
  152.2194  144.7031  162.0615 C   0  0  0  0  0  0  0  0  0  0  0  0
  152.3782  143.3001  161.4713 C   0  0  0  0  0  0  0  0  0  0  0  0
  152.1298  142.3368  162.1965 O   0  0  0  0  0  0  0  0  0  0  0  0
  152.7791  143.1638  160.1843 N   0  0  0  0  0  0  0  0  0  0  0  0
  152.8900  141.8588  159.5221 C   0  0  0  0  0  0  0  0  0  0  0  0
  151.7674  141.7347  158.4763 C   0  0  0  0  0  0  0  0  0  0  0  0
  151.8097  142.9014  157.4666 C   0  0  0  0  0  0  0  0  0  0  0  0
  150.6309  142.8493  156.6077 N   0  0  0  0  0  0  0  0  0  0  0  0
  150.1973  141.7619  155.9549 C   0  0  0  0  0  0  0  0  0  0  0  0
  150.7542  140.6652  156.0099 O   0  0  0  0  0  0  0  0  0  0  0  0
  149.1028  142.0376  155.2267 N   0  0  0  0  0  0  0  0  0  0  0  0
  148.3879  141.1618  154.3627 C   0  0  0  0  0  0  0  0  0  0  0  0
  148.9676  139.9583  153.8924 C   0  0  0  0  0  0  0  0  0  0  0  0
  148.2009  139.0868  153.1003 C   0  0  0  0  0  0  0  0  0  0  0  0
  146.8715  139.4420  152.8184 C   0  0  0  0  0  0  0  0  0  0  0  0
  146.3009  140.5770  153.2693 N   0  0  0  0  0  0  0  0  0  0  0  0
  147.0318  141.4357  154.0225 C   0  0  0  0  0  0  0  0  0  0  0  0
  146.3856  142.6182  154.4512 N   0  0  0  0  0  0  0  0  0  0  0  0
  145.4082  142.5777  155.5342 C   0  0  0  0  0  0  0  0  0  0  0  0
  144.6610  143.9050  155.4429 C   0  0  0  0  0  0  0  0  0  0  0  0
  144.6129  144.1483  153.9380 C   0  0  0  0  0  0  0  0  0  0  0  0
  145.9371  143.5652  153.4342 C   0  0  0  0  0  0  0  0  0  0  0  0
  151.8985  144.2669  158.1863 C   0  0  0  0  0  0  0  0  0  0  0  0
  153.0147  144.2682  159.2459 C   0  0  0  0  0  0  0  0  0  0  0  0
  151.4899  145.2816  161.4940 H   0  0  0  0  0  0  0  0  0  0  0  0
  153.1721  145.2331  162.0606 H   0  0  0  0  0  0  0  0  0  0  0  0
  151.8704  144.6486  163.0933 H   0  0  0  0  0  0  0  0  0  0  0  0
  153.8645  141.7801  159.0381 H   0  0  0  0  0  0  0  0  0  0  0  0
  152.8385  141.0236  160.2219 H   0  0  0  0  0  0  0  0  0  0  0  0
  151.8513  140.7822  157.9520 H   0  0  0  0  0  0  0  0  0  0  0  0
  150.8039  141.7219  158.9887 H   0  0  0  0  0  0  0  0  0  0  0  0
  152.7051  142.7753  156.8549 H   0  0  0  0  0  0  0  0  0  0  0  0
  150.1101  143.7072  156.4994 H   0  0  0  0  0  0  0  0  0  0  0  0
  148.8164  143.0054  155.1972 H   0  0  0  0  0  0  0  0  0  0  0  0
  149.9793  139.6804  154.1469 H   0  0  0  0  0  0  0  0  0  0  0  0
  148.6184  138.1624  152.7293 H   0  0  0  0  0  0  0  0  0  0  0  0
  146.2469  138.7957  152.2198 H   0  0  0  0  0  0  0  0  0  0  0  0
  144.7047  141.7562  155.3919 H   0  0  0  0  0  0  0  0  0  0  0  0
  145.8932  142.4517  156.5027 H   0  0  0  0  0  0  0  0  0  0  0  0
  143.6735  143.8704  155.9036 H   0  0  0  0  0  0  0  0  0  0  0  0
  145.2372  144.6930  155.9300 H   0  0  0  0  0  0  0  0  0  0  0  0
  143.7796  143.5938  153.5046 H   0  0  0  0  0  0  0  0  0  0  0  0
  144.4876  145.1998  153.6795 H   0  0  0  0  0  0  0  0  0  0  0  0
  146.6793  144.3584  153.3414 H   0  0  0  0  0  0  0  0  0  0  0  0
  145.8194  143.0953  152.4567 H   0  0  0  0  0  0  0  0  0  0  0  0
  152.0752  145.0635  157.4625 H   0  0  0  0  0  0  0  0  0  0  0  0
  150.9469  144.4941  158.6693 H   0  0  0  0  0  0  0  0  0  0  0  0
  153.0697  145.2448  159.7241 H   0  0  0  0  0  0  0  0  0  0  0  0
  153.9832  144.1273  158.7639 H   0  0  0  0  0  0  0  0  0  0  0  0
  1  2  1  0  0  0  0
  1 25  1  0  0  0  0
  1 26  1  0  0  0  0
  1 27  1  0  0  0  0
  2  3  2  0  0  0  0
  2  4  1  0  0  0  0
  4 24  1  0  0  0  0
  4  5  1  0  0  0  0
  5  6  1  0  0  0  0
  5 28  1  0  0  0  0
  5 29  1  0  0  0  0
  6  7  1  0  0  0  0
  6 30  1  0  0  0  0
  6 31  1  0  0  0  0
  7  8  1  0  0  0  0
  7 23  1  0  0  0  0
  7 32  1  0  0  0  0
  8  9  1  0  0  0  0
  8 33  1  0  0  0  0
  9 10  2  0  0  0  0
  9 11  1  0  0  0  0
 11 12  1  0  0  0  0
 11 34  1  0  0  0  0
 12 17  1  0  0  0  0
 12 13  2  0  0  0  0
 13 14  1  0  0  0  0
 13 35  1  0  0  0  0
 14 15  2  0  0  0  0
 14 36  1  0  0  0  0
 15 16  1  0  0  0  0
 15 37  1  0  0  0  0
 16 17  2  0  0  0  0
 17 18  1  0  0  0  0
 18 22  1  0  0  0  0
 18 19  1  0  0  0  0
 19 20  1  0  0  0  0
 19 38  1  0  0  0  0
 19 39  1  0  0  0  0
 20 21  1  0  0  0  0
 20 40  1  0  0  0  0
 20 41  1  0  0  0  0
 21 22  1  0  0  0  0
 21 42  1  0  0  0  0
 21 43  1  0  0  0  0
 22 44  1  0  0  0  0
 22 45  1  0  0  0  0
 23 24  1  0  0  0  0
 23 46  1  0  0  0  0
 23 47  1  0  0  0  0
 24 48  1  0  0  0  0
 24 49  1  0  0  0  0
M  END
> <s_m_source_file>
AV-unprocessed.smi

> <i_m_source_file_index>
1727

> <i_lp_mmshare_version>
43012

> <i_f3d_flags>
0

> <s_epik_input>
W0NIM11DKD1PKU4xW0NIMl1bQ0gyXVtDSF0oW0NIMl1bQ0gyXTEpW05IXUMoPU8pW05IXWMyW2NIXVtjSF1bY0hdbmMyTjNbQ0gyXVtDSDJdW0NIMl1bQ0gyXTM=

> <s_epik_cmdline>
J2VwaWtfcHl0aG9uJywgJy1waCcsICc3LjAnLCAnLXRuJywgJzgnLCAnLW1hJywgJzIwMCcsICctbWV0YWxfYmluZGluZycsICctaW1hZScsICc8aW5maWxlLm1hZT4nLCAnLW9tYWUnLCAnPG91dGZpbGUubWFlPic=

> <r_lp_tautomer_probability>
1

> <r_epik_Ionization_Penalty>
0.102256

> <r_epik_Ionization_Penalty_Charging>
0

> <r_epik_Ionization_Penalty_Neutral>
0.102256

> <r_epik_State_Penalty>
0.0916633

> <r_epik_Charging_Adjusted_Penalty>
0.0916633

> <i_epik_Tot_Q>
0

> <i_epik_Tot_abs_Q>
0

> <r_epik_Metal_State_Penalty>
0.0781079

> <b_epik_Metal_Only>
0

> <s_lp_Force_Field>
OPLS_2005

> <r_lp_Energy>
49.5361

> <b_lp_Chiralities_Consistent>
1

> <s_lp_Variant>
AV-unprocessed.smi:1727-1

> <Gold.Version>
5.8.1

> <Gold.Id.Protein>
6NUR|6NUR_protein|mol2

> <Gold.PLP.Fitness>
47.6868

> <Gold.PLP.PLP>
-40.0240

> <Gold.PLP.part.hbond>
-2.8210

> <Gold.PLP.part.metal>
0.0000

> <Gold.PLP.part.buried>
3.6926

> <Gold.PLP.part.nonpolar>
-44.6105

> <Gold.PLP.part.repulsive>
3.3049

> <Gold.PLP.ligand.clash>
0.0000

> <Gold.PLP.ligand.torsion>
0.3645

> <Gold.PLP.Chemscore.Hbond>
2.6825

> <Gold.PLP.Chemscore.CHOScore>
0.0000

> <Gold.PLP.Chemscore.Metal>
0.0000

> <Gold.Chemscore.Hbonds>
donor molecule, donor type, donor heavy atom, donor atom, acceptor molecule, acceptor atom, score
      L1  H     8    33       P1  8028  1.00
      L1  H    11    34       P1  8028  1.00
      P1  H  6933  6945       L1     3  0.68

> <Gold.PLP.Chemscore.Internal.Correction>
0.3443

> <Gold.Rescore>
     Score         DG    S(hbond)    S(metal)    S(lipo)     H(rot)  DE(clash)    DE(int)     intcor
     16.07     -25.53       2.67        0.00     121.77       1.21       6.52       2.94       ----

> <Gold.Chemscore.Fitness>
16.0703

> <Gold.Chemscore.DG>
-25.5309

> <Gold.Chemscore.ZeroCoef>
-5.4800

> <Gold.Chemscore.Hbond>
2.6665

> <Gold.Chemscore.Metal>
0.0000

> <Gold.Chemscore.Lipo>
121.7666

> <Gold.Chemscore.Internal_Hbond>
0.0000

> <Gold.Chemscore.DEClash>
6.5190

> <Gold.Chemscore.DEInternal>
2.9416

> <Gold.Chemscore.Rot>
1.2117

> <Gold.Chemscore.Internal.Correction>
   9.000000E+99

> <Gold.Chemscore.Hbonds>
donor molecule, donor type, donor heavy atom, donor atom, acceptor molecule, acceptor atom, score
      L1  H     8    33       P1  8028  0.97
      L1  H    11    34       P1  8028  0.99
      P1  H  6933  6945       L1     3  0.59

> <Gold.Chemscore.Hbond.Weighted>
-8.9061

> <Gold.Chemscore.Metal.Weighted>
-0.0000

> <Gold.Chemscore.Lipo.Weighted>
-14.2467

> <Gold.Chemscore.Internal_Hbond.Weighted>
0.0000

> <Gold.Chemscore.DEClash.Weighted>
6.5190

> <Gold.Chemscore.DEInternal.Weighted>
2.9416

> <Gold.Chemscore.Rot.Weighted>
3.1019

> <Gold.Chemscore.Internal.Correction.Weighted>
   9.000000E+99

> <Gold.Protein.RotatedTorsions>
[ 6907 6896 6895 6894 ] final -114.21 input  -60.11 | X-H torsion
[ 7974 7965 7964 7962 ] final  -76.77 input  175.53 | X-H torsion
[ 8008 7997 7996 7995 ] final  -30.88 input   59.86 | X-H torsion
[ 10167 10162 10161 10158 ] final -153.47 input  -65.29 | X-H torsion
[ 10718 10713 10712 10709 ] final  -65.32 input   66.30 | X-H torsion
[ 10763 10752 10751 10750 ] final  -58.15 input  -60.55 | X-H torsion
[ 11005 11000 10999 10996 ] final  -72.12 input  -57.11 | X-H torsion

> <Gold.Protein.ActiveResidues>
 VAL166  LYS551  ARG553  GLY616  TRP617  ASP618  TYR619  PRO620  LYS621  CYS622 
 ASP623  PHE694  ASN695  SER759  ASP760  ASP761  ALA762  ILE779  LEU786  VAL792 
 PHE793  MET794  SER795  GLU796  ALA797  LYS798  CYS799  TRP800  GLU811  SER814 

> <Gold.Protein.RotatedAtoms>
  150.7885  133.8834  159.3292 H   0  0  0  0  0  0  0  0  0  0  0  0  # atno 6907 bound_to 6896
  151.6678  135.0978  160.0201 H   0  0  0  0  0  0  0  0  0  0  0  0  # atno 6908 bound_to 6896
  152.3954  133.6701  159.6307 H   0  0  0  0  0  0  0  0  0  0  0  0  # atno 6909 bound_to 6896
  145.6085  140.9392  143.1202 H   0  0  0  0  0  0  0  0  0  0  0  0  # atno 7974 bound_to 7965
  154.4234  140.1779  156.1478 H   0  0  0  0  0  0  0  0  0  0  0  0  # atno 8008 bound_to 7997
  155.9940  140.3366  155.6756 H   0  0  0  0  0  0  0  0  0  0  0  0  # atno 8009 bound_to 7997
  155.6334  140.0672  157.2632 H   0  0  0  0  0  0  0  0  0  0  0  0  # atno 8010 bound_to 7997
  139.7094  143.9133  152.2462 H   0  0  0  0  0  0  0  0  0  0  0  0  # atno 10167 bound_to 10162
  156.0676  130.4246  150.1548 H   0  0  0  0  0  0  0  0  0  0  0  0  # atno 10718 bound_to 10713
  154.2337  135.6356  153.5184 H   0  0  0  0  0  0  0  0  0  0  0  0  # atno 10763 bound_to 10752
  152.9944  135.5525  154.5985 H   0  0  0  0  0  0  0  0  0  0  0  0  # atno 10764 bound_to 10752
  154.5474  135.2899  155.1014 H   0  0  0  0  0  0  0  0  0  0  0  0  # atno 10765 bound_to 10752
  141.1603  133.6837  156.7011 H   0  0  0  0  0  0  0  0  0  0  0  0  # atno 11005 bound_to 11000
  144.7280  139.7815  143.7358 LP  0  0  0  0  0  0  0  0  0  0  0  0  # atno 17320 bound_to 7965
  146.1522  139.4609  143.0041 LP  0  0  0  0  0  0  0  0  0  0  0  0  # atno 17321 bound_to 7965
  139.8997  144.6918  150.8678 LP  0  0  0  0  0  0  0  0  0  0  0  0  # atno 17342 bound_to 10162
  140.7729  143.3523  151.1990 LP  0  0  0  0  0  0  0  0  0  0  0  0  # atno 17343 bound_to 10162
  156.9605  130.9803  151.3480 LP  0  0  0  0  0  0  0  0  0  0  0  0  # atno 17370 bound_to 10713
  157.5728  130.8322  149.8414 LP  0  0  0  0  0  0  0  0  0  0  0  0  # atno 17371 bound_to 10713
  140.2958  134.8204  157.4056 LP  0  0  0  0  0  0  0  0  0  0  0  0  # atno 17394 bound_to 11000
  140.1306  134.5100  155.8109 LP  0  0  0  0  0  0  0  0  0  0  0  0  # atno 17395 bound_to 11000

$$$$
