AV-unprocessed.smi:2825|AV-procd|sdf|10890|dock8
  -GOLD-   2272015333D 1   1.00000     0.00000
 Structure written by MMmdl.
 49 50  0  0  0  0  0  0  0  0  2 V2000
  147.6104  136.2091  162.9473 C   0  0  0  0  0  0  0  0  0  0  0  0
  147.2090  136.1292  161.4710 C   0  0  0  0  0  0  0  0  0  0  0  0
  148.3914  136.3877  160.5254 C   0  0  0  0  0  0  0  0  0  0  0  0
  147.9203  136.1547  158.7541 S   0  0  0  0  0  0  0  0  0  0  0  0
  148.8034  135.1283  158.1796 O   0  0  0  0  0  0  0  0  0  0  0  0
  146.4598  136.0053  158.6549 O   0  0  0  0  0  0  0  0  0  0  0  0
  148.3497  137.6707  158.0194 N   0  0  0  0  0  0  0  0  0  0  0  0
  147.5413  138.1739  156.8999 C   0  0  0  0  0  0  0  0  0  0  0  0
  149.7286  138.1919  158.1491 C   0  0  0  0  0  0  0  0  0  0  0  0
  150.4391  138.4908  156.8065 C   0  0  2  0  0  0  0  0  0  0  0  0
  150.9715  137.2972  156.2702 O   0  0  0  0  0  0  0  0  0  0  0  0
  151.6055  139.4793  157.0057 C   0  0  0  0  0  0  0  0  0  0  0  0
  151.1648  140.8803  157.0453 N   0  0  0  0  0  0  0  0  0  0  0  0
  150.4034  141.5867  156.1660 C   0  0  0  0  0  0  0  0  0  0  0  0
  150.2757  142.8504  156.6576 N   0  3  0  0  0  0  0  0  0  0  0  0
  150.9659  142.9521  157.8676 C   0  0  0  0  0  0  0  0  0  0  0  0
  151.1288  144.0239  158.7373 C   0  0  0  0  0  0  0  0  0  0  0  0
  151.8991  143.7991  159.9008 C   0  0  0  0  0  0  0  0  0  0  0  0
  152.0979  144.9501  160.8724 C   0  0  0  0  0  0  0  0  0  0  0  0
  152.4775  142.5292  160.1599 C   0  0  0  0  0  0  0  0  0  0  0  0
  153.3046  142.2983  161.4133 C   0  0  0  0  0  0  0  0  0  0  0  0
  152.2987  141.4513  159.2636 C   0  0  0  0  0  0  0  0  0  0  0  0
  151.5381  141.6907  158.1220 C   0  0  0  0  0  0  0  0  0  0  0  0
  146.7519  136.0244  163.5935 H   0  0  0  0  0  0  0  0  0  0  0  0
  148.0080  137.1938  163.1947 H   0  0  0  0  0  0  0  0  0  0  0  0
  148.3735  135.4681  163.1877 H   0  0  0  0  0  0  0  0  0  0  0  0
  146.7856  135.1454  161.2664 H   0  0  0  0  0  0  0  0  0  0  0  0
  146.4150  136.8500  161.2768 H   0  0  0  0  0  0  0  0  0  0  0  0
  148.8040  137.3881  160.6499 H   0  0  0  0  0  0  0  0  0  0  0  0
  149.1938  135.6837  160.7463 H   0  0  0  0  0  0  0  0  0  0  0  0
  147.7562  137.6111  155.9914 H   0  0  0  0  0  0  0  0  0  0  0  0
  147.7427  139.2306  156.7223 H   0  0  0  0  0  0  0  0  0  0  0  0
  146.4789  138.0757  157.1212 H   0  0  0  0  0  0  0  0  0  0  0  0
  149.6592  139.1186  158.7198 H   0  0  0  0  0  0  0  0  0  0  0  0
  150.3335  137.5189  158.7571 H   0  0  0  0  0  0  0  0  0  0  0  0
  149.7532  138.9214  156.0785 H   0  0  0  0  0  0  0  0  0  0  0  0
  151.0663  137.4041  155.3361 H   0  0  0  0  0  0  0  0  0  0  0  0
  152.1467  139.2660  157.9283 H   0  0  0  0  0  0  0  0  0  0  0  0
  152.3299  139.3839  156.1953 H   0  0  0  0  0  0  0  0  0  0  0  0
  149.9753  141.2121  155.2474 H   0  0  0  0  0  0  0  0  0  0  0  0
  150.6859  144.9880  158.5338 H   0  0  0  0  0  0  0  0  0  0  0  0
  153.1517  145.2239  160.9278 H   0  0  0  0  0  0  0  0  0  0  0  0
  151.7584  144.6744  161.8708 H   0  0  0  0  0  0  0  0  0  0  0  0
  151.5385  145.8340  160.5642 H   0  0  0  0  0  0  0  0  0  0  0  0
  153.7203  141.2905  161.4363 H   0  0  0  0  0  0  0  0  0  0  0  0
  152.6902  142.4264  162.3048 H   0  0  0  0  0  0  0  0  0  0  0  0
  154.1364  143.0015  161.4603 H   0  0  0  0  0  0  0  0  0  0  0  0
  152.7362  140.4837  159.4614 H   0  0  0  0  0  0  0  0  0  0  0  0
  149.7546  143.5872  156.1994 H   0  0  0  0  0  0  0  0  0  0  0  0
  1  2  1  0  0  0  0
  1 24  1  0  0  0  0
  1 25  1  0  0  0  0
  1 26  1  0  0  0  0
  2  3  1  0  0  0  0
  2 27  1  0  0  0  0
  2 28  1  0  0  0  0
  3  4  1  0  0  0  0
  3 29  1  0  0  0  0
  3 30  1  0  0  0  0
  4  5  2  0  0  0  0
  4  6  2  0  0  0  0
  4  7  1  0  0  0  0
  7  8  1  0  0  0  0
  7  9  1  0  0  0  0
  8 31  1  0  0  0  0
  8 32  1  0  0  0  0
  8 33  1  0  0  0  0
  9 10  1  0  0  0  0
  9 34  1  0  0  0  0
  9 35  1  0  0  0  0
 10 11  1  0  0  0  0
 10 12  1  0  0  0  0
 10 36  1  0  0  0  0
 11 37  1  0  0  0  0
 12 13  1  0  0  0  0
 12 38  1  0  0  0  0
 12 39  1  0  0  0  0
 13 23  1  0  0  0  0
 13 14  1  0  0  0  0
 14 15  2  0  0  0  0
 14 40  1  0  0  0  0
 15 16  1  0  0  0  0
 15 49  1  0  0  0  0
 16 23  2  0  0  0  0
 16 17  1  0  0  0  0
 17 18  2  0  0  0  0
 17 41  1  0  0  0  0
 18 19  1  0  0  0  0
 18 20  1  0  0  0  0
 19 42  1  0  0  0  0
 19 43  1  0  0  0  0
 19 44  1  0  0  0  0
 20 21  1  0  0  0  0
 20 22  2  0  0  0  0
 21 45  1  0  0  0  0
 21 46  1  0  0  0  0
 21 47  1  0  0  0  0
 22 23  1  0  0  0  0
 22 48  1  0  0  0  0
M  CHG  1  15   1
M  END
> <s_m_source_file>
AV-unprocessed.smi

> <i_m_source_file_index>
2825

> <i_lp_mmshare_version>
43012

> <i_f3d_flags>
0

> <s_epik_input>
W0NIM11bQ0gyXVtDSDJdUyg9TykoPU8pTihbQ0gzXSlbQ0gyXVtDQEhdKFtPSF0pW0NIMl1uKFtjSF1uMSljKGMxMilbY0hdYyhbQ0gzXSljKFtjSF0yKVtDSDNd

> <s_epik_cmdline>
J2VwaWtfcHl0aG9uJywgJy1waCcsICc3LjAnLCAnLXRuJywgJzgnLCAnLW1hJywgJzIwMCcsICctbWV0YWxfYmluZGluZycsICctaW1hZScsICc8aW5maWxlLm1hZT4nLCAnLW9tYWUnLCAnPG91dGZpbGUubWFlPic=

> <r_epik_Ionization_Penalty>
1.0773

> <r_epik_Ionization_Penalty_Charging>
1.0773

> <r_epik_Ionization_Penalty_Neutral>
1.44651e-06

> <r_epik_State_Penalty>
1.13242

> <r_epik_Charging_Adjusted_Penalty>
2.20972

> <i_epik_Tot_Q>
1

> <i_epik_Tot_abs_Q>
1

> <r_epik_Metal_State_Penalty>
5.13045

> <b_epik_Metal_Only>
0

> <s_lp_Force_Field>
OPLS_2005

> <r_lp_Energy>
13.8299

> <b_lp_Chiralities_Consistent>
1

> <s_lp_Variant>
AV-unprocessed.smi:2825-3

> <Gold.Version>
5.8.1

> <Gold.Id.Protein>
6NUR|6NUR_protein|mol2

> <Gold.PLP.Fitness>
54.4493

> <Gold.PLP.PLP>
-46.6886

> <Gold.PLP.part.hbond>
-2.0000

> <Gold.PLP.part.metal>
0.0000

> <Gold.PLP.part.buried>
-6.7918

> <Gold.PLP.part.nonpolar>
-38.8622

> <Gold.PLP.part.repulsive>
0.0995

> <Gold.PLP.ligand.clash>
0.0000

> <Gold.PLP.ligand.torsion>
1.8517

> <Gold.PLP.Chemscore.Hbond>
3.0000

> <Gold.PLP.Chemscore.CHOScore>
0.0000

> <Gold.PLP.Chemscore.Metal>
0.0000

> <Gold.Chemscore.Hbonds>
donor molecule, donor type, donor heavy atom, donor atom, acceptor molecule, acceptor atom, score
      L1  H    15    49       P1  8028  1.95
      P1  H  6896  6907       L1     5  0.18

> <Gold.PLP.Chemscore.Internal.Correction>
2.4640

> <Gold.Rescore>
     Score         DG    S(hbond)    S(metal)    S(lipo)     H(rot)  DE(clash)    DE(int)     intcor
     17.61     -19.44       1.99        0.00     117.55       2.51       0.02       1.81       ----

> <Gold.Chemscore.Fitness>
17.6081

> <Gold.Chemscore.DG>
-19.4365

> <Gold.Chemscore.ZeroCoef>
-5.4800

> <Gold.Chemscore.Hbond>
1.9850

> <Gold.Chemscore.Metal>
0.0000

> <Gold.Chemscore.Lipo>
117.5519

> <Gold.Chemscore.Internal_Hbond>
0.0000

> <Gold.Chemscore.DEClash>
0.0156

> <Gold.Chemscore.DEInternal>
1.8128

> <Gold.Chemscore.Rot>
2.5106

> <Gold.Chemscore.Internal.Correction>
   9.000000E+99

> <Gold.Chemscore.Hbonds>
donor molecule, donor type, donor heavy atom, donor atom, acceptor molecule, acceptor atom, score
      L1  H    15    49       P1  8028  0.92
      P1  H  6896  6907       L1     5  0.18

> <Gold.Chemscore.Hbond.Weighted>
-6.6300

> <Gold.Chemscore.Metal.Weighted>
-0.0000

> <Gold.Chemscore.Lipo.Weighted>
-13.7536

> <Gold.Chemscore.Internal_Hbond.Weighted>
0.0000

> <Gold.Chemscore.DEClash.Weighted>
0.0156

> <Gold.Chemscore.DEInternal.Weighted>
1.8128

> <Gold.Chemscore.Rot.Weighted>
6.4271

> <Gold.Chemscore.Internal.Correction.Weighted>
   9.000000E+99

> <Gold.Protein.RotatedTorsions>
[ 6907 6896 6895 6894 ] final  -76.05 input  -60.11 | X-H torsion
[ 7974 7965 7964 7962 ] final   55.47 input  175.53 | X-H torsion
[ 8008 7997 7996 7995 ] final  127.11 input   59.86 | X-H torsion
[ 10167 10162 10161 10158 ] final  -79.91 input  -65.29 | X-H torsion
[ 10718 10713 10712 10709 ] final -176.82 input   66.30 | X-H torsion
[ 10763 10752 10751 10750 ] final   19.11 input  -60.55 | X-H torsion
[ 11005 11000 10999 10996 ] final    8.95 input  -57.11 | X-H torsion

> <Gold.Protein.ActiveResidues>
 VAL166  LYS551  ARG553  GLY616  TRP617  ASP618  TYR619  PRO620  LYS621  CYS622 
 ASP623  PHE694  ASN695  SER759  ASP760  ASP761  ALA762  ILE779  LEU786  VAL792 
 PHE793  MET794  SER795  GLU796  ALA797  LYS798  CYS799  TRP800  GLU811  SER814 

> <Gold.Protein.RotatedAtoms>
  150.7039  134.4630  159.5389 H   0  0  0  0  0  0  0  0  0  0  0  0  # atno 6907 bound_to 6896
  152.2301  134.8328  160.0484 H   0  0  0  0  0  0  0  0  0  0  0  0  # atno 6908 bound_to 6896
  151.9147  133.3535  159.3912 H   0  0  0  0  0  0  0  0  0  0  0  0  # atno 6909 bound_to 6896
  145.9500  139.3964  143.0311 H   0  0  0  0  0  0  0  0  0  0  0  0  # atno 7974 bound_to 7965
  156.2882  140.2677  156.2220 H   0  0  0  0  0  0  0  0  0  0  0  0  # atno 8008 bound_to 7997
  155.0159  140.0387  157.2436 H   0  0  0  0  0  0  0  0  0  0  0  0  # atno 8009 bound_to 7997
  154.7478  140.2737  155.6323 H   0  0  0  0  0  0  0  0  0  0  0  0  # atno 8010 bound_to 7997
  140.4551  143.2471  151.8432 H   0  0  0  0  0  0  0  0  0  0  0  0  # atno 10167 bound_to 10162
  156.8203  130.9617  151.3112 H   0  0  0  0  0  0  0  0  0  0  0  0  # atno 10718 bound_to 10713
  153.1191  135.6715  153.9367 H   0  0  0  0  0  0  0  0  0  0  0  0  # atno 10763 bound_to 10752
  153.8888  135.3049  155.3448 H   0  0  0  0  0  0  0  0  0  0  0  0  # atno 10764 bound_to 10752
  154.7604  135.4991  153.9532 H   0  0  0  0  0  0  0  0  0  0  0  0  # atno 10765 bound_to 10752
  140.5312  134.0464  155.7874 H   0  0  0  0  0  0  0  0  0  0  0  0  # atno 11005 bound_to 11000
  145.8184  140.9691  143.0912 LP  0  0  0  0  0  0  0  0  0  0  0  0  # atno 17320 bound_to 7965
  144.6794  140.0009  143.7484 LP  0  0  0  0  0  0  0  0  0  0  0  0  # atno 17321 bound_to 7965
  139.4800  144.5074  151.8978 LP  0  0  0  0  0  0  0  0  0  0  0  0  # atno 17342 bound_to 10162
  140.4161  144.2305  150.5888 LP  0  0  0  0  0  0  0  0  0  0  0  0  # atno 17343 bound_to 10162
  157.6460  130.8845  149.9540 LP  0  0  0  0  0  0  0  0  0  0  0  0  # atno 17370 bound_to 10713
  156.0993  130.3657  150.0248 LP  0  0  0  0  0  0  0  0  0  0  0  0  # atno 17371 bound_to 10713
  141.1280  133.9350  157.2595 LP  0  0  0  0  0  0  0  0  0  0  0  0  # atno 17394 bound_to 11000
  139.9553  135.0167  156.9110 LP  0  0  0  0  0  0  0  0  0  0  0  0  # atno 17395 bound_to 11000

$$$$
