AV-unprocessed.smi:3176|AV-procd|sdf|12127|dock6
  -GOLD-   2272017563D 1   1.00000     0.00000
 Structure written by MMmdl.
 33 34  0  0  0  0  0  0  0  0  2 V2000
  151.9862  139.9592  154.9959 O   0  0  0  0  0  0  0  0  0  0  0  0
  150.8765  139.4893  155.2473 C   0  0  0  0  0  0  0  0  0  0  0  0
  150.1599  139.8515  156.3228 N   0  0  0  0  0  0  0  0  0  0  0  0
  150.6071  140.7705  157.3649 C   0  0  0  0  0  0  0  0  0  0  0  0
  150.9626  142.1679  156.8163 C   0  0  0  0  0  0  0  0  0  0  0  0
  151.3355  143.1677  157.8978 C   0  0  0  0  0  0  0  0  0  0  0  0
  152.3460  142.9030  158.8482 C   0  0  0  0  0  0  0  0  0  0  0  0
  152.6291  143.8646  159.8398 C   0  0  0  0  0  0  0  0  0  0  0  0
  151.8987  145.0709  159.8590 C   0  0  0  0  0  0  0  0  0  0  0  0
  150.9028  145.2852  158.8841 C   0  0  0  0  0  0  0  0  0  0  0  0
  150.6602  144.3385  157.9509 N   0  3  0  0  0  0  0  0  0  0  0  0
  150.2369  138.4306  154.3324 C   0  0  1  0  0  0  0  0  0  0  0  0
  149.9573  137.0830  155.0174 C   0  0  0  0  0  0  0  0  0  0  0  0
  148.5450  137.2584  155.5307 C   0  0  0  0  0  0  0  0  0  0  0  0
  147.9160  138.0626  154.4004 C   0  0  0  0  0  0  0  0  0  0  0  0
  148.9544  138.9071  153.9122 O   0  0  0  0  0  0  0  0  0  0  0  0
  149.2524  139.4253  156.4458 H   0  0  0  0  0  0  0  0  0  0  0  0
  149.8552  140.8479  158.1517 H   0  0  0  0  0  0  0  0  0  0  0  0
  151.4903  140.3279  157.8258 H   0  0  0  0  0  0  0  0  0  0  0  0
  151.7949  142.0851  156.1162 H   0  0  0  0  0  0  0  0  0  0  0  0
  150.1250  142.5613  156.2389 H   0  0  0  0  0  0  0  0  0  0  0  0
  152.8916  141.9707  158.8239 H   0  0  0  0  0  0  0  0  0  0  0  0
  153.3951  143.6774  160.5780 H   0  0  0  0  0  0  0  0  0  0  0  0
  152.0992  145.8205  160.6107 H   0  0  0  0  0  0  0  0  0  0  0  0
  150.2960  146.1769  158.8245 H   0  0  0  0  0  0  0  0  0  0  0  0
  150.8832  138.2928  153.4650 H   0  0  0  0  0  0  0  0  0  0  0  0
  149.9845  136.2832  154.2763 H   0  0  0  0  0  0  0  0  0  0  0  0
  150.6620  136.8158  155.8057 H   0  0  0  0  0  0  0  0  0  0  0  0
  148.0348  136.3132  155.7170 H   0  0  0  0  0  0  0  0  0  0  0  0
  148.5470  137.8366  156.4553 H   0  0  0  0  0  0  0  0  0  0  0  0
  147.5982  137.3998  153.5946 H   0  0  0  0  0  0  0  0  0  0  0  0
  147.0510  138.6399  154.7269 H   0  0  0  0  0  0  0  0  0  0  0  0
  149.9326  144.5133  157.2573 H   0  0  0  0  0  0  0  0  0  0  0  0
  1  2  2  0  0  0  0
  2  3  1  0  0  0  0
  2 12  1  0  0  0  0
  3  4  1  0  0  0  0
  3 17  1  0  0  0  0
  4  5  1  0  0  0  0
  4 18  1  0  0  0  0
  4 19  1  0  0  0  0
  5  6  1  0  0  0  0
  5 20  1  0  0  0  0
  5 21  1  0  0  0  0
  6 11  1  0  0  0  0
  6  7  2  0  0  0  0
  7  8  1  0  0  0  0
  7 22  1  0  0  0  0
  8  9  2  0  0  0  0
  8 23  1  0  0  0  0
  9 10  1  0  0  0  0
  9 24  1  0  0  0  0
 10 11  2  0  0  0  0
 10 25  1  0  0  0  0
 11 33  1  0  0  0  0
 12 16  1  0  0  0  0
 12 13  1  0  0  0  0
 12 26  1  0  0  0  0
 13 14  1  0  0  0  0
 13 27  1  0  0  0  0
 13 28  1  0  0  0  0
 14 15  1  0  0  0  0
 14 29  1  0  0  0  0
 14 30  1  0  0  0  0
 15 16  1  0  0  0  0
 15 31  1  0  0  0  0
 15 32  1  0  0  0  0
M  CHG  1  11   1
M  END
> <s_m_source_file>
AV-unprocessed.smi

> <i_m_source_file_index>
3176

> <i_lp_mmshare_version>
43012

> <i_f3d_flags>
0

> <s_epik_input>
TzFbQ0gyXVtDSDJdW0NIMl1bQ0BIXTFDKD1PKVtOSF1bQ0gyXVtDSDJdYzJbY0hdW2NIXVtjSF1bY0hdbjI=

> <s_epik_cmdline>
J2VwaWtfcHl0aG9uJywgJy1waCcsICc3LjAnLCAnLXRuJywgJzgnLCAnLW1hJywgJzIwMCcsICctbWV0YWxfYmluZGluZycsICctaW1hZScsICc8aW5maWxlLm1hZT4nLCAnLW9tYWUnLCAnPG91dGZpbGUubWFlPic=

> <r_epik_Ionization_Penalty>
1.81664

> <r_epik_Ionization_Penalty_Charging>
1.81664

> <r_epik_Ionization_Penalty_Neutral>
5.71603e-08

> <r_epik_State_Penalty>
1.93152

> <r_epik_Charging_Adjusted_Penalty>
3.74817

> <i_epik_Tot_Q>
1

> <i_epik_Tot_abs_Q>
1

> <r_epik_Metal_State_Penalty>
1.95876

> <b_epik_Metal_Only>
0

> <s_lp_Force_Field>
OPLS_2005

> <r_lp_Energy>
22.6844

> <b_lp_Chiralities_Consistent>
1

> <s_lp_Variant>
AV-unprocessed.smi:3176-4

> <Gold.Version>
5.8.1

> <Gold.Id.Protein>
6NUR|6NUR_protein|mol2

> <Gold.PLP.Fitness>
41.4488

> <Gold.PLP.PLP>
-32.9424

> <Gold.PLP.part.hbond>
-2.1300

> <Gold.PLP.part.metal>
0.0000

> <Gold.PLP.part.buried>
-5.9627

> <Gold.PLP.part.nonpolar>
-26.5045

> <Gold.PLP.part.repulsive>
0.9421

> <Gold.PLP.ligand.clash>
0.0000

> <Gold.PLP.ligand.torsion>
0.0554

> <Gold.PLP.Chemscore.Hbond>
2.8640

> <Gold.PLP.Chemscore.CHOScore>
0.0000

> <Gold.PLP.Chemscore.Metal>
0.0000

> <Gold.Chemscore.Hbonds>
donor molecule, donor type, donor heavy atom, donor atom, acceptor molecule, acceptor atom, score
      L1  H    11    33       P1  8028  2.00
      P1  H  7989  7998       L1     1  0.86

> <Gold.PLP.Chemscore.Internal.Correction>
0.0252

> <Gold.Rescore>
     Score         DG    S(hbond)    S(metal)    S(lipo)     H(rot)  DE(clash)    DE(int)     intcor
     15.86     -16.96       1.59        0.00      87.81       1.61       0.03       1.07       ----

> <Gold.Chemscore.Fitness>
15.8621

> <Gold.Chemscore.DG>
-16.9595

> <Gold.Chemscore.ZeroCoef>
-5.4800

> <Gold.Chemscore.Hbond>
1.5914

> <Gold.Chemscore.Metal>
0.0000

> <Gold.Chemscore.Lipo>
87.8113

> <Gold.Chemscore.Internal_Hbond>
0.0000

> <Gold.Chemscore.DEClash>
0.0294

> <Gold.Chemscore.DEInternal>
1.0680

> <Gold.Chemscore.Rot>
1.6054

> <Gold.Chemscore.Internal.Correction>
   9.000000E+99

> <Gold.Chemscore.Hbonds>
donor molecule, donor type, donor heavy atom, donor atom, acceptor molecule, acceptor atom, score
      L1  H    11    33       P1  8028  0.30
      P1  H  7989  7998       L1     1  0.29

> <Gold.Chemscore.Hbond.Weighted>
-5.3153

> <Gold.Chemscore.Metal.Weighted>
-0.0000

> <Gold.Chemscore.Lipo.Weighted>
-10.2739

> <Gold.Chemscore.Internal_Hbond.Weighted>
0.0000

> <Gold.Chemscore.DEClash.Weighted>
0.0294

> <Gold.Chemscore.DEInternal.Weighted>
1.0680

> <Gold.Chemscore.Rot.Weighted>
4.1097

> <Gold.Chemscore.Internal.Correction.Weighted>
   9.000000E+99

> <Gold.Protein.RotatedTorsions>
[ 6907 6896 6895 6894 ] final    1.07 input  -60.11 | X-H torsion
[ 7974 7965 7964 7962 ] final   95.09 input  175.53 | X-H torsion
[ 8008 7997 7996 7995 ] final  169.02 input   59.86 | X-H torsion
[ 10167 10162 10161 10158 ] final  -23.85 input  -65.29 | X-H torsion
[ 10718 10713 10712 10709 ] final -145.59 input   66.30 | X-H torsion
[ 10763 10752 10751 10750 ] final   38.53 input  -60.55 | X-H torsion
[ 11005 11000 10999 10996 ] final  177.42 input  -57.11 | X-H torsion

> <Gold.Protein.ActiveResidues>
 VAL166  LYS551  ARG553  GLY616  TRP617  ASP618  TYR619  PRO620  LYS621  CYS622 
 ASP623  PHE694  ASN695  SER759  ASP760  ASP761  ALA762  ILE779  LEU786  VAL792 
 PHE793  MET794  SER795  GLU796  ALA797  LYS798  CYS799  TRP800  GLU811  SER814 

> <Gold.Protein.RotatedAtoms>
  151.5867  135.1055  160.0029 H   0  0  0  0  0  0  0  0  0  0  0  0  # atno 6907 bound_to 6896
  152.4327  133.7302  159.6593 H   0  0  0  0  0  0  0  0  0  0  0  0  # atno 6908 bound_to 6896
  150.8221  133.8164  159.3157 H   0  0  0  0  0  0  0  0  0  0  0  0  # atno 6909 bound_to 6896
  145.4568  139.2289  143.3009 H   0  0  0  0  0  0  0  0  0  0  0  0  # atno 7974 bound_to 7965
  156.1495  140.1575  156.8793 H   0  0  0  0  0  0  0  0  0  0  0  0  # atno 8008 bound_to 7997
  154.5058  140.0813  156.7929 H   0  0  0  0  0  0  0  0  0  0  0  0  # atno 8009 bound_to 7997
  155.3923  140.3410  155.4254 H   0  0  0  0  0  0  0  0  0  0  0  0  # atno 8010 bound_to 7997
  140.7288  143.4405  151.0664 H   0  0  0  0  0  0  0  0  0  0  0  0  # atno 10167 bound_to 10162
  156.3844  130.7853  151.2049 H   0  0  0  0  0  0  0  0  0  0  0  0  # atno 10718 bound_to 10713
  152.9998  135.6247  154.2319 H   0  0  0  0  0  0  0  0  0  0  0  0  # atno 10763 bound_to 10752
  154.2061  135.2802  155.2976 H   0  0  0  0  0  0  0  0  0  0  0  0  # atno 10764 bound_to 10752
  154.5644  135.5695  153.7096 H   0  0  0  0  0  0  0  0  0  0  0  0  # atno 10765 bound_to 10752
  140.3839  134.6922  157.4467 H   0  0  0  0  0  0  0  0  0  0  0  0  # atno 11005 bound_to 11000
  146.2474  140.5333  142.8908 LP  0  0  0  0  0  0  0  0  0  0  0  0  # atno 17320 bound_to 7965
  144.8027  140.6243  143.6467 LP  0  0  0  0  0  0  0  0  0  0  0  0  # atno 17321 bound_to 7965
  139.8072  143.8001  152.3168 LP  0  0  0  0  0  0  0  0  0  0  0  0  # atno 17342 bound_to 10162
  139.8038  144.7363  150.9788 LP  0  0  0  0  0  0  0  0  0  0  0  0  # atno 17343 bound_to 10162
  157.7495  131.0334  150.4272 LP  0  0  0  0  0  0  0  0  0  0  0  0  # atno 17370 bound_to 10713
  156.4522  130.4014  149.6629 LP  0  0  0  0  0  0  0  0  0  0  0  0  # atno 17371 bound_to 10713
  140.0457  134.6202  155.8924 LP  0  0  0  0  0  0  0  0  0  0  0  0  # atno 17394 bound_to 11000
  141.1914  133.6571  156.5455 LP  0  0  0  0  0  0  0  0  0  0  0  0  # atno 17395 bound_to 11000

$$$$
