#       Name:                AV-unprocessed.smi:3116
#       Creating user name   scv26
#       Creation time:       Fri Mar 27 17:24:34 2020


#       File generated by GOLD software.
#

@<TRIPOS>MOLECULE
AV-unprocessed.smi:3116
    37    37     1
SMALL
NO_CHARGES


@<TRIPOS>ATOM
      1 ****        -3.4629   0.9574  -0.0421 C.3            1 S1                 0.0000
      2 ****        -1.9731   1.1216  -0.3788 C.3            1 S1                 0.0000
      3 ****        -1.3565  -0.2118  -0.5786 N.4            1 S1                 1.0000
      4 ****         0.1217  -0.2647  -0.4745 C.3            1 S1                 0.0000
      5 ****         0.6778  -0.9903  -1.7136 C.3            1 S1                 0.0000
      6 ****         0.5529  -0.9331   0.8599 C.3            1 S1                 0.0000
      7 ****         0.0961  -0.1502   2.1057 C.3            1 S1                 0.0000
      8 ****         1.9916  -1.1595   0.9163 N.pl3          1 S1                 0.0000
      9 ****         2.6650  -2.3602   1.0108 C.2            1 S1                 0.0000
     10 ****         4.0011  -2.0789   1.0306 C.2            1 S1                 0.0000
     11 ****         4.0494  -0.6597   0.9460 C.2            1 S1                 0.0000
     12 ****         2.8467  -0.1123   0.8788 N.2            1 S1                 0.0000
     13 ****        -1.8097   2.0132  -1.6182 C.2            1 S1                 0.0000
     14 ****        -1.7258   3.3302  -1.4135 N.am           1 S1                 0.0000
     15 ****        -1.7718   1.5232  -2.7455 O.2            1 S1                 0.0000
     16 ****        -3.9370   1.9219   0.1440 H              1 S1                 0.0000
     17 ****        -3.5961   0.3519   0.8550 H              1 S1                 0.0000
     18 ****        -4.0064   0.4707  -0.8534 H              1 S1                 0.0000
     19 ****        -1.4880   1.6062   0.4698 H              1 S1                 0.0000
     20 ****        -1.7352  -0.8477   0.1080 H              1 S1                 0.0000
     21 ****         0.5198   0.7513  -0.4992 H              1 S1                 0.0000
     22 ****         1.7673  -0.9676  -1.7435 H              1 S1                 0.0000
     23 ****         0.3264  -0.5204  -2.6328 H              1 S1                 0.0000
     24 ****         0.3660  -2.0352  -1.7348 H              1 S1                 0.0000
     25 ****         0.0837  -1.9174   0.9056 H              1 S1                 0.0000
     26 ****        -0.9907  -0.1047   2.1736 H              1 S1                 0.0000
     27 ****         0.4729   0.8731   2.0969 H              1 S1                 0.0000
     28 ****         0.4534  -0.6269   3.0192 H              1 S1                 0.0000
     29 ****         2.1444  -3.3057   1.0540 H              1 S1                 0.0000
     30 ****         4.8196  -2.7802   1.0964 H              1 S1                 0.0000
     31 ****         4.9163  -0.0156   0.9313 H              1 S1                 0.0000
     32 ****        -1.6145   3.9609  -2.1944 H              1 S1                 0.0000
     33 ****        -1.7712   3.6937  -0.4721 H              1 S1                 0.0000
     34 ****        -1.6264  -0.5359  -1.4966 H              1 S1                 0.0000
     35 ****         2.6202   0.8596   0.8146 LP             1 S1                 0.0000
     36 ****        -1.8478   0.5331  -2.8631 LP             1 S1                 0.0000
     37 ****        -1.6651   2.1149  -3.5445 LP             1 S1                 0.0000
@<TRIPOS>BOND
    1    1    2 1     
    2    1   16 1     
    3    1   17 1     
    4    1   18 1     
    5    2    3 1     
    6    2   13 1     
    7    2   19 1     
    8    3    4 1     
    9    3   20 1     
   10    3   34 1     
   11    4    5 1     
   12    4    6 1     
   13    4   21 1     
   14    5   22 1     
   15    5   23 1     
   16    5   24 1     
   17    6    7 1     
   18    6    8 1     
   19    6   25 1     
   20    7   26 1     
   21    7   27 1     
   22    7   28 1     
   23    8   12 1     
   24    8    9 1     
   25    9   10 2     
   26    9   29 1     
   27   10   11 1     
   28   10   30 1     
   29   11   12 2     
   30   11   31 1     
   31   13   14 am    
   32   13   15 2     
   33   14   32 1     
   34   14   33 1     
   35   12   35 1     
   36   15   36 1     
   37   15   37 1     
@<TRIPOS>SUBSTRUCTURE
      1 S1             1
@<TRIPOS>SET
LONE_PAIRS      STATIC     ATOMS    <user>   **** ""
3 35 36 37
DONOR_HYDROGENS      STATIC     ATOMS    <user>   **** ""
4 20 34 32 33
ATOM$BLUE        STATIC     ATOMS    COLORGROUP SYSTEM
3 35 36 37
ATOM$RED        STATIC     ATOMS    COLORGROUP SYSTEM
4 20 34 32 33
