AV-unprocessed.smi:332|AV-procd|sdf|2355|dock4
  -GOLD-   2262022263D 1   1.00000     0.00000
 Structure written by MMmdl.
 42 44  0  0  0  0  0  0  0  0  1 V2000
  148.9097  141.3943  155.4629 C   0  0  0  0  0  0  0  0  0  0  0  0
  150.3870  140.9990  155.6289 C   0  0  1  0  0  0  0  0  0  0  0  0
  151.0749  141.9916  156.4475 N   0  0  0  0  0  0  0  0  0  0  0  0
  150.8998  142.1919  157.7645 C   0  0  0  0  0  0  0  0  0  0  0  0
  150.1461  141.5019  158.4499 O   0  0  0  0  0  0  0  0  0  0  0  0
  151.6667  143.3487  158.4287 C   0  0  0  0  0  0  0  0  0  0  0  0
  152.1681  143.0570  159.7840 N   0  0  0  0  0  0  0  0  0  0  0  0
  151.9233  144.0289  160.7746 C   0  0  0  0  0  0  0  0  0  0  0  0
  152.3494  143.8782  162.0384 C   0  0  0  0  0  0  0  0  0  0  0  0
  153.0758  142.6770  162.3746 C   0  0  0  0  0  0  0  0  0  0  0  0
  153.3194  141.7429  161.4337 C   0  0  0  0  0  0  0  0  0  0  0  0
  152.8625  141.9073  160.0489 C   0  0  0  0  0  0  0  0  0  0  0  0
  153.0977  141.0681  159.1795 O   0  0  0  0  0  0  0  0  0  0  0  0
  150.5439  139.6037  156.2779 C   0  0  1  0  0  0  0  0  0  0  0  0
  149.7707  138.4684  155.5703 C   0  0  0  0  0  0  0  0  0  0  0  0
  150.8419  137.3749  155.3985 C   0  0  1  0  0  0  0  0  0  0  0  0
  151.8168  137.7964  154.2836 C   0  0  0  0  0  0  0  0  0  0  0  0
  152.6242  138.9253  154.9497 C   0  0  0  0  0  0  0  0  0  0  0  0
  151.9810  139.0261  156.3480 C   0  0  2  0  0  0  0  0  0  0  0  0
  151.6950  137.5585  156.6486 C   0  0  0  0  0  0  0  0  0  0  0  0
  148.3746  140.6753  154.8423 H   0  0  0  0  0  0  0  0  0  0  0  0
  148.8133  142.3696  154.9851 H   0  0  0  0  0  0  0  0  0  0  0  0
  148.4013  141.4450  156.4262 H   0  0  0  0  0  0  0  0  0  0  0  0
  150.8436  140.9789  154.6382 H   0  0  0  0  0  0  0  0  0  0  0  0
  151.7164  142.6033  155.9642 H   0  0  0  0  0  0  0  0  0  0  0  0
  152.5012  143.6169  157.7790 H   0  0  0  0  0  0  0  0  0  0  0  0
  151.0237  144.2305  158.4351 H   0  0  0  0  0  0  0  0  0  0  0  0
  151.3803  144.9007  160.4386 H   0  0  0  0  0  0  0  0  0  0  0  0
  152.1572  144.6369  162.7828 H   0  0  0  0  0  0  0  0  0  0  0  0
  153.4257  142.5265  163.3852 H   0  0  0  0  0  0  0  0  0  0  0  0
  153.8651  140.8508  161.7040 H   0  0  0  0  0  0  0  0  0  0  0  0
  150.1782  139.6735  157.3042 H   0  0  0  0  0  0  0  0  0  0  0  0
  148.9499  138.1180  156.1969 H   0  0  0  0  0  0  0  0  0  0  0  0
  149.3478  138.7709  154.6118 H   0  0  0  0  0  0  0  0  0  0  0  0
  150.4289  136.3751  155.2627 H   0  0  0  0  0  0  0  0  0  0  0  0
  152.4719  136.9701  154.0047 H   0  0  0  0  0  0  0  0  0  0  0  0
  151.2978  138.1308  153.3843 H   0  0  0  0  0  0  0  0  0  0  0  0
  153.6732  138.6391  155.0352 H   0  0  0  0  0  0  0  0  0  0  0  0
  152.5898  139.8586  154.3888 H   0  0  0  0  0  0  0  0  0  0  0  0
  152.6162  139.5202  157.0842 H   0  0  0  0  0  0  0  0  0  0  0  0
  151.1424  137.4033  157.5770 H   0  0  0  0  0  0  0  0  0  0  0  0
  152.5904  136.9345  156.6574 H   0  0  0  0  0  0  0  0  0  0  0  0
  1  2  1  0  0  0  0
  1 21  1  0  0  0  0
  1 22  1  0  0  0  0
  1 23  1  0  0  0  0
  2  3  1  0  0  0  0
  2 14  1  0  0  0  0
  2 24  1  0  0  0  0
  3  4  1  0  0  0  0
  3 25  1  0  0  0  0
  4  5  2  0  0  0  0
  4  6  1  0  0  0  0
  6  7  1  0  0  0  0
  6 26  1  0  0  0  0
  6 27  1  0  0  0  0
  7 12  1  0  0  0  0
  7  8  1  0  0  0  0
  8  9  2  0  0  0  0
  8 28  1  0  0  0  0
  9 10  1  0  0  0  0
  9 29  1  0  0  0  0
 10 11  2  0  0  0  0
 10 30  1  0  0  0  0
 11 12  1  0  0  0  0
 11 31  1  0  0  0  0
 12 13  2  0  0  0  0
 14 19  1  0  0  0  0
 14 15  1  0  0  0  0
 14 32  1  0  0  0  0
 15 16  1  0  0  0  0
 15 33  1  0  0  0  0
 15 34  1  0  0  0  0
 16 20  1  0  0  0  0
 16 17  1  0  0  0  0
 16 35  1  0  0  0  0
 17 18  1  0  0  0  0
 17 36  1  0  0  0  0
 17 37  1  0  0  0  0
 18 19  1  0  0  0  0
 18 38  1  0  0  0  0
 18 39  1  0  0  0  0
 19 20  1  0  0  0  0
 19 40  1  0  0  0  0
 20 41  1  0  0  0  0
 20 42  1  0  0  0  0
M  END
> <s_m_source_file>
AV-unprocessed.smi

> <i_m_source_file_index>
332

> <i_lp_mmshare_version>
43012

> <i_f3d_flags>
0

> <s_epik_input>
W0NIMl0xW0NIMl1bQ0BIXShbQ0gyXTIpW0NAQEhdKFtDSDJdW0NAQEhdMTIpW0NASF0oW0NIM10pW05IXUMoPU8pW0NIMl1uM1tjSF1bY0hdW2NIXVtjSF1jMz1P

> <s_epik_cmdline>
J2VwaWtfcHl0aG9uJywgJy1waCcsICc3LjAnLCAnLXRuJywgJzgnLCAnLW1hJywgJzIwMCcsICctbWV0YWxfYmluZGluZycsICctaW1hZScsICc8aW5maWxlLm1hZT4nLCAnLW9tYWUnLCAnPG91dGZpbGUubWFlPic=

> <r_lp_tautomer_probability>
1

> <r_epik_Ionization_Penalty>
4.05802e-07

> <r_epik_Ionization_Penalty_Charging>
3.84175e-07

> <r_epik_Ionization_Penalty_Neutral>
2.16269e-08

> <r_epik_State_Penalty>
-0

> <r_epik_Charging_Adjusted_Penalty>
3.84175e-07

> <i_epik_Tot_Q>
0

> <i_epik_Tot_abs_Q>
0

> <r_epik_Metal_State_Penalty>
-0

> <b_epik_Metal_Only>
0

> <s_lp_Force_Field>
OPLS_2005

> <r_lp_Energy>
59.7758

> <b_lp_Chiralities_Consistent>
1

> <s_lp_Variant>
AV-unprocessed.smi:332-4

> <Gold.Version>
5.8.1

> <Gold.Id.Protein>
6NUR|6NUR_protein|mol2

> <Gold.PLP.Fitness>
44.4532

> <Gold.PLP.PLP>
-45.5045

> <Gold.PLP.part.hbond>
0.0000

> <Gold.PLP.part.metal>
0.0000

> <Gold.PLP.part.buried>
-4.2445

> <Gold.PLP.part.nonpolar>
-40.6427

> <Gold.PLP.part.repulsive>
0.1389

> <Gold.PLP.ligand.clash>
0.0000

> <Gold.PLP.ligand.torsion>
0.5383

> <Gold.PLP.Chemscore.Hbond>
0.0000

> <Gold.PLP.Chemscore.CHOScore>
0.0000

> <Gold.PLP.Chemscore.Metal>
0.0000

> <Gold.PLP.Chemscore.Internal.Correction>
0.0252

> <Gold.Rescore>
     Score         DG    S(hbond)    S(metal)    S(lipo)     H(rot)  DE(clash)    DE(int)     intcor
     12.26     -15.12       0.00        0.00     116.06       1.54       0.46       2.40       ----

> <Gold.Chemscore.Fitness>
12.2559

> <Gold.Chemscore.DG>
-15.1177

> <Gold.Chemscore.ZeroCoef>
-5.4800

> <Gold.Chemscore.Hbond>
0.0000

> <Gold.Chemscore.Metal>
0.0000

> <Gold.Chemscore.Lipo>
116.0647

> <Gold.Chemscore.Internal_Hbond>
0.0000

> <Gold.Chemscore.DEClash>
0.4631

> <Gold.Chemscore.DEInternal>
2.3987

> <Gold.Chemscore.Rot>
1.5398

> <Gold.Chemscore.Internal.Correction>
   9.000000E+99

> <Gold.Chemscore.Hbond.Weighted>
-0.0000

> <Gold.Chemscore.Metal.Weighted>
-0.0000

> <Gold.Chemscore.Lipo.Weighted>
-13.5796

> <Gold.Chemscore.Internal_Hbond.Weighted>
0.0000

> <Gold.Chemscore.DEClash.Weighted>
0.4631

> <Gold.Chemscore.DEInternal.Weighted>
2.3987

> <Gold.Chemscore.Rot.Weighted>
3.9419

> <Gold.Chemscore.Internal.Correction.Weighted>
   9.000000E+99

> <Gold.Protein.RotatedTorsions>
[ 6907 6896 6895 6894 ] final  -52.41 input  -60.11 | X-H torsion
[ 7974 7965 7964 7962 ] final  -55.82 input  175.53 | X-H torsion
[ 8008 7997 7996 7995 ] final   69.81 input   59.86 | X-H torsion
[ 10167 10162 10161 10158 ] final   66.76 input  -65.29 | X-H torsion
[ 10718 10713 10712 10709 ] final    6.57 input   66.30 | X-H torsion
[ 10763 10752 10751 10750 ] final   90.58 input  -60.55 | X-H torsion
[ 11005 11000 10999 10996 ] final  148.07 input  -57.11 | X-H torsion

> <Gold.Protein.ActiveResidues>
 VAL166  LYS551  ARG553  GLY616  TRP617  ASP618  TYR619  PRO620  LYS621  CYS622 
 ASP623  PHE694  ASN695  SER759  ASP760  ASP761  ALA762  ILE779  LEU786  VAL792 
 PHE793  MET794  SER795  GLU796  ALA797  LYS798  CYS799  TRP800  GLU811  SER814 

> <Gold.Protein.RotatedAtoms>
  150.8520  134.7848  159.7015 H   0  0  0  0  0  0  0  0  0  0  0  0  # atno 6907 bound_to 6896
  152.4582  134.5241  159.9801 H   0  0  0  0  0  0  0  0  0  0  0  0  # atno 6908 bound_to 6896
  151.5360  133.3403  159.2962 H   0  0  0  0  0  0  0  0  0  0  0  0  # atno 6909 bound_to 6896
  145.8697  140.8225  142.9894 H   0  0  0  0  0  0  0  0  0  0  0  0  # atno 7974 bound_to 7965
  155.7293  140.3492  155.5052 H   0  0  0  0  0  0  0  0  0  0  0  0  # atno 8008 bound_to 7997
  155.9197  140.1065  157.1238 H   0  0  0  0  0  0  0  0  0  0  0  0  # atno 8009 bound_to 7997
  154.4068  140.1252  156.4650 H   0  0  0  0  0  0  0  0  0  0  0  0  # atno 8010 bound_to 7997
  140.0969  144.4938  150.7062 H   0  0  0  0  0  0  0  0  0  0  0  0  # atno 10167 bound_to 10162
  156.9242  130.5802  149.5648 H   0  0  0  0  0  0  0  0  0  0  0  0  # atno 10718 bound_to 10713
  153.1991  135.4428  155.0244 H   0  0  0  0  0  0  0  0  0  0  0  0  # atno 10763 bound_to 10752
  154.8136  135.3305  154.7240 H   0  0  0  0  0  0  0  0  0  0  0  0  # atno 10764 bound_to 10752
  153.7686  135.6986  153.4966 H   0  0  0  0  0  0  0  0  0  0  0  0  # atno 10765 bound_to 10752
  140.0929  134.9030  157.1678 H   0  0  0  0  0  0  0  0  0  0  0  0  # atno 11005 bound_to 11000
  144.6726  140.1221  143.7449 LP  0  0  0  0  0  0  0  0  0  0  0  0  # atno 17320 bound_to 7965
  145.9151  139.2511  143.1414 LP  0  0  0  0  0  0  0  0  0  0  0  0  # atno 17321 bound_to 7965
  140.6999  143.2428  151.4895 LP  0  0  0  0  0  0  0  0  0  0  0  0  # atno 17342 bound_to 10162
  139.5693  144.1967  152.1812 LP  0  0  0  0  0  0  0  0  0  0  0  0  # atno 17343 bound_to 10162
  156.0477  130.5551  150.8918 LP  0  0  0  0  0  0  0  0  0  0  0  0  # atno 17370 bound_to 10713
  157.5888  131.0945  150.9152 LP  0  0  0  0  0  0  0  0  0  0  0  0  # atno 17371 bound_to 10713
  140.3327  134.2792  155.7225 LP  0  0  0  0  0  0  0  0  0  0  0  0  # atno 17394 bound_to 11000
  141.2083  133.7781  157.0066 LP  0  0  0  0  0  0  0  0  0  0  0  0  # atno 17395 bound_to 11000

$$$$
