AV-unprocessed.smi:444|AV-procd|sdf|2588|dock3
  -GOLD-   2262022583D 1   1.00000     0.00000
 Structure written by MMmdl.
 45 46  0  0  0  0  0  0  0  0  1 V2000
  152.5820  143.1359  160.2593 C   0  0  0  0  0  0  0  0  0  0  0  0
  151.7567  142.8127  159.0306 C   0  0  0  0  0  0  0  0  0  0  0  0
  151.3719  143.8360  158.1433 C   0  0  0  0  0  0  0  0  0  0  0  0
  150.6044  143.5275  157.0059 C   0  0  0  0  0  0  0  0  0  0  0  0
  150.2169  142.1960  156.7486 C   0  0  0  0  0  0  0  0  0  0  0  0
  149.3893  141.8810  155.5167 C   0  0  0  0  0  0  0  0  0  0  0  0
  150.5970  141.1583  157.6311 C   0  0  0  0  0  0  0  0  0  0  0  0
  150.1872  139.8781  157.3191 O   0  0  0  0  0  0  0  0  0  0  0  0
  150.8649  138.7812  157.9172 C   0  0  0  0  0  0  0  0  0  0  0  0
  150.0030  137.5180  157.7511 C   0  0  1  0  0  0  0  0  0  0  0  0
  150.6130  136.4958  158.5153 O   0  0  0  0  0  0  0  0  0  0  0  0
  148.5667  137.7287  158.2798 C   0  0  0  0  0  0  0  0  0  0  0  0
  148.1248  136.6130  159.1260 N   0  0  0  0  0  0  0  0  0  0  0  0
  148.0379  136.9269  160.4687 N   0  0  0  0  0  0  0  0  0  0  0  0
  147.6419  136.0577  161.3393 C   0  0  0  0  0  0  0  0  0  0  0  0
  147.5864  136.5128  162.7727 C   0  0  0  0  0  0  0  0  0  0  0  0
  147.2772  134.7133  160.9044 C   0  0  0  0  0  0  0  0  0  0  0  0
  146.8160  133.7323  161.9739 C   0  0  0  0  0  0  0  0  0  0  0  0
  147.3724  134.4155  159.5843 C   0  0  0  0  0  0  0  0  0  0  0  0
  147.0417  133.1265  159.0677 C   0  0  0  0  0  0  0  0  0  0  0  0
  146.7545  132.0821  158.6592 N   0  0  0  0  0  0  0  0  0  0  0  0
  147.8211  135.3953  158.5923 C   0  0  0  0  0  0  0  0  0  0  0  0
  147.9172  135.1549  157.3879 O   0  0  0  0  0  0  0  0  0  0  0  0
  151.3695  141.4816  158.7760 C   0  0  0  0  0  0  0  0  0  0  0  0
  152.9964  144.1431  160.2052 H   0  0  0  0  0  0  0  0  0  0  0  0
  153.4108  142.4343  160.3573 H   0  0  0  0  0  0  0  0  0  0  0  0
  151.9652  143.0668  161.1556 H   0  0  0  0  0  0  0  0  0  0  0  0
  151.6627  144.8594  158.3306 H   0  0  0  0  0  0  0  0  0  0  0  0
  150.3143  144.3192  156.3306 H   0  0  0  0  0  0  0  0  0  0  0  0
  149.9317  141.1981  154.8620 H   0  0  0  0  0  0  0  0  0  0  0  0
  149.1573  142.7823  154.9484 H   0  0  0  0  0  0  0  0  0  0  0  0
  148.4491  141.4092  155.8028 H   0  0  0  0  0  0  0  0  0  0  0  0
  151.8573  138.6329  157.4866 H   0  0  0  0  0  0  0  0  0  0  0  0
  150.9906  139.0006  158.9785 H   0  0  0  0  0  0  0  0  0  0  0  0
  149.9773  137.2313  156.6989 H   0  0  0  0  0  0  0  0  0  0  0  0
  151.0882  136.8943  159.2284 H   0  0  0  0  0  0  0  0  0  0  0  0
  148.4715  138.6932  158.7825 H   0  0  0  0  0  0  0  0  0  0  0  0
  147.8776  137.7894  157.4355 H   0  0  0  0  0  0  0  0  0  0  0  0
  148.2174  135.8858  163.4028 H   0  0  0  0  0  0  0  0  0  0  0  0
  146.5669  136.4607  163.1554 H   0  0  0  0  0  0  0  0  0  0  0  0
  147.9286  137.5426  162.8866 H   0  0  0  0  0  0  0  0  0  0  0  0
  146.5221  132.7709  161.5534 H   0  0  0  0  0  0  0  0  0  0  0  0
  145.9544  134.1279  162.5127 H   0  0  0  0  0  0  0  0  0  0  0  0
  147.6157  133.5465  162.6917 H   0  0  0  0  0  0  0  0  0  0  0  0
  151.6787  140.7216  159.4772 H   0  0  0  0  0  0  0  0  0  0  0  0
  1  2  1  0  0  0  0
  1 25  1  0  0  0  0
  1 26  1  0  0  0  0
  1 27  1  0  0  0  0
  2 24  1  0  0  0  0
  2  3  2  0  0  0  0
  3  4  1  0  0  0  0
  3 28  1  0  0  0  0
  4  5  2  0  0  0  0
  4 29  1  0  0  0  0
  5  6  1  0  0  0  0
  5  7  1  0  0  0  0
  6 30  1  0  0  0  0
  6 31  1  0  0  0  0
  6 32  1  0  0  0  0
  7  8  1  0  0  0  0
  7 24  2  0  0  0  0
  8  9  1  0  0  0  0
  9 10  1  0  0  0  0
  9 33  1  0  0  0  0
  9 34  1  0  0  0  0
 10 11  1  0  0  0  0
 10 12  1  0  0  0  0
 10 35  1  0  0  0  0
 11 36  1  0  0  0  0
 12 13  1  0  0  0  0
 12 37  1  0  0  0  0
 12 38  1  0  0  0  0
 13 22  1  0  0  0  0
 13 14  1  0  0  0  0
 14 15  2  0  0  0  0
 15 16  1  0  0  0  0
 15 17  1  0  0  0  0
 16 39  1  0  0  0  0
 16 40  1  0  0  0  0
 16 41  1  0  0  0  0
 17 18  1  0  0  0  0
 17 19  2  0  0  0  0
 18 42  1  0  0  0  0
 18 43  1  0  0  0  0
 18 44  1  0  0  0  0
 19 20  1  0  0  0  0
 19 22  1  0  0  0  0
 20 21  3  0  0  0  0
 22 23  2  0  0  0  0
 24 45  1  0  0  0  0
M  END
> <s_m_source_file>
AV-unprocessed.smi

> <i_m_source_file_index>
444

> <i_lp_mmshare_version>
43012

> <i_f3d_flags>
0

> <s_epik_input>
W0NIM11jMVtjSF1bY0hdYyhbQ0gzXSljKFtjSF0xKU9bQ0gyXVtDQEhdKFtPSF0pW0NIMl1uMm5jKFtDSDNdKWMoW0NIM10pYyhDI04pYzI9Tw==

> <s_epik_cmdline>
J2VwaWtfcHl0aG9uJywgJy1waCcsICc3LjAnLCAnLXRuJywgJzgnLCAnLW1hJywgJzIwMCcsICctbWV0YWxfYmluZGluZycsICctaW1hZScsICc8aW5maWxlLm1hZT4nLCAnLW9tYWUnLCAnPG91dGZpbGUubWFlPic=

> <r_lp_tautomer_probability>
1

> <r_epik_Ionization_Penalty>
1.17331e-07

> <r_epik_Ionization_Penalty_Charging>
1.57223e-10

> <r_epik_Ionization_Penalty_Neutral>
1.17174e-07

> <r_epik_State_Penalty>
-0

> <r_epik_Charging_Adjusted_Penalty>
1.57223e-10

> <i_epik_Tot_Q>
0

> <i_epik_Tot_abs_Q>
0

> <r_epik_Metal_State_Penalty>
-0

> <b_epik_Metal_Only>
0

> <s_lp_Force_Field>
OPLS_2005

> <r_lp_Energy>
32.4142

> <b_lp_Chiralities_Consistent>
1

> <s_lp_Variant>
AV-unprocessed.smi:444-2

> <Gold.Version>
5.8.1

> <Gold.Id.Protein>
6NUR|6NUR_protein|mol2

> <Gold.PLP.Fitness>
53.3355

> <Gold.PLP.PLP>
-48.5451

> <Gold.PLP.part.hbond>
-2.9177

> <Gold.PLP.part.metal>
0.0000

> <Gold.PLP.part.buried>
-5.1070

> <Gold.PLP.part.nonpolar>
-41.5214

> <Gold.PLP.part.repulsive>
0.0000

> <Gold.PLP.ligand.clash>
0.0000

> <Gold.PLP.ligand.torsion>
1.1277

> <Gold.PLP.Chemscore.Hbond>
2.3317

> <Gold.PLP.Chemscore.CHOScore>
0.0000

> <Gold.PLP.Chemscore.Metal>
0.0000

> <Gold.Chemscore.Hbonds>
donor molecule, donor type, donor heavy atom, donor atom, acceptor molecule, acceptor atom, score
      P1  H  6931  6943       L1    14  0.43
      P1  H  6934  6947       L1    14  0.25

> <Gold.PLP.Chemscore.Internal.Correction>
0.0507

> <Gold.Rescore>
     Score         DG    S(hbond)    S(metal)    S(lipo)     H(rot)  DE(clash)    DE(int)     intcor
     19.76     -21.03       2.18        0.00     120.67       2.29       0.19       1.08       ----

> <Gold.Chemscore.Fitness>
19.7616

> <Gold.Chemscore.DG>
-21.0274

> <Gold.Chemscore.ZeroCoef>
-5.4800

> <Gold.Chemscore.Hbond>
2.1833

> <Gold.Chemscore.Metal>
0.0000

> <Gold.Chemscore.Lipo>
120.6716

> <Gold.Chemscore.Internal_Hbond>
0.0000

> <Gold.Chemscore.DEClash>
0.1904

> <Gold.Chemscore.DEInternal>
1.0754

> <Gold.Chemscore.Rot>
2.2905

> <Gold.Chemscore.Internal.Correction>
   9.000000E+99

> <Gold.Chemscore.Hbonds>
donor molecule, donor type, donor heavy atom, donor atom, acceptor molecule, acceptor atom, score
      P1  H  6931  6943       L1    14  0.08
      P1  H  6934  6947       L1    14  0.18

> <Gold.Chemscore.Hbond.Weighted>
-7.2924

> <Gold.Chemscore.Metal.Weighted>
-0.0000

> <Gold.Chemscore.Lipo.Weighted>
-14.1186

> <Gold.Chemscore.Internal_Hbond.Weighted>
0.0000

> <Gold.Chemscore.DEClash.Weighted>
0.1904

> <Gold.Chemscore.DEInternal.Weighted>
1.0754

> <Gold.Chemscore.Rot.Weighted>
5.8636

> <Gold.Chemscore.Internal.Correction.Weighted>
   9.000000E+99

> <Gold.Protein.RotatedTorsions>
[ 6907 6896 6895 6894 ] final -149.73 input  -60.11 | X-H torsion
[ 7974 7965 7964 7962 ] final    0.92 input  175.53 | X-H torsion
[ 8008 7997 7996 7995 ] final   39.01 input   59.86 | X-H torsion
[ 10167 10162 10161 10158 ] final   75.27 input  -65.29 | X-H torsion
[ 10718 10713 10712 10709 ] final    7.75 input   66.30 | X-H torsion
[ 10763 10752 10751 10750 ] final   81.99 input  -60.55 | X-H torsion
[ 11005 11000 10999 10996 ] final -173.61 input  -57.11 | X-H torsion

> <Gold.Protein.ActiveResidues>
 VAL166  LYS551  ARG553  GLY616  TRP617  ASP618  TYR619  PRO620  LYS621  CYS622 
 ASP623  PHE694  ASN695  SER759  ASP760  ASP761  ALA762  ILE779  LEU786  VAL792 
 PHE793  MET794  SER795  GLU796  ALA797  LYS798  CYS799  TRP800  GLU811  SER814 

> <Gold.Protein.RotatedAtoms>
  151.1883  133.4682  159.2594 H   0  0  0  0  0  0  0  0  0  0  0  0  # atno 6907 bound_to 6896
  151.1189  135.0068  159.8539 H   0  0  0  0  0  0  0  0  0  0  0  0  # atno 6908 bound_to 6896
  152.5455  134.1796  159.8683 H   0  0  0  0  0  0  0  0  0  0  0  0  # atno 6909 bound_to 6896
  146.2437  140.1065  142.8345 H   0  0  0  0  0  0  0  0  0  0  0  0  # atno 7974 bound_to 7965
  155.2296  140.3337  155.4305 H   0  0  0  0  0  0  0  0  0  0  0  0  # atno 8008 bound_to 7997
  156.2300  140.1846  156.7312 H   0  0  0  0  0  0  0  0  0  0  0  0  # atno 8009 bound_to 7997
  154.5962  140.0630  156.9292 H   0  0  0  0  0  0  0  0  0  0  0  0  # atno 8010 bound_to 7997
  140.0048  144.5659  150.7707 H   0  0  0  0  0  0  0  0  0  0  0  0  # atno 10167 bound_to 10162
  156.9414  130.5863  149.5652 H   0  0  0  0  0  0  0  0  0  0  0  0  # atno 10718 bound_to 10713
  153.1164  135.4745  154.9123 H   0  0  0  0  0  0  0  0  0  0  0  0  # atno 10763 bound_to 10752
  154.7533  135.3111  154.8520 H   0  0  0  0  0  0  0  0  0  0  0  0  # atno 10764 bound_to 10752
  153.9095  135.6866  153.4805 H   0  0  0  0  0  0  0  0  0  0  0  0  # atno 10765 bound_to 10752
  140.4838  134.6050  157.4929 H   0  0  0  0  0  0  0  0  0  0  0  0  # atno 11005 bound_to 11000
  145.0524  140.9027  143.4987 LP  0  0  0  0  0  0  0  0  0  0  0  0  # atno 17320 bound_to 7965
  145.1165  139.2722  143.5610 LP  0  0  0  0  0  0  0  0  0  0  0  0  # atno 17321 bound_to 7965
  140.7405  143.2805  151.3613 LP  0  0  0  0  0  0  0  0  0  0  0  0  # atno 17342 bound_to 10162
  139.6246  144.0839  152.2423 LP  0  0  0  0  0  0  0  0  0  0  0  0  # atno 17343 bound_to 10162
  156.0402  130.5486  150.8753 LP  0  0  0  0  0  0  0  0  0  0  0  0  # atno 17370 bound_to 10713
  157.5782  131.0946  150.9312 LP  0  0  0  0  0  0  0  0  0  0  0  0  # atno 17371 bound_to 10713
  139.9810  134.7137  155.9859 LP  0  0  0  0  0  0  0  0  0  0  0  0  # atno 17394 bound_to 11000
  141.1518  133.6547  156.4037 LP  0  0  0  0  0  0  0  0  0  0  0  0  # atno 17395 bound_to 11000

$$$$
