AV-unprocessed.smi:898|AV-procd|sdf|4083|dock2
  -GOLD-   22720 1573D 1   1.00000     0.00000
 Structure written by MMmdl.
 34 36  0  0  0  0  0  0  0  0  1 V2000
  145.5109  128.7992  152.0705 O   0  0  0  0  0  0  0  0  0  0  0  0
  146.5461  129.2669  151.5960 C   0  0  0  0  0  0  0  0  0  0  0  0
  147.6075  128.5501  151.1866 N   0  0  0  0  0  0  0  0  0  0  0  0
  147.7756  127.1400  151.1989 C   0  0  0  0  0  0  0  0  0  0  0  0
  147.4251  126.3566  152.2282 N   0  0  0  0  0  0  0  0  0  0  0  0
  147.6958  125.0188  151.9764 N   0  0  0  0  0  0  0  0  0  0  0  0
  148.2417  124.8289  150.7691 C   0  0  0  0  0  0  0  0  0  0  0  0
  148.6171  123.4733  150.2697 C   0  0  0  0  0  0  0  0  0  0  0  0
  148.0904  122.9639  148.9478 C   0  0  0  0  0  0  0  0  0  0  0  0
  147.6204  122.3351  150.2346 C   0  0  0  0  0  0  0  0  0  0  0  0
  148.4748  126.2979  149.8268 S   0  0  0  0  0  0  0  0  0  0  0  0
  146.7505  130.5803  151.4168 N   0  0  0  0  0  0  0  0  0  0  0  0
  145.7971  131.6367  151.7461 C   0  0  2  0  0  0  0  0  0  0  0  0
  144.7193  131.7448  150.6468 C   0  0  0  0  0  0  0  0  0  0  0  0
  143.6553  132.8083  150.9634 C   0  0  0  0  0  0  0  0  0  0  0  0
  144.2540  134.2154  151.0997 C   0  0  0  0  0  0  0  0  0  0  0  0
  145.4427  134.2934  152.4667 S   0  0  0  0  0  0  0  0  0  0  0  0
  146.5545  132.9629  151.9339 C   0  0  0  0  0  0  0  0  0  0  0  0
  148.3843  129.0748  150.8131 H   0  0  0  0  0  0  0  0  0  0  0  0
  149.6467  123.2390  150.5330 H   0  0  0  0  0  0  0  0  0  0  0  0
  147.3831  123.5917  148.4089 H   0  0  0  0  0  0  0  0  0  0  0  0
  148.7716  122.3876  148.3250 H   0  0  0  0  0  0  0  0  0  0  0  0
  147.9890  121.3387  150.4696 H   0  0  0  0  0  0  0  0  0  0  0  0
  146.5958  122.5363  150.5406 H   0  0  0  0  0  0  0  0  0  0  0  0
  147.6312  130.8737  151.0205 H   0  0  0  0  0  0  0  0  0  0  0  0
  145.3138  131.3883  152.6933 H   0  0  0  0  0  0  0  0  0  0  0  0
  145.1875  131.9705  149.6877 H   0  0  0  0  0  0  0  0  0  0  0  0
  144.2229  130.7814  150.5231 H   0  0  0  0  0  0  0  0  0  0  0  0
  142.9064  132.8128  150.1707 H   0  0  0  0  0  0  0  0  0  0  0  0
  143.1276  132.5417  151.8799 H   0  0  0  0  0  0  0  0  0  0  0  0
  144.7540  134.5080  150.1761 H   0  0  0  0  0  0  0  0  0  0  0  0
  143.4648  134.9454  151.2814 H   0  0  0  0  0  0  0  0  0  0  0  0
  147.3374  132.8520  152.6851 H   0  0  0  0  0  0  0  0  0  0  0  0
  147.0422  133.2619  151.0051 H   0  0  0  0  0  0  0  0  0  0  0  0
  1  2  2  0  0  0  0
  2  3  1  0  0  0  0
  2 12  1  0  0  0  0
  3  4  1  0  0  0  0
  3 19  1  0  0  0  0
  4 11  1  0  0  0  0
  4  5  2  0  0  0  0
  5  6  1  0  0  0  0
  6  7  2  0  0  0  0
  7  8  1  0  0  0  0
  7 11  1  0  0  0  0
  8 10  1  0  0  0  0
  8  9  1  0  0  0  0
  8 20  1  0  0  0  0
  9 10  1  0  0  0  0
  9 21  1  0  0  0  0
  9 22  1  0  0  0  0
 10 23  1  0  0  0  0
 10 24  1  0  0  0  0
 12 13  1  0  0  0  0
 12 25  1  0  0  0  0
 13 18  1  0  0  0  0
 13 14  1  0  0  0  0
 13 26  1  0  0  0  0
 14 15  1  0  0  0  0
 14 27  1  0  0  0  0
 14 28  1  0  0  0  0
 15 16  1  0  0  0  0
 15 29  1  0  0  0  0
 15 30  1  0  0  0  0
 16 17  1  0  0  0  0
 16 31  1  0  0  0  0
 16 32  1  0  0  0  0
 17 18  1  0  0  0  0
 18 33  1  0  0  0  0
 18 34  1  0  0  0  0
M  END
> <s_m_source_file>
AV-unprocessed.smi

> <i_m_source_file_index>
898

> <i_lp_mmshare_version>
43012

> <i_f3d_flags>
0

> <s_epik_input>
W0NIMl0xU1tDSDJdW0NIMl1bQ0gyXVtDQEhdMVtOSF1DKD1PKVtOSF1jMm5uYyhzMilbQ0hdM1tDSDJdW0NIMl0z

> <s_epik_cmdline>
J2VwaWtfcHl0aG9uJywgJy1waCcsICc3LjAnLCAnLXRuJywgJzgnLCAnLW1hJywgJzIwMCcsICctbWV0YWxfYmluZGluZycsICctaW1hZScsICc8aW5maWxlLm1hZT4nLCAnLW9tYWUnLCAnPG91dGZpbGUubWFlPic=

> <r_lp_tautomer_probability>
1

> <r_epik_Ionization_Penalty>
0.000291725

> <r_epik_Ionization_Penalty_Charging>
0

> <r_epik_Ionization_Penalty_Neutral>
0.000291725

> <r_epik_State_Penalty>
-0

> <r_epik_Charging_Adjusted_Penalty>
0

> <i_epik_Tot_Q>
0

> <i_epik_Tot_abs_Q>
0

> <r_epik_Metal_State_Penalty>
0.160962

> <b_epik_Metal_Only>
0

> <s_lp_Force_Field>
OPLS_2005

> <r_lp_Energy>
2.16534

> <b_lp_Chiralities_Consistent>
1

> <s_lp_Variant>
AV-unprocessed.smi:898-1

> <Gold.Version>
5.8.1

> <Gold.Id.Protein>
6NUR|6NUR_protein|mol2

> <Gold.PLP.Fitness>
40.0007

> <Gold.PLP.PLP>
-36.5606

> <Gold.PLP.part.hbond>
-3.4920

> <Gold.PLP.part.metal>
0.0000

> <Gold.PLP.part.buried>
-6.7720

> <Gold.PLP.part.nonpolar>
-26.2578

> <Gold.PLP.part.repulsive>
0.2920

> <Gold.PLP.ligand.clash>
0.0000

> <Gold.PLP.ligand.torsion>
0.7115

> <Gold.PLP.Chemscore.Hbond>
1.5760

> <Gold.PLP.Chemscore.CHOScore>
0.0000

> <Gold.PLP.Chemscore.Metal>
0.0000

> <Gold.Chemscore.Hbonds>
donor molecule, donor type, donor heavy atom, donor atom, acceptor molecule, acceptor atom, score
      L1  H     3    19       P1 10747  0.56
      L1  H    12    25       P1 10747  1.00

> <Gold.PLP.Chemscore.Internal.Correction>
0.1351

> <Gold.Rescore>
     Score         DG    S(hbond)    S(metal)    S(lipo)     H(rot)  DE(clash)    DE(int)     intcor
     13.01     -13.89       1.08        0.00      67.47       1.20       0.05       0.83       ----

> <Gold.Chemscore.Fitness>
13.0149

> <Gold.Chemscore.DG>
-13.8932

> <Gold.Chemscore.ZeroCoef>
-5.4800

> <Gold.Chemscore.Hbond>
1.0790

> <Gold.Chemscore.Metal>
0.0000

> <Gold.Chemscore.Lipo>
67.4699

> <Gold.Chemscore.Internal_Hbond>
0.0000

> <Gold.Chemscore.DEClash>
0.0480

> <Gold.Chemscore.DEInternal>
0.8304

> <Gold.Chemscore.Rot>
1.2050

> <Gold.Chemscore.Internal.Correction>
   9.000000E+99

> <Gold.Chemscore.Hbonds>
donor molecule, donor type, donor heavy atom, donor atom, acceptor molecule, acceptor atom, score
      L1  H     3    19       P1 10747  0.04
      L1  H    12    25       P1 10747  0.93

> <Gold.Chemscore.Hbond.Weighted>
-3.6040

> <Gold.Chemscore.Metal.Weighted>
-0.0000

> <Gold.Chemscore.Lipo.Weighted>
-7.8940

> <Gold.Chemscore.Internal_Hbond.Weighted>
0.0000

> <Gold.Chemscore.DEClash.Weighted>
0.0480

> <Gold.Chemscore.DEInternal.Weighted>
0.8304

> <Gold.Chemscore.Rot.Weighted>
3.0847

> <Gold.Chemscore.Internal.Correction.Weighted>
   9.000000E+99

> <Gold.Protein.RotatedTorsions>
[ 6907 6896 6895 6894 ] final -114.94 input  -60.11 | X-H torsion
[ 7974 7965 7964 7962 ] final  163.91 input  175.53 | X-H torsion
[ 8008 7997 7996 7995 ] final   78.45 input   59.86 | X-H torsion
[ 10167 10162 10161 10158 ] final -151.85 input  -65.29 | X-H torsion
[ 10718 10713 10712 10709 ] final  125.99 input   66.30 | X-H torsion
[ 10763 10752 10751 10750 ] final -148.13 input  -60.55 | X-H torsion
[ 11005 11000 10999 10996 ] final   73.20 input  -57.11 | X-H torsion

> <Gold.Protein.ActiveResidues>
 VAL166  LYS551  ARG553  GLY616  TRP617  ASP618  TYR619  PRO620  LYS621  CYS622 
 ASP623  PHE694  ASN695  SER759  ASP760  ASP761  ALA762  ILE779  LEU786  VAL792 
 PHE793  MET794  SER795  GLU796  ALA797  LYS798  CYS799  TRP800  GLU811  SER814 

> <Gold.Protein.RotatedAtoms>
  150.7940  133.8730  159.3263 H   0  0  0  0  0  0  0  0  0  0  0  0  # atno 6907 bound_to 6896
  151.6560  135.0993  160.0179 H   0  0  0  0  0  0  0  0  0  0  0  0  # atno 6908 bound_to 6896
  152.4018  133.6791  159.6358 H   0  0  0  0  0  0  0  0  0  0  0  0  # atno 6909 bound_to 6896
  144.7568  139.8251  143.6347 H   0  0  0  0  0  0  0  0  0  0  0  0  # atno 7974 bound_to 7965
  155.8559  140.3456  155.5724 H   0  0  0  0  0  0  0  0  0  0  0  0  # atno 8008 bound_to 7997
  155.7986  140.0882  157.1989 H   0  0  0  0  0  0  0  0  0  0  0  0  # atno 8009 bound_to 7997
  154.4009  140.1469  156.3235 H   0  0  0  0  0  0  0  0  0  0  0  0  # atno 8010 bound_to 7997
  139.7232  143.8924  152.2510 H   0  0  0  0  0  0  0  0  0  0  0  0  # atno 10167 bound_to 10162
  157.5457  131.1095  150.8786 H   0  0  0  0  0  0  0  0  0  0  0  0  # atno 10718 bound_to 10713
  154.8249  135.3342  154.6926 H   0  0  0  0  0  0  0  0  0  0  0  0  # atno 10763 bound_to 10752
  153.7553  135.6936  153.4941 H   0  0  0  0  0  0  0  0  0  0  0  0  # atno 10764 bound_to 10752
  153.2148  135.4469  155.0371 H   0  0  0  0  0  0  0  0  0  0  0  0  # atno 10765 bound_to 10752
  139.9452  134.7326  156.0998 H   0  0  0  0  0  0  0  0  0  0  0  0  # atno 11005 bound_to 11000
  146.1588  139.4695  143.0002 LP  0  0  0  0  0  0  0  0  0  0  0  0  # atno 17320 bound_to 7965
  145.6751  141.0206  143.1636 LP  0  0  0  0  0  0  0  0  0  0  0  0  # atno 17321 bound_to 7965
  139.8826  144.7009  150.8861 LP  0  0  0  0  0  0  0  0  0  0  0  0  # atno 17342 bound_to 10162
  140.7758  143.3649  151.1758 LP  0  0  0  0  0  0  0  0  0  0  0  0  # atno 17343 bound_to 10162
  156.9326  130.5355  149.5279 LP  0  0  0  0  0  0  0  0  0  0  0  0  # atno 17370 bound_to 10713
  156.0533  130.5599  150.9037 LP  0  0  0  0  0  0  0  0  0  0  0  0  # atno 17371 bound_to 10713
  141.1100  133.6646  156.2956 LP  0  0  0  0  0  0  0  0  0  0  0  0  # atno 17394 bound_to 11000
  140.5852  134.5705  157.5488 LP  0  0  0  0  0  0  0  0  0  0  0  0  # atno 17395 bound_to 11000

$$$$
