AV-unprocessed.smi:282|AV-procd|sdf|2117|dock4
  -GOLD-   2262021413D 1   1.00000     0.00000
 Structure written by MMmdl.
 65 69  0  0  0  0  0  0  0  0  2 V2000
  144.7376  132.8000  157.7045 C   0  0  0  0  0  0  0  0  0  0  0  0
  144.0710  133.6375  156.6054 C   0  0  0  0  0  0  0  0  0  0  0  0
  145.0640  134.5307  155.8299 C   0  0  2  0  0  0  0  0  0  0  0  0
  144.4837  135.0006  154.4794 C   0  0  0  0  0  0  0  0  0  0  0  0
  144.4158  133.8963  153.4873 N   0  3  1  0  0  0  0  0  0  0  0  0
  143.7993  134.3349  152.2092 C   0  0  0  0  0  0  0  0  0  0  0  0
  143.6244  133.1551  151.2401 C   0  0  0  0  0  0  0  0  0  0  0  0
  144.9641  132.4532  150.9881 C   0  0  0  0  0  0  0  0  0  0  0  0
  145.5894  132.0264  152.3223 C   0  0  0  0  0  0  0  0  0  0  0  0
  145.7315  133.2226  153.2835 C   0  0  2  0  0  0  0  0  0  0  0  0
  146.3330  132.7731  154.6322 C   0  0  0  0  0  0  0  0  0  0  0  0
  146.3515  133.8663  155.6060 N   0  0  0  0  0  0  0  0  0  0  0  0
  147.4633  134.6469  155.6938 C   0  0  0  0  0  0  0  0  0  0  0  0
  148.6673  134.1537  155.2980 N   0  0  0  0  0  0  0  0  0  0  0  0
  149.7693  134.9041  155.3809 C   0  0  0  0  0  0  0  0  0  0  0  0
  149.8931  136.1558  155.8227 N   0  0  0  0  0  0  0  0  0  0  0  0
  148.6920  136.6622  156.2220 C   0  0  0  0  0  0  0  0  0  0  0  0
  147.4413  135.9806  156.1960 C   0  0  0  0  0  0  0  0  0  0  0  0
  146.4471  136.8065  156.7060 N   0  0  0  0  0  0  0  0  0  0  0  0
  147.0706  137.9119  157.0076 C   0  0  0  0  0  0  0  0  0  0  0  0
  148.4201  137.9200  156.7342 N   0  0  0  0  0  0  0  0  0  0  0  0
  149.3500  139.0137  156.9829 C   0  0  0  0  0  0  0  0  0  0  0  0
  149.9586  139.6742  155.7042 C   0  0  0  0  0  0  0  0  0  0  0  0
  148.8440  140.1166  154.7188 C   0  0  0  0  0  0  0  0  0  0  0  0
  149.3602  140.8204  153.6065 O   0  0  0  0  0  0  0  0  0  0  0  0
  150.8127  140.9067  156.0946 C   0  0  0  0  0  0  0  0  0  0  0  0
  152.1281  140.5243  156.7972 C   0  0  0  0  0  0  0  0  0  0  0  0
  152.8829  139.6463  155.9721 O   0  0  0  0  0  0  0  0  0  0  0  0
  152.2079  138.4237  155.7060 C   0  0  0  0  0  0  0  0  0  0  0  0
  150.8981  138.7034  154.9457 C   0  0  0  0  0  0  0  0  0  0  0  0
  144.0003  132.1930  158.2302 H   0  0  0  0  0  0  0  0  0  0  0  0
  145.2277  133.4369  158.4411 H   0  0  0  0  0  0  0  0  0  0  0  0
  145.4880  132.1246  157.2929 H   0  0  0  0  0  0  0  0  0  0  0  0
  143.5278  132.9799  155.9267 H   0  0  0  0  0  0  0  0  0  0  0  0
  143.3149  134.2689  157.0730 H   0  0  0  0  0  0  0  0  0  0  0  0
  145.2062  135.4296  156.4286 H   0  0  0  0  0  0  0  0  0  0  0  0
  143.4915  135.4292  154.6271 H   0  0  0  0  0  0  0  0  0  0  0  0
  145.1090  135.7979  154.0739 H   0  0  0  0  0  0  0  0  0  0  0  0
  142.8264  134.7858  152.4092 H   0  0  0  0  0  0  0  0  0  0  0  0
  144.4188  135.1080  151.7515 H   0  0  0  0  0  0  0  0  0  0  0  0
  142.9076  132.4434  151.6520 H   0  0  0  0  0  0  0  0  0  0  0  0
  143.2050  133.5067  150.2969 H   0  0  0  0  0  0  0  0  0  0  0  0
  144.8208  131.5855  150.3436 H   0  0  0  0  0  0  0  0  0  0  0  0
  145.6413  133.1262  150.4605 H   0  0  0  0  0  0  0  0  0  0  0  0
  144.9715  131.2533  152.7816 H   0  0  0  0  0  0  0  0  0  0  0  0
  146.5657  131.5751  152.1418 H   0  0  0  0  0  0  0  0  0  0  0  0
  146.4049  133.9501  152.8275 H   0  0  0  0  0  0  0  0  0  0  0  0
  145.7434  131.9556  155.0472 H   0  0  0  0  0  0  0  0  0  0  0  0
  147.3330  132.3616  154.4880 H   0  0  0  0  0  0  0  0  0  0  0  0
  150.6828  134.4339  155.0474 H   0  0  0  0  0  0  0  0  0  0  0  0
  146.5585  138.7587  157.4407 H   0  0  0  0  0  0  0  0  0  0  0  0
  148.8194  139.7661  157.5678 H   0  0  0  0  0  0  0  0  0  0  0  0
  150.1295  138.6394  157.6449 H   0  0  0  0  0  0  0  0  0  0  0  0
  148.3013  139.2494  154.3406 H   0  0  0  0  0  0  0  0  0  0  0  0
  148.1030  140.7421  155.2171 H   0  0  0  0  0  0  0  0  0  0  0  0
  149.2466  140.2868  152.8348 H   0  0  0  0  0  0  0  0  0  0  0  0
  151.0621  141.4765  155.1984 H   0  0  0  0  0  0  0  0  0  0  0  0
  150.2413  141.5834  156.7310 H   0  0  0  0  0  0  0  0  0  0  0  0
  152.7212  141.4198  156.9831 H   0  0  0  0  0  0  0  0  0  0  0  0
  151.9454  140.0658  157.7695 H   0  0  0  0  0  0  0  0  0  0  0  0
  152.8591  137.7932  155.1005 H   0  0  0  0  0  0  0  0  0  0  0  0
  152.0302  137.8829  156.6354 H   0  0  0  0  0  0  0  0  0  0  0  0
  150.3901  137.7684  154.7126 H   0  0  0  0  0  0  0  0  0  0  0  0
  151.1633  139.1378  153.9806 H   0  0  0  0  0  0  0  0  0  0  0  0
  143.7986  133.2006  153.8807 H   0  0  0  0  0  0  0  0  0  0  0  0
  1  2  1  0  0  0  0
  1 31  1  0  0  0  0
  1 32  1  0  0  0  0
  1 33  1  0  0  0  0
  2  3  1  0  0  0  0
  2 34  1  0  0  0  0
  2 35  1  0  0  0  0
  3 12  1  0  0  0  0
  3  4  1  0  0  0  0
  3 36  1  0  0  0  0
  4  5  1  0  0  0  0
  4 37  1  0  0  0  0
  4 38  1  0  0  0  0
  5 10  1  0  0  0  0
  5  6  1  0  0  0  0
  5 65  1  0  0  0  0
  6  7  1  0  0  0  0
  6 39  1  0  0  0  0
  6 40  1  0  0  0  0
  7  8  1  0  0  0  0
  7 41  1  0  0  0  0
  7 42  1  0  0  0  0
  8  9  1  0  0  0  0
  8 43  1  0  0  0  0
  8 44  1  0  0  0  0
  9 10  1  0  0  0  0
  9 45  1  0  0  0  0
  9 46  1  0  0  0  0
 10 11  1  0  0  0  0
 10 47  1  0  0  0  0
 11 12  1  0  0  0  0
 11 48  1  0  0  0  0
 11 49  1  0  0  0  0
 12 13  1  0  0  0  0
 13 18  1  0  0  0  0
 13 14  2  0  0  0  0
 14 15  1  0  0  0  0
 15 16  2  0  0  0  0
 15 50  1  0  0  0  0
 16 17  1  0  0  0  0
 17 21  1  0  0  0  0
 17 18  2  0  0  0  0
 18 19  1  0  0  0  0
 19 20  2  0  0  0  0
 20 21  1  0  0  0  0
 20 51  1  0  0  0  0
 21 22  1  0  0  0  0
 22 23  1  0  0  0  0
 22 52  1  0  0  0  0
 22 53  1  0  0  0  0
 23 30  1  0  0  0  0
 23 24  1  0  0  0  0
 23 26  1  0  0  0  0
 24 25  1  0  0  0  0
 24 54  1  0  0  0  0
 24 55  1  0  0  0  0
 25 56  1  0  0  0  0
 26 27  1  0  0  0  0
 26 57  1  0  0  0  0
 26 58  1  0  0  0  0
 27 28  1  0  0  0  0
 27 59  1  0  0  0  0
 27 60  1  0  0  0  0
 28 29  1  0  0  0  0
 29 30  1  0  0  0  0
 29 61  1  0  0  0  0
 29 62  1  0  0  0  0
 30 63  1  0  0  0  0
 30 64  1  0  0  0  0
M  CHG  1   5   1
M  END
> <s_m_source_file>
AV-unprocessed.smi

> <i_m_source_file_index>
282

> <i_lp_mmshare_version>
43012

> <i_f3d_flags>
0

> <s_epik_input>
W0NIMl0xW0NIMl1bQ0gyXVtDSDJdW0NAQEhdKE4xMilbQ0gyXU4oW0NAQEhdKFtDSDJdMilbQ0gyXVtDSDNdKWMobltjSF1uMyljKGMzNCluW2NIXW40W0NIMl1DNShbQ0gyXVtPSF0pW0NIMl1bQ0gyXU9bQ0gyXVtDSDJdNQ==

> <s_epik_cmdline>
J2VwaWtfcHl0aG9uJywgJy1waCcsICc3LjAnLCAnLXRuJywgJzgnLCAnLW1hJywgJzIwMCcsICctbWV0YWxfYmluZGluZycsICctaW1hZScsICc8aW5maWxlLm1hZT4nLCAnLW9tYWUnLCAnPG91dGZpbGUubWFlPic=

> <r_lp_tautomer_probability>
1

> <r_epik_Ionization_Penalty>
0.00308583

> <r_epik_Ionization_Penalty_Charging>
0.00300384

> <r_epik_Ionization_Penalty_Neutral>
8.19894e-05

> <r_epik_State_Penalty>
-0

> <r_epik_Charging_Adjusted_Penalty>
0.00300384

> <i_epik_Tot_Q>
1

> <i_epik_Tot_abs_Q>
1

> <r_epik_Metal_State_Penalty>
-0

> <b_epik_Metal_Only>
0

> <s_lp_Force_Field>
OPLS_2005

> <r_lp_Energy>
57.6145

> <b_lp_Chiralities_Consistent>
1

> <s_lp_Variant>
AV-unprocessed.smi:282-1

> <Gold.Version>
5.8.1

> <Gold.Id.Protein>
6NUR|6NUR_protein|mol2

> <Gold.PLP.Fitness>
44.5874

> <Gold.PLP.PLP>
-30.8843

> <Gold.PLP.part.hbond>
-4.4212

> <Gold.PLP.part.metal>
0.0000

> <Gold.PLP.part.buried>
-4.2846

> <Gold.PLP.part.nonpolar>
-22.5642

> <Gold.PLP.part.repulsive>
0.1283

> <Gold.PLP.ligand.clash>
0.0000

> <Gold.PLP.ligand.torsion>
0.4490

> <Gold.PLP.Chemscore.Hbond>
4.7675

> <Gold.PLP.Chemscore.CHOScore>
0.0000

> <Gold.PLP.Chemscore.Metal>
0.0000

> <Gold.Chemscore.Hbonds>
donor molecule, donor type, donor heavy atom, donor atom, acceptor molecule, acceptor atom, score
      L1  H     5    65       P1 10957  1.95
      L1  H    25    56       P1  7957  0.94
      P1  H  7989  7998       L1    25  0.13
      P1  H  7997  8010       L1    28  1.00
      P1  H  8011  8017       L1    25  0.30

> <Gold.PLP.Chemscore.Internal.Correction>
0.2986

> <Gold.Rescore>
     Score         DG    S(hbond)    S(metal)    S(lipo)     H(rot)  DE(clash)    DE(int)     intcor
     13.89     -18.39       2.87        0.00      76.54       2.20       1.22       3.28       ----

> <Gold.Chemscore.Fitness>
13.8854

> <Gold.Chemscore.DG>
-18.3883

> <Gold.Chemscore.ZeroCoef>
-5.4800

> <Gold.Chemscore.Hbond>
2.8730

> <Gold.Chemscore.Metal>
0.0000

> <Gold.Chemscore.Lipo>
76.5425

> <Gold.Chemscore.Internal_Hbond>
0.0000

> <Gold.Chemscore.DEClash>
1.2218

> <Gold.Chemscore.DEInternal>
3.2810

> <Gold.Chemscore.Rot>
2.2042

> <Gold.Chemscore.Internal.Correction>
   9.000000E+99

> <Gold.Chemscore.Hbonds>
donor molecule, donor type, donor heavy atom, donor atom, acceptor molecule, acceptor atom, score
      L1  H     5    65       P1 10957  0.92
      L1  H    25    56       P1  7957  0.91
      P1  H  7989  7998       L1    25  0.01
      P1  H  7997  8010       L1    28  0.33
      P1  H  8011  8017       L1    25  0.01

> <Gold.Chemscore.Hbond.Weighted>
-9.5957

> <Gold.Chemscore.Metal.Weighted>
-0.0000

> <Gold.Chemscore.Lipo.Weighted>
-8.9555

> <Gold.Chemscore.Internal_Hbond.Weighted>
0.0000

> <Gold.Chemscore.DEClash.Weighted>
1.2218

> <Gold.Chemscore.DEInternal.Weighted>
3.2810

> <Gold.Chemscore.Rot.Weighted>
5.6429

> <Gold.Chemscore.Internal.Correction.Weighted>
   9.000000E+99

> <Gold.Protein.RotatedTorsions>
[ 6907 6896 6895 6894 ] final  -31.68 input  -60.11 | X-H torsion
[ 7974 7965 7964 7962 ] final  -76.74 input  175.53 | X-H torsion
[ 8008 7997 7996 7995 ] final   83.10 input   59.86 | X-H torsion
[ 10167 10162 10161 10158 ] final -108.35 input  -65.29 | X-H torsion
[ 10718 10713 10712 10709 ] final   -1.12 input   66.30 | X-H torsion
[ 10763 10752 10751 10750 ] final  156.73 input  -60.55 | X-H torsion
[ 11005 11000 10999 10996 ] final   47.09 input  -57.11 | X-H torsion

> <Gold.Protein.ActiveResidues>
 VAL166  LYS551  ARG553  GLY616  TRP617  ASP618  TYR619  PRO620  LYS621  CYS622 
 ASP623  PHE694  ASN695  SER759  ASP760  ASP761  ALA762  ILE779  LEU786  VAL792 
 PHE793  MET794  SER795  GLU796  ALA797  LYS798  CYS799  TRP800  GLU811  SER814 

> <Gold.Protein.RotatedAtoms>
  151.0889  134.9904  159.8392 H   0  0  0  0  0  0  0  0  0  0  0  0  # atno 6907 bound_to 6896
  152.5427  134.2090  159.8752 H   0  0  0  0  0  0  0  0  0  0  0  0  # atno 6908 bound_to 6896
  151.2125  133.4504  159.2632 H   0  0  0  0  0  0  0  0  0  0  0  0  # atno 6909 bound_to 6896
  145.6088  140.9391  143.1200 H   0  0  0  0  0  0  0  0  0  0  0  0  # atno 7974 bound_to 7965
  155.9194  140.3422  155.6161 H   0  0  0  0  0  0  0  0  0  0  0  0  # atno 8008 bound_to 7997
  155.7291  140.0793  157.2315 H   0  0  0  0  0  0  0  0  0  0  0  0  # atno 8009 bound_to 7997
  154.4067  140.1591  156.2476 H   0  0  0  0  0  0  0  0  0  0  0  0  # atno 8010 bound_to 7997
  140.1671  143.4073  152.1382 H   0  0  0  0  0  0  0  0  0  0  0  0  # atno 10167 bound_to 10162
  156.8103  130.5422  149.5709 H   0  0  0  0  0  0  0  0  0  0  0  0  # atno 10718 bound_to 10713
  154.1889  135.2796  155.3028 H   0  0  0  0  0  0  0  0  0  0  0  0  # atno 10763 bound_to 10752
  154.5944  135.5549  153.7314 H   0  0  0  0  0  0  0  0  0  0  0  0  # atno 10764 bound_to 10752
  153.0117  135.6376  154.2028 H   0  0  0  0  0  0  0  0  0  0  0  0  # atno 10765 bound_to 10752
  140.1310  134.4705  155.8521 H   0  0  0  0  0  0  0  0  0  0  0  0  # atno 11005 bound_to 11000
  144.7278  139.7819  143.7358 LP  0  0  0  0  0  0  0  0  0  0  0  0  # atno 17320 bound_to 7965
  146.1520  139.4606  143.0043 LP  0  0  0  0  0  0  0  0  0  0  0  0  # atno 17321 bound_to 7965
  139.5355  144.7204  151.4909 LP  0  0  0  0  0  0  0  0  0  0  0  0  # atno 17342 bound_to 10162
  140.6606  143.8506  150.6883 LP  0  0  0  0  0  0  0  0  0  0  0  0  # atno 17343 bound_to 10162
  156.1048  130.5996  150.9953 LP  0  0  0  0  0  0  0  0  0  0  0  0  # atno 17370 bound_to 10713
  157.6509  131.0897  150.8053 LP  0  0  0  0  0  0  0  0  0  0  0  0  # atno 17371 bound_to 10713
  141.2170  133.6796  156.7069 LP  0  0  0  0  0  0  0  0  0  0  0  0  # atno 17394 bound_to 11000
  140.2842  134.8292  157.3960 LP  0  0  0  0  0  0  0  0  0  0  0  0  # atno 17395 bound_to 11000

$$$$
