#       Name:                AV-unprocessed.smi:240
#       Creating user name   scv26
#       Creation time:       Thu Mar 26 20:43:22 2020


#       File generated by GOLD software.
#

@<TRIPOS>MOLECULE
AV-unprocessed.smi:240
    67    71     1
SMALL
NO_CHARGES


@<TRIPOS>ATOM
      1 ****        -0.9735  -1.9828  -1.8423 O.3            1 S1                 0.0000
      2 ****        -1.1366  -2.6567  -0.6077 C.3            1 S1                 0.0000
      3 ****        -1.1922  -4.1635  -0.8799 C.3            1 S1                 0.0000
      4 ****        -2.6693  -4.4965  -1.1196 C.3            1 S1                 0.0000
      5 ****        -3.4559  -3.2264  -0.7735 C.3            1 S1                 0.0000
      6 ****        -2.5018  -2.3293   0.0376 C.3            1 S1                 0.0000
      7 ****        -2.9229  -0.8229   0.1307 C.3            1 S1                 0.0000
      8 ****        -4.4484  -0.7014   0.3904 C.3            1 S1                 0.0000
      9 ****        -4.8464   0.6575   0.5213 O.3            1 S1                 0.0000
     10 ****        -4.2178   1.2840   1.6281 C.3            1 S1                 0.0000
     11 ****        -2.7055   1.2843   1.3868 C.3            1 S1                 0.0000
     12 ****        -2.2195  -0.0787   1.1906 N.3            1 S1                 0.0000
     13 ****        -0.8695  -0.0883   1.1642 C.ar           1 S1                 0.0000
     14 ****        -0.2356  -0.6598   2.2173 N.ar           1 S1                 0.0000
     15 ****         1.0996  -0.7094   2.2445 C.ar           1 S1                 0.0000
     16 ****         1.9711  -0.2542   1.3415 N.ar           1 S1                 0.0000
     17 ****         1.3349   0.3358   0.2889 C.ar           1 S1                 0.0000
     18 ****        -0.0723   0.4660   0.1230 C.ar           1 S1                 0.0000
     19 ****        -0.3519   1.1203  -1.0704 N.2            1 S1                 0.0000
     20 ****         0.8241   1.3589  -1.5837 C.2            1 S1                 0.0000
     21 ****         1.8931   0.9237  -0.8328 N.pl3          1 S1                 0.0000
     22 ****         3.3021   1.0531  -1.1720 C.3            1 S1                 0.0000
     23 ****         3.9176   2.4068  -0.7485 C.3            1 S1                 0.0000
     24 ****         3.2509   3.4524  -1.4353 O.3            1 S1                 0.0000
     25 ****         3.8452   2.6850   0.7502 C.3            1 S1                 0.0000
     26 ****         5.0983   3.5113   1.0034 C.3            1 S1                 0.0000
     27 ****         6.0574   2.8810   0.1721 O.3            1 S1                 0.0000
     28 ****         5.4261   2.5122  -1.0500 C.3            1 S1                 0.0000
     29 ****        -0.9562  -1.0520  -1.6776 H              1 S1                 0.0000
     30 ****        -0.2910  -2.4247   0.0371 H              1 S1                 0.0000
     31 ****        -0.5530  -4.4691  -1.7095 H              1 S1                 0.0000
     32 ****        -0.8454  -4.7007   0.0039 H              1 S1                 0.0000
     33 ****        -2.8485  -4.7892  -2.1547 H              1 S1                 0.0000
     34 ****        -2.9764  -5.3298  -0.4865 H              1 S1                 0.0000
     35 ****        -3.7418  -2.7225  -1.6979 H              1 S1                 0.0000
     36 ****        -4.3722  -3.4596  -0.2300 H              1 S1                 0.0000
     37 ****        -2.4891  -2.7306   1.0527 H              1 S1                 0.0000
     38 ****        -2.7199  -0.3342  -0.8225 H              1 S1                 0.0000
     39 ****        -5.0199  -1.1168  -0.4390 H              1 S1                 0.0000
     40 ****        -4.7370  -1.2577   1.2841 H              1 S1                 0.0000
     41 ****        -4.5864   2.3059   1.7168 H              1 S1                 0.0000
     42 ****        -4.4704   0.7682   2.5560 H              1 S1                 0.0000
     43 ****        -2.4784   1.8908   0.5093 H              1 S1                 0.0000
     44 ****        -2.1990   1.7448   2.2365 H              1 S1                 0.0000
     45 ****         1.5317  -1.1836   3.1134 H              1 S1                 0.0000
     46 ****         0.9458   1.8644  -2.5309 H              1 S1                 0.0000
     47 ****         3.8438   0.2309  -0.7024 H              1 S1                 0.0000
     48 ****         3.4083   0.9120  -2.2485 H              1 S1                 0.0000
     49 ****         3.6480   4.2737  -1.1881 H              1 S1                 0.0000
     50 ****         2.9270   3.1835   1.0641 H              1 S1                 0.0000
     51 ****         3.9261   1.7534   1.3112 H              1 S1                 0.0000
     52 ****         4.9585   4.5466   0.6887 H              1 S1                 0.0000
     53 ****         5.4058   3.5040   2.0494 H              1 S1                 0.0000
     54 ****         5.8471   1.5669  -1.3942 H              1 S1                 0.0000
     55 ****         5.6418   3.2613  -1.8136 H              1 S1                 0.0000
     56 ****        -1.7365  -2.2033  -2.4500 LP             1 S1                 0.0000
     57 ****        -0.1147  -2.2654  -2.2696 LP             1 S1                 0.0000
     58 ****        -5.8377   0.6941   0.6481 LP             1 S1                 0.0000
     59 ****        -4.5988   1.1496  -0.3133 LP             1 S1                 0.0000
     60 ****        -2.4689  -0.6325   1.9850 LP             1 S1                 0.0000
     61 ****        -0.7664  -1.0438   2.9728 LP             1 S1                 0.0000
     62 ****         2.9642  -0.3354   1.4259 LP             1 S1                 0.0000
     63 ****        -1.2475   1.3544  -1.4488 LP             1 S1                 0.0000
     64 ****         2.2827   3.4569  -1.1852 LP             1 S1                 0.0000
     65 ****         3.3396   3.3182  -2.4223 LP             1 S1                 0.0000
     66 ****         6.4134   2.0649   0.6271 LP             1 S1                 0.0000
     67 ****         6.8093   3.5134  -0.0145 LP             1 S1                 0.0000
@<TRIPOS>BOND
    1    1    2 1     
    2    1   29 1     
    3    2    6 1     
    4    2    3 1     
    5    2   30 1     
    6    3    4 1     
    7    3   31 1     
    8    3   32 1     
    9    4    5 1     
   10    4   33 1     
   11    4   34 1     
   12    5    6 1     
   13    5   35 1     
   14    5   36 1     
   15    6    7 1     
   16    6   37 1     
   17    7   12 1     
   18    7    8 1     
   19    7   38 1     
   20    8    9 1     
   21    8   39 1     
   22    8   40 1     
   23    9   10 1     
   24   10   11 1     
   25   10   41 1     
   26   10   42 1     
   27   11   12 1     
   28   11   43 1     
   29   11   44 1     
   30   12   13 1     
   31   13   18 ar    
   32   13   14 ar    
   33   14   15 ar    
   34   15   16 ar    
   35   15   45 1     
   36   16   17 ar    
   37   17   21 1     
   38   17   18 ar    
   39   18   19 1     
   40   19   20 2     
   41   20   21 1     
   42   20   46 1     
   43   21   22 1     
   44   22   23 1     
   45   22   47 1     
   46   22   48 1     
   47   23   28 1     
   48   23   24 1     
   49   23   25 1     
   50   24   49 1     
   51   25   26 1     
   52   25   50 1     
   53   25   51 1     
   54   26   27 1     
   55   26   52 1     
   56   26   53 1     
   57   27   28 1     
   58   28   54 1     
   59   28   55 1     
   60    1   56 1     
   61    1   57 1     
   62    9   58 1     
   63    9   59 1     
   64   12   60 1     
   65   14   61 1     
   66   16   62 1     
   67   19   63 1     
   68   24   64 1     
   69   24   65 1     
   70   27   66 1     
   71   27   67 1     
@<TRIPOS>SUBSTRUCTURE
      1 S1             1
@<TRIPOS>SET
LONE_PAIRS      STATIC     ATOMS    <user>   **** ""
12 56 57 58 59 60 61 62 63 64 65 66 67
DONOR_HYDROGENS      STATIC     ATOMS    <user>   **** ""
2 29 49
ATOM$BLUE        STATIC     ATOMS    COLORGROUP SYSTEM
12 56 57 58 59 60 61 62 63 64 65 66 67
ATOM$RED        STATIC     ATOMS    COLORGROUP SYSTEM
2 29 49
