AV-unprocessed.smi:1399|AV-procd|sdf|5682|dock3
  -GOLD-   22720 5303D 1   1.00000     0.00000
 Structure written by MMmdl.
 38 39  0  0  0  0  0  0  0  0  2 V2000
  148.1336  142.2531  155.3215 N   0  0  0  0  0  0  0  0  0  0  0  0
  146.9293  142.1470  154.7553 C   0  0  0  0  0  0  0  0  0  0  0  0
  146.5160  142.9649  153.9352 O   0  0  0  0  0  0  0  0  0  0  0  0
  146.0617  140.9609  155.1896 C   0  0  0  0  0  0  0  0  0  0  0  0
  145.8785  139.9539  154.1129 N   0  3  2  0  0  0  0  0  0  0  0  0
  145.3919  138.6495  154.6297 C   0  0  0  0  0  0  0  0  0  0  0  0
  145.0685  137.6822  153.4780 C   0  0  0  0  0  0  0  0  0  0  0  0
  146.2836  137.4803  152.5580 C   0  0  1  0  0  0  0  0  0  0  0  0
  145.9125  136.6353  151.4264 N   0  0  0  0  0  0  0  0  0  0  0  0
  145.1458  135.5376  151.5005 C   0  0  0  0  0  0  0  0  0  0  0  0
  144.6674  135.1128  152.5521 O   0  0  0  0  0  0  0  0  0  0  0  0
  144.9783  134.9764  150.2922 N   0  0  0  0  0  0  0  0  0  0  0  0
  144.2221  133.8185  149.9812 C   0  0  0  0  0  0  0  0  0  0  0  0
  144.2210  133.0336  148.7907 C   0  0  0  0  0  0  0  0  0  0  0  0
  143.3712  132.0205  148.8845 N   0  0  0  0  0  0  0  0  0  0  0  0
  142.8318  132.1501  150.1176 N   0  0  0  0  0  0  0  0  0  0  0  0
  143.3215  133.2301  150.8184 C   0  0  0  0  0  0  0  0  0  0  0  0
  146.7986  138.8486  152.0744 C   0  0  0  0  0  0  0  0  0  0  0  0
  147.0847  139.7859  153.2590 C   0  0  0  0  0  0  0  0  0  0  0  0
  142.1390  131.5004  150.4617 H   0  0  0  0  0  0  0  0  0  0  0  0
  148.7394  143.0212  155.0689 H   0  0  0  0  0  0  0  0  0  0  0  0
  148.4382  141.5719  156.0021 H   0  0  0  0  0  0  0  0  0  0  0  0
  146.4753  140.4868  156.0814 H   0  0  0  0  0  0  0  0  0  0  0  0
  145.0932  141.3738  155.4751 H   0  0  0  0  0  0  0  0  0  0  0  0
  146.1440  138.2143  155.2898 H   0  0  0  0  0  0  0  0  0  0  0  0
  144.4934  138.8020  155.2288 H   0  0  0  0  0  0  0  0  0  0  0  0
  144.7435  136.7236  153.8841 H   0  0  0  0  0  0  0  0  0  0  0  0
  144.2286  138.0749  152.9027 H   0  0  0  0  0  0  0  0  0  0  0  0
  147.0697  136.9859  153.1327 H   0  0  0  0  0  0  0  0  0  0  0  0
  146.2615  136.9083  150.5191 H   0  0  0  0  0  0  0  0  0  0  0  0
  145.4342  135.4262  149.5120 H   0  0  0  0  0  0  0  0  0  0  0  0
  144.7896  133.1528  147.8805 H   0  0  0  0  0  0  0  0  0  0  0  0
  142.9955  133.4753  151.8186 H   0  0  0  0  0  0  0  0  0  0  0  0
  147.7055  138.7224  151.4817 H   0  0  0  0  0  0  0  0  0  0  0  0
  146.0619  139.3123  151.4162 H   0  0  0  0  0  0  0  0  0  0  0  0
  147.4133  140.7530  152.8771 H   0  0  0  0  0  0  0  0  0  0  0  0
  147.9049  139.3899  153.8597 H   0  0  0  0  0  0  0  0  0  0  0  0
  145.1453  140.3151  153.5187 H   0  0  0  0  0  0  0  0  0  0  0  0
  1  2  1  0  0  0  0
  1 21  1  0  0  0  0
  1 22  1  0  0  0  0
  2  3  2  0  0  0  0
  2  4  1  0  0  0  0
  4  5  1  0  0  0  0
  4 23  1  0  0  0  0
  4 24  1  0  0  0  0
  5 19  1  0  0  0  0
  5  6  1  0  0  0  0
  5 38  1  0  0  0  0
  6  7  1  0  0  0  0
  6 25  1  0  0  0  0
  6 26  1  0  0  0  0
  7  8  1  0  0  0  0
  7 27  1  0  0  0  0
  7 28  1  0  0  0  0
  8  9  1  0  0  0  0
  8 18  1  0  0  0  0
  8 29  1  0  0  0  0
  9 10  1  0  0  0  0
  9 30  1  0  0  0  0
 10 11  2  0  0  0  0
 10 12  1  0  0  0  0
 12 13  1  0  0  0  0
 12 31  1  0  0  0  0
 13 17  2  0  0  0  0
 13 14  1  0  0  0  0
 14 15  2  0  0  0  0
 14 32  1  0  0  0  0
 15 16  1  0  0  0  0
 16 20  1  0  0  0  0
 16 17  1  0  0  0  0
 17 33  1  0  0  0  0
 18 19  1  0  0  0  0
 18 34  1  0  0  0  0
 18 35  1  0  0  0  0
 19 36  1  0  0  0  0
 19 37  1  0  0  0  0
M  CHG  1   5   1
M  END
> <s_m_source_file>
AV-unprocessed.smi

> <i_m_source_file_index>
1399

> <i_lp_mmshare_version>
43012

> <i_f3d_flags>
0

> <s_epik_input>
W05IMl1DKD1PKVtDSDJdTjFbQ0gyXVtDSDJdW0NIXShbQ0gyXVtDSDJdMSlbTkhdQyg9TylbTkhdYzJbY0hdbltuSF1bY0hdMg==

> <s_epik_cmdline>
J2VwaWtfcHl0aG9uJywgJy1waCcsICc3LjAnLCAnLXRuJywgJzgnLCAnLW1hJywgJzIwMCcsICctbWV0YWxfYmluZGluZycsICctaW1hZScsICc8aW5maWxlLm1hZT4nLCAnLW9tYWUnLCAnPG91dGZpbGUubWFlPic=

> <r_lp_tautomer_probability>
0.5

> <r_epik_Ionization_Penalty>
0.838927

> <r_epik_Ionization_Penalty_Charging>
0.838844

> <r_epik_Ionization_Penalty_Neutral>
8.28742e-05

> <r_epik_State_Penalty>
0.8734

> <r_epik_Charging_Adjusted_Penalty>
1.71224

> <i_epik_Tot_Q>
1

> <i_epik_Tot_abs_Q>
1

> <r_epik_Metal_State_Penalty>
0.890702

> <b_epik_Metal_Only>
0

> <s_lp_Force_Field>
OPLS_2005

> <r_lp_Energy>
15.1462

> <b_lp_Chiralities_Consistent>
1

> <s_lp_Variant>
AV-unprocessed.smi:1399-2

> <Gold.Version>
5.8.1

> <Gold.Id.Protein>
6NUR|6NUR_protein|mol2

> <Gold.PLP.Fitness>
44.2244

> <Gold.PLP.PLP>
-28.4469

> <Gold.PLP.part.hbond>
-6.9690

> <Gold.PLP.part.metal>
0.0000

> <Gold.PLP.part.buried>
0.7562

> <Gold.PLP.part.nonpolar>
-23.6194

> <Gold.PLP.part.repulsive>
0.9288

> <Gold.PLP.ligand.clash>
0.0000

> <Gold.PLP.ligand.torsion>
0.5586

> <Gold.PLP.Chemscore.Hbond>
4.7857

> <Gold.PLP.Chemscore.CHOScore>
0.8335

> <Gold.PLP.Chemscore.Metal>
0.0000

> <Gold.Chemscore.Hbonds>
donor molecule, donor type, donor heavy atom, donor atom, acceptor molecule, acceptor atom, score
      L1  H     1    21       P1  8028  0.66
      L1  H     5    38       P1 10175  2.00
      L1  H    12    31       P1  7921  0.62
      L1  H    16    20       P1 10952  0.67
      P1  H 10785 10796       L1    15  0.82
      L1  C    14    32       P1  7921  0.85

> <Gold.PLP.Chemscore.Internal.Correction>
0.0371

> <Gold.Rescore>
     Score         DG    S(hbond)    S(metal)    S(lipo)     H(rot)  DE(clash)    DE(int)     intcor
     12.02     -17.29       3.10        0.00      58.20       2.09       1.84       3.42       ----

> <Gold.Chemscore.Fitness>
12.0231

> <Gold.Chemscore.DG>
-17.2905

> <Gold.Chemscore.ZeroCoef>
-5.4800

> <Gold.Chemscore.Hbond>
3.0964

> <Gold.Chemscore.Metal>
0.0000

> <Gold.Chemscore.Lipo>
58.2040

> <Gold.Chemscore.Internal_Hbond>
0.0000

> <Gold.Chemscore.DEClash>
1.8446

> <Gold.Chemscore.DEInternal>
3.4228

> <Gold.Chemscore.Rot>
2.0865

> <Gold.Chemscore.Internal.Correction>
   9.000000E+99

> <Gold.Chemscore.Hbonds>
donor molecule, donor type, donor heavy atom, donor atom, acceptor molecule, acceptor atom, score
      L1  H     1    21       P1  8028  0.66
      L1  H     5    38       P1 10175  1.00
      L1  H    12    31       P1  7921  0.60
      L1  H    16    20       P1 10952  0.23
      P1  H 10785 10796       L1    15  0.16

> <Gold.Chemscore.Hbond.Weighted>
-10.3421

> <Gold.Chemscore.Metal.Weighted>
-0.0000

> <Gold.Chemscore.Lipo.Weighted>
-6.8099

> <Gold.Chemscore.Internal_Hbond.Weighted>
0.0000

> <Gold.Chemscore.DEClash.Weighted>
1.8446

> <Gold.Chemscore.DEInternal.Weighted>
3.4228

> <Gold.Chemscore.Rot.Weighted>
5.3415

> <Gold.Chemscore.Internal.Correction.Weighted>
   9.000000E+99

> <Gold.Protein.RotatedTorsions>
[ 6907 6896 6895 6894 ] final -178.76 input  -60.11 | X-H torsion
[ 7974 7965 7964 7962 ] final  -22.16 input  175.53 | X-H torsion
[ 8008 7997 7996 7995 ] final -104.67 input   59.86 | X-H torsion
[ 10167 10162 10161 10158 ] final  154.98 input  -65.29 | X-H torsion
[ 10718 10713 10712 10709 ] final  -84.66 input   66.30 | X-H torsion
[ 10763 10752 10751 10750 ] final  -25.53 input  -60.55 | X-H torsion
[ 11005 11000 10999 10996 ] final   35.63 input  -57.11 | X-H torsion

> <Gold.Protein.ActiveResidues>
 VAL166  LYS551  ARG553  GLY616  TRP617  ASP618  TYR619  PRO620  LYS621  CYS622 
 ASP623  PHE694  ASN695  SER759  ASP760  ASP761  ALA762  ILE779  LEU786  VAL792 
 PHE793  MET794  SER795  GLU796  ALA797  LYS798  CYS799  TRP800  GLU811  SER814 

> <Gold.Protein.RotatedAtoms>
  151.6424  133.3325  159.3132 H   0  0  0  0  0  0  0  0  0  0  0  0  # atno 6907 bound_to 6896
  150.8001  134.7093  159.6604 H   0  0  0  0  0  0  0  0  0  0  0  0  # atno 6908 bound_to 6896
  152.4092  134.6157  160.0089 H   0  0  0  0  0  0  0  0  0  0  0  0  # atno 6909 bound_to 6896
  146.1691  140.4441  142.8539 H   0  0  0  0  0  0  0  0  0  0  0  0  # atno 7974 bound_to 7965
  154.8887  140.0416  157.1825 H   0  0  0  0  0  0  0  0  0  0  0  0  # atno 8008 bound_to 7997
  154.8563  140.2937  155.5545 H   0  0  0  0  0  0  0  0  0  0  0  0  # atno 8009 bound_to 7997
  156.2997  140.2455  156.3531 H   0  0  0  0  0  0  0  0  0  0  0  0  # atno 8010 bound_to 7997
  139.4822  144.5139  151.7982 H   0  0  0  0  0  0  0  0  0  0  0  0  # atno 10167 bound_to 10162
  156.0004  130.4705  150.4444 H   0  0  0  0  0  0  0  0  0  0  0  0  # atno 10718 bound_to 10713
  153.7013  135.6956  153.5062 H   0  0  0  0  0  0  0  0  0  0  0  0  # atno 10763 bound_to 10752
  153.2340  135.4328  155.0625 H   0  0  0  0  0  0  0  0  0  0  0  0  # atno 10764 bound_to 10752
  154.8343  135.3491  154.6553 H   0  0  0  0  0  0  0  0  0  0  0  0  # atno 10765 bound_to 10752
  140.2407  134.3418  155.7927 H   0  0  0  0  0  0  0  0  0  0  0  0  # atno 11005 bound_to 11000
  144.8137  140.6430  143.6399 LP  0  0  0  0  0  0  0  0  0  0  0  0  # atno 17320 bound_to 7965
  145.4387  139.1538  143.3982 LP  0  0  0  0  0  0  0  0  0  0  0  0  # atno 17321 bound_to 7965
  140.4645  144.1675  150.5910 LP  0  0  0  0  0  0  0  0  0  0  0  0  # atno 17342 bound_to 10162
  140.4449  143.2511  151.9424 LP  0  0  0  0  0  0  0  0  0  0  0  0  # atno 17343 bound_to 10162
  157.2482  131.0540  151.2395 LP  0  0  0  0  0  0  0  0  0  0  0  0  # atno 17370 bound_to 10713
  157.3554  130.7103  149.6467 LP  0  0  0  0  0  0  0  0  0  0  0  0  # atno 17371 bound_to 10713
  141.2211  133.7297  156.8881 LP  0  0  0  0  0  0  0  0  0  0  0  0  # atno 17394 bound_to 11000
  140.1656  134.9135  157.2770 LP  0  0  0  0  0  0  0  0  0  0  0  0  # atno 17395 bound_to 11000

$$$$
