AV-unprocessed.smi:3046|AV-procd|sdf|11619|dock1
  -GOLD-   2272017 03D 1   1.00000     0.00000
 Structure written by MMmdl.
 37 37  0  0  0  0  0  0  0  0  1 V2000
  147.1860  141.0574  154.3260 C   0  0  0  0  0  0  0  0  0  0  0  0
  148.4982  141.0962  154.6007 C   0  0  0  0  0  0  0  0  0  0  0  0
  149.3721  139.8721  154.7921 C   0  0  0  0  0  0  0  0  0  0  0  0
  150.0179  139.8815  156.0983 N   0  0  0  0  0  0  0  0  0  0  0  0
  151.3418  139.8108  156.3078 C   0  0  0  0  0  0  0  0  0  0  0  0
  152.1677  139.7487  155.3964 O   0  0  0  0  0  0  0  0  0  0  0  0
  151.8033  139.7681  157.7737 C   0  0  2  0  0  0  0  0  0  0  0  0
  150.7347  139.1117  158.6619 C   0  0  0  0  0  0  0  0  0  0  0  0
  152.1468  141.0972  158.3098 N   0  0  0  0  0  0  0  0  0  0  0  0
  152.8900  141.0952  159.5700 C   0  0  1  0  0  0  0  0  0  0  0  0
  154.0158  140.0537  159.4785 C   0  0  0  0  0  0  0  0  0  0  0  0
  153.4494  142.5089  159.8240 C   0  0  0  0  0  0  0  0  0  0  0  0
  152.4887  143.5474  159.4927 N   0  0  0  0  0  0  0  0  0  0  0  0
  151.9953  144.5456  160.3061 C   0  0  0  0  0  0  0  0  0  0  0  0
  151.1106  145.2744  159.5644 C   0  0  0  0  0  0  0  0  0  0  0  0
  151.1330  144.6386  158.2917 C   0  0  0  0  0  0  0  0  0  0  0  0
  151.9600  143.6067  158.2512 N   0  0  0  0  0  0  0  0  0  0  0  0
  146.6617  140.1190  154.2182 H   0  0  0  0  0  0  0  0  0  0  0  0
  146.6182  141.9681  154.2046 H   0  0  0  0  0  0  0  0  0  0  0  0
  148.9856  142.0550  154.7044 H   0  0  0  0  0  0  0  0  0  0  0  0
  148.7648  138.9733  154.6738 H   0  0  0  0  0  0  0  0  0  0  0  0
  150.1420  139.8373  154.0206 H   0  0  0  0  0  0  0  0  0  0  0  0
  149.4133  139.9232  156.9060 H   0  0  0  0  0  0  0  0  0  0  0  0
  152.6987  139.1460  157.8325 H   0  0  0  0  0  0  0  0  0  0  0  0
  150.4722  138.1178  158.2972 H   0  0  0  0  0  0  0  0  0  0  0  0
  149.8200  139.7051  158.6993 H   0  0  0  0  0  0  0  0  0  0  0  0
  151.0956  138.9976  159.6847 H   0  0  0  0  0  0  0  0  0  0  0  0
  152.6127  141.6756  157.6253 H   0  0  0  0  0  0  0  0  0  0  0  0
  152.2431  140.8375  160.4098 H   0  0  0  0  0  0  0  0  0  0  0  0
  154.5964  140.0269  160.4009 H   0  0  0  0  0  0  0  0  0  0  0  0
  154.7025  140.2799  158.6619 H   0  0  0  0  0  0  0  0  0  0  0  0
  153.6217  139.0505  159.3142 H   0  0  0  0  0  0  0  0  0  0  0  0
  153.7074  142.6229  160.8776 H   0  0  0  0  0  0  0  0  0  0  0  0
  154.3699  142.6722  159.2601 H   0  0  0  0  0  0  0  0  0  0  0  0
  152.3085  144.6494  161.3345 H   0  0  0  0  0  0  0  0  0  0  0  0
  150.5350  146.1309  159.8822 H   0  0  0  0  0  0  0  0  0  0  0  0
  150.5769  144.8946  157.4020 H   0  0  0  0  0  0  0  0  0  0  0  0
  1  2  2  0  0  0  0
  1 18  1  0  0  0  0
  1 19  1  0  0  0  0
  2  3  1  0  0  0  0
  2 20  1  0  0  0  0
  3  4  1  0  0  0  0
  3 21  1  0  0  0  0
  3 22  1  0  0  0  0
  4  5  1  0  0  0  0
  4 23  1  0  0  0  0
  5  6  2  0  0  0  0
  5  7  1  0  0  0  0
  7  8  1  0  0  0  0
  7  9  1  0  0  0  0
  7 24  1  0  0  0  0
  8 25  1  0  0  0  0
  8 26  1  0  0  0  0
  8 27  1  0  0  0  0
  9 10  1  0  0  0  0
  9 28  1  0  0  0  0
 10 11  1  0  0  0  0
 10 12  1  0  0  0  0
 10 29  1  0  0  0  0
 11 30  1  0  0  0  0
 11 31  1  0  0  0  0
 11 32  1  0  0  0  0
 12 13  1  0  0  0  0
 12 33  1  0  0  0  0
 12 34  1  0  0  0  0
 13 17  1  0  0  0  0
 13 14  1  0  0  0  0
 14 15  2  0  0  0  0
 14 35  1  0  0  0  0
 15 16  1  0  0  0  0
 15 36  1  0  0  0  0
 16 17  2  0  0  0  0
 16 37  1  0  0  0  0
M  END
> <s_m_source_file>
AV-unprocessed.smi

> <i_m_source_file_index>
3046

> <i_lp_mmshare_version>
43012

> <i_f3d_flags>
0

> <s_epik_input>
W0NIMl09W0NIXVtDSDJdW05IXUMoPU8pW0NASF0oW0NIM10pW05IXVtDQEhdKFtDSDNdKVtDSDJdbjFbY0hdW2NIXVtjSF1uMQ==

> <s_epik_cmdline>
J2VwaWtfcHl0aG9uJywgJy1waCcsICc3LjAnLCAnLXRuJywgJzgnLCAnLW1hJywgJzIwMCcsICctbWV0YWxfYmluZGluZycsICctaW1hZScsICc8aW5maWxlLm1hZT4nLCAnLW9tYWUnLCAnPG91dGZpbGUubWFlPic=

> <r_lp_tautomer_probability>
1

> <r_epik_Ionization_Penalty>
0.950627

> <r_epik_Ionization_Penalty_Charging>
0

> <r_epik_Ionization_Penalty_Neutral>
0.950627

> <r_epik_State_Penalty>
0.994814

> <r_epik_Charging_Adjusted_Penalty>
0.994814

> <i_epik_Tot_Q>
0

> <i_epik_Tot_abs_Q>
0

> <r_epik_Metal_State_Penalty>
0.994788

> <b_epik_Metal_Only>
0

> <s_lp_Force_Field>
OPLS_2005

> <r_lp_Energy>
6.36017

> <b_lp_Chiralities_Consistent>
1

> <s_lp_Variant>
AV-unprocessed.smi:3046-7

> <Gold.Version>
5.8.1

> <Gold.Id.Protein>
6NUR|6NUR_protein|mol2

> <Gold.PLP.Fitness>
46.3229

> <Gold.PLP.PLP>
-41.1821

> <Gold.PLP.part.hbond>
-1.9806

> <Gold.PLP.part.metal>
0.0000

> <Gold.PLP.part.buried>
-3.1257

> <Gold.PLP.part.nonpolar>
-35.2484

> <Gold.PLP.part.repulsive>
0.1144

> <Gold.PLP.ligand.clash>
0.0000

> <Gold.PLP.ligand.torsion>
1.0892

> <Gold.PLP.Chemscore.Hbond>
1.3705

> <Gold.PLP.Chemscore.CHOScore>
1.0000

> <Gold.PLP.Chemscore.Metal>
0.0000

> <Gold.Chemscore.Hbonds>
donor molecule, donor type, donor heavy atom, donor atom, acceptor molecule, acceptor atom, score
      P1  H  7989  7998       L1     6  0.35
      P1  H  7997  8010       L1     6  0.19
      L1  C    16    37       P1  8028  1.00

> <Gold.PLP.Chemscore.Internal.Correction>
0.2079

> <Gold.Rescore>
     Score         DG    S(hbond)    S(metal)    S(lipo)     H(rot)  DE(clash)    DE(int)     intcor
     11.86     -14.78       1.19        0.00      93.01       2.17       0.14       2.78       ----

> <Gold.Chemscore.Fitness>
11.8581

> <Gold.Chemscore.DG>
-14.7750

> <Gold.Chemscore.ZeroCoef>
-5.4800

> <Gold.Chemscore.Hbond>
1.1911

> <Gold.Chemscore.Metal>
0.0000

> <Gold.Chemscore.Lipo>
93.0065

> <Gold.Chemscore.Internal_Hbond>
0.0000

> <Gold.Chemscore.DEClash>
0.1416

> <Gold.Chemscore.DEInternal>
2.7753

> <Gold.Chemscore.Rot>
2.1739

> <Gold.Chemscore.Internal.Correction>
   9.000000E+99

> <Gold.Chemscore.Hbonds>
donor molecule, donor type, donor heavy atom, donor atom, acceptor molecule, acceptor atom, score
      P1  H  7989  7998       L1     6  0.34
      P1  H  7997  8010       L1     6  0.20

> <Gold.Chemscore.Hbond.Weighted>
-3.9784

> <Gold.Chemscore.Metal.Weighted>
-0.0000

> <Gold.Chemscore.Lipo.Weighted>
-10.8818

> <Gold.Chemscore.Internal_Hbond.Weighted>
0.0000

> <Gold.Chemscore.DEClash.Weighted>
0.1416

> <Gold.Chemscore.DEInternal.Weighted>
2.7753

> <Gold.Chemscore.Rot.Weighted>
5.5652

> <Gold.Chemscore.Internal.Correction.Weighted>
   9.000000E+99

> <Gold.Protein.RotatedTorsions>
[ 6907 6896 6895 6894 ] final  -43.67 input  -60.11 | X-H torsion
[ 7974 7965 7964 7962 ] final  173.84 input  175.53 | X-H torsion
[ 8008 7997 7996 7995 ] final   98.11 input   59.86 | X-H torsion
[ 10167 10162 10161 10158 ] final   94.74 input  -65.29 | X-H torsion
[ 10718 10713 10712 10709 ] final  127.33 input   66.30 | X-H torsion
[ 10763 10752 10751 10750 ] final   73.04 input  -60.55 | X-H torsion
[ 11005 11000 10999 10996 ] final   97.28 input  -57.11 | X-H torsion

> <Gold.Protein.ActiveResidues>
 VAL166  LYS551  ARG553  GLY616  TRP617  ASP618  TYR619  PRO620  LYS621  CYS622 
 ASP623  PHE694  ASN695  SER759  ASP760  ASP761  ALA762  ILE779  LEU786  VAL792 
 PHE793  MET794  SER795  GLU796  ALA797  LYS798  CYS799  TRP800  GLU811  SER814 

> <Gold.Protein.RotatedAtoms>
  150.9414  134.8822  159.7614 H   0  0  0  0  0  0  0  0  0  0  0  0  # atno 6907 bound_to 6896
  152.5081  134.3937  159.9402 H   0  0  0  0  0  0  0  0  0  0  0  0  # atno 6908 bound_to 6896
  151.3957  133.3734  159.2761 H   0  0  0  0  0  0  0  0  0  0  0  0  # atno 6909 bound_to 6896
  144.7234  139.9707  143.6437 H   0  0  0  0  0  0  0  0  0  0  0  0  # atno 7974 bound_to 7965
  156.0971  140.3248  155.7892 H   0  0  0  0  0  0  0  0  0  0  0  0  # atno 8008 bound_to 7997
  155.4899  140.0560  157.2972 H   0  0  0  0  0  0  0  0  0  0  0  0  # atno 8009 bound_to 7997
  154.4673  140.1995  156.0100 H   0  0  0  0  0  0  0  0  0  0  0  0  # atno 8010 bound_to 7997
  139.8055  144.6796  150.9708 H   0  0  0  0  0  0  0  0  0  0  0  0  # atno 10167 bound_to 10162
  157.5342  131.1098  150.8961 H   0  0  0  0  0  0  0  0  0  0  0  0  # atno 10718 bound_to 10713
  153.0496  135.5078  154.7833 H   0  0  0  0  0  0  0  0  0  0  0  0  # atno 10763 bound_to 10752
  154.6706  135.2952  154.9749 H   0  0  0  0  0  0  0  0  0  0  0  0  # atno 10764 bound_to 10752
  154.0568  135.6696  153.4859 H   0  0  0  0  0  0  0  0  0  0  0  0  # atno 10765 bound_to 10752
  139.8777  134.8993  156.4284 H   0  0  0  0  0  0  0  0  0  0  0  0  # atno 11005 bound_to 11000
  146.0565  139.3561  143.0607 LP  0  0  0  0  0  0  0  0  0  0  0  0  # atno 17320 bound_to 7965
  145.8148  140.9708  143.0930 LP  0  0  0  0  0  0  0  0  0  0  0  0  # atno 17321 bound_to 7965
  140.7819  143.4238  151.0800 LP  0  0  0  0  0  0  0  0  0  0  0  0  # atno 17342 bound_to 10162
  139.7907  143.8222  152.3151 LP  0  0  0  0  0  0  0  0  0  0  0  0  # atno 17343 bound_to 10162
  156.9533  130.5428  149.5283 LP  0  0  0  0  0  0  0  0  0  0  0  0  # atno 17370 bound_to 10713
  156.0446  130.5524  150.8851 LP  0  0  0  0  0  0  0  0  0  0  0  0  # atno 17371 bound_to 10713
  140.9084  133.7729  155.9762 LP  0  0  0  0  0  0  0  0  0  0  0  0  # atno 17394 bound_to 11000
  140.8573  134.2882  157.5249 LP  0  0  0  0  0  0  0  0  0  0  0  0  # atno 17395 bound_to 11000

$$$$
