AV-unprocessed.smi:2585|AV-procd|sdf|10144|dock9
  -GOLD-   2272014153D 1   1.00000     0.00000
 Structure written by MMmdl.
 34 35  0  0  0  0  0  0  0  0  1 V2000
  150.8453  141.0384  156.7948 C   0  0  0  0  0  0  0  0  0  0  0  0
  151.3090  140.0094  155.8075 C   0  0  0  0  0  0  0  0  0  0  0  0
  152.4462  140.1876  155.1683 N   0  0  0  0  0  0  0  0  0  0  0  0
  152.7149  138.8905  154.1359 S   0  0  0  0  0  0  0  0  0  0  0  0
  151.2519  138.0374  154.5471 C   0  0  0  0  0  0  0  0  0  0  0  0
  150.8268  136.8479  154.0474 N   0  0  0  0  0  0  0  0  0  0  0  0
  151.1400  135.6051  154.4518 C   0  0  0  0  0  0  0  0  0  0  0  0
  151.9007  135.3293  155.3791 O   0  0  0  0  0  0  0  0  0  0  0  0
  150.5072  134.6871  153.7018 N   0  0  0  0  0  0  0  0  0  0  0  0
  150.5725  133.2208  153.7991 C   0  0  0  0  0  0  0  0  0  0  0  0
  152.0418  132.7688  153.9446 C   0  0  0  0  0  0  0  0  0  0  0  0
  149.7832  132.7953  155.0563 C   0  0  0  0  0  0  0  0  0  0  0  0
  148.2683  133.0257  154.8963 C   0  0  0  0  0  0  0  0  0  0  0  0
  147.7875  132.3358  153.7488 O   0  0  0  0  0  0  0  0  0  0  0  0
  148.3868  132.7868  152.5400 C   0  0  0  0  0  0  0  0  0  0  0  0
  149.9044  132.5339  152.5829 C   0  0  0  0  0  0  0  0  0  0  0  0
  150.6074  138.8036  155.4799 C   0  0  0  0  0  0  0  0  0  0  0  0
  149.1220  138.4361  156.2269 Cl  0  0  0  0  0  0  0  0  0  0  0  0
  149.8662  141.4316  156.5205 H   0  0  0  0  0  0  0  0  0  0  0  0
  151.5319  141.8840  156.8554 H   0  0  0  0  0  0  0  0  0  0  0  0
  150.7623  140.6125  157.7952 H   0  0  0  0  0  0  0  0  0  0  0  0
  150.1868  136.9142  153.2696 H   0  0  0  0  0  0  0  0  0  0  0  0
  149.9089  135.0415  152.9700 H   0  0  0  0  0  0  0  0  0  0  0  0
  152.1093  131.6935  154.1137 H   0  0  0  0  0  0  0  0  0  0  0  0
  152.5267  133.2626  154.7876 H   0  0  0  0  0  0  0  0  0  0  0  0
  152.6283  132.9868  153.0521 H   0  0  0  0  0  0  0  0  0  0  0  0
  149.9501  131.7350  155.2520 H   0  0  0  0  0  0  0  0  0  0  0  0
  150.1492  133.3263  155.9363 H   0  0  0  0  0  0  0  0  0  0  0  0
  147.7410  132.6524  155.7742 H   0  0  0  0  0  0  0  0  0  0  0  0
  148.0351  134.0886  154.8183 H   0  0  0  0  0  0  0  0  0  0  0  0
  147.9424  132.2430  151.7064 H   0  0  0  0  0  0  0  0  0  0  0  0
  148.1662  133.8434  152.3810 H   0  0  0  0  0  0  0  0  0  0  0  0
  150.3609  132.8496  151.6449 H   0  0  0  0  0  0  0  0  0  0  0  0
  150.0708  131.4574  152.6417 H   0  0  0  0  0  0  0  0  0  0  0  0
  1  2  1  0  0  0  0
  1 19  1  0  0  0  0
  1 20  1  0  0  0  0
  1 21  1  0  0  0  0
  2 17  1  0  0  0  0
  2  3  2  0  0  0  0
  3  4  1  0  0  0  0
  4  5  1  0  0  0  0
  5  6  1  0  0  0  0
  5 17  2  0  0  0  0
  6  7  1  0  0  0  0
  6 22  1  0  0  0  0
  7  8  2  0  0  0  0
  7  9  1  0  0  0  0
  9 10  1  0  0  0  0
  9 23  1  0  0  0  0
 10 16  1  0  0  0  0
 10 11  1  0  0  0  0
 10 12  1  0  0  0  0
 11 24  1  0  0  0  0
 11 25  1  0  0  0  0
 11 26  1  0  0  0  0
 12 13  1  0  0  0  0
 12 27  1  0  0  0  0
 12 28  1  0  0  0  0
 13 14  1  0  0  0  0
 13 29  1  0  0  0  0
 13 30  1  0  0  0  0
 14 15  1  0  0  0  0
 15 16  1  0  0  0  0
 15 31  1  0  0  0  0
 15 32  1  0  0  0  0
 16 33  1  0  0  0  0
 16 34  1  0  0  0  0
 17 18  1  0  0  0  0
M  END
> <s_m_source_file>
AV-unprocessed.smi

> <i_m_source_file_index>
2585

> <i_lp_mmshare_version>
43012

> <i_f3d_flags>
0

> <s_epik_input>
W0NIM11jMW5zYyhjMUNsKVtOSF1DKD1PKVtOSF1DMihbQ0gzXSlbQ0gyXVtDSDJdT1tDSDJdW0NIMl0y

> <s_epik_cmdline>
J2VwaWtfcHl0aG9uJywgJy1waCcsICc3LjAnLCAnLXRuJywgJzgnLCAnLW1hJywgJzIwMCcsICctbWV0YWxfYmluZGluZycsICctaW1hZScsICc8aW5maWxlLm1hZT4nLCAnLW9tYWUnLCAnPG91dGZpbGUubWFlPic=

> <r_lp_tautomer_probability>
1

> <r_epik_Ionization_Penalty>
3.55893e-05

> <r_epik_Ionization_Penalty_Charging>
0

> <r_epik_Ionization_Penalty_Neutral>
3.55893e-05

> <r_epik_State_Penalty>
-0

> <r_epik_Charging_Adjusted_Penalty>
0

> <i_epik_Tot_Q>
0

> <i_epik_Tot_abs_Q>
0

> <r_epik_Metal_State_Penalty>
-0

> <b_epik_Metal_Only>
0

> <s_lp_Force_Field>
OPLS_2005

> <r_lp_Energy>
7.47922

> <b_lp_Chiralities_Consistent>
1

> <s_lp_Variant>
AV-unprocessed.smi:2585-1

> <Gold.Version>
5.8.1

> <Gold.Id.Protein>
6NUR|6NUR_protein|mol2

> <Gold.PLP.Fitness>
36.9069

> <Gold.PLP.PLP>
-29.9728

> <Gold.PLP.part.hbond>
-4.7648

> <Gold.PLP.part.metal>
0.0000

> <Gold.PLP.part.buried>
-2.6400

> <Gold.PLP.part.nonpolar>
-23.4488

> <Gold.PLP.part.repulsive>
0.2053

> <Gold.PLP.ligand.clash>
0.0000

> <Gold.PLP.ligand.torsion>
0.9612

> <Gold.PLP.Chemscore.Hbond>
2.9500

> <Gold.PLP.Chemscore.CHOScore>
0.0000

> <Gold.PLP.Chemscore.Metal>
0.0000

> <Gold.Chemscore.Hbonds>
donor molecule, donor type, donor heavy atom, donor atom, acceptor molecule, acceptor atom, score
      L1  H     6    22       P1  7948  0.65
      P1  H  7997  8009       L1     3  0.49
      P1  H 10752 10763       L1     8  0.36

> <Gold.PLP.Chemscore.Internal.Correction>
0.0065

> <Gold.Rescore>
     Score         DG    S(hbond)    S(metal)    S(lipo)     H(rot)  DE(clash)    DE(int)     intcor
     16.89     -17.55       2.68        0.00      48.59       1.00       0.02       0.64       ----

> <Gold.Chemscore.Fitness>
16.8898

> <Gold.Chemscore.DG>
-17.5468

> <Gold.Chemscore.ZeroCoef>
-5.4800

> <Gold.Chemscore.Hbond>
2.6770

> <Gold.Chemscore.Metal>
0.0000

> <Gold.Chemscore.Lipo>
48.5946

> <Gold.Chemscore.Internal_Hbond>
0.0000

> <Gold.Chemscore.DEClash>
0.0189

> <Gold.Chemscore.DEInternal>
0.6382

> <Gold.Chemscore.Rot>
1.0000

> <Gold.Chemscore.Internal.Correction>
   9.000000E+99

> <Gold.Chemscore.Hbonds>
donor molecule, donor type, donor heavy atom, donor atom, acceptor molecule, acceptor atom, score
      L1  H     6    22       P1  7948  0.05
      P1  H  7997  8009       L1     3  0.04
      P1  H 10752 10763       L1     8  0.35

> <Gold.Chemscore.Hbond.Weighted>
-8.9412

> <Gold.Chemscore.Metal.Weighted>
-0.0000

> <Gold.Chemscore.Lipo.Weighted>
-5.6856

> <Gold.Chemscore.Internal_Hbond.Weighted>
0.0000

> <Gold.Chemscore.DEClash.Weighted>
0.0189

> <Gold.Chemscore.DEInternal.Weighted>
0.6382

> <Gold.Chemscore.Rot.Weighted>
2.5600

> <Gold.Chemscore.Internal.Correction.Weighted>
   9.000000E+99

> <Gold.Protein.RotatedTorsions>
[ 6907 6896 6895 6894 ] final -111.81 input  -60.11 | X-H torsion
[ 7974 7965 7964 7962 ] final  141.68 input  175.53 | X-H torsion
[ 8008 7997 7996 7995 ] final -132.30 input   59.86 | X-H torsion
[ 10167 10162 10161 10158 ] final -138.09 input  -65.29 | X-H torsion
[ 10718 10713 10712 10709 ] final   51.56 input   66.30 | X-H torsion
[ 10763 10752 10751 10750 ] final  110.98 input  -60.55 | X-H torsion
[ 11005 11000 10999 10996 ] final   90.63 input  -57.11 | X-H torsion

> <Gold.Protein.ActiveResidues>
 VAL166  LYS551  ARG553  GLY616  TRP617  ASP618  TYR619  PRO620  LYS621  CYS622 
 ASP623  PHE694  ASN695  SER759  ASP760  ASP761  ALA762  ILE779  LEU786  VAL792 
 PHE793  MET794  SER795  GLU796  ALA797  LYS798  CYS799  TRP800  GLU811  SER814 

> <Gold.Protein.RotatedAtoms>
  150.7716  133.9180  159.3389 H   0  0  0  0  0  0  0  0  0  0  0  0  # atno 6907 bound_to 6896
  151.7065  135.0918  160.0269 H   0  0  0  0  0  0  0  0  0  0  0  0  # atno 6908 bound_to 6896
  152.3735  133.6413  159.6141 H   0  0  0  0  0  0  0  0  0  0  0  0  # atno 6909 bound_to 6896
  144.9074  139.5339  143.5725 H   0  0  0  0  0  0  0  0  0  0  0  0  # atno 7974 bound_to 7965
  155.3267  140.0465  157.3041 H   0  0  0  0  0  0  0  0  0  0  0  0  # atno 8008 bound_to 7997
  154.5350  140.2269  155.8703 H   0  0  0  0  0  0  0  0  0  0  0  0  # atno 8009 bound_to 7997
  156.1826  140.3070  155.9184 H   0  0  0  0  0  0  0  0  0  0  0  0  # atno 8010 bound_to 7997
  139.8513  143.7195  152.2657 H   0  0  0  0  0  0  0  0  0  0  0  0  # atno 10167 bound_to 10162
  157.4992  130.8427  149.8296 H   0  0  0  0  0  0  0  0  0  0  0  0  # atno 10718 bound_to 10713
  153.4568  135.3731  155.2315 H   0  0  0  0  0  0  0  0  0  0  0  0  # atno 10763 bound_to 10752
  154.8757  135.3899  154.3972 H   0  0  0  0  0  0  0  0  0  0  0  0  # atno 10764 bound_to 10752
  153.4540  135.7086  153.6155 H   0  0  0  0  0  0  0  0  0  0  0  0  # atno 10765 bound_to 10752
  139.8852  134.8625  156.3312 H   0  0  0  0  0  0  0  0  0  0  0  0  # atno 11005 bound_to 11000
  146.3141  139.7854  142.8997 LP  0  0  0  0  0  0  0  0  0  0  0  0  # atno 17320 bound_to 7965
  145.3512  141.0308  143.3338 LP  0  0  0  0  0  0  0  0  0  0  0  0  # atno 17321 bound_to 7965
  139.7462  144.7546  151.0575 LP  0  0  0  0  0  0  0  0  0  0  0  0  # atno 17342 bound_to 10162
  140.7787  143.4913  150.9889 LP  0  0  0  0  0  0  0  0  0  0  0  0  # atno 17343 bound_to 10162
  156.0219  130.3792  150.1937 LP  0  0  0  0  0  0  0  0  0  0  0  0  # atno 17370 bound_to 10713
  157.0127  130.9955  151.3361 LP  0  0  0  0  0  0  0  0  0  0  0  0  # atno 17371 bound_to 10713
  140.9721  133.7320  156.0550 LP  0  0  0  0  0  0  0  0  0  0  0  0  # atno 17394 bound_to 11000
  140.7857  134.3675  157.5477 LP  0  0  0  0  0  0  0  0  0  0  0  0  # atno 17395 bound_to 11000

$$$$
