AV-unprocessed.smi:625|AV-procd|sdf|3105|dock9
  -GOLD-   22720 0 23D 1   1.00000     0.00000
 Structure written by MMmdl.
 49 51  0  0  0  0  0  0  0  0  1 V2000
  145.1035  135.7262  151.6678 C   0  0  0  0  0  0  0  0  0  0  0  0
  145.4863  136.7378  152.6403 N   0  0  0  0  0  0  0  0  0  0  0  0
  146.0953  137.8981  152.3388 C   0  0  0  0  0  0  0  0  0  0  0  0
  146.3921  138.1899  151.1797 O   0  0  0  0  0  0  0  0  0  0  0  0
  146.3472  138.7618  153.4958 C   0  0  0  0  0  0  0  0  0  0  0  0
  145.6657  138.4937  154.7471 C   0  0  0  0  0  0  0  0  0  0  0  0
  145.9115  139.2429  155.8402 C   0  0  0  0  0  0  0  0  0  0  0  0
  146.8681  140.3539  155.8159 C   0  0  0  0  0  0  0  0  0  0  0  0
  147.1154  141.0233  156.8188 O   0  0  0  0  0  0  0  0  0  0  0  0
  147.4666  140.5937  154.6102 N   0  0  0  0  0  0  0  0  0  0  0  0
  148.4767  141.6511  154.4459 C   0  0  0  0  0  0  0  0  0  0  0  0
  149.7408  141.3209  155.2462 C   0  0  0  0  0  0  0  0  0  0  0  0
  150.4875  140.4130  154.8806 O   0  0  0  0  0  0  0  0  0  0  0  0
  149.9734  142.0921  156.3193 N   0  0  0  0  0  0  0  0  0  0  0  0
  151.1959  142.1020  157.1200 C   0  0  2  0  0  0  0  0  0  0  0  0
  151.2410  140.8134  157.9574 C   0  0  0  0  0  0  0  0  0  0  0  0
  151.2246  143.3887  157.9848 C   0  0  2  0  0  0  0  0  0  0  0  0
  151.7492  144.6433  157.2373 C   0  0  0  0  0  0  0  0  0  0  0  0
  152.8595  145.1707  158.1608 C   0  0  1  0  0  0  0  0  0  0  0  0
  152.2357  145.7302  159.4519 C   0  0  0  0  0  0  0  0  0  0  0  0
  151.7908  144.4543  160.1915 C   0  0  0  0  0  0  0  0  0  0  0  0
  152.1776  143.3348  159.2052 C   0  0  2  0  0  0  0  0  0  0  0  0
  153.4907  143.8718  158.6435 C   0  0  0  0  0  0  0  0  0  0  0  0
  147.2059  139.8037  153.4722 C   0  0  0  0  0  0  0  0  0  0  0  0
  144.6143  134.8935  152.1730 H   0  0  0  0  0  0  0  0  0  0  0  0
  145.9787  135.3416  151.1425 H   0  0  0  0  0  0  0  0  0  0  0  0
  144.4078  136.1361  150.9346 H   0  0  0  0  0  0  0  0  0  0  0  0
  145.2626  136.5542  153.6076 H   0  0  0  0  0  0  0  0  0  0  0  0
  144.9516  137.6858  154.8186 H   0  0  0  0  0  0  0  0  0  0  0  0
  145.3914  139.0196  156.7603 H   0  0  0  0  0  0  0  0  0  0  0  0
  148.7168  141.7560  153.3862 H   0  0  0  0  0  0  0  0  0  0  0  0
  148.1127  142.6312  154.7574 H   0  0  0  0  0  0  0  0  0  0  0  0
  149.2849  142.7948  156.5464 H   0  0  0  0  0  0  0  0  0  0  0  0
  152.0699  142.1051  156.4669 H   0  0  0  0  0  0  0  0  0  0  0  0
  152.1689  140.7296  158.5218 H   0  0  0  0  0  0  0  0  0  0  0  0
  151.1752  139.9316  157.3190 H   0  0  0  0  0  0  0  0  0  0  0  0
  150.4139  140.7711  158.6669 H   0  0  0  0  0  0  0  0  0  0  0  0
  150.2067  143.5786  158.3294 H   0  0  0  0  0  0  0  0  0  0  0  0
  152.1793  144.3884  156.2679 H   0  0  0  0  0  0  0  0  0  0  0  0
  150.9653  145.3812  157.0645 H   0  0  0  0  0  0  0  0  0  0  0  0
  153.5445  145.8619  157.6687 H   0  0  0  0  0  0  0  0  0  0  0  0
  152.9764  146.2750  160.0387 H   0  0  0  0  0  0  0  0  0  0  0  0
  151.4044  146.4062  159.2484 H   0  0  0  0  0  0  0  0  0  0  0  0
  152.3376  144.3474  161.1293 H   0  0  0  0  0  0  0  0  0  0  0  0
  150.7258  144.4576  160.4270 H   0  0  0  0  0  0  0  0  0  0  0  0
  152.2529  142.3590  159.6834 H   0  0  0  0  0  0  0  0  0  0  0  0
  153.9026  143.2635  157.8366 H   0  0  0  0  0  0  0  0  0  0  0  0
  154.2585  144.0211  159.4049 H   0  0  0  0  0  0  0  0  0  0  0  0
  147.7749  140.1011  152.6025 H   0  0  0  0  0  0  0  0  0  0  0  0
  1  2  1  0  0  0  0
  1 25  1  0  0  0  0
  1 26  1  0  0  0  0
  1 27  1  0  0  0  0
  2  3  1  0  0  0  0
  2 28  1  0  0  0  0
  3  4  2  0  0  0  0
  3  5  1  0  0  0  0
  5 24  2  0  0  0  0
  5  6  1  0  0  0  0
  6  7  2  0  0  0  0
  6 29  1  0  0  0  0
  7  8  1  0  0  0  0
  7 30  1  0  0  0  0
  8  9  2  0  0  0  0
  8 10  1  0  0  0  0
 10 11  1  0  0  0  0
 10 24  1  0  0  0  0
 11 12  1  0  0  0  0
 11 31  1  0  0  0  0
 11 32  1  0  0  0  0
 12 13  2  0  0  0  0
 12 14  1  0  0  0  0
 14 15  1  0  0  0  0
 14 33  1  0  0  0  0
 15 16  1  0  0  0  0
 15 17  1  0  0  0  0
 15 34  1  0  0  0  0
 16 35  1  0  0  0  0
 16 36  1  0  0  0  0
 16 37  1  0  0  0  0
 17 22  1  0  0  0  0
 17 18  1  0  0  0  0
 17 38  1  0  0  0  0
 18 19  1  0  0  0  0
 18 39  1  0  0  0  0
 18 40  1  0  0  0  0
 19 23  1  0  0  0  0
 19 20  1  0  0  0  0
 19 41  1  0  0  0  0
 20 21  1  0  0  0  0
 20 42  1  0  0  0  0
 20 43  1  0  0  0  0
 21 22  1  0  0  0  0
 21 44  1  0  0  0  0
 21 45  1  0  0  0  0
 22 23  1  0  0  0  0
 22 46  1  0  0  0  0
 23 47  1  0  0  0  0
 23 48  1  0  0  0  0
 24 49  1  0  0  0  0
M  END
> <s_m_source_file>
AV-unprocessed.smi

> <i_m_source_file_index>
625

> <i_lp_mmshare_version>
43012

> <i_f3d_flags>
0

> <s_epik_input>
W0NIM11bTkhdQyg9TyljMVtjSF1bY0hdYyg9TyluKFtjSF0xKVtDSDJdQyg9TylbTkhdW0NASF0oW0NIM10pW0NASF0oW0NIMl1bQ0BIXTIzKVtDQEhdKFtDSDJdMylbQ0gyXVtDSDJdMg==

> <s_epik_cmdline>
J2VwaWtfcHl0aG9uJywgJy1waCcsICc3LjAnLCAnLXRuJywgJzgnLCAnLW1hJywgJzIwMCcsICctbWV0YWxfYmluZGluZycsICctaW1hZScsICc8aW5maWxlLm1hZT4nLCAnLW9tYWUnLCAnPG91dGZpbGUubWFlPic=

> <r_lp_tautomer_probability>
1

> <r_epik_Ionization_Penalty>
3.7129e-07

> <r_epik_Ionization_Penalty_Charging>
5.04114e-08

> <r_epik_Ionization_Penalty_Neutral>
3.20879e-07

> <r_epik_State_Penalty>
-0

> <r_epik_Charging_Adjusted_Penalty>
5.04114e-08

> <i_epik_Tot_Q>
0

> <i_epik_Tot_abs_Q>
0

> <r_epik_Metal_State_Penalty>
-0

> <b_epik_Metal_Only>
0

> <s_lp_Force_Field>
OPLS_2005

> <r_lp_Energy>
64.2087

> <b_lp_Chiralities_Consistent>
1

> <s_lp_Variant>
AV-unprocessed.smi:625-5

> <Gold.Version>
5.8.1

> <Gold.Id.Protein>
6NUR|6NUR_protein|mol2

> <Gold.PLP.Fitness>
58.0578

> <Gold.PLP.PLP>
-50.3770

> <Gold.PLP.part.hbond>
-3.6515

> <Gold.PLP.part.metal>
0.0000

> <Gold.PLP.part.buried>
-4.1881

> <Gold.PLP.part.nonpolar>
-44.1738

> <Gold.PLP.part.repulsive>
1.0530

> <Gold.PLP.ligand.clash>
0.0546

> <Gold.PLP.ligand.torsion>
0.8846

> <Gold.PLP.Chemscore.Hbond>
2.1533

> <Gold.PLP.Chemscore.CHOScore>
0.9993

> <Gold.PLP.Chemscore.Metal>
0.0000

> <Gold.Chemscore.Hbonds>
donor molecule, donor type, donor heavy atom, donor atom, acceptor molecule, acceptor atom, score
      L1  H    14    33       P1  8028  0.43
      P1  H  7954  7966       L1     4  0.55
      P1  H  7989  7998       L1    13  1.00
      L1  C    24    49       P1  7957  1.00

> <Gold.PLP.Chemscore.Internal.Correction>
0.0468

> <Gold.Rescore>
     Score         DG    S(hbond)    S(metal)    S(lipo)     H(rot)  DE(clash)    DE(int)     intcor
     19.12     -22.16       1.91        0.00     124.42       1.67       0.89       2.14       ----

> <Gold.Chemscore.Fitness>
19.1207

> <Gold.Chemscore.DG>
-22.1557

> <Gold.Chemscore.ZeroCoef>
-5.4800

> <Gold.Chemscore.Hbond>
1.9148

> <Gold.Chemscore.Metal>
0.0000

> <Gold.Chemscore.Lipo>
124.4236

> <Gold.Chemscore.Internal_Hbond>
0.0000

> <Gold.Chemscore.DEClash>
0.8936

> <Gold.Chemscore.DEInternal>
2.1414

> <Gold.Chemscore.Rot>
1.6709

> <Gold.Chemscore.Internal.Correction>
   9.000000E+99

> <Gold.Chemscore.Hbonds>
donor molecule, donor type, donor heavy atom, donor atom, acceptor molecule, acceptor atom, score
      L1  H    14    33       P1  8028  0.43
      P1  H  7954  7966       L1     4  0.54
      P1  H  7989  7998       L1    13  0.85

> <Gold.Chemscore.Hbond.Weighted>
-6.3955

> <Gold.Chemscore.Metal.Weighted>
-0.0000

> <Gold.Chemscore.Lipo.Weighted>
-14.5576

> <Gold.Chemscore.Internal_Hbond.Weighted>
0.0000

> <Gold.Chemscore.DEClash.Weighted>
0.8936

> <Gold.Chemscore.DEInternal.Weighted>
2.1414

> <Gold.Chemscore.Rot.Weighted>
4.2774

> <Gold.Chemscore.Internal.Correction.Weighted>
   9.000000E+99

> <Gold.Protein.RotatedTorsions>
[ 6907 6896 6895 6894 ] final  -41.42 input  -60.11 | X-H torsion
[ 7974 7965 7964 7962 ] final   25.60 input  175.53 | X-H torsion
[ 8008 7997 7996 7995 ] final -147.83 input   59.86 | X-H torsion
[ 10167 10162 10161 10158 ] final  -28.83 input  -65.29 | X-H torsion
[ 10718 10713 10712 10709 ] final   -0.96 input   66.30 | X-H torsion
[ 10763 10752 10751 10750 ] final  -99.88 input  -60.55 | X-H torsion
[ 11005 11000 10999 10996 ] final   47.59 input  -57.11 | X-H torsion

> <Gold.Protein.ActiveResidues>
 VAL166  LYS551  ARG553  GLY616  TRP617  ASP618  TYR619  PRO620  LYS621  CYS622 
 ASP623  PHE694  ASN695  SER759  ASP760  ASP761  ALA762  ILE779  LEU786  VAL792 
 PHE793  MET794  SER795  GLU796  ALA797  LYS798  CYS799  TRP800  GLU811  SER814 

> <Gold.Protein.RotatedAtoms>
  150.9669  134.9049  159.7764 H   0  0  0  0  0  0  0  0  0  0  0  0  # atno 6907 bound_to 6896
  152.5176  134.3594  159.9289 H   0  0  0  0  0  0  0  0  0  0  0  0  # atno 6908 bound_to 6896
  151.3604  133.3851  159.2724 H   0  0  0  0  0  0  0  0  0  0  0  0  # atno 6909 bound_to 6896
  146.1880  139.7444  142.8852 H   0  0  0  0  0  0  0  0  0  0  0  0  # atno 7974 bound_to 7965
  155.5819  140.0644  157.2781 H   0  0  0  0  0  0  0  0  0  0  0  0  # atno 8008 bound_to 7997
  154.4330  140.1850  156.1032 H   0  0  0  0  0  0  0  0  0  0  0  0  # atno 8009 bound_to 7997
  156.0298  140.3307  155.7131 H   0  0  0  0  0  0  0  0  0  0  0  0  # atno 8010 bound_to 7997
  140.7266  143.3978  151.1317 H   0  0  0  0  0  0  0  0  0  0  0  0  # atno 10167 bound_to 10162
  156.8126  130.5429  149.5707 H   0  0  0  0  0  0  0  0  0  0  0  0  # atno 10718 bound_to 10713
  154.7534  135.4956  153.9330 H   0  0  0  0  0  0  0  0  0  0  0  0  # atno 10763 bound_to 10752
  153.1168  135.6722  153.9411 H   0  0  0  0  0  0  0  0  0  0  0  0  # atno 10764 bound_to 10752
  153.9155  135.3094  155.3427 H   0  0  0  0  0  0  0  0  0  0  0  0  # atno 10765 bound_to 10752
  140.1265  134.4761  155.8555 H   0  0  0  0  0  0  0  0  0  0  0  0  # atno 11005 bound_to 11000
  145.3879  141.0368  143.3141 LP  0  0  0  0  0  0  0  0  0  0  0  0  # atno 17320 bound_to 7965
  144.8434  139.5436  143.6890 LP  0  0  0  0  0  0  0  0  0  0  0  0  # atno 17321 bound_to 7965
  139.7593  143.8659  152.3096 LP  0  0  0  0  0  0  0  0  0  0  0  0  # atno 17342 bound_to 10162
  139.8540  144.7150  150.9180 LP  0  0  0  0  0  0  0  0  0  0  0  0  # atno 17343 bound_to 10162
  156.1035  130.5987  150.9933 LP  0  0  0  0  0  0  0  0  0  0  0  0  # atno 17370 bound_to 10713
  157.6498  131.0898  150.8076 LP  0  0  0  0  0  0  0  0  0  0  0  0  # atno 17371 bound_to 10713
  141.2162  133.6780  156.6989 LP  0  0  0  0  0  0  0  0  0  0  0  0  # atno 17394 bound_to 11000
  140.2897  134.8251  157.4005 LP  0  0  0  0  0  0  0  0  0  0  0  0  # atno 17395 bound_to 11000

$$$$
