#       Name:                AV-unprocessed.smi:362
#       Creating user name   scv26
#       Creation time:       Thu Mar 26 22:35:57 2020


#       File generated by GOLD software.
#

@<TRIPOS>MOLECULE
AV-unprocessed.smi:362
    42    44     1
SMALL
NO_CHARGES


@<TRIPOS>ATOM
      1 ****        -0.1503   0.1420  -1.2831 O.2            1 S1                 0.0000
      2 ****        -0.5965  -0.2468  -0.2030 C.2            1 S1                 0.0000
      3 ****        -2.1107  -0.3589   0.0244 C.3            1 S1                 0.0000
      4 ****        -2.8897   0.5383  -0.8416 N.am           1 S1                 0.0000
      5 ****        -3.4816   0.0552  -2.0001 C.2            1 S1                 0.0000
      6 ****        -4.2030   0.8276  -2.8466 C.2            1 S1                 0.0000
      7 ****        -4.3951   2.2470  -2.5694 C.2            1 S1                 0.0000
      8 ****        -5.0320   3.0274  -3.2733 O.2            1 S1                 0.0000
      9 ****        -3.7824   2.6955  -1.3964 N.am           1 S1                 0.0000
     10 ****        -3.0367   1.9053  -0.5204 C.2            1 S1                 0.0000
     11 ****        -2.5349   2.4032   0.4868 O.2            1 S1                 0.0000
     12 ****         0.1812  -0.6137   0.8272 N.am           1 S1                 0.0000
     13 ****         1.6400  -0.5952   0.8444 C.3            1 S1                 0.0000
     14 ****         2.2442  -1.8862   0.3166 C.3            1 S1                 0.0000
     15 ****         3.6463  -1.9259  -0.2446 C.3            1 S1                 0.0000
     16 ****         2.4592  -2.1092  -1.1620 C.3            1 S1                 0.0000
     17 ****         2.1739  -0.2906   2.2323 C.3            1 S1                 0.0000
     18 ****         2.2655   1.1299   2.7361 C.3            1 S1                 0.0000
     19 ****         3.5263   0.3507   2.4360 C.3            1 S1                 0.0000
     20 ****        -3.8856   3.6727  -1.1644 H              1 S1                 0.0000
     21 ****        -2.4014  -1.3965  -0.1454 H              1 S1                 0.0000
     22 ****        -2.3448  -0.1624   1.0728 H              1 S1                 0.0000
     23 ****        -3.3618  -0.9899  -2.2484 H              1 S1                 0.0000
     24 ****        -4.6391   0.3931  -3.7345 H              1 S1                 0.0000
     25 ****        -0.2755  -0.9257   1.6719 H              1 S1                 0.0000
     26 ****         1.9778   0.2143   0.1938 H              1 S1                 0.0000
     27 ****         1.9459  -2.7650   0.8856 H              1 S1                 0.0000
     28 ****         4.1938  -0.9890  -0.3230 H              1 S1                 0.0000
     29 ****         4.2512  -2.8022  -0.0211 H              1 S1                 0.0000
     30 ****         2.2711  -3.1078  -1.5506 H              1 S1                 0.0000
     31 ****         2.2224  -1.2924  -1.8409 H              1 S1                 0.0000
     32 ****         1.8925  -1.0345   2.9756 H              1 S1                 0.0000
     33 ****         1.9945   1.9299   2.0497 H              1 S1                 0.0000
     34 ****         2.0200   1.3086   3.7809 H              1 S1                 0.0000
     35 ****         4.1208   0.0098   3.2811 H              1 S1                 0.0000
     36 ****         4.0934   0.6417   1.5542 H              1 S1                 0.0000
     37 ****        -0.7761   0.3885  -2.0231 LP             1 S1                 0.0000
     38 ****         0.8379   0.2112  -1.4201 LP             1 S1                 0.0000
     39 ****        -5.4688   2.7019  -4.1119 LP             1 S1                 0.0000
     40 ****        -5.1135   3.9880  -3.0075 LP             1 S1                 0.0000
     41 ****        -2.0003   1.8349   1.1122 LP             1 S1                 0.0000
     42 ****        -2.6617   3.3761   0.6798 LP             1 S1                 0.0000
@<TRIPOS>BOND
    1    1    2 2     
    2    2    3 1     
    3    2   12 am    
    4    3    4 1     
    5    3   21 1     
    6    3   22 1     
    7    4   10 1     
    8    4    5 1     
    9    5    6 2     
   10    5   23 1     
   11    6    7 1     
   12    6   24 1     
   13    7    8 2     
   14    7    9 1     
   15    9   20 1     
   16    9   10 1     
   17   10   11 2     
   18   12   13 1     
   19   12   25 1     
   20   13   14 1     
   21   13   17 1     
   22   13   26 1     
   23   14   16 1     
   24   14   15 1     
   25   14   27 1     
   26   15   16 1     
   27   15   28 1     
   28   15   29 1     
   29   16   30 1     
   30   16   31 1     
   31   17   19 1     
   32   17   18 1     
   33   17   32 1     
   34   18   19 1     
   35   18   33 1     
   36   18   34 1     
   37   19   35 1     
   38   19   36 1     
   39    1   37 1     
   40    1   38 1     
   41    8   39 1     
   42    8   40 1     
   43   11   41 1     
   44   11   42 1     
@<TRIPOS>SUBSTRUCTURE
      1 S1             1
@<TRIPOS>SET
LONE_PAIRS      STATIC     ATOMS    <user>   **** ""
6 37 38 39 40 41 42
DONOR_HYDROGENS      STATIC     ATOMS    <user>   **** ""
2 20 25
ATOM$BLUE        STATIC     ATOMS    COLORGROUP SYSTEM
6 37 38 39 40 41 42
ATOM$RED        STATIC     ATOMS    COLORGROUP SYSTEM
2 20 25
