AV-unprocessed.smi:3138|AV-procd|sdf|11954|dock4
  -GOLD-   2272017353D 1   1.00000     0.00000
 Structure written by MMmdl.
 38 39  0  0  0  0  0  0  0  0  2 V2000
  152.0161  140.9024  158.2520 O   0  0  0  0  0  0  0  0  0  0  0  0
  152.0405  142.1338  158.3025 C   0  0  0  0  0  0  0  0  0  0  0  0
  151.2754  142.9317  157.2355 C   0  0  0  0  0  0  0  0  0  0  0  0
  149.8235  142.6594  157.2597 N   0  3  0  0  0  0  0  0  0  0  0  0
  149.4606  141.2792  156.8821 C   0  0  0  0  0  0  0  0  0  0  0  0
  149.7875  140.9943  155.4056 C   0  0  0  0  0  0  0  0  0  0  0  0
  148.6066  140.9562  154.5590 N   0  0  0  0  0  0  0  0  0  0  0  0
  147.7545  141.9908  154.2330 C   0  0  0  0  0  0  0  0  0  0  0  0
  146.8040  141.4859  153.3926 C   0  0  0  0  0  0  0  0  0  0  0  0
  147.1701  140.1185  153.2497 C   0  0  0  0  0  0  0  0  0  0  0  0
  148.2524  139.8064  153.9444 N   0  0  0  0  0  0  0  0  0  0  0  0
  152.7206  142.8055  159.2634 N   0  0  0  0  0  0  0  0  0  0  0  0
  153.4563  142.1900  160.3771 C   0  0  0  0  0  0  0  0  0  0  0  0
  152.6985  142.4718  161.6871 C   0  0  0  0  0  0  0  0  0  0  0  0
  152.4998  143.9857  161.8918 C   0  0  0  0  0  0  0  0  0  0  0  0
  151.9037  144.6566  160.6395 C   0  0  0  0  0  0  0  0  0  0  0  0
  152.6956  144.2700  159.3766 C   0  0  0  0  0  0  0  0  0  0  0  0
  151.4378  143.9982  157.3975 H   0  0  0  0  0  0  0  0  0  0  0  0
  151.6610  142.6754  156.2476 H   0  0  0  0  0  0  0  0  0  0  0  0
  149.4855  142.8339  158.1958 H   0  0  0  0  0  0  0  0  0  0  0  0
  150.0080  140.5825  157.5180 H   0  0  0  0  0  0  0  0  0  0  0  0
  148.3998  141.1146  157.0758 H   0  0  0  0  0  0  0  0  0  0  0  0
  150.4710  141.7514  155.0189 H   0  0  0  0  0  0  0  0  0  0  0  0
  150.2995  140.0355  155.3158 H   0  0  0  0  0  0  0  0  0  0  0  0
  147.8916  142.9892  154.6216 H   0  0  0  0  0  0  0  0  0  0  0  0
  145.9763  142.0140  152.9426 H   0  0  0  0  0  0  0  0  0  0  0  0
  146.6872  139.3502  152.6638 H   0  0  0  0  0  0  0  0  0  0  0  0
  153.6136  141.1188  160.2633 H   0  0  0  0  0  0  0  0  0  0  0  0
  154.4561  142.6238  160.4264 H   0  0  0  0  0  0  0  0  0  0  0  0
  151.7278  141.9748  161.6611 H   0  0  0  0  0  0  0  0  0  0  0  0
  153.2403  142.0498  162.5340 H   0  0  0  0  0  0  0  0  0  0  0  0
  151.8634  144.1697  162.7579 H   0  0  0  0  0  0  0  0  0  0  0  0
  153.4639  144.4440  162.1156 H   0  0  0  0  0  0  0  0  0  0  0  0
  150.8626  144.3527  160.5228 H   0  0  0  0  0  0  0  0  0  0  0  0
  151.8979  145.7399  160.7633 H   0  0  0  0  0  0  0  0  0  0  0  0
  153.7178  144.6451  159.4449 H   0  0  0  0  0  0  0  0  0  0  0  0
  152.2598  144.7571  158.5030 H   0  0  0  0  0  0  0  0  0  0  0  0
  149.3664  143.3028  156.6294 H   0  0  0  0  0  0  0  0  0  0  0  0
  1  2  2  0  0  0  0
  2  3  1  0  0  0  0
  2 12  1  0  0  0  0
  3  4  1  0  0  0  0
  3 18  1  0  0  0  0
  3 19  1  0  0  0  0
  4  5  1  0  0  0  0
  4 20  1  0  0  0  0
  4 38  1  0  0  0  0
  5  6  1  0  0  0  0
  5 21  1  0  0  0  0
  5 22  1  0  0  0  0
  6  7  1  0  0  0  0
  6 23  1  0  0  0  0
  6 24  1  0  0  0  0
  7 11  1  0  0  0  0
  7  8  1  0  0  0  0
  8  9  2  0  0  0  0
  8 25  1  0  0  0  0
  9 10  1  0  0  0  0
  9 26  1  0  0  0  0
 10 11  2  0  0  0  0
 10 27  1  0  0  0  0
 12 17  1  0  0  0  0
 12 13  1  0  0  0  0
 13 14  1  0  0  0  0
 13 28  1  0  0  0  0
 13 29  1  0  0  0  0
 14 15  1  0  0  0  0
 14 30  1  0  0  0  0
 14 31  1  0  0  0  0
 15 16  1  0  0  0  0
 15 32  1  0  0  0  0
 15 33  1  0  0  0  0
 16 17  1  0  0  0  0
 16 34  1  0  0  0  0
 16 35  1  0  0  0  0
 17 36  1  0  0  0  0
 17 37  1  0  0  0  0
M  CHG  1   4   1
M  END
> <s_m_source_file>
AV-unprocessed.smi

> <i_m_source_file_index>
3138

> <i_lp_mmshare_version>
43012

> <i_f3d_flags>
0

> <s_epik_input>
W0NIMl0xW0NIMl1bQ0gyXVtDSDJdW0NIMl1OMUMoPU8pW0NIMl1bTkhdW0NIMl1bQ0gyXW4yW2NIXVtjSF1bY0hdbjI=

> <s_epik_cmdline>
J2VwaWtfcHl0aG9uJywgJy1waCcsICc3LjAnLCAnLXRuJywgJzgnLCAnLW1hJywgJzIwMCcsICctbWV0YWxfYmluZGluZycsICctaW1hZScsICc8aW5maWxlLm1hZT4nLCAnLW9tYWUnLCAnPG91dGZpbGUubWFlPic=

> <r_lp_tautomer_probability>
1

> <r_epik_Ionization_Penalty>
0.202061

> <r_epik_Ionization_Penalty_Charging>
0.202058

> <r_epik_Ionization_Penalty_Neutral>
2.33614e-06

> <r_epik_State_Penalty>
0.191938

> <r_epik_Charging_Adjusted_Penalty>
0.393996

> <i_epik_Tot_Q>
1

> <i_epik_Tot_abs_Q>
1

> <r_epik_Metal_State_Penalty>
0.192416

> <b_epik_Metal_Only>
0

> <s_lp_Force_Field>
OPLS_2005

> <r_lp_Energy>
21.8037

> <b_lp_Chiralities_Consistent>
1

> <s_lp_Variant>
AV-unprocessed.smi:3138-1

> <Gold.Version>
5.8.1

> <Gold.Id.Protein>
6NUR|6NUR_protein|mol2

> <Gold.PLP.Fitness>
52.1833

> <Gold.PLP.PLP>
-43.8887

> <Gold.PLP.part.hbond>
-1.0000

> <Gold.PLP.part.metal>
0.0000

> <Gold.PLP.part.buried>
-5.6792

> <Gold.PLP.part.nonpolar>
-36.2318

> <Gold.PLP.part.repulsive>
0.3618

> <Gold.PLP.ligand.clash>
0.0000

> <Gold.PLP.ligand.torsion>
0.3828

> <Gold.PLP.Chemscore.Hbond>
2.0000

> <Gold.PLP.Chemscore.CHOScore>
1.0000

> <Gold.PLP.Chemscore.Metal>
0.0000

> <Gold.Chemscore.Hbonds>
donor molecule, donor type, donor heavy atom, donor atom, acceptor molecule, acceptor atom, score
      L1  H     4    38       P1  8028  2.00
      L1  C     8    25       P1  8028  1.00

> <Gold.PLP.Chemscore.Internal.Correction>
0.0603

> <Gold.Rescore>
     Score         DG    S(hbond)    S(metal)    S(lipo)     H(rot)  DE(clash)    DE(int)     intcor
     14.70     -16.41       0.99        0.00     105.39       1.84       0.05       1.66       ----

> <Gold.Chemscore.Fitness>
14.6962

> <Gold.Chemscore.DG>
-16.4061

> <Gold.Chemscore.ZeroCoef>
-5.4800

> <Gold.Chemscore.Hbond>
0.9899

> <Gold.Chemscore.Metal>
0.0000

> <Gold.Chemscore.Lipo>
105.3906

> <Gold.Chemscore.Internal_Hbond>
0.0000

> <Gold.Chemscore.DEClash>
0.0500

> <Gold.Chemscore.DEInternal>
1.6599

> <Gold.Chemscore.Rot>
1.8402

> <Gold.Chemscore.Internal.Correction>
   9.000000E+99

> <Gold.Chemscore.Hbonds>
donor molecule, donor type, donor heavy atom, donor atom, acceptor molecule, acceptor atom, score
      L1  H     4    38       P1  8028  1.00

> <Gold.Chemscore.Hbond.Weighted>
-3.3064

> <Gold.Chemscore.Metal.Weighted>
-0.0000

> <Gold.Chemscore.Lipo.Weighted>
-12.3307

> <Gold.Chemscore.Internal_Hbond.Weighted>
0.0000

> <Gold.Chemscore.DEClash.Weighted>
0.0500

> <Gold.Chemscore.DEInternal.Weighted>
1.6599

> <Gold.Chemscore.Rot.Weighted>
4.7110

> <Gold.Chemscore.Internal.Correction.Weighted>
   9.000000E+99

> <Gold.Protein.RotatedTorsions>
[ 6907 6896 6895 6894 ] final  -18.54 input  -60.11 | X-H torsion
[ 7974 7965 7964 7962 ] final  143.22 input  175.53 | X-H torsion
[ 8008 7997 7996 7995 ] final  128.62 input   59.86 | X-H torsion
[ 10167 10162 10161 10158 ] final -114.15 input  -65.29 | X-H torsion
[ 10718 10713 10712 10709 ] final  -57.49 input   66.30 | X-H torsion
[ 10763 10752 10751 10750 ] final    9.67 input  -60.55 | X-H torsion
[ 11005 11000 10999 10996 ] final  -43.08 input  -57.11 | X-H torsion

> <Gold.Protein.ActiveResidues>
 VAL166  LYS551  ARG553  GLY616  TRP617  ASP618  TYR619  PRO620  LYS621  CYS622 
 ASP623  PHE694  ASN695  SER759  ASP760  ASP761  ALA762  ILE779  LEU786  VAL792 
 PHE793  MET794  SER795  GLU796  ALA797  LYS798  CYS799  TRP800  GLU811  SER814 

> <Gold.Protein.RotatedAtoms>
  151.2766  135.0701  159.9153 H   0  0  0  0  0  0  0  0  0  0  0  0  # atno 6907 bound_to 6896
  152.5341  134.0075  159.7933 H   0  0  0  0  0  0  0  0  0  0  0  0  # atno 6908 bound_to 6896
  151.0322  133.5730  159.2690 H   0  0  0  0  0  0  0  0  0  0  0  0  # atno 6909 bound_to 6896
  144.8940  139.5518  143.5785 H   0  0  0  0  0  0  0  0  0  0  0  0  # atno 7974 bound_to 7965
  156.2919  140.2640  156.2466 H   0  0  0  0  0  0  0  0  0  0  0  0  # atno 8008 bound_to 7997
  154.9925  140.0388  157.2344 H   0  0  0  0  0  0  0  0  0  0  0  0  # atno 8009 bound_to 7997
  154.7674  140.2772  155.6170 H   0  0  0  0  0  0  0  0  0  0  0  0  # atno 8010 bound_to 7997
  140.1040  143.4587  152.1794 H   0  0  0  0  0  0  0  0  0  0  0  0  # atno 10167 bound_to 10162
  156.1207  130.4166  150.0447 H   0  0  0  0  0  0  0  0  0  0  0  0  # atno 10718 bound_to 10713
  153.2115  135.6869  153.8108 H   0  0  0  0  0  0  0  0  0  0  0  0  # atno 10763 bound_to 10752
  153.7339  135.3248  155.3292 H   0  0  0  0  0  0  0  0  0  0  0  0  # atno 10764 bound_to 10752
  154.8224  135.4642  154.0924 H   0  0  0  0  0  0  0  0  0  0  0  0  # atno 10765 bound_to 10752
  141.0359  133.6800  156.2683 H   0  0  0  0  0  0  0  0  0  0  0  0  # atno 11005 bound_to 11000
  146.3070  139.7614  142.9048 LP  0  0  0  0  0  0  0  0  0  0  0  0  # atno 17320 bound_to 7965
  145.3733  141.0346  143.3218 LP  0  0  0  0  0  0  0  0  0  0  0  0  # atno 17321 bound_to 7965
  139.5655  144.7432  151.4034 LP  0  0  0  0  0  0  0  0  0  0  0  0  # atno 17342 bound_to 10162
  140.6962  143.7743  150.7330 LP  0  0  0  0  0  0  0  0  0  0  0  0  # atno 17343 bound_to 10162
  156.8386  130.9418  151.3633 LP  0  0  0  0  0  0  0  0  0  0  0  0  # atno 17370 bound_to 10713
  157.6390  130.8790  149.9413 LP  0  0  0  0  0  0  0  0  0  0  0  0  # atno 17371 bound_to 10713
  140.6322  134.5252  157.5561 LP  0  0  0  0  0  0  0  0  0  0  0  0  # atno 17394 bound_to 11000
  139.9241  134.8091  156.1123 LP  0  0  0  0  0  0  0  0  0  0  0  0  # atno 17395 bound_to 11000

$$$$
