#       Name:                AV-unprocessed.smi:3132
#       Creating user name   scv26
#       Creation time:       Fri Mar 27 17:31:44 2020


#       File generated by GOLD software.
#

@<TRIPOS>MOLECULE
AV-unprocessed.smi:3132
    38    39     1
SMALL
NO_CHARGES


@<TRIPOS>ATOM
      1 ****        -0.3338  -2.6430   2.5625 C.3            1 S1                 0.0000
      2 ****         0.0945  -1.9292   1.2734 C.3            1 S1                 0.0000
      3 ****         1.6324  -1.8375   1.1672 C.3            1 S1                 0.0000
      4 ****         2.0870  -1.2998  -0.1196 N.pl3          1 S1                 0.0000
      5 ****         2.5282  -0.0275  -0.3810 C.2            1 S1                 0.0000
      6 ****         2.8240   0.0161  -1.7190 C.2            1 S1                 0.0000
      7 ****         2.5578  -1.2319  -2.2156 N.pl3          1 S1                 1.0000
      8 ****         2.1124  -2.0314  -1.2410 C.2            1 S1                 0.0000
      9 ****        -0.5096  -0.5979   1.2444 N.am           1 S1                 0.0000
     10 ****        -0.9944   0.0191   0.1550 C.2            1 S1                 0.0000
     11 ****        -1.0052  -0.4941  -0.9645 O.2            1 S1                 0.0000
     12 ****        -1.5018   1.4503   0.3574 C.3            1 S1                 0.0000
     13 ****        -2.7622   1.7918  -0.4585 C.3            1 S1                 0.0000
     14 ****        -2.2488   2.7283  -1.5342 C.3            1 S1                 0.0000
     15 ****        -1.0848   3.4043  -0.8247 C.3            1 S1                 0.0000
     16 ****        -0.4853   2.3412  -0.1002 O.3            1 S1                 0.0000
     17 ****         0.0785  -3.6515   2.6076 H              1 S1                 0.0000
     18 ****        -1.4194  -2.7300   2.6222 H              1 S1                 0.0000
     19 ****         0.0067  -2.1050   3.4480 H              1 S1                 0.0000
     20 ****        -0.2816  -2.5232   0.4384 H              1 S1                 0.0000
     21 ****         2.0391  -1.2081   1.9601 H              1 S1                 0.0000
     22 ****         2.0822  -2.8245   1.2859 H              1 S1                 0.0000
     23 ****         2.5866   0.7354   0.3819 H              1 S1                 0.0000
     24 ****         3.1924   0.8206  -2.3387 H              1 S1                 0.0000
     25 ****         1.8203  -3.0616  -1.3425 H              1 S1                 0.0000
     26 ****        -0.5405  -0.0950   2.1198 H              1 S1                 0.0000
     27 ****        -1.6883   1.6358   1.4166 H              1 S1                 0.0000
     28 ****        -3.2738   0.9244  -0.8784 H              1 S1                 0.0000
     29 ****        -3.4785   2.3140   0.1772 H              1 S1                 0.0000
     30 ****        -1.8854   2.1563  -2.3891 H              1 S1                 0.0000
     31 ****        -3.0031   3.4325  -1.8864 H              1 S1                 0.0000
     32 ****        -0.3804   3.8682  -1.5152 H              1 S1                 0.0000
     33 ****        -1.4419   4.1651  -0.1288 H              1 S1                 0.0000
     34 ****         2.6763  -1.5106  -3.1815 H              1 S1                 0.0000
     35 ****        -0.6403  -1.4160  -1.0955 LP             1 S1                 0.0000
     36 ****        -1.3788   0.0110  -1.7425 LP             1 S1                 0.0000
     37 ****         0.1487   1.8472  -0.6952 LP             1 S1                 0.0000
     38 ****         0.0129   2.7107   0.6842 LP             1 S1                 0.0000
@<TRIPOS>BOND
    1    1    2 1     
    2    1   17 1     
    3    1   18 1     
    4    1   19 1     
    5    2    3 1     
    6    2    9 1     
    7    2   20 1     
    8    3    4 1     
    9    3   21 1     
   10    3   22 1     
   11    4    8 1     
   12    4    5 1     
   13    5    6 2     
   14    5   23 1     
   15    6    7 1     
   16    6   24 1     
   17    7    8 2     
   18    7   34 1     
   19    8   25 1     
   20    9   10 am    
   21    9   26 1     
   22   10   11 2     
   23   10   12 1     
   24   12   16 1     
   25   12   13 1     
   26   12   27 1     
   27   13   14 1     
   28   13   28 1     
   29   13   29 1     
   30   14   15 1     
   31   14   30 1     
   32   14   31 1     
   33   15   16 1     
   34   15   32 1     
   35   15   33 1     
   36   11   35 1     
   37   11   36 1     
   38   16   37 1     
   39   16   38 1     
@<TRIPOS>SUBSTRUCTURE
      1 S1             1
@<TRIPOS>SET
LONE_PAIRS      STATIC     ATOMS    <user>   **** ""
4 35 36 37 38
DONOR_HYDROGENS      STATIC     ATOMS    <user>   **** ""
2 34 26
ATOM$BLUE        STATIC     ATOMS    COLORGROUP SYSTEM
4 35 36 37 38
ATOM$RED        STATIC     ATOMS    COLORGROUP SYSTEM
2 34 26
