AV-unprocessed.smi:2930|AV-procd|sdf|11241|dock3
  -GOLD-   2272016133D 1   1.00000     0.00000
 Structure written by MMmdl.
 40 41  0  0  0  0  0  0  0  0  1 V2000
  153.4496  141.9983  160.9798 C   0  0  0  0  0  0  0  0  0  0  0  0
  153.3264  142.4449  159.5165 C   0  0  1  0  0  0  0  0  0  0  0  0
  152.4156  141.5437  158.8146 N   0  0  0  0  0  0  0  0  0  0  0  0
  152.6785  140.2741  158.4724 C   0  0  0  0  0  0  0  0  0  0  0  0
  153.7425  139.7073  158.7192 O   0  0  0  0  0  0  0  0  0  0  0  0
  151.6432  139.7266  157.8138 N   0  0  0  0  0  0  0  0  0  0  0  0
  151.5258  138.4084  157.2975 C   0  0  0  0  0  0  0  0  0  0  0  0
  152.6055  137.5219  157.0708 C   0  0  0  0  0  0  0  0  0  0  0  0
  152.4092  136.2740  156.5938 N   0  0  0  0  0  0  0  0  0  0  0  0
  151.1503  135.8925  156.3409 C   0  0  0  0  0  0  0  0  0  0  0  0
  150.9567  134.6009  155.8425 N   0  0  0  0  0  0  0  0  0  0  0  0
  150.0865  134.3551  154.6961 C   0  0  0  0  0  0  0  0  0  0  0  0
  151.6169  133.4493  156.4507 C   0  0  0  0  0  0  0  0  0  0  0  0
  150.0617  136.6500  156.5311 N   0  0  0  0  0  0  0  0  0  0  0  0
  150.2442  137.8985  157.0099 C   0  0  0  0  0  0  0  0  0  0  0  0
  152.8314  143.8875  159.3954 C   0  0  0  0  0  0  0  0  0  0  0  0
  151.5361  144.3241  160.0985 C   0  0  0  0  0  0  0  0  0  0  0  0
  151.2683  145.2647  158.9207 C   0  0  0  0  0  0  0  0  0  0  0  0
  152.1917  144.3735  158.0855 C   0  0  0  0  0  0  0  0  0  0  0  0
  154.1532  142.6278  161.5250 H   0  0  0  0  0  0  0  0  0  0  0  0
  153.8094  140.9711  161.0480 H   0  0  0  0  0  0  0  0  0  0  0  0
  152.4894  142.0507  161.4942 H   0  0  0  0  0  0  0  0  0  0  0  0
  154.3213  142.3687  159.0738 H   0  0  0  0  0  0  0  0  0  0  0  0
  151.5146  141.9224  158.5623 H   0  0  0  0  0  0  0  0  0  0  0  0
  150.8657  140.3401  157.6177 H   0  0  0  0  0  0  0  0  0  0  0  0
  153.6307  137.7820  157.2828 H   0  0  0  0  0  0  0  0  0  0  0  0
  150.4466  134.8994  153.8223 H   0  0  0  0  0  0  0  0  0  0  0  0
  149.0700  134.6850  154.9124 H   0  0  0  0  0  0  0  0  0  0  0  0
  150.0442  133.2977  154.4351 H   0  0  0  0  0  0  0  0  0  0  0  0
  151.3178  133.3475  157.4944 H   0  0  0  0  0  0  0  0  0  0  0  0
  152.7002  133.5680  156.4130 H   0  0  0  0  0  0  0  0  0  0  0  0
  151.3670  132.5190  155.9407 H   0  0  0  0  0  0  0  0  0  0  0  0
  149.3567  138.4953  157.1608 H   0  0  0  0  0  0  0  0  0  0  0  0
  153.6237  144.5889  159.6676 H   0  0  0  0  0  0  0  0  0  0  0  0
  150.8003  143.5212  160.1703 H   0  0  0  0  0  0  0  0  0  0  0  0
  151.6839  144.8197  161.0583 H   0  0  0  0  0  0  0  0  0  0  0  0
  150.2318  145.2925  158.5834 H   0  0  0  0  0  0  0  0  0  0  0  0
  151.6729  146.2660  159.0769 H   0  0  0  0  0  0  0  0  0  0  0  0
  152.8673  144.9111  157.4195 H   0  0  0  0  0  0  0  0  0  0  0  0
  151.6510  143.5849  157.5594 H   0  0  0  0  0  0  0  0  0  0  0  0
  1  2  1  0  0  0  0
  1 20  1  0  0  0  0
  1 21  1  0  0  0  0
  1 22  1  0  0  0  0
  2  3  1  0  0  0  0
  2 16  1  0  0  0  0
  2 23  1  0  0  0  0
  3  4  1  0  0  0  0
  3 24  1  0  0  0  0
  4  5  2  0  0  0  0
  4  6  1  0  0  0  0
  6  7  1  0  0  0  0
  6 25  1  0  0  0  0
  7 15  1  0  0  0  0
  7  8  2  0  0  0  0
  8  9  1  0  0  0  0
  8 26  1  0  0  0  0
  9 10  2  0  0  0  0
 10 11  1  0  0  0  0
 10 14  1  0  0  0  0
 11 12  1  0  0  0  0
 11 13  1  0  0  0  0
 12 27  1  0  0  0  0
 12 28  1  0  0  0  0
 12 29  1  0  0  0  0
 13 30  1  0  0  0  0
 13 31  1  0  0  0  0
 13 32  1  0  0  0  0
 14 15  2  0  0  0  0
 15 33  1  0  0  0  0
 16 19  1  0  0  0  0
 16 17  1  0  0  0  0
 16 34  1  0  0  0  0
 17 18  1  0  0  0  0
 17 35  1  0  0  0  0
 17 36  1  0  0  0  0
 18 19  1  0  0  0  0
 18 37  1  0  0  0  0
 18 38  1  0  0  0  0
 19 39  1  0  0  0  0
 19 40  1  0  0  0  0
M  END
> <s_m_source_file>
AV-unprocessed.smi

> <i_m_source_file_index>
2930

> <i_lp_mmshare_version>
43012

> <i_f3d_flags>
0

> <s_epik_input>
W0NIMl0xW0NIMl1bQ0gyXVtDSF0xW0NASF0oW0NIM10pW05IXUMoPU8pW05IXWMyW2NIXW5jKE4oW0NIM10pW0NIM10pbltjSF0y

> <s_epik_cmdline>
J2VwaWtfcHl0aG9uJywgJy1waCcsICc3LjAnLCAnLXRuJywgJzgnLCAnLW1hJywgJzIwMCcsICctbWV0YWxfYmluZGluZycsICctaW1hZScsICc8aW5maWxlLm1hZT4nLCAnLW9tYWUnLCAnPG91dGZpbGUubWFlPic=

> <r_lp_tautomer_probability>
1

> <r_epik_Ionization_Penalty>
0.000323856

> <r_epik_Ionization_Penalty_Charging>
0

> <r_epik_Ionization_Penalty_Neutral>
0.000323856

> <r_epik_State_Penalty>
-0

> <r_epik_Charging_Adjusted_Penalty>
0

> <i_epik_Tot_Q>
0

> <i_epik_Tot_abs_Q>
0

> <r_epik_Metal_State_Penalty>
-0

> <b_epik_Metal_Only>
0

> <s_lp_Force_Field>
OPLS_2005

> <r_lp_Energy>
8.86729

> <b_lp_Chiralities_Consistent>
1

> <s_lp_Variant>
AV-unprocessed.smi:2930-2

> <Gold.Version>
5.8.1

> <Gold.Id.Protein>
6NUR|6NUR_protein|mol2

> <Gold.PLP.Fitness>
40.3262

> <Gold.PLP.PLP>
-36.7502

> <Gold.PLP.part.hbond>
-2.0000

> <Gold.PLP.part.metal>
0.0000

> <Gold.PLP.part.buried>
-4.8037

> <Gold.PLP.part.nonpolar>
-29.7500

> <Gold.PLP.part.repulsive>
0.1676

> <Gold.PLP.ligand.clash>
0.0000

> <Gold.PLP.ligand.torsion>
1.2759

> <Gold.PLP.Chemscore.Hbond>
2.0000

> <Gold.PLP.Chemscore.CHOScore>
0.0000

> <Gold.PLP.Chemscore.Metal>
0.0000

> <Gold.Chemscore.Hbonds>
donor molecule, donor type, donor heavy atom, donor atom, acceptor molecule, acceptor atom, score
      P1  H  7997  8009       L1     5  1.00
      P1  H 10752 10765       L1     9  0.52

> <Gold.PLP.Chemscore.Internal.Correction>
0.1279

> <Gold.Rescore>
     Score         DG    S(hbond)    S(metal)    S(lipo)     H(rot)  DE(clash)    DE(int)     intcor
     17.33     -19.95       1.92        0.00      94.99       1.19       0.03       2.58       ----

> <Gold.Chemscore.Fitness>
17.3325

> <Gold.Chemscore.DG>
-19.9458

> <Gold.Chemscore.ZeroCoef>
-5.4800

> <Gold.Chemscore.Hbond>
1.9193

> <Gold.Chemscore.Metal>
0.0000

> <Gold.Chemscore.Lipo>
94.9945

> <Gold.Chemscore.Internal_Hbond>
0.0000

> <Gold.Chemscore.DEClash>
0.0314

> <Gold.Chemscore.DEInternal>
2.5818

> <Gold.Chemscore.Rot>
1.1949

> <Gold.Chemscore.Internal.Correction>
   9.000000E+99

> <Gold.Chemscore.Hbonds>
donor molecule, donor type, donor heavy atom, donor atom, acceptor molecule, acceptor atom, score
      P1  H  7997  8009       L1     5  0.40
      P1  H 10752 10765       L1     9  0.04

> <Gold.Chemscore.Hbond.Weighted>
-6.4103

> <Gold.Chemscore.Metal.Weighted>
-0.0000

> <Gold.Chemscore.Lipo.Weighted>
-11.1144

> <Gold.Chemscore.Internal_Hbond.Weighted>
0.0000

> <Gold.Chemscore.DEClash.Weighted>
0.0314

> <Gold.Chemscore.DEInternal.Weighted>
2.5818

> <Gold.Chemscore.Rot.Weighted>
3.0590

> <Gold.Chemscore.Internal.Correction.Weighted>
   9.000000E+99

> <Gold.Protein.RotatedTorsions>
[ 6907 6896 6895 6894 ] final -155.72 input  -60.11 | X-H torsion
[ 7974 7965 7964 7962 ] final  -88.92 input  175.53 | X-H torsion
[ 8008 7997 7996 7995 ] final  143.13 input   59.86 | X-H torsion
[ 10167 10162 10161 10158 ] final   16.08 input  -65.29 | X-H torsion
[ 10718 10713 10712 10709 ] final   70.50 input   66.30 | X-H torsion
[ 10763 10752 10751 10750 ] final -164.46 input  -60.55 | X-H torsion
[ 11005 11000 10999 10996 ] final -160.06 input  -57.11 | X-H torsion

> <Gold.Protein.ActiveResidues>
 VAL166  LYS551  ARG553  GLY616  TRP617  ASP618  TYR619  PRO620  LYS621  CYS622 
 ASP623  PHE694  ASN695  SER759  ASP760  ASP761  ALA762  ILE779  LEU786  VAL792 
 PHE793  MET794  SER795  GLU796  ALA797  LYS798  CYS799  TRP800  GLU811  SER814 

> <Gold.Protein.RotatedAtoms>
  151.2767  133.4229  159.2624 H   0  0  0  0  0  0  0  0  0  0  0  0  # atno 6907 bound_to 6896
  151.0397  134.9598  159.8165 H   0  0  0  0  0  0  0  0  0  0  0  0  # atno 6908 bound_to 6896
  152.5362  134.2726  159.9029 H   0  0  0  0  0  0  0  0  0  0  0  0  # atno 6909 bound_to 6896
  145.4468  140.9560  143.2045 H   0  0  0  0  0  0  0  0  0  0  0  0  # atno 7974 bound_to 7965
  156.2936  140.2270  156.4840 H   0  0  0  0  0  0  0  0  0  0  0  0  # atno 8008 bound_to 7997
  154.7828  140.0459  157.1162 H   0  0  0  0  0  0  0  0  0  0  0  0  # atno 8009 bound_to 7997
  154.9738  140.3070  155.4979 H   0  0  0  0  0  0  0  0  0  0  0  0  # atno 8010 bound_to 7997
  140.5822  143.8958  150.6800 H   0  0  0  0  0  0  0  0  0  0  0  0  # atno 10167 bound_to 10162
  157.6403  130.9480  150.0659 H   0  0  0  0  0  0  0  0  0  0  0  0  # atno 10718 bound_to 10713
  154.7026  135.2991  154.9318 H   0  0  0  0  0  0  0  0  0  0  0  0  # atno 10763 bound_to 10752
  154.0245  135.6678  153.4779 H   0  0  0  0  0  0  0  0  0  0  0  0  # atno 10764 bound_to 10752
  153.0693  135.5070  154.8179 H   0  0  0  0  0  0  0  0  0  0  0  0  # atno 10765 bound_to 10752
  140.6357  134.4604  157.5231 H   0  0  0  0  0  0  0  0  0  0  0  0  # atno 11005 bound_to 11000
  144.8087  139.6003  143.7039 LP  0  0  0  0  0  0  0  0  0  0  0  0  # atno 17320 bound_to 7965
  146.2526  139.6233  142.9416 LP  0  0  0  0  0  0  0  0  0  0  0  0  # atno 17321 bound_to 7965
  140.2460  143.3628  152.1446 LP  0  0  0  0  0  0  0  0  0  0  0  0  # atno 17342 bound_to 10162
  139.5177  144.6995  151.5535 LP  0  0  0  0  0  0  0  0  0  0  0  0  # atno 17343 bound_to 10162
  156.1678  130.3645  149.9208 LP  0  0  0  0  0  0  0  0  0  0  0  0  # atno 17370 bound_to 10713
  156.7190  130.8999  151.3616 LP  0  0  0  0  0  0  0  0  0  0  0  0  # atno 17371 bound_to 10713
  139.9099  134.8367  156.1567 LP  0  0  0  0  0  0  0  0  0  0  0  0  # atno 17394 bound_to 11000
  141.0643  133.6826  156.2014 LP  0  0  0  0  0  0  0  0  0  0  0  0  # atno 17395 bound_to 11000

$$$$
