AV-unprocessed.smi:1795|AV-procd|sdf|7245|dock10
  -GOLD-   22720 8493D 1   1.00000     0.00000
 Structure written by MMmdl.
 48 49  0  0  0  0  0  0  0  0  2 V2000
  145.1494  133.4723  150.0294 C   0  0  0  0  0  0  0  0  0  0  0  0
  145.8966  134.3849  151.0081 C   0  0  2  0  0  0  0  0  0  0  0  0
  146.7073  133.5829  152.0404 C   0  0  0  0  0  0  0  0  0  0  0  0
  147.3690  134.4876  153.0172 N   0  3  2  0  0  0  0  0  0  0  0  0
  148.3064  133.7574  153.9326 C   0  0  1  0  0  0  0  0  0  0  0  0
  149.3877  133.0322  153.0991 C   0  0  0  0  0  0  0  0  0  0  0  0
  148.9572  134.6604  155.0174 C   0  0  0  0  0  0  0  0  0  0  0  0
  149.5718  135.8605  154.4552 N   0  0  0  0  0  0  0  0  0  0  0  0
  150.7389  136.3954  154.8465 C   0  0  0  0  0  0  0  0  0  0  0  0
  151.4533  135.8973  155.7172 O   0  0  0  0  0  0  0  0  0  0  0  0
  151.1566  137.6917  154.1389 C   0  0  0  0  0  0  0  0  0  0  0  0
  150.6767  138.9038  154.8237 N   0  0  0  0  0  0  0  0  0  0  0  0
  149.4805  139.4797  154.3511 C   0  0  0  0  0  0  0  0  0  0  0  0
  148.9543  140.5816  154.9090 C   0  0  0  0  0  0  0  0  0  0  0  0
  149.6485  141.1808  156.0242 C   0  0  0  0  0  0  0  0  0  0  0  0
  150.7947  140.6399  156.4827 C   0  0  0  0  0  0  0  0  0  0  0  0
  151.3735  139.4354  155.8763 C   0  0  0  0  0  0  0  0  0  0  0  0
  152.4206  138.9343  156.2884 O   0  0  0  0  0  0  0  0  0  0  0  0
  146.3385  135.3370  153.6751 C   0  0  0  0  0  0  0  0  0  0  0  0
  145.4765  136.0888  152.6405 C   0  0  1  0  0  0  0  0  0  0  0  0
  146.2096  137.2653  151.9709 C   0  0  0  0  0  0  0  0  0  0  0  0
  144.9309  135.1799  151.6873 O   0  0  0  0  0  0  0  0  0  0  0  0
  145.8431  132.8461  149.4677 H   0  0  0  0  0  0  0  0  0  0  0  0
  144.5760  134.0583  149.3107 H   0  0  0  0  0  0  0  0  0  0  0  0
  144.4538  132.8152  150.5523 H   0  0  0  0  0  0  0  0  0  0  0  0
  146.5651  135.0229  150.4297 H   0  0  0  0  0  0  0  0  0  0  0  0
  146.0533  132.8905  152.5734 H   0  0  0  0  0  0  0  0  0  0  0  0
  147.4390  132.9747  151.5113 H   0  0  0  0  0  0  0  0  0  0  0  0
  147.7239  133.0023  154.4637 H   0  0  0  0  0  0  0  0  0  0  0  0
  150.0242  132.4036  153.7211 H   0  0  0  0  0  0  0  0  0  0  0  0
  150.0317  133.7474  152.5863 H   0  0  0  0  0  0  0  0  0  0  0  0
  148.9670  132.3708  152.3444 H   0  0  0  0  0  0  0  0  0  0  0  0
  148.2265  134.9197  155.7854 H   0  0  0  0  0  0  0  0  0  0  0  0
  149.7651  134.1304  155.5220 H   0  0  0  0  0  0  0  0  0  0  0  0
  149.0583  136.3350  153.7265 H   0  0  0  0  0  0  0  0  0  0  0  0
  152.2443  137.6951  154.0559 H   0  0  0  0  0  0  0  0  0  0  0  0
  150.7900  137.6848  153.1103 H   0  0  0  0  0  0  0  0  0  0  0  0
  149.0251  138.9757  153.5111 H   0  0  0  0  0  0  0  0  0  0  0  0
  148.0372  141.0102  154.5323 H   0  0  0  0  0  0  0  0  0  0  0  0
  149.2473  142.0676  156.4924 H   0  0  0  0  0  0  0  0  0  0  0  0
  151.3007  141.1022  157.3175 H   0  0  0  0  0  0  0  0  0  0  0  0
  145.7014  134.7061  154.2973 H   0  0  0  0  0  0  0  0  0  0  0  0
  146.7930  136.0808  154.3288 H   0  0  0  0  0  0  0  0  0  0  0  0
  144.6233  136.5143  153.1696 H   0  0  0  0  0  0  0  0  0  0  0  0
  146.4976  138.0126  152.7110 H   0  0  0  0  0  0  0  0  0  0  0  0
  145.5675  137.7582  151.2405 H   0  0  0  0  0  0  0  0  0  0  0  0
  147.1192  136.9514  151.4598 H   0  0  0  0  0  0  0  0  0  0  0  0
  147.9446  135.1242  152.4846 H   0  0  0  0  0  0  0  0  0  0  0  0
  1  2  1  0  0  0  0
  1 23  1  0  0  0  0
  1 24  1  0  0  0  0
  1 25  1  0  0  0  0
  2 22  1  0  0  0  0
  2  3  1  0  0  0  0
  2 26  1  0  0  0  0
  3  4  1  0  0  0  0
  3 27  1  0  0  0  0
  3 28  1  0  0  0  0
  4  5  1  0  0  0  0
  4 19  1  0  0  0  0
  4 48  1  0  0  0  0
  5  6  1  0  0  0  0
  5  7  1  0  0  0  0
  5 29  1  0  0  0  0
  6 30  1  0  0  0  0
  6 31  1  0  0  0  0
  6 32  1  0  0  0  0
  7  8  1  0  0  0  0
  7 33  1  0  0  0  0
  7 34  1  0  0  0  0
  8  9  1  0  0  0  0
  8 35  1  0  0  0  0
  9 10  2  0  0  0  0
  9 11  1  0  0  0  0
 11 12  1  0  0  0  0
 11 36  1  0  0  0  0
 11 37  1  0  0  0  0
 12 17  1  0  0  0  0
 12 13  1  0  0  0  0
 13 14  2  0  0  0  0
 13 38  1  0  0  0  0
 14 15  1  0  0  0  0
 14 39  1  0  0  0  0
 15 16  2  0  0  0  0
 15 40  1  0  0  0  0
 16 17  1  0  0  0  0
 16 41  1  0  0  0  0
 17 18  2  0  0  0  0
 19 20  1  0  0  0  0
 19 42  1  0  0  0  0
 19 43  1  0  0  0  0
 20 21  1  0  0  0  0
 20 22  1  0  0  0  0
 20 44  1  0  0  0  0
 21 45  1  0  0  0  0
 21 46  1  0  0  0  0
 21 47  1  0  0  0  0
M  CHG  1   4   1
M  END
> <s_m_source_file>
AV-unprocessed.smi

> <i_m_source_file_index>
1795

> <i_lp_mmshare_version>
43012

> <i_f3d_flags>
0

> <s_epik_input>
W0NIM11bQ0BASF0xW0NIMl1OKFtDSDJdW0NASF0oTzEpW0NIM10pW0NASF0oW0NIM10pW0NIMl1bTkhdQyg9TylbQ0gyXW4yW2NIXVtjSF1bY0hdW2NIXWMyPU8=

> <s_epik_cmdline>
J2VwaWtfcHl0aG9uJywgJy1waCcsICc3LjAnLCAnLXRuJywgJzgnLCAnLW1hJywgJzIwMCcsICctbWV0YWxfYmluZGluZycsICctaW1hZScsICc8aW5maWxlLm1hZT4nLCAnLW9tYWUnLCAnPG91dGZpbGUubWFlPic=

> <r_lp_tautomer_probability>
1

> <r_epik_Ionization_Penalty>
0.656654

> <r_epik_Ionization_Penalty_Charging>
0.656654

> <r_epik_Ionization_Penalty_Neutral>
8.90321e-08

> <r_epik_State_Penalty>
0.675641

> <r_epik_Charging_Adjusted_Penalty>
1.33229

> <i_epik_Tot_Q>
1

> <i_epik_Tot_abs_Q>
1

> <r_epik_Metal_State_Penalty>
0.675691

> <b_epik_Metal_Only>
0

> <s_lp_Force_Field>
OPLS_2005

> <r_lp_Energy>
30.7176

> <b_lp_Chiralities_Consistent>
1

> <s_lp_Variant>
AV-unprocessed.smi:1795-9

> <Gold.Version>
5.8.1

> <Gold.Id.Protein>
6NUR|6NUR_protein|mol2

> <Gold.PLP.Fitness>
54.6548

> <Gold.PLP.PLP>
-40.5070

> <Gold.PLP.part.hbond>
-4.0000

> <Gold.PLP.part.metal>
0.0000

> <Gold.PLP.part.buried>
-0.9582

> <Gold.PLP.part.nonpolar>
-35.1005

> <Gold.PLP.part.repulsive>
0.2385

> <Gold.PLP.ligand.clash>
0.0000

> <Gold.PLP.ligand.torsion>
0.9462

> <Gold.PLP.Chemscore.Hbond>
4.5075

> <Gold.PLP.Chemscore.CHOScore>
0.8163

> <Gold.PLP.Chemscore.Metal>
0.0000

> <Gold.Chemscore.Hbonds>
donor molecule, donor type, donor heavy atom, donor atom, acceptor molecule, acceptor atom, score
      L1  H     4    48       P1  7948  2.00
      L1  H     8    35       P1  7948  0.70
      P1  H  7997  8010       L1    18  0.46
      P1  H 10752 10765       L1    10  0.85
      L1  C    13    38       P1  7957  0.50

> <Gold.PLP.Chemscore.Internal.Correction>
0.0687

> <Gold.Rescore>
     Score         DG    S(hbond)    S(metal)    S(lipo)     H(rot)  DE(clash)    DE(int)     intcor
     19.05     -20.06       3.12        0.00      76.85       1.89       0.08       0.93       ----

> <Gold.Chemscore.Fitness>
19.0465

> <Gold.Chemscore.DG>
-20.0562

> <Gold.Chemscore.ZeroCoef>
-5.4800

> <Gold.Chemscore.Hbond>
3.1185

> <Gold.Chemscore.Metal>
0.0000

> <Gold.Chemscore.Lipo>
76.8480

> <Gold.Chemscore.Internal_Hbond>
0.0000

> <Gold.Chemscore.DEClash>
0.0767

> <Gold.Chemscore.DEInternal>
0.9330

> <Gold.Chemscore.Rot>
1.8870

> <Gold.Chemscore.Internal.Correction>
   9.000000E+99

> <Gold.Chemscore.Hbonds>
donor molecule, donor type, donor heavy atom, donor atom, acceptor molecule, acceptor atom, score
      L1  H     4    48       P1  7948  0.94
      L1  H     8    35       P1  7948  0.69
      P1  H  7997  8010       L1    18  0.45
      P1  H 10752 10765       L1    10  0.14

> <Gold.Chemscore.Hbond.Weighted>
-10.4158

> <Gold.Chemscore.Metal.Weighted>
-0.0000

> <Gold.Chemscore.Lipo.Weighted>
-8.9912

> <Gold.Chemscore.Internal_Hbond.Weighted>
0.0000

> <Gold.Chemscore.DEClash.Weighted>
0.0767

> <Gold.Chemscore.DEInternal.Weighted>
0.9330

> <Gold.Chemscore.Rot.Weighted>
4.8308

> <Gold.Chemscore.Internal.Correction.Weighted>
   9.000000E+99

> <Gold.Protein.RotatedTorsions>
[ 6907 6896 6895 6894 ] final  117.00 input  -60.11 | X-H torsion
[ 7974 7965 7964 7962 ] final  138.30 input  175.53 | X-H torsion
[ 8008 7997 7996 7995 ] final   76.11 input   59.86 | X-H torsion
[ 10167 10162 10161 10158 ] final  169.78 input  -65.29 | X-H torsion
[ 10718 10713 10712 10709 ] final  120.06 input   66.30 | X-H torsion
[ 10763 10752 10751 10750 ] final -178.34 input  -60.55 | X-H torsion
[ 11005 11000 10999 10996 ] final   80.66 input  -57.11 | X-H torsion

> <Gold.Protein.ActiveResidues>
 VAL166  LYS551  ARG553  GLY616  TRP617  ASP618  TYR619  PRO620  LYS621  CYS622 
 ASP623  PHE694  ASN695  SER759  ASP760  ASP761  ALA762  ILE779  LEU786  VAL792 
 PHE793  MET794  SER795  GLU796  ALA797  LYS798  CYS799  TRP800  GLU811  SER814 

> <Gold.Protein.RotatedAtoms>
  152.4641  133.7885  159.6888 H   0  0  0  0  0  0  0  0  0  0  0  0  # atno 6907 bound_to 6896
  150.8598  133.7651  159.3002 H   0  0  0  0  0  0  0  0  0  0  0  0  # atno 6908 bound_to 6896
  151.5220  135.1070  159.9933 H   0  0  0  0  0  0  0  0  0  0  0  0  # atno 6909 bound_to 6896
  144.9385  139.4959  143.5583 H   0  0  0  0  0  0  0  0  0  0  0  0  # atno 7974 bound_to 7965
  155.8226  140.3469  155.5523 H   0  0  0  0  0  0  0  0  0  0  0  0  # atno 8008 bound_to 7997
  155.8326  140.0929  157.1803 H   0  0  0  0  0  0  0  0  0  0  0  0  # atno 8009 bound_to 7997
  154.4004  140.1409  156.3620 H   0  0  0  0  0  0  0  0  0  0  0  0  # atno 8010 bound_to 7997
  139.5001  144.3668  151.9766 H   0  0  0  0  0  0  0  0  0  0  0  0  # atno 10167 bound_to 10162
  157.5918  131.1063  150.7982 H   0  0  0  0  0  0  0  0  0  0  0  0  # atno 10718 bound_to 10713
  154.5490  135.2811  155.1026 H   0  0  0  0  0  0  0  0  0  0  0  0  # atno 10763 bound_to 10752
  154.2479  135.6345  153.5234 H   0  0  0  0  0  0  0  0  0  0  0  0  # atno 10764 bound_to 10752
  152.9998  135.5576  154.6050 H   0  0  0  0  0  0  0  0  0  0  0  0  # atno 10765 bound_to 10752
  139.9126  134.7937  156.1938 H   0  0  0  0  0  0  0  0  0  0  0  0  # atno 11005 bound_to 11000
  146.3276  139.8387  142.8894 LP  0  0  0  0  0  0  0  0  0  0  0  0  # atno 17320 bound_to 7965
  145.3028  141.0199  143.3599 LP  0  0  0  0  0  0  0  0  0  0  0  0  # atno 17321 bound_to 7965
  140.3104  144.3544  150.6035 LP  0  0  0  0  0  0  0  0  0  0  0  0  # atno 17342 bound_to 10162
  140.5803  143.2173  151.7441 LP  0  0  0  0  0  0  0  0  0  0  0  0  # atno 17343 bound_to 10162
  156.8403  130.5045  149.5322 LP  0  0  0  0  0  0  0  0  0  0  0  0  # atno 17370 bound_to 10713
  156.0974  130.5942  150.9836 LP  0  0  0  0  0  0  0  0  0  0  0  0  # atno 17371 bound_to 10713
  141.0567  133.6862  156.1874 LP  0  0  0  0  0  0  0  0  0  0  0  0  # atno 17394 bound_to 11000
  140.6726  134.4852  157.5587 LP  0  0  0  0  0  0  0  0  0  0  0  0  # atno 17395 bound_to 11000

$$$$
