AV-unprocessed.smi:260|AV-procd|sdf|1978|dock3
  -GOLD-   2262021153D 1   1.00000     0.00000
 Structure written by MMmdl.
 53 56  0  0  0  0  0  0  0  0  1 V2000
  152.4814  143.1799  161.9140 C   0  0  0  0  0  0  0  0  0  0  0  0
  151.8842  143.2695  160.5908 N   0  0  0  0  0  0  0  0  0  0  0  0
  152.2811  142.5515  159.5280 C   0  0  0  0  0  0  0  0  0  0  0  0
  153.2142  141.7500  159.5942 O   0  0  0  0  0  0  0  0  0  0  0  0
  151.5419  142.7531  158.1792 C   0  0  2  0  0  0  0  0  0  0  0  0
  151.6409  144.2365  157.7735 C   0  0  0  0  0  0  0  0  0  0  0  0
  150.0817  142.2456  158.1738 C   0  0  0  0  0  0  0  0  0  0  0  0
  150.1892  140.7385  157.9079 C   0  0  0  0  0  0  0  0  0  0  0  0
  151.4772  140.5502  157.2554 N   0  0  0  0  0  0  0  0  0  0  0  0
  151.6809  139.5309  156.3809 C   0  0  0  0  0  0  0  0  0  0  0  0
  152.6979  139.6328  155.4844 N   0  0  0  0  0  0  0  0  0  0  0  0
  152.9290  138.6550  154.6042 C   0  0  0  0  0  0  0  0  0  0  0  0
  152.2782  137.5011  154.4500 N   0  0  0  0  0  0  0  0  0  0  0  0
  151.2650  137.3821  155.3541 C   0  0  0  0  0  0  0  0  0  0  0  0
  150.9001  138.3376  156.3467 C   0  0  0  0  0  0  0  0  0  0  0  0
  149.8242  137.8538  157.0846 N   0  0  0  0  0  0  0  0  0  0  0  0
  149.5629  136.6910  156.5535 C   0  0  0  0  0  0  0  0  0  0  0  0
  150.3776  136.3312  155.5057 N   0  0  0  0  0  0  0  0  0  0  0  0
  150.3044  135.1010  154.7364 C   0  0  0  0  0  0  0  0  0  0  0  0
  148.8879  134.4937  154.7369 C   0  0  1  0  0  0  0  0  0  0  0  0
  147.9896  135.4048  154.1331 O   0  0  0  0  0  0  0  0  0  0  0  0
  148.8254  133.1569  153.9758 C   0  0  2  0  0  0  0  0  0  0  0  0
  147.4630  132.4621  154.0222 C   0  0  0  0  0  0  0  0  0  0  0  0
  147.8002  130.9945  153.8104 C   0  0  0  0  0  0  0  0  0  0  0  0
  149.3082  130.9190  154.0635 C   0  0  0  0  0  0  0  0  0  0  0  0
  149.6607  132.1895  154.5929 O   0  0  0  0  0  0  0  0  0  0  0  0
  152.1516  141.8341  157.1030 C   0  0  0  0  0  0  0  0  0  0  0  0
  152.0137  143.9029  162.5822 H   0  0  0  0  0  0  0  0  0  0  0  0
  153.5507  143.3925  161.8750 H   0  0  0  0  0  0  0  0  0  0  0  0
  152.3391  142.1834  162.3347 H   0  0  0  0  0  0  0  0  0  0  0  0
  151.1148  143.9128  160.4736 H   0  0  0  0  0  0  0  0  0  0  0  0
  151.1658  144.4172  156.8087 H   0  0  0  0  0  0  0  0  0  0  0  0
  152.6782  144.5627  157.6878 H   0  0  0  0  0  0  0  0  0  0  0  0
  151.1493  144.8797  158.5043 H   0  0  0  0  0  0  0  0  0  0  0  0
  149.5109  142.4766  159.0738 H   0  0  0  0  0  0  0  0  0  0  0  0
  149.5419  142.7063  157.3451 H   0  0  0  0  0  0  0  0  0  0  0  0
  150.1812  140.1782  158.8433 H   0  0  0  0  0  0  0  0  0  0  0  0
  149.3583  140.3924  157.2919 H   0  0  0  0  0  0  0  0  0  0  0  0
  153.7525  138.8221  153.9258 H   0  0  0  0  0  0  0  0  0  0  0  0
  148.7620  136.0605  156.9120 H   0  0  0  0  0  0  0  0  0  0  0  0
  150.6367  135.3002  153.7168 H   0  0  0  0  0  0  0  0  0  0  0  0
  151.0183  134.3950  155.1624 H   0  0  0  0  0  0  0  0  0  0  0  0
  148.5647  134.3365  155.7670 H   0  0  0  0  0  0  0  0  0  0  0  0
  148.2532  135.5347  153.2349 H   0  0  0  0  0  0  0  0  0  0  0  0
  149.1425  133.2891  152.9392 H   0  0  0  0  0  0  0  0  0  0  0  0
  147.0071  132.5920  155.0046 H   0  0  0  0  0  0  0  0  0  0  0  0
  146.7682  132.8487  153.2763 H   0  0  0  0  0  0  0  0  0  0  0  0
  147.2410  130.3624  154.5009 H   0  0  0  0  0  0  0  0  0  0  0  0
  147.5651  130.6733  152.7951 H   0  0  0  0  0  0  0  0  0  0  0  0
  149.5781  130.1191  154.7533 H   0  0  0  0  0  0  0  0  0  0  0  0
  149.8459  130.7575  153.1280 H   0  0  0  0  0  0  0  0  0  0  0  0
  151.9583  142.2286  156.1042 H   0  0  0  0  0  0  0  0  0  0  0  0
  153.2314  141.7213  157.2095 H   0  0  0  0  0  0  0  0  0  0  0  0
  1  2  1  0  0  0  0
  1 28  1  0  0  0  0
  1 29  1  0  0  0  0
  1 30  1  0  0  0  0
  2  3  1  0  0  0  0
  2 31  1  0  0  0  0
  3  4  2  0  0  0  0
  3  5  1  0  0  0  0
  5 27  1  0  0  0  0
  5  6  1  0  0  0  0
  5  7  1  0  0  0  0
  6 32  1  0  0  0  0
  6 33  1  0  0  0  0
  6 34  1  0  0  0  0
  7  8  1  0  0  0  0
  7 35  1  0  0  0  0
  7 36  1  0  0  0  0
  8  9  1  0  0  0  0
  8 37  1  0  0  0  0
  8 38  1  0  0  0  0
  9 10  1  0  0  0  0
  9 27  1  0  0  0  0
 10 15  1  0  0  0  0
 10 11  2  0  0  0  0
 11 12  1  0  0  0  0
 12 13  2  0  0  0  0
 12 39  1  0  0  0  0
 13 14  1  0  0  0  0
 14 18  1  0  0  0  0
 14 15  2  0  0  0  0
 15 16  1  0  0  0  0
 16 17  2  0  0  0  0
 17 18  1  0  0  0  0
 17 40  1  0  0  0  0
 18 19  1  0  0  0  0
 19 20  1  0  0  0  0
 19 41  1  0  0  0  0
 19 42  1  0  0  0  0
 20 21  1  0  0  0  0
 20 22  1  0  0  0  0
 20 43  1  0  0  0  0
 21 44  1  0  0  0  0
 22 26  1  0  0  0  0
 22 23  1  0  0  0  0
 22 45  1  0  0  0  0
 23 24  1  0  0  0  0
 23 46  1  0  0  0  0
 23 47  1  0  0  0  0
 24 25  1  0  0  0  0
 24 48  1  0  0  0  0
 24 49  1  0  0  0  0
 25 26  1  0  0  0  0
 25 50  1  0  0  0  0
 25 51  1  0  0  0  0
 27 52  1  0  0  0  0
 27 53  1  0  0  0  0
M  END
> <s_m_source_file>
AV-unprocessed.smi

> <i_m_source_file_index>
260

> <i_lp_mmshare_version>
43012

> <i_f3d_flags>
0

> <s_epik_input>
W0NIM11bTkhdQyg9TylbQ0BAXTEoW0NIM10pW0NIMl1bQ0gyXU4oW0NIMl0xKWMobltjSF1uMiljKGMyMyluW2NIXW4zW0NIMl1bQ0BIXShbT0hdKVtDQEBIXTRbQ0gyXVtDSDJdW0NIMl1PNA==

> <s_epik_cmdline>
J2VwaWtfcHl0aG9uJywgJy1waCcsICc3LjAnLCAnLXRuJywgJzgnLCAnLW1hJywgJzIwMCcsICctbWV0YWxfYmluZGluZycsICctaW1hZScsICc8aW5maWxlLm1hZT4nLCAnLW9tYWUnLCAnPG91dGZpbGUubWFlPic=

> <r_lp_tautomer_probability>
1

> <r_epik_Ionization_Penalty>
0.00115068

> <r_epik_Ionization_Penalty_Charging>
0

> <r_epik_Ionization_Penalty_Neutral>
0.00115068

> <r_epik_State_Penalty>
0.000668876

> <r_epik_Charging_Adjusted_Penalty>
0.000668876

> <i_epik_Tot_Q>
0

> <i_epik_Tot_abs_Q>
0

> <r_epik_Metal_State_Penalty>
-0

> <b_epik_Metal_Only>
0

> <s_lp_Force_Field>
OPLS_2005

> <r_lp_Energy>
50.1788

> <b_lp_Chiralities_Consistent>
1

> <s_lp_Variant>
AV-unprocessed.smi:260-4

> <Gold.Version>
5.8.1

> <Gold.Id.Protein>
6NUR|6NUR_protein|mol2

> <Gold.PLP.Fitness>
50.4396

> <Gold.PLP.PLP>
-43.0802

> <Gold.PLP.part.hbond>
-3.2892

> <Gold.PLP.part.metal>
0.0000

> <Gold.PLP.part.buried>
-9.1013

> <Gold.PLP.part.nonpolar>
-30.8841

> <Gold.PLP.part.repulsive>
0.2255

> <Gold.PLP.ligand.clash>
0.0000

> <Gold.PLP.ligand.torsion>
0.5643

> <Gold.PLP.Chemscore.Hbond>
2.7040

> <Gold.PLP.Chemscore.CHOScore>
0.0000

> <Gold.PLP.Chemscore.Metal>
0.0000

> <Gold.Chemscore.Hbonds>
donor molecule, donor type, donor heavy atom, donor atom, acceptor molecule, acceptor atom, score
      L1  H    21    44       P1  7948  1.00
      P1  H  7997  8008       L1    11  1.00
      P1  H 10752 10763       L1    13  0.72

> <Gold.PLP.Chemscore.Internal.Correction>
0.3761

> <Gold.Rescore>
     Score         DG    S(hbond)    S(metal)    S(lipo)     H(rot)  DE(clash)    DE(int)     intcor
     13.67     -16.96       2.43        0.00      84.06       2.53       1.88       1.41       ----

> <Gold.Chemscore.Fitness>
13.6692

> <Gold.Chemscore.DG>
-16.9593

> <Gold.Chemscore.ZeroCoef>
-5.4800

> <Gold.Chemscore.Hbond>
2.4285

> <Gold.Chemscore.Metal>
0.0000

> <Gold.Chemscore.Lipo>
84.0558

> <Gold.Chemscore.Internal_Hbond>
0.0000

> <Gold.Chemscore.DEClash>
1.8815

> <Gold.Chemscore.DEInternal>
1.4086

> <Gold.Chemscore.Rot>
2.5259

> <Gold.Chemscore.Internal.Correction>
   9.000000E+99

> <Gold.Chemscore.Hbonds>
donor molecule, donor type, donor heavy atom, donor atom, acceptor molecule, acceptor atom, score
      L1  H    21    44       P1  7948  1.00
      P1  H  7997  8008       L1    11  0.39
      P1  H 10752 10763       L1    13  0.43

> <Gold.Chemscore.Hbond.Weighted>
-8.1111

> <Gold.Chemscore.Metal.Weighted>
-0.0000

> <Gold.Chemscore.Lipo.Weighted>
-9.8345

> <Gold.Chemscore.Internal_Hbond.Weighted>
0.0000

> <Gold.Chemscore.DEClash.Weighted>
1.8815

> <Gold.Chemscore.DEInternal.Weighted>
1.4086

> <Gold.Chemscore.Rot.Weighted>
6.4663

> <Gold.Chemscore.Internal.Correction.Weighted>
   9.000000E+99

> <Gold.Protein.RotatedTorsions>
[ 6907 6896 6895 6894 ] final  -87.55 input  -60.11 | X-H torsion
[ 7974 7965 7964 7962 ] final  -95.62 input  175.53 | X-H torsion
[ 8008 7997 7996 7995 ] final  -19.06 input   59.86 | X-H torsion
[ 10167 10162 10161 10158 ] final    8.54 input  -65.29 | X-H torsion
[ 10718 10713 10712 10709 ] final  139.54 input   66.30 | X-H torsion
[ 10763 10752 10751 10750 ] final   32.09 input  -60.55 | X-H torsion
[ 11005 11000 10999 10996 ] final   57.72 input  -57.11 | X-H torsion

> <Gold.Protein.ActiveResidues>
 VAL166  LYS551  ARG553  GLY616  TRP617  ASP618  TYR619  PRO620  LYS621  CYS622 
 ASP623  PHE694  ASN695  SER759  ASP760  ASP761  ALA762  ILE779  LEU786  VAL792 
 PHE793  MET794  SER795  GLU796  ALA797  LYS798  CYS799  TRP800  GLU811  SER814 

> <Gold.Protein.RotatedAtoms>
  150.6866  134.2878  159.4653 H   0  0  0  0  0  0  0  0  0  0  0  0  # atno 6907 bound_to 6896
  152.0786  134.9483  160.0583 H   0  0  0  0  0  0  0  0  0  0  0  0  # atno 6908 bound_to 6896
  152.0845  133.4134  159.4553 H   0  0  0  0  0  0  0  0  0  0  0  0  # atno 6909 bound_to 6896
  145.3577  140.9487  143.2518 H   0  0  0  0  0  0  0  0  0  0  0  0  # atno 7974 bound_to 7965
  154.4863  140.2099  155.9649 H   0  0  0  0  0  0  0  0  0  0  0  0  # atno 8008 bound_to 7997
  156.1240  140.3208  155.8219 H   0  0  0  0  0  0  0  0  0  0  0  0  # atno 8009 bound_to 7997
  155.4417  140.0510  157.3000 H   0  0  0  0  0  0  0  0  0  0  0  0  # atno 8010 bound_to 7997
  140.6308  143.7997  150.7293 H   0  0  0  0  0  0  0  0  0  0  0  0  # atno 10167 bound_to 10162
  157.4133  131.1030  151.0431 H   0  0  0  0  0  0  0  0  0  0  0  0  # atno 10718 bound_to 10713
  153.0280  135.6422  154.1301 H   0  0  0  0  0  0  0  0  0  0  0  0  # atno 10763 bound_to 10752
  154.1027  135.2858  155.3249 H   0  0  0  0  0  0  0  0  0  0  0  0  # atno 10764 bound_to 10752
  154.6387  135.5467  153.7827 H   0  0  0  0  0  0  0  0  0  0  0  0  # atno 10765 bound_to 10752
  140.0431  134.5844  155.9356 H   0  0  0  0  0  0  0  0  0  0  0  0  # atno 11005 bound_to 11000
  144.8670  139.5093  143.6785 LP  0  0  0  0  0  0  0  0  0  0  0  0  # atno 17320 bound_to 7965
  146.2941  139.7225  142.9139 LP  0  0  0  0  0  0  0  0  0  0  0  0  # atno 17321 bound_to 7965
  140.1608  143.4277  152.2068 LP  0  0  0  0  0  0  0  0  0  0  0  0  # atno 17342 bound_to 10162
  139.5523  144.7347  151.4399 LP  0  0  0  0  0  0  0  0  0  0  0  0  # atno 17343 bound_to 10162
  157.1388  130.6134  149.5549 LP  0  0  0  0  0  0  0  0  0  0  0  0  # atno 17370 bound_to 10713
  155.9857  130.4888  150.7045 LP  0  0  0  0  0  0  0  0  0  0  0  0  # atno 17371 bound_to 10713
  141.1893  133.6565  156.5363 LP  0  0  0  0  0  0  0  0  0  0  0  0  # atno 17394 bound_to 11000
  140.4037  134.7334  157.4795 LP  0  0  0  0  0  0  0  0  0  0  0  0  # atno 17395 bound_to 11000

$$$$
