AV-unprocessed.smi:370|AV-procd|sdf|2438|dock3
  -GOLD-   2262022373D 1   1.00000     0.00000
 Structure written by MMmdl.
 41 42  0  0  0  0  0  0  0  0  2 V2000
  145.8056  136.6386  162.2015 C   0  0  0  0  0  0  0  0  0  0  0  0
  146.7636  136.5984  161.0605 C   0  0  0  0  0  0  0  0  0  0  0  0
  147.6787  135.6708  160.6504 C   0  0  0  0  0  0  0  0  0  0  0  0
  148.2423  136.2624  159.4869 C   0  0  0  0  0  0  0  0  0  0  0  0
  149.2054  135.7311  158.7182 N   0  5  0  0  0  0  0  0  0  0  0  0
  149.3110  136.0888  157.4173 C   0  0  0  0  0  0  0  0  0  0  0  0
  148.3857  136.1835  156.6074 O   0  0  0  0  0  0  0  0  0  0  0  0
  150.5647  136.3542  157.0281 N   0  0  0  0  0  0  0  0  0  0  0  0
  150.9594  136.7644  155.6833 C   0  0  0  0  0  0  0  0  0  0  0  0
  151.6689  138.1486  155.6689 C   0  0  0  0  0  0  0  0  0  0  0  0
  152.5252  138.2350  156.9555 C   0  0  0  0  0  0  0  0  0  0  0  0
  152.6456  138.1238  154.4655 C   0  0  0  0  0  0  0  0  0  0  0  0
  150.6941  139.2684  155.5420 N   0  0  0  0  0  0  0  0  0  0  0  0
  149.9083  139.2673  154.3028 C   0  0  0  0  0  0  0  0  0  0  0  0
  148.8412  140.3749  154.2932 C   0  0  0  0  0  0  0  0  0  0  0  0
  149.4603  141.6400  154.4921 O   0  0  0  0  0  0  0  0  0  0  0  0
  150.1812  141.7022  155.7166 C   0  0  0  0  0  0  0  0  0  0  0  0
  151.2615  140.6076  155.7379 C   0  0  0  0  0  0  0  0  0  0  0  0
  147.7288  137.4531  159.2260 N   0  0  0  0  0  0  0  0  0  0  0  0
  146.7742  137.6727  160.2261 O   0  0  0  0  0  0  0  0  0  0  0  0
  146.3316  136.5309  163.1500 H   0  0  0  0  0  0  0  0  0  0  0  0
  145.0797  135.8292  162.1227 H   0  0  0  0  0  0  0  0  0  0  0  0
  145.2586  137.5815  162.2238 H   0  0  0  0  0  0  0  0  0  0  0  0
  147.9052  134.7180  161.1050 H   0  0  0  0  0  0  0  0  0  0  0  0
  151.3000  136.2638  157.7139 H   0  0  0  0  0  0  0  0  0  0  0  0
  151.5904  135.9930  155.2406 H   0  0  0  0  0  0  0  0  0  0  0  0
  150.0649  136.7950  155.0586 H   0  0  0  0  0  0  0  0  0  0  0  0
  153.2277  137.4027  157.0133 H   0  0  0  0  0  0  0  0  0  0  0  0
  151.9160  138.1939  157.8581 H   0  0  0  0  0  0  0  0  0  0  0  0
  153.1187  139.1480  156.9965 H   0  0  0  0  0  0  0  0  0  0  0  0
  153.2478  137.2145  154.4577 H   0  0  0  0  0  0  0  0  0  0  0  0
  153.3510  138.9541  154.4872 H   0  0  0  0  0  0  0  0  0  0  0  0
  152.1135  138.1681  153.5143 H   0  0  0  0  0  0  0  0  0  0  0  0
  150.5618  139.4034  153.4412 H   0  0  0  0  0  0  0  0  0  0  0  0
  149.3979  138.3155  154.1670 H   0  0  0  0  0  0  0  0  0  0  0  0
  148.3126  140.3830  153.3398 H   0  0  0  0  0  0  0  0  0  0  0  0
  148.0962  140.1995  155.0709 H   0  0  0  0  0  0  0  0  0  0  0  0
  150.6382  142.6873  155.8115 H   0  0  0  0  0  0  0  0  0  0  0  0
  149.4963  141.5847  156.5579 H   0  0  0  0  0  0  0  0  0  0  0  0
  151.7788  140.6751  156.6930 H   0  0  0  0  0  0  0  0  0  0  0  0
  151.9965  140.8234  154.9626 H   0  0  0  0  0  0  0  0  0  0  0  0
  1  2  1  0  0  0  0
  1 21  1  0  0  0  0
  1 22  1  0  0  0  0
  1 23  1  0  0  0  0
  2 20  1  0  0  0  0
  2  3  2  0  0  0  0
  3  4  1  0  0  0  0
  3 24  1  0  0  0  0
  4  5  1  0  0  0  0
  4 19  2  0  0  0  0
  5  6  1  0  0  0  0
  6  7  2  0  0  0  0
  6  8  1  0  0  0  0
  8  9  1  0  0  0  0
  8 25  1  0  0  0  0
  9 10  1  0  0  0  0
  9 26  1  0  0  0  0
  9 27  1  0  0  0  0
 10 11  1  0  0  0  0
 10 12  1  0  0  0  0
 10 13  1  0  0  0  0
 11 28  1  0  0  0  0
 11 29  1  0  0  0  0
 11 30  1  0  0  0  0
 12 31  1  0  0  0  0
 12 32  1  0  0  0  0
 12 33  1  0  0  0  0
 13 18  1  0  0  0  0
 13 14  1  0  0  0  0
 14 15  1  0  0  0  0
 14 34  1  0  0  0  0
 14 35  1  0  0  0  0
 15 16  1  0  0  0  0
 15 36  1  0  0  0  0
 15 37  1  0  0  0  0
 16 17  1  0  0  0  0
 17 18  1  0  0  0  0
 17 38  1  0  0  0  0
 17 39  1  0  0  0  0
 18 40  1  0  0  0  0
 18 41  1  0  0  0  0
 19 20  1  0  0  0  0
M  CHG  1   5  -1
M  END
> <s_m_source_file>
AV-unprocessed.smi

> <i_m_source_file_index>
370

> <i_lp_mmshare_version>
43012

> <i_f3d_flags>
0

> <s_epik_input>
W0NIM11jMVtjSF1jKG5vMSlbTkhdQyg9TylbTkhdW0NIMl1DKFtDSDNdKShbQ0gzXSlOMltDSDJdW0NIMl1PW0NIMl1bQ0gyXTI=

> <s_epik_cmdline>
J2VwaWtfcHl0aG9uJywgJy1waCcsICc3LjAnLCAnLXRuJywgJzgnLCAnLW1hJywgJzIwMCcsICctbWV0YWxfYmluZGluZycsICctaW1hZScsICc8aW5maWxlLm1hZT4nLCAnLW9tYWUnLCAnPG91dGZpbGUubWFlPic=

> <r_epik_Ionization_Penalty>
6.88367

> <r_epik_Ionization_Penalty_Charging>
6.57198

> <r_epik_Ionization_Penalty_Neutral>
0.311685

> <r_epik_State_Penalty>
6.77619

> <r_epik_Charging_Adjusted_Penalty>
13.3482

> <i_epik_Tot_Q>
-1

> <i_epik_Tot_abs_Q>
1

> <r_epik_Metal_State_Penalty>
2.70533

> <b_epik_Metal_Only>
1

> <s_lp_Force_Field>
OPLS_2005

> <r_lp_Energy>
34.5841

> <b_lp_Chiralities_Consistent>
1

> <s_lp_Variant>
AV-unprocessed.smi:370-3

> <Gold.Version>
5.8.1

> <Gold.Id.Protein>
6NUR|6NUR_protein|mol2

> <Gold.PLP.Fitness>
36.9533

> <Gold.PLP.PLP>
-29.8177

> <Gold.PLP.part.hbond>
-4.6909

> <Gold.PLP.part.metal>
0.0000

> <Gold.PLP.part.buried>
-0.5655

> <Gold.PLP.part.nonpolar>
-24.6358

> <Gold.PLP.part.repulsive>
0.2947

> <Gold.PLP.ligand.clash>
1.1643

> <Gold.PLP.ligand.torsion>
1.0837

> <Gold.PLP.Chemscore.Hbond>
3.4584

> <Gold.PLP.Chemscore.CHOScore>
0.0000

> <Gold.PLP.Chemscore.Metal>
0.0000

> <Gold.Chemscore.Hbonds>
donor molecule, donor type, donor heavy atom, donor atom, acceptor molecule, acceptor atom, score
      P1  H  6896  6909       L1     5  1.95
      P1  H  6934  6947       L1    20  1.00
      P1  H  8011  8017       L1    16  0.15

> <Gold.PLP.Chemscore.Internal.Correction>
0.0922

> <Gold.Rescore>
     Score         DG    S(hbond)    S(metal)    S(lipo)     H(rot)  DE(clash)    DE(int)     intcor
     14.61     -17.41       2.04        0.00      77.08       1.53       0.81       1.99       ----

> <Gold.Chemscore.Fitness>
14.6088

> <Gold.Chemscore.DG>
-17.4063

> <Gold.Chemscore.ZeroCoef>
-5.4800

> <Gold.Chemscore.Hbond>
2.0409

> <Gold.Chemscore.Metal>
0.0000

> <Gold.Chemscore.Lipo>
77.0824

> <Gold.Chemscore.Internal_Hbond>
0.0000

> <Gold.Chemscore.DEClash>
0.8068

> <Gold.Chemscore.DEInternal>
1.9907

> <Gold.Chemscore.Rot>
1.5269

> <Gold.Chemscore.Internal.Correction>
   9.000000E+99

> <Gold.Chemscore.Hbonds>
donor molecule, donor type, donor heavy atom, donor atom, acceptor molecule, acceptor atom, score
      P1  H  6896  6909       L1     5  0.86
      P1  H  6934  6947       L1    20  0.48
      P1  H  8011  8017       L1    16  0.06

> <Gold.Chemscore.Hbond.Weighted>
-6.8166

> <Gold.Chemscore.Metal.Weighted>
-0.0000

> <Gold.Chemscore.Lipo.Weighted>
-9.0186

> <Gold.Chemscore.Internal_Hbond.Weighted>
0.0000

> <Gold.Chemscore.DEClash.Weighted>
0.8068

> <Gold.Chemscore.DEInternal.Weighted>
1.9907

> <Gold.Chemscore.Rot.Weighted>
3.9090

> <Gold.Chemscore.Internal.Correction.Weighted>
   9.000000E+99

> <Gold.Protein.RotatedTorsions>
[ 6907 6896 6895 6894 ] final   49.84 input  -60.11 | X-H torsion
[ 7974 7965 7964 7962 ] final   39.72 input  175.53 | X-H torsion
[ 8008 7997 7996 7995 ] final   75.68 input   59.86 | X-H torsion
[ 10167 10162 10161 10158 ] final   -6.36 input  -65.29 | X-H torsion
[ 10718 10713 10712 10709 ] final  143.51 input   66.30 | X-H torsion
[ 10763 10752 10751 10750 ] final    2.05 input  -60.55 | X-H torsion
[ 11005 11000 10999 10996 ] final -139.19 input  -57.11 | X-H torsion

> <Gold.Protein.ActiveResidues>
 VAL166  LYS551  ARG553  GLY616  TRP617  ASP618  TYR619  PRO620  LYS621  CYS622 
 ASP623  PHE694  ASN695  SER759  ASP760  ASP761  ALA762  ILE779  LEU786  VAL792 
 PHE793  MET794  SER795  GLU796  ALA797  LYS798  CYS799  TRP800  GLU811  SER814 

> <Gold.Protein.RotatedAtoms>
  152.2952  134.7675  160.0369 H   0  0  0  0  0  0  0  0  0  0  0  0  # atno 6907 bound_to 6896
  151.8207  133.3389  159.3591 H   0  0  0  0  0  0  0  0  0  0  0  0  # atno 6908 bound_to 6896
  150.7248  134.5505  159.5837 H   0  0  0  0  0  0  0  0  0  0  0  0  # atno 6909 bound_to 6896
  146.0961  139.5617  142.9444 H   0  0  0  0  0  0  0  0  0  0  0  0  # atno 7974 bound_to 7965
  155.8164  140.3471  155.5488 H   0  0  0  0  0  0  0  0  0  0  0  0  # atno 8008 bound_to 7997
  155.8387  140.0938  157.1768 H   0  0  0  0  0  0  0  0  0  0  0  0  # atno 8009 bound_to 7997
  154.4005  140.1398  156.3690 H   0  0  0  0  0  0  0  0  0  0  0  0  # atno 8010 bound_to 7997
  140.6994  143.6203  150.8619 H   0  0  0  0  0  0  0  0  0  0  0  0  # atno 10167 bound_to 10162
  157.3681  131.0975  151.0853 H   0  0  0  0  0  0  0  0  0  0  0  0  # atno 10718 bound_to 10713
  153.3004  135.6955  153.7208 H   0  0  0  0  0  0  0  0  0  0  0  0  # atno 10763 bound_to 10752
  153.6125  135.3442  155.2984 H   0  0  0  0  0  0  0  0  0  0  0  0  # atno 10764 bound_to 10752
  154.8549  135.4367  154.2113 H   0  0  0  0  0  0  0  0  0  0  0  0  # atno 10765 bound_to 10752
  140.8544  134.2246  157.4743 H   0  0  0  0  0  0  0  0  0  0  0  0  # atno 11005 bound_to 11000
  145.5944  141.0365  143.2052 LP  0  0  0  0  0  0  0  0  0  0  0  0  # atno 17320 bound_to 7965
  144.7397  139.7485  143.7315 LP  0  0  0  0  0  0  0  0  0  0  0  0  # atno 17321 bound_to 7965
  139.9923  143.5833  152.2905 LP  0  0  0  0  0  0  0  0  0  0  0  0  # atno 17342 bound_to 10162
  139.6493  144.7660  151.2181 LP  0  0  0  0  0  0  0  0  0  0  0  0  # atno 17343 bound_to 10162
  157.1968  130.6376  149.5724 LP  0  0  0  0  0  0  0  0  0  0  0  0  # atno 17370 bound_to 10713
  155.9750  130.4704  150.6429 LP  0  0  0  0  0  0  0  0  0  0  0  0  # atno 17371 bound_to 10713
  139.8705  134.9699  156.4682 LP  0  0  0  0  0  0  0  0  0  0  0  0  # atno 17394 bound_to 11000
  140.8754  133.7957  155.9409 LP  0  0  0  0  0  0  0  0  0  0  0  0  # atno 17395 bound_to 11000

$$$$
