AV-unprocessed.smi:3321|AV-procd|sdf|12769|dock7
  -GOLD-   2272019113D 1   1.00000     0.00000
 Structure written by MMmdl.
 41 42  0  0  0  0  0  0  0  0  2 V2000
  147.1607  137.7298  154.9145 C   0  0  0  0  0  0  0  0  0  0  0  0
  147.9668  138.6960  154.0313 C   0  0  2  0  0  0  0  0  0  0  0  0
  147.7304  138.3725  152.6044 N   0  3  0  0  0  0  0  0  0  0  0  0
  146.3099  138.3639  152.1933 C   0  0  0  0  0  0  0  0  0  0  0  0
  145.8999  136.9851  151.6565 C   0  0  0  0  0  0  0  0  0  0  0  0
  144.7808  136.4312  152.3942 N   0  0  0  0  0  0  0  0  0  0  0  0
  143.5358  136.9842  152.6095 C   0  0  0  0  0  0  0  0  0  0  0  0
  142.8217  136.0957  153.3613 C   0  0  0  0  0  0  0  0  0  0  0  0
  143.7280  135.0175  153.5631 C   0  0  0  0  0  0  0  0  0  0  0  0
  144.9006  135.2226  152.9846 N   0  0  0  0  0  0  0  0  0  0  0  0
  149.4656  138.6208  154.3932 C   0  0  0  0  0  0  0  0  0  0  0  0
  149.9967  137.5090  154.4248 O   0  0  0  0  0  0  0  0  0  0  0  0
  150.1581  139.7552  154.6664 N   0  0  0  0  0  0  0  0  0  0  0  0
  151.5733  139.8386  155.0525 C   0  0  0  0  0  0  0  0  0  0  0  0
  151.6493  140.1763  156.5522 C   0  0  0  0  0  0  0  0  0  0  0  0
  150.8950  141.4865  156.8536 C   0  0  0  0  0  0  0  0  0  0  0  0
  149.4770  141.4863  156.2490 C   0  0  0  0  0  0  0  0  0  0  0  0
  149.5067  141.0682  154.7668 C   0  0  0  0  0  0  0  0  0  0  0  0
  147.2976  137.9436  155.9752 H   0  0  0  0  0  0  0  0  0  0  0  0
  147.4573  136.6933  154.7466 H   0  0  0  0  0  0  0  0  0  0  0  0
  146.0938  137.8063  154.7030 H   0  0  0  0  0  0  0  0  0  0  0  0
  147.5888  139.7070  154.1784 H   0  0  0  0  0  0  0  0  0  0  0  0
  148.2339  139.0415  152.0391 H   0  0  0  0  0  0  0  0  0  0  0  0
  145.6867  138.6294  153.0483 H   0  0  0  0  0  0  0  0  0  0  0  0
  146.1458  139.1238  151.4281 H   0  0  0  0  0  0  0  0  0  0  0  0
  145.6215  137.0509  150.6036 H   0  0  0  0  0  0  0  0  0  0  0  0
  146.7365  136.2879  151.7216 H   0  0  0  0  0  0  0  0  0  0  0  0
  143.2632  137.9516  152.2138 H   0  0  0  0  0  0  0  0  0  0  0  0
  141.8066  136.1999  153.7147 H   0  0  0  0  0  0  0  0  0  0  0  0
  143.5695  134.0990  154.1088 H   0  0  0  0  0  0  0  0  0  0  0  0
  152.1488  138.9423  154.8315 H   0  0  0  0  0  0  0  0  0  0  0  0
  152.0558  140.6280  154.4741 H   0  0  0  0  0  0  0  0  0  0  0  0
  151.2170  139.3608  157.1337 H   0  0  0  0  0  0  0  0  0  0  0  0
  152.6895  140.2648  156.8667 H   0  0  0  0  0  0  0  0  0  0  0  0
  150.8468  141.6554  157.9296 H   0  0  0  0  0  0  0  0  0  0  0  0
  151.4572  142.3227  156.4359 H   0  0  0  0  0  0  0  0  0  0  0  0
  148.8424  140.7971  156.8077 H   0  0  0  0  0  0  0  0  0  0  0  0
  149.0268  142.4739  156.3520 H   0  0  0  0  0  0  0  0  0  0  0  0
  150.0654  141.7993  154.1805 H   0  0  0  0  0  0  0  0  0  0  0  0
  148.4952  141.0762  154.3588 H   0  0  0  0  0  0  0  0  0  0  0  0
  148.1053  137.4518  152.4268 H   0  0  0  0  0  0  0  0  0  0  0  0
  1  2  1  0  0  0  0
  1 19  1  0  0  0  0
  1 20  1  0  0  0  0
  1 21  1  0  0  0  0
  2  3  1  0  0  0  0
  2 11  1  0  0  0  0
  2 22  1  0  0  0  0
  3  4  1  0  0  0  0
  3 23  1  0  0  0  0
  3 41  1  0  0  0  0
  4  5  1  0  0  0  0
  4 24  1  0  0  0  0
  4 25  1  0  0  0  0
  5  6  1  0  0  0  0
  5 26  1  0  0  0  0
  5 27  1  0  0  0  0
  6 10  1  0  0  0  0
  6  7  1  0  0  0  0
  7  8  2  0  0  0  0
  7 28  1  0  0  0  0
  8  9  1  0  0  0  0
  8 29  1  0  0  0  0
  9 10  2  0  0  0  0
  9 30  1  0  0  0  0
 11 12  2  0  0  0  0
 11 13  1  0  0  0  0
 13 18  1  0  0  0  0
 13 14  1  0  0  0  0
 14 15  1  0  0  0  0
 14 31  1  0  0  0  0
 14 32  1  0  0  0  0
 15 16  1  0  0  0  0
 15 33  1  0  0  0  0
 15 34  1  0  0  0  0
 16 17  1  0  0  0  0
 16 35  1  0  0  0  0
 16 36  1  0  0  0  0
 17 18  1  0  0  0  0
 17 37  1  0  0  0  0
 17 38  1  0  0  0  0
 18 39  1  0  0  0  0
 18 40  1  0  0  0  0
M  CHG  1   3   1
M  END
> <s_m_source_file>
AV-unprocessed.smi

> <i_m_source_file_index>
3321

> <i_lp_mmshare_version>
43012

> <i_f3d_flags>
0

> <s_epik_input>
W0NIMl0xW0NIMl1bQ0gyXVtDSDJdW0NIMl1OMUMoPU8pW0NASF0oW0NIM10pW05IXVtDSDJdW0NIMl1uMltjSF1bY0hdW2NIXW4y

> <s_epik_cmdline>
J2VwaWtfcHl0aG9uJywgJy1waCcsICc3LjAnLCAnLXRuJywgJzgnLCAnLW1hJywgJzIwMCcsICctbWV0YWxfYmluZGluZycsICctaW1hZScsICc8aW5maWxlLm1hZT4nLCAnLW9tYWUnLCAnPG91dGZpbGUubWFlPic=

> <r_lp_tautomer_probability>
1

> <r_epik_Ionization_Penalty>
0.202061

> <r_epik_Ionization_Penalty_Charging>
0.202058

> <r_epik_Ionization_Penalty_Neutral>
2.46932e-06

> <r_epik_State_Penalty>
0.191938

> <r_epik_Charging_Adjusted_Penalty>
0.393996

> <i_epik_Tot_Q>
1

> <i_epik_Tot_abs_Q>
1

> <r_epik_Metal_State_Penalty>
0.192188

> <b_epik_Metal_Only>
0

> <s_lp_Force_Field>
OPLS_2005

> <r_lp_Energy>
26.3396

> <b_lp_Chiralities_Consistent>
1

> <s_lp_Variant>
AV-unprocessed.smi:3321-1

> <Gold.Version>
5.8.1

> <Gold.Id.Protein>
6NUR|6NUR_protein|mol2

> <Gold.PLP.Fitness>
44.8240

> <Gold.PLP.PLP>
-29.6194

> <Gold.PLP.part.hbond>
-2.0000

> <Gold.PLP.part.metal>
0.0000

> <Gold.PLP.part.buried>
1.1942

> <Gold.PLP.part.nonpolar>
-30.6199

> <Gold.PLP.part.repulsive>
1.0525

> <Gold.PLP.ligand.clash>
0.0000

> <Gold.PLP.ligand.torsion>
0.9470

> <Gold.PLP.Chemscore.Hbond>
3.0000

> <Gold.PLP.Chemscore.CHOScore>
2.6712

> <Gold.PLP.Chemscore.Metal>
0.0000

> <Gold.Chemscore.Hbonds>
donor molecule, donor type, donor heavy atom, donor atom, acceptor molecule, acceptor atom, score
      L1  H     3    23       P1  7957  1.00
      L1  H     3    41       P1  7948  2.00
      L1  C     7    28       P1 10171  0.81
      L1  C     7    28       P1 10175  1.00
      L1  C     9    30       P1 10957  0.84

> <Gold.PLP.Chemscore.Internal.Correction>
0.0850

> <Gold.Rescore>
     Score         DG    S(hbond)    S(metal)    S(lipo)     H(rot)  DE(clash)    DE(int)     intcor
     13.66     -15.12       1.99        0.00      64.69       1.79       0.60       0.86       ----

> <Gold.Chemscore.Fitness>
13.6560

> <Gold.Chemscore.DG>
-15.1193

> <Gold.Chemscore.ZeroCoef>
-5.4800

> <Gold.Chemscore.Hbond>
1.9938

> <Gold.Chemscore.Metal>
0.0000

> <Gold.Chemscore.Lipo>
64.6946

> <Gold.Chemscore.Internal_Hbond>
0.0000

> <Gold.Chemscore.DEClash>
0.6028

> <Gold.Chemscore.DEInternal>
0.8604

> <Gold.Chemscore.Rot>
1.7928

> <Gold.Chemscore.Internal.Correction>
   9.000000E+99

> <Gold.Chemscore.Hbonds>
donor molecule, donor type, donor heavy atom, donor atom, acceptor molecule, acceptor atom, score
      L1  H     3    23       P1  7957  0.99
      L1  H     3    41       P1  7948  0.97

> <Gold.Chemscore.Hbond.Weighted>
-6.6594

> <Gold.Chemscore.Metal.Weighted>
-0.0000

> <Gold.Chemscore.Lipo.Weighted>
-7.5693

> <Gold.Chemscore.Internal_Hbond.Weighted>
0.0000

> <Gold.Chemscore.DEClash.Weighted>
0.6028

> <Gold.Chemscore.DEInternal.Weighted>
0.8604

> <Gold.Chemscore.Rot.Weighted>
4.5895

> <Gold.Chemscore.Internal.Correction.Weighted>
   9.000000E+99

> <Gold.Protein.RotatedTorsions>
[ 6907 6896 6895 6894 ] final  155.43 input  -60.11 | X-H torsion
[ 7974 7965 7964 7962 ] final   74.90 input  175.53 | X-H torsion
[ 8008 7997 7996 7995 ] final   90.12 input   59.86 | X-H torsion
[ 10167 10162 10161 10158 ] final  116.43 input  -65.29 | X-H torsion
[ 10718 10713 10712 10709 ] final  -88.90 input   66.30 | X-H torsion
[ 10763 10752 10751 10750 ] final   77.70 input  -60.55 | X-H torsion
[ 11005 11000 10999 10996 ] final  -61.56 input  -57.11 | X-H torsion

> <Gold.Protein.ActiveResidues>
 VAL166  LYS551  ARG553  GLY616  TRP617  ASP618  TYR619  PRO620  LYS621  CYS622 
 ASP623  PHE694  ASN695  SER759  ASP760  ASP761  ALA762  ILE779  LEU786  VAL792 
 PHE793  MET794  SER795  GLU796  ALA797  LYS798  CYS799  TRP800  GLU811  SER814 

> <Gold.Protein.RotatedAtoms>
  152.0442  133.3990  159.4349 H   0  0  0  0  0  0  0  0  0  0  0  0  # atno 6907 bound_to 6896
  150.6874  134.3380  159.4865 H   0  0  0  0  0  0  0  0  0  0  0  0  # atno 6908 bound_to 6896
  152.1183  134.9224  160.0614 H   0  0  0  0  0  0  0  0  0  0  0  0  # atno 6909 bound_to 6896
  145.7224  139.2653  143.1588 H   0  0  0  0  0  0  0  0  0  0  0  0  # atno 7974 bound_to 7965
  156.0081  140.3353  155.6913 H   0  0  0  0  0  0  0  0  0  0  0  0  # atno 8008 bound_to 7997
  155.6196  140.0673  157.2700 H   0  0  0  0  0  0  0  0  0  0  0  0  # atno 8009 bound_to 7997
  154.4272  140.1779  156.1346 H   0  0  0  0  0  0  0  0  0  0  0  0  # atno 8010 bound_to 7997
  139.6248  144.7107  151.2557 H   0  0  0  0  0  0  0  0  0  0  0  0  # atno 10167 bound_to 10162
  155.9984  130.4852  150.5090 H   0  0  0  0  0  0  0  0  0  0  0  0  # atno 10718 bound_to 10713
  153.0818  135.4904  154.8518 H   0  0  0  0  0  0  0  0  0  0  0  0  # atno 10763 bound_to 10752
  154.7160  135.3029  154.9125 H   0  0  0  0  0  0  0  0  0  0  0  0  # atno 10764 bound_to 10752
  153.9803  135.6790  153.4803 H   0  0  0  0  0  0  0  0  0  0  0  0  # atno 10765 bound_to 10752
  141.1329  133.6631  156.5394 H   0  0  0  0  0  0  0  0  0  0  0  0  # atno 11005 bound_to 11000
  146.0614  140.7967  142.9733 LP  0  0  0  0  0  0  0  0  0  0  0  0  # atno 17320 bound_to 7965
  144.6913  140.3202  143.7233 LP  0  0  0  0  0  0  0  0  0  0  0  0  # atno 17321 bound_to 7965
  140.7404  143.6588  150.8182 LP  0  0  0  0  0  0  0  0  0  0  0  0  # atno 17342 bound_to 10162
  140.0205  143.5548  152.2802 LP  0  0  0  0  0  0  0  0  0  0  0  0  # atno 17343 bound_to 10162
  157.3065  131.0655  151.2031 LP  0  0  0  0  0  0  0  0  0  0  0  0  # atno 17370 bound_to 10713
  157.2992  130.6834  149.6155 LP  0  0  0  0  0  0  0  0  0  0  0  0  # atno 17371 bound_to 10713
  140.4151  134.7237  157.4858 LP  0  0  0  0  0  0  0  0  0  0  0  0  # atno 17394 bound_to 11000
  140.0399  134.6282  155.8994 LP  0  0  0  0  0  0  0  0  0  0  0  0  # atno 17395 bound_to 11000

$$$$
