AV-unprocessed.smi:1973|AV-procd|sdf|7978|dock10
  -GOLD-   2272010153D 1   1.00000     0.00000
 Structure written by MMmdl.
 48 50  0  0  0  0  0  0  0  0  2 V2000
  154.6820  138.5634  159.3529 C   0  0  0  0  0  0  0  0  0  0  0  0
  154.5640  138.6929  157.9475 O   0  0  0  0  0  0  0  0  0  0  0  0
  153.3430  138.1689  157.4525 C   0  0  0  0  0  0  0  0  0  0  0  0
  153.2411  138.4217  155.9394 C   0  0  0  0  0  0  0  0  0  0  0  0
  151.9229  138.0497  155.4127 N   0  0  0  0  0  0  0  0  0  0  0  0
  151.6875  136.6845  155.4034 N   0  0  0  0  0  0  0  0  0  0  0  0
  150.5678  136.2203  154.9504 C   0  0  0  0  0  0  0  0  0  0  0  0
  150.2783  134.7595  154.9212 C   0  0  0  0  0  0  0  0  0  0  0  0
  150.7279  133.9883  155.7701 O   0  0  0  0  0  0  0  0  0  0  0  0
  149.4976  134.3478  153.9075 N   0  0  0  0  0  0  0  0  0  0  0  0
  149.0926  132.9667  153.6819 C   0  0  0  0  0  0  0  0  0  0  0  0
  147.5654  132.8577  153.5439 C   0  0  2  0  0  0  0  0  0  0  0  0
  147.0631  131.4376  153.2913 C   0  0  0  0  0  0  0  0  0  0  0  0
  145.6836  131.6339  152.6505 C   0  0  0  0  0  0  0  0  0  0  0  0
  145.6471  133.0200  152.1279 N   0  3  2  0  0  0  0  0  0  0  0  0
  145.1682  133.1309  150.7337 C   0  0  0  0  0  0  0  0  0  0  0  0
  144.1002  132.1239  150.3797 C   0  0  0  0  0  0  0  0  0  0  0  0
  145.5159  131.9356  149.8791 C   0  0  0  0  0  0  0  0  0  0  0  0
  146.9782  133.6194  152.3541 C   0  0  0  0  0  0  0  0  0  0  0  0
  149.5394  137.1157  154.4492 C   0  0  0  0  0  0  0  0  0  0  0  0
  149.7841  138.4443  154.4622 C   0  0  0  0  0  0  0  0  0  0  0  0
  151.0435  138.9959  154.9636 C   0  0  0  0  0  0  0  0  0  0  0  0
  151.2891  140.2015  154.9782 O   0  0  0  0  0  0  0  0  0  0  0  0
  155.6361  138.9773  159.6792 H   0  0  0  0  0  0  0  0  0  0  0  0
  154.6481  137.5162  159.6566 H   0  0  0  0  0  0  0  0  0  0  0  0
  153.8862  139.1036  159.8673 H   0  0  0  0  0  0  0  0  0  0  0  0
  153.2706  137.1011  157.6658 H   0  0  0  0  0  0  0  0  0  0  0  0
  152.5093  138.6571  157.9589 H   0  0  0  0  0  0  0  0  0  0  0  0
  153.4117  139.4820  155.7455 H   0  0  0  0  0  0  0  0  0  0  0  0
  154.0461  137.9034  155.4158 H   0  0  0  0  0  0  0  0  0  0  0  0
  149.1611  135.0427  153.2565 H   0  0  0  0  0  0  0  0  0  0  0  0
  149.5790  132.5814  152.7840 H   0  0  0  0  0  0  0  0  0  0  0  0
  149.4363  132.3562  154.5181 H   0  0  0  0  0  0  0  0  0  0  0  0
  147.0964  133.2272  154.4579 H   0  0  0  0  0  0  0  0  0  0  0  0
  147.7215  130.9285  152.5856 H   0  0  0  0  0  0  0  0  0  0  0  0
  147.0233  130.8360  154.1998 H   0  0  0  0  0  0  0  0  0  0  0  0
  145.5050  130.8906  151.8719 H   0  0  0  0  0  0  0  0  0  0  0  0
  144.8935  131.5279  153.3943 H   0  0  0  0  0  0  0  0  0  0  0  0
  145.1489  134.1313  150.3045 H   0  0  0  0  0  0  0  0  0  0  0  0
  143.7484  131.4501  151.1588 H   0  0  0  0  0  0  0  0  0  0  0  0
  143.3502  132.4223  149.6500 H   0  0  0  0  0  0  0  0  0  0  0  0
  145.6966  132.1107  148.8205 H   0  0  0  0  0  0  0  0  0  0  0  0
  146.1053  131.1363  150.3252 H   0  0  0  0  0  0  0  0  0  0  0  0
  146.9047  134.6923  152.5352 H   0  0  0  0  0  0  0  0  0  0  0  0
  147.6033  133.4695  151.4717 H   0  0  0  0  0  0  0  0  0  0  0  0
  148.6001  136.7367  154.0730 H   0  0  0  0  0  0  0  0  0  0  0  0
  149.0285  139.1217  154.0917 H   0  0  0  0  0  0  0  0  0  0  0  0
  144.9984  133.5259  152.7138 H   0  0  0  0  0  0  0  0  0  0  0  0
  1  2  1  0  0  0  0
  1 24  1  0  0  0  0
  1 25  1  0  0  0  0
  1 26  1  0  0  0  0
  2  3  1  0  0  0  0
  3  4  1  0  0  0  0
  3 27  1  0  0  0  0
  3 28  1  0  0  0  0
  4  5  1  0  0  0  0
  4 29  1  0  0  0  0
  4 30  1  0  0  0  0
  5 22  1  0  0  0  0
  5  6  1  0  0  0  0
  6  7  2  0  0  0  0
  7  8  1  0  0  0  0
  7 20  1  0  0  0  0
  8  9  2  0  0  0  0
  8 10  1  0  0  0  0
 10 11  1  0  0  0  0
 10 31  1  0  0  0  0
 11 12  1  0  0  0  0
 11 32  1  0  0  0  0
 11 33  1  0  0  0  0
 12 19  1  0  0  0  0
 12 13  1  0  0  0  0
 12 34  1  0  0  0  0
 13 14  1  0  0  0  0
 13 35  1  0  0  0  0
 13 36  1  0  0  0  0
 14 15  1  0  0  0  0
 14 37  1  0  0  0  0
 14 38  1  0  0  0  0
 15 16  1  0  0  0  0
 15 19  1  0  0  0  0
 15 48  1  0  0  0  0
 16 18  1  0  0  0  0
 16 17  1  0  0  0  0
 16 39  1  0  0  0  0
 17 18  1  0  0  0  0
 17 40  1  0  0  0  0
 17 41  1  0  0  0  0
 18 42  1  0  0  0  0
 18 43  1  0  0  0  0
 19 44  1  0  0  0  0
 19 45  1  0  0  0  0
 20 21  2  0  0  0  0
 20 46  1  0  0  0  0
 21 22  1  0  0  0  0
 21 47  1  0  0  0  0
 22 23  2  0  0  0  0
M  CHG  1  15   1
M  END
> <s_m_source_file>
AV-unprocessed.smi

> <i_m_source_file_index>
1973

> <i_lp_mmshare_version>
43012

> <i_f3d_flags>
0

> <s_epik_input>
W0NIM11PW0NIMl1bQ0gyXW4xbmMoW2NIXVtjSF1jMT1PKUMoPU8pW05IXVtDSDJdW0NAQEhdMltDSDJdW0NIMl1OKFtDSDJdMilbQ0hdM1tDSDJdW0NIMl0z

> <s_epik_cmdline>
J2VwaWtfcHl0aG9uJywgJy1waCcsICc3LjAnLCAnLXRuJywgJzgnLCAnLW1hJywgJzIwMCcsICctbWV0YWxfYmluZGluZycsICctaW1hZScsICc8aW5maWxlLm1hZT4nLCAnLW9tYWUnLCAnPG91dGZpbGUubWFlPic=

> <r_lp_tautomer_probability>
1

> <r_epik_Ionization_Penalty>
0.000225706

> <r_epik_Ionization_Penalty_Charging>
0.000223776

> <r_epik_Ionization_Penalty_Neutral>
1.93004e-06

> <r_epik_State_Penalty>
-0

> <r_epik_Charging_Adjusted_Penalty>
0.000223776

> <i_epik_Tot_Q>
1

> <i_epik_Tot_abs_Q>
1

> <r_epik_Metal_State_Penalty>
-0

> <b_epik_Metal_Only>
0

> <s_lp_Force_Field>
OPLS_2005

> <r_lp_Energy>
60.0274

> <b_lp_Chiralities_Consistent>
1

> <s_lp_Variant>
AV-unprocessed.smi:1973-3

> <Gold.Version>
5.8.1

> <Gold.Id.Protein>
6NUR|6NUR_protein|mol2

> <Gold.PLP.Fitness>
46.5019

> <Gold.PLP.PLP>
-36.4043

> <Gold.PLP.part.hbond>
-4.1047

> <Gold.PLP.part.metal>
0.0000

> <Gold.PLP.part.buried>
-0.3451

> <Gold.PLP.part.nonpolar>
-32.3436

> <Gold.PLP.part.repulsive>
0.1623

> <Gold.PLP.ligand.clash>
0.0000

> <Gold.PLP.ligand.torsion>
1.1765

> <Gold.PLP.Chemscore.Hbond>
3.7000

> <Gold.PLP.Chemscore.CHOScore>
0.0000

> <Gold.PLP.Chemscore.Metal>
0.0000

> <Gold.Chemscore.Hbonds>
donor molecule, donor type, donor heavy atom, donor atom, acceptor molecule, acceptor atom, score
      L1  H    10    31       P1  7948  0.80
      P1  H  7989  7998       L1    23  1.00
      P1  H  7997  8010       L1     2  0.97
      P1  H 10752 10764       L1     6  1.00

> <Gold.PLP.Chemscore.Internal.Correction>
1.3507

> <Gold.Rescore>
     Score         DG    S(hbond)    S(metal)    S(lipo)     H(rot)  DE(clash)    DE(int)     intcor
     15.21     -17.89       2.08        0.00      89.80       1.97       1.27       1.41       ----

> <Gold.Chemscore.Fitness>
15.2078

> <Gold.Chemscore.DG>
-17.8850

> <Gold.Chemscore.ZeroCoef>
-5.4800

> <Gold.Chemscore.Hbond>
2.0793

> <Gold.Chemscore.Metal>
0.0000

> <Gold.Chemscore.Lipo>
89.7958

> <Gold.Chemscore.Internal_Hbond>
0.0000

> <Gold.Chemscore.DEClash>
1.2672

> <Gold.Chemscore.DEInternal>
1.4100

> <Gold.Chemscore.Rot>
1.9711

> <Gold.Chemscore.Internal.Correction>
   9.000000E+99

> <Gold.Chemscore.Hbonds>
donor molecule, donor type, donor heavy atom, donor atom, acceptor molecule, acceptor atom, score
      L1  H    10    31       P1  7948  0.12
      P1  H  7989  7998       L1    23  0.91
      P1  H  7997  8010       L1     2  0.75
      P1  H 10752 10764       L1     6  0.43

> <Gold.Chemscore.Hbond.Weighted>
-6.9449

> <Gold.Chemscore.Metal.Weighted>
-0.0000

> <Gold.Chemscore.Lipo.Weighted>
-10.5061

> <Gold.Chemscore.Internal_Hbond.Weighted>
0.0000

> <Gold.Chemscore.DEClash.Weighted>
1.2672

> <Gold.Chemscore.DEInternal.Weighted>
1.4100

> <Gold.Chemscore.Rot.Weighted>
5.0460

> <Gold.Chemscore.Internal.Correction.Weighted>
   9.000000E+99

> <Gold.Protein.RotatedTorsions>
[ 6907 6896 6895 6894 ] final -179.23 input  -60.11 | X-H torsion
[ 7974 7965 7964 7962 ] final    7.89 input  175.53 | X-H torsion
[ 8008 7997 7996 7995 ] final    5.38 input   59.86 | X-H torsion
[ 10167 10162 10161 10158 ] final -171.62 input  -65.29 | X-H torsion
[ 10718 10713 10712 10709 ] final -128.82 input   66.30 | X-H torsion
[ 10763 10752 10751 10750 ] final  -54.82 input  -60.55 | X-H torsion
[ 11005 11000 10999 10996 ] final   72.83 input  -57.11 | X-H torsion

> <Gold.Protein.ActiveResidues>
 VAL166  LYS551  ARG553  GLY616  TRP617  ASP618  TYR619  PRO620  LYS621  CYS622 
 ASP623  PHE694  ASN695  SER759  ASP760  ASP761  ALA762  ILE779  LEU786  VAL792 
 PHE793  MET794  SER795  GLU796  ALA797  LYS798  CYS799  TRP800  GLU811  SER814 

> <Gold.Protein.RotatedAtoms>
  151.6500  133.3321  159.3149 H   0  0  0  0  0  0  0  0  0  0  0  0  # atno 6907 bound_to 6896
  150.7965  134.7032  159.6571 H   0  0  0  0  0  0  0  0  0  0  0  0  # atno 6908 bound_to 6896
  152.4052  134.6222  160.0105 H   0  0  0  0  0  0  0  0  0  0  0  0  # atno 6909 bound_to 6896
  146.2422  140.0015  142.8415 H   0  0  0  0  0  0  0  0  0  0  0  0  # atno 7974 bound_to 7965
  154.7276  140.2724  155.6485 H   0  0  0  0  0  0  0  0  0  0  0  0  # atno 8008 bound_to 7997
  156.2841  140.2722  156.1892 H   0  0  0  0  0  0  0  0  0  0  0  0  # atno 8009 bound_to 7997
  155.0424  140.0371  157.2504 H   0  0  0  0  0  0  0  0  0  0  0  0  # atno 8010 bound_to 7997
  139.5791  144.1463  152.1491 H   0  0  0  0  0  0  0  0  0  0  0  0  # atno 10167 bound_to 10162
  156.1987  130.6843  151.0513 H   0  0  0  0  0  0  0  0  0  0  0  0  # atno 10718 bound_to 10713
  154.1809  135.6443  153.5034 H   0  0  0  0  0  0  0  0  0  0  0  0  # atno 10763 bound_to 10752
  153.0059  135.5406  154.6515 H   0  0  0  0  0  0  0  0  0  0  0  0  # atno 10764 bound_to 10752
  154.5879  135.2931  155.0639 H   0  0  0  0  0  0  0  0  0  0  0  0  # atno 10765 bound_to 10752
  139.9470  134.7294  156.0954 H   0  0  0  0  0  0  0  0  0  0  0  0  # atno 11005 bound_to 11000
  145.1411  140.9572  143.4488 LP  0  0  0  0  0  0  0  0  0  0  0  0  # atno 17320 bound_to 7965
  145.0295  139.3353  143.6032 LP  0  0  0  0  0  0  0  0  0  0  0  0  # atno 17321 bound_to 7965
  140.1013  144.5537  150.6987 LP  0  0  0  0  0  0  0  0  0  0  0  0  # atno 17342 bound_to 10162
  140.7071  143.2476  151.4692 LP  0  0  0  0  0  0  0  0  0  0  0  0  # atno 17343 bound_to 10162
  157.6973  131.0789  150.6930 LP  0  0  0  0  0  0  0  0  0  0  0  0  # atno 17370 bound_to 10713
  156.6987  130.4617  149.5579 LP  0  0  0  0  0  0  0  0  0  0  0  0  # atno 17371 bound_to 10713
  141.1124  133.6639  156.3010 LP  0  0  0  0  0  0  0  0  0  0  0  0  # atno 17394 bound_to 11000
  140.5810  134.5746  157.5479 LP  0  0  0  0  0  0  0  0  0  0  0  0  # atno 17395 bound_to 11000

$$$$
