AV-unprocessed.smi:1961|AV-procd|sdf|7921|dock9
  -GOLD-   2272010 93D 1   1.00000     0.00000
 Structure written by MMmdl.
 35 36  0  0  0  0  0  0  0  0  2 V2000
  156.7220  135.9530  164.6562 C   0  0  0  0  0  0  0  0  0  0  0  0
  155.6230  137.0088  164.4686 C   0  0  0  0  0  0  0  0  0  0  0  0
  154.2575  136.4022  164.1141 C   0  0  0  0  0  0  0  0  0  0  0  0
  156.0299  138.0825  163.5083 C   0  0  0  0  0  0  0  0  0  0  0  0
  157.1540  138.7937  163.6404 N   0  0  0  0  0  0  0  0  0  0  0  0
  157.3075  139.7258  162.6247 N   0  0  0  0  0  0  0  0  0  0  0  0
  156.3057  139.7031  161.7344 C   0  0  0  0  0  0  0  0  0  0  0  0
  156.2628  140.5290  160.6759 N   0  5  0  0  0  0  0  0  0  0  0  0
  155.1235  140.6471  159.9565 C   0  0  0  0  0  0  0  0  0  0  0  0
  154.7472  139.8950  159.0542 O   0  0  0  0  0  0  0  0  0  0  0  0
  154.3705  141.6988  160.3037 N   0  0  0  0  0  0  0  0  0  0  0  0
  153.0930  142.0490  159.6979 C   0  0  0  0  0  0  0  0  0  0  0  0
  152.6394  143.4434  160.1516 C   0  0  1  0  0  0  0  0  0  0  0  0
  152.2824  144.3768  158.9960 C   0  0  0  0  0  0  0  0  0  0  0  0
  151.3323  145.3431  159.6650 C   0  0  0  0  0  0  0  0  0  0  0  0
  150.5577  144.4198  160.6005 C   0  0  0  0  0  0  0  0  0  0  0  0
  151.4502  143.3599  160.9349 O   0  0  0  0  0  0  0  0  0  0  0  0
  155.0599  138.5131  162.1090 S   0  0  0  0  0  0  0  0  0  0  0  0
  157.6526  136.4117  164.9921 H   0  0  0  0  0  0  0  0  0  0  0  0
  156.9278  135.4256  163.7241 H   0  0  0  0  0  0  0  0  0  0  0  0
  156.4318  135.2111  165.4004 H   0  0  0  0  0  0  0  0  0  0  0  0
  155.4985  137.4952  165.4371 H   0  0  0  0  0  0  0  0  0  0  0  0
  153.4865  137.1722  164.0719 H   0  0  0  0  0  0  0  0  0  0  0  0
  153.9497  135.6665  164.8572 H   0  0  0  0  0  0  0  0  0  0  0  0
  154.2840  135.9039  163.1444 H   0  0  0  0  0  0  0  0  0  0  0  0
  154.7055  142.2922  161.0486 H   0  0  0  0  0  0  0  0  0  0  0  0
  153.1986  142.0307  158.6121 H   0  0  0  0  0  0  0  0  0  0  0  0
  152.3433  141.3020  159.9632 H   0  0  0  0  0  0  0  0  0  0  0  0
  153.4123  143.9137  160.7620 H   0  0  0  0  0  0  0  0  0  0  0  0
  153.1537  144.8654  158.5590 H   0  0  0  0  0  0  0  0  0  0  0  0
  151.7630  143.8321  158.2061 H   0  0  0  0  0  0  0  0  0  0  0  0
  151.8925  146.0799  160.2419 H   0  0  0  0  0  0  0  0  0  0  0  0
  150.6906  145.8735  158.9610 H   0  0  0  0  0  0  0  0  0  0  0  0
  150.2015  144.9369  161.4917 H   0  0  0  0  0  0  0  0  0  0  0  0
  149.6941  143.9943  160.0877 H   0  0  0  0  0  0  0  0  0  0  0  0
  1  2  1  0  0  0  0
  1 19  1  0  0  0  0
  1 20  1  0  0  0  0
  1 21  1  0  0  0  0
  2  3  1  0  0  0  0
  2  4  1  0  0  0  0
  2 22  1  0  0  0  0
  3 23  1  0  0  0  0
  3 24  1  0  0  0  0
  3 25  1  0  0  0  0
  4 18  1  0  0  0  0
  4  5  2  0  0  0  0
  5  6  1  0  0  0  0
  6  7  2  0  0  0  0
  7  8  1  0  0  0  0
  7 18  1  0  0  0  0
  8  9  1  0  0  0  0
  9 10  2  0  0  0  0
  9 11  1  0  0  0  0
 11 12  1  0  0  0  0
 11 26  1  0  0  0  0
 12 13  1  0  0  0  0
 12 27  1  0  0  0  0
 12 28  1  0  0  0  0
 13 17  1  0  0  0  0
 13 14  1  0  0  0  0
 13 29  1  0  0  0  0
 14 15  1  0  0  0  0
 14 30  1  0  0  0  0
 14 31  1  0  0  0  0
 15 16  1  0  0  0  0
 15 32  1  0  0  0  0
 15 33  1  0  0  0  0
 16 17  1  0  0  0  0
 16 34  1  0  0  0  0
 16 35  1  0  0  0  0
M  CHG  1   8  -1
M  END
> <s_m_source_file>
AV-unprocessed.smi

> <i_m_source_file_index>
1961

> <i_lp_mmshare_version>
43012

> <i_f3d_flags>
0

> <s_epik_input>
W0NIM11bQ0hdKFtDSDNdKWMxbm5jKHMxKVtOSF1DKD1PKVtOSF1bQ0gyXVtDQEBIXTJbQ0gyXVtDSDJdW0NIMl1PMg==

> <s_epik_cmdline>
J2VwaWtfcHl0aG9uJywgJy1waCcsICc3LjAnLCAnLXRuJywgJzgnLCAnLW1hJywgJzIwMCcsICctbWV0YWxfYmluZGluZycsICctaW1hZScsICc8aW5maWxlLm1hZT4nLCAnLW9tYWUnLCAnPG91dGZpbGUubWFlPic=

> <r_lp_tautomer_probability>
1

> <r_epik_Ionization_Penalty>
4.36179

> <r_epik_Ionization_Penalty_Charging>
4.21437

> <r_epik_Ionization_Penalty_Neutral>
0.147417

> <r_epik_State_Penalty>
4.21389

> <r_epik_Charging_Adjusted_Penalty>
8.42826

> <i_epik_Tot_Q>
-1

> <i_epik_Tot_abs_Q>
1

> <r_epik_Metal_State_Penalty>
0.693772

> <b_epik_Metal_Only>
1

> <s_lp_Force_Field>
OPLS_2005

> <r_lp_Energy>
8.86259

> <b_lp_Chiralities_Consistent>
1

> <s_lp_Variant>
AV-unprocessed.smi:1961-4

> <Gold.Version>
5.8.1

> <Gold.Id.Protein>
6NUR|6NUR_protein|mol2

> <Gold.PLP.Fitness>
36.6613

> <Gold.PLP.PLP>
-36.7478

> <Gold.PLP.part.hbond>
-2.2830

> <Gold.PLP.part.metal>
0.0000

> <Gold.PLP.part.buried>
-3.9937

> <Gold.PLP.part.nonpolar>
-29.8801

> <Gold.PLP.part.repulsive>
0.1599

> <Gold.PLP.ligand.clash>
0.0000

> <Gold.PLP.ligand.torsion>
1.5934

> <Gold.PLP.Chemscore.Hbond>
1.0000

> <Gold.PLP.Chemscore.CHOScore>
0.0000

> <Gold.PLP.Chemscore.Metal>
0.0000

> <Gold.Chemscore.Hbonds>
donor molecule, donor type, donor heavy atom, donor atom, acceptor molecule, acceptor atom, score
      P1  H  7997  8008       L1    10  1.00

> <Gold.PLP.Chemscore.Internal.Correction>
0.1004

> <Gold.Rescore>
     Score         DG    S(hbond)    S(metal)    S(lipo)     H(rot)  DE(clash)    DE(int)     intcor
     15.20     -16.79       0.98        0.00      99.79       1.42       0.12       1.47       ----

> <Gold.Chemscore.Fitness>
15.2012

> <Gold.Chemscore.DG>
-16.7898

> <Gold.Chemscore.ZeroCoef>
-5.4800

> <Gold.Chemscore.Hbond>
0.9784

> <Gold.Chemscore.Metal>
0.0000

> <Gold.Chemscore.Lipo>
99.7880

> <Gold.Chemscore.Internal_Hbond>
0.0000

> <Gold.Chemscore.DEClash>
0.1179

> <Gold.Chemscore.DEInternal>
1.4708

> <Gold.Chemscore.Rot>
1.4193

> <Gold.Chemscore.Internal.Correction>
   9.000000E+99

> <Gold.Chemscore.Hbonds>
donor molecule, donor type, donor heavy atom, donor atom, acceptor molecule, acceptor atom, score
      P1  H  7997  8008       L1    10  0.95

> <Gold.Chemscore.Hbond.Weighted>
-3.2680

> <Gold.Chemscore.Metal.Weighted>
-0.0000

> <Gold.Chemscore.Lipo.Weighted>
-11.6752

> <Gold.Chemscore.Internal_Hbond.Weighted>
0.0000

> <Gold.Chemscore.DEClash.Weighted>
0.1179

> <Gold.Chemscore.DEInternal.Weighted>
1.4708

> <Gold.Chemscore.Rot.Weighted>
3.6333

> <Gold.Chemscore.Internal.Correction.Weighted>
   9.000000E+99

> <Gold.Protein.RotatedTorsions>
[ 6907 6896 6895 6894 ] final  -51.26 input  -60.11 | X-H torsion
[ 7974 7965 7964 7962 ] final  174.72 input  175.53 | X-H torsion
[ 8008 7997 7996 7995 ] final -132.64 input   59.86 | X-H torsion
[ 10167 10162 10161 10158 ] final   61.32 input  -65.29 | X-H torsion
[ 10718 10713 10712 10709 ] final  -49.64 input   66.30 | X-H torsion
[ 10763 10752 10751 10750 ] final  -51.57 input  -60.55 | X-H torsion
[ 11005 11000 10999 10996 ] final -149.06 input  -57.11 | X-H torsion

> <Gold.Protein.ActiveResidues>
 VAL166  LYS551  ARG553  GLY616  TRP617  ASP618  TYR619  PRO620  LYS621  CYS622 
 ASP623  PHE694  ASN695  SER759  ASP760  ASP761  ALA762  ILE779  LEU786  VAL792 
 PHE793  MET794  SER795  GLU796  ALA797  LYS798  CYS799  TRP800  GLU811  SER814 

> <Gold.Protein.RotatedAtoms>
  150.8628  134.7984  159.7095 H   0  0  0  0  0  0  0  0  0  0  0  0  # atno 6907 bound_to 6896
  152.4659  134.5072  159.9753 H   0  0  0  0  0  0  0  0  0  0  0  0  # atno 6908 bound_to 6896
  151.5173  133.3435  159.2931 H   0  0  0  0  0  0  0  0  0  0  0  0  # atno 6909 bound_to 6896
  144.7216  139.9840  143.6439 H   0  0  0  0  0  0  0  0  0  0  0  0  # atno 7974 bound_to 7965
  155.3322  140.0467  157.3043 H   0  0  0  0  0  0  0  0  0  0  0  0  # atno 8008 bound_to 7997
  154.5322  140.2260  155.8750 H   0  0  0  0  0  0  0  0  0  0  0  0  # atno 8009 bound_to 7997
  156.1800  140.3076  155.9136 H   0  0  0  0  0  0  0  0  0  0  0  0  # atno 8010 bound_to 7997
  140.1560  144.4416  150.6734 H   0  0  0  0  0  0  0  0  0  0  0  0  # atno 10167 bound_to 10162
  156.1875  130.4152  149.9419 H   0  0  0  0  0  0  0  0  0  0  0  0  # atno 10718 bound_to 10713
  154.1287  135.6523  153.4917 H   0  0  0  0  0  0  0  0  0  0  0  0  # atno 10763 bound_to 10752
  153.0202  135.5287  154.7023 H   0  0  0  0  0  0  0  0  0  0  0  0  # atno 10764 bound_to 10752
  154.6251  135.2969  155.0251 H   0  0  0  0  0  0  0  0  0  0  0  0  # atno 10765 bound_to 10752
  140.7547  134.3367  157.5117 H   0  0  0  0  0  0  0  0  0  0  0  0  # atno 11005 bound_to 11000
  146.0465  139.3470  143.0665 LP  0  0  0  0  0  0  0  0  0  0  0  0  # atno 17320 bound_to 7965
  145.8269  140.9651  143.0869 LP  0  0  0  0  0  0  0  0  0  0  0  0  # atno 17321 bound_to 7965
  140.6673  143.2272  151.5713 LP  0  0  0  0  0  0  0  0  0  0  0  0  # atno 17342 bound_to 10162
  139.5403  144.2666  152.1337 LP  0  0  0  0  0  0  0  0  0  0  0  0  # atno 17343 bound_to 10162
  156.7170  130.8992  151.3615 LP  0  0  0  0  0  0  0  0  0  0  0  0  # atno 17370 bound_to 10713
  157.6908  130.9231  150.0508 LP  0  0  0  0  0  0  0  0  0  0  0  0  # atno 17371 bound_to 10713
  139.8781  134.9164  156.3154 LP  0  0  0  0  0  0  0  0  0  0  0  0  # atno 17394 bound_to 11000
  140.9719  133.7322  156.0546 LP  0  0  0  0  0  0  0  0  0  0  0  0  # atno 17395 bound_to 11000

$$$$
