AV-unprocessed.smi:3044|AV-procd|sdf|11607|dock10
  -GOLD-   2272016583D 1   1.00000     0.00000
 Structure written by MMmdl.
 41 42  0  0  0  0  0  0  0  0  1 V2000
  145.6542  135.8660  151.5964 C   0  0  0  0  0  0  0  0  0  0  0  0
  145.2983  134.4107  151.3458 C   0  0  0  0  0  0  0  0  0  0  0  0
  144.1294  134.2017  150.6993 N   0  0  0  0  0  0  0  0  0  0  0  0
  143.7572  132.9294  150.4485 C   0  0  0  0  0  0  0  0  0  0  0  0
  144.5218  131.8123  150.8332 C   0  0  0  0  0  0  0  0  0  0  0  0
  145.7388  132.0311  151.5057 C   0  0  0  0  0  0  0  0  0  0  0  0
  146.1530  133.3606  151.7623 C   0  0  0  0  0  0  0  0  0  0  0  0
  147.3545  133.6825  152.4517 N   0  0  0  0  0  0  0  0  0  0  0  0
  148.0837  132.9084  153.2769 C   0  0  0  0  0  0  0  0  0  0  0  0
  147.7920  131.7554  153.5922 O   0  0  0  0  0  0  0  0  0  0  0  0
  149.3589  133.5367  153.8418 C   0  0  0  0  0  0  0  0  0  0  0  0
  149.2168  133.7197  155.2457 O   0  0  0  0  0  0  0  0  0  0  0  0
  149.2604  135.0745  155.6718 C   0  0  2  0  0  0  0  0  0  0  0  0
  147.9269  135.7240  155.2661 C   0  0  0  0  0  0  0  0  0  0  0  0
  147.9078  137.2206  155.6108 C   0  0  0  0  0  0  0  0  0  0  0  0
  149.0900  137.9542  154.9580 C   0  0  0  0  0  0  0  0  0  0  0  0
  150.4373  137.3181  155.3514 C   0  0  2  0  0  0  0  0  0  0  0  0
  151.6151  138.0478  154.6895 C   0  0  0  0  0  0  0  0  0  0  0  0
  150.4450  135.8135  155.0152 C   0  0  0  0  0  0  0  0  0  0  0  0
  146.6007  136.1129  151.1149 H   0  0  0  0  0  0  0  0  0  0  0  0
  145.7524  136.0545  152.6657 H   0  0  0  0  0  0  0  0  0  0  0  0
  144.8914  136.5400  151.2046 H   0  0  0  0  0  0  0  0  0  0  0  0
  142.8185  132.7976  149.9309 H   0  0  0  0  0  0  0  0  0  0  0  0
  144.1803  130.8098  150.6216 H   0  0  0  0  0  0  0  0  0  0  0  0
  146.3219  131.1805  151.8231 H   0  0  0  0  0  0  0  0  0  0  0  0
  147.7640  134.5757  152.2182 H   0  0  0  0  0  0  0  0  0  0  0  0
  150.2010  132.8769  153.6281 H   0  0  0  0  0  0  0  0  0  0  0  0
  149.5419  134.4871  153.3400 H   0  0  0  0  0  0  0  0  0  0  0  0
  149.3487  135.1223  156.7591 H   0  0  0  0  0  0  0  0  0  0  0  0
  147.7661  135.5961  154.1947 H   0  0  0  0  0  0  0  0  0  0  0  0
  147.1000  135.2184  155.7656 H   0  0  0  0  0  0  0  0  0  0  0  0
  146.9680  137.6656  155.2829 H   0  0  0  0  0  0  0  0  0  0  0  0
  147.9494  137.3484  156.6933 H   0  0  0  0  0  0  0  0  0  0  0  0
  148.9747  137.9340  153.8734 H   0  0  0  0  0  0  0  0  0  0  0  0
  149.0734  139.0047  155.2499 H   0  0  0  0  0  0  0  0  0  0  0  0
  150.5535  137.4203  156.4313 H   0  0  0  0  0  0  0  0  0  0  0  0
  151.5638  137.9791  153.6024 H   0  0  0  0  0  0  0  0  0  0  0  0
  152.5683  137.6226  155.0052 H   0  0  0  0  0  0  0  0  0  0  0  0
  151.6223  139.1050  154.9561 H   0  0  0  0  0  0  0  0  0  0  0  0
  151.3895  135.3769  155.3396 H   0  0  0  0  0  0  0  0  0  0  0  0
  150.4004  135.6794  153.9335 H   0  0  0  0  0  0  0  0  0  0  0  0
  1  2  1  0  0  0  0
  1 20  1  0  0  0  0
  1 21  1  0  0  0  0
  1 22  1  0  0  0  0
  2  7  1  0  0  0  0
  2  3  2  0  0  0  0
  3  4  1  0  0  0  0
  4  5  2  0  0  0  0
  4 23  1  0  0  0  0
  5  6  1  0  0  0  0
  5 24  1  0  0  0  0
  6  7  2  0  0  0  0
  6 25  1  0  0  0  0
  7  8  1  0  0  0  0
  8  9  1  0  0  0  0
  8 26  1  0  0  0  0
  9 10  2  0  0  0  0
  9 11  1  0  0  0  0
 11 12  1  0  0  0  0
 11 27  1  0  0  0  0
 11 28  1  0  0  0  0
 12 13  1  0  0  0  0
 13 19  1  0  0  0  0
 13 14  1  0  0  0  0
 13 29  1  0  0  0  0
 14 15  1  0  0  0  0
 14 30  1  0  0  0  0
 14 31  1  0  0  0  0
 15 16  1  0  0  0  0
 15 32  1  0  0  0  0
 15 33  1  0  0  0  0
 16 17  1  0  0  0  0
 16 34  1  0  0  0  0
 16 35  1  0  0  0  0
 17 18  1  0  0  0  0
 17 19  1  0  0  0  0
 17 36  1  0  0  0  0
 18 37  1  0  0  0  0
 18 38  1  0  0  0  0
 18 39  1  0  0  0  0
 19 40  1  0  0  0  0
 19 41  1  0  0  0  0
M  END
> <s_m_source_file>
AV-unprocessed.smi

> <i_m_source_file_index>
3044

> <i_lp_mmshare_version>
43012

> <i_f3d_flags>
0

> <s_epik_input>
W0NIM11jMW5bY0hdW2NIXVtjSF1jMVtOSF1DKD1PKVtDSDJdT1tDQEBIXTJbQ0gyXVtDSDJdW0NIMl1bQ0BASF0oW0NIM10pW0NIMl0y

> <s_epik_cmdline>
J2VwaWtfcHl0aG9uJywgJy1waCcsICc3LjAnLCAnLXRuJywgJzgnLCAnLW1hJywgJzIwMCcsICctbWV0YWxfYmluZGluZycsICctaW1hZScsICc8aW5maWxlLm1hZT4nLCAnLW9tYWUnLCAnPG91dGZpbGUubWFlPic=

> <r_epik_Ionization_Penalty>
0.0077122

> <r_epik_Ionization_Penalty_Charging>
0

> <r_epik_Ionization_Penalty_Neutral>
0.0077122

> <r_epik_State_Penalty>
0.00577497

> <r_epik_Charging_Adjusted_Penalty>
0.00577497

> <i_epik_Tot_Q>
0

> <i_epik_Tot_abs_Q>
0

> <r_epik_Metal_State_Penalty>
-0

> <b_epik_Metal_Only>
0

> <s_lp_Force_Field>
OPLS_2005

> <r_lp_Energy>
17.0629

> <b_lp_Chiralities_Consistent>
1

> <s_lp_Variant>
AV-unprocessed.smi:3044-3

> <Gold.Version>
5.8.1

> <Gold.Id.Protein>
6NUR|6NUR_protein|mol2

> <Gold.PLP.Fitness>
37.4075

> <Gold.PLP.PLP>
-32.6438

> <Gold.PLP.part.hbond>
-1.0000

> <Gold.PLP.part.metal>
0.0000

> <Gold.PLP.part.buried>
-5.4518

> <Gold.PLP.part.nonpolar>
-27.3704

> <Gold.PLP.part.repulsive>
0.3610

> <Gold.PLP.ligand.clash>
0.0000

> <Gold.PLP.ligand.torsion>
0.6118

> <Gold.PLP.Chemscore.Hbond>
1.0000

> <Gold.PLP.Chemscore.CHOScore>
0.9912

> <Gold.PLP.Chemscore.Metal>
0.0000

> <Gold.Chemscore.Hbonds>
donor molecule, donor type, donor heavy atom, donor atom, acceptor molecule, acceptor atom, score
      L1  H     8    26       P1  7948  1.00
      L1  C     4    23       P1 10186  0.99

> <Gold.PLP.Chemscore.Internal.Correction>
0.0137

> <Gold.Rescore>
     Score         DG    S(hbond)    S(metal)    S(lipo)     H(rot)  DE(clash)    DE(int)     intcor
     11.75     -13.72       0.80        0.00      76.14       1.31       0.08       1.89       ----

> <Gold.Chemscore.Fitness>
11.7453

> <Gold.Chemscore.DG>
-13.7172

> <Gold.Chemscore.ZeroCoef>
-5.4800

> <Gold.Chemscore.Hbond>
0.8003

> <Gold.Chemscore.Metal>
0.0000

> <Gold.Chemscore.Lipo>
76.1427

> <Gold.Chemscore.Internal_Hbond>
0.0000

> <Gold.Chemscore.DEClash>
0.0810

> <Gold.Chemscore.DEInternal>
1.8909

> <Gold.Chemscore.Rot>
1.3064

> <Gold.Chemscore.Internal.Correction>
   9.000000E+99

> <Gold.Chemscore.Hbonds>
donor molecule, donor type, donor heavy atom, donor atom, acceptor molecule, acceptor atom, score
      L1  H     8    26       P1  7948  0.52

> <Gold.Chemscore.Hbond.Weighted>
-2.6729

> <Gold.Chemscore.Metal.Weighted>
-0.0000

> <Gold.Chemscore.Lipo.Weighted>
-8.9087

> <Gold.Chemscore.Internal_Hbond.Weighted>
0.0000

> <Gold.Chemscore.DEClash.Weighted>
0.0810

> <Gold.Chemscore.DEInternal.Weighted>
1.8909

> <Gold.Chemscore.Rot.Weighted>
3.3443

> <Gold.Chemscore.Internal.Correction.Weighted>
   9.000000E+99

> <Gold.Protein.RotatedTorsions>
[ 6907 6896 6895 6894 ] final  -86.72 input  -60.11 | X-H torsion
[ 7974 7965 7964 7962 ] final  -48.54 input  175.53 | X-H torsion
[ 8008 7997 7996 7995 ] final   97.62 input   59.86 | X-H torsion
[ 10167 10162 10161 10158 ] final  123.10 input  -65.29 | X-H torsion
[ 10718 10713 10712 10709 ] final  -65.68 input   66.30 | X-H torsion
[ 10763 10752 10751 10750 ] final   51.31 input  -60.55 | X-H torsion
[ 11005 11000 10999 10996 ] final  -33.93 input  -57.11 | X-H torsion

> <Gold.Protein.ActiveResidues>
 VAL166  LYS551  ARG553  GLY616  TRP617  ASP618  TYR619  PRO620  LYS621  CYS622 
 ASP623  PHE694  ASN695  SER759  ASP760  ASP761  ALA762  ILE779  LEU786  VAL792 
 PHE793  MET794  SER795  GLU796  ALA797  LYS798  CYS799  TRP800  GLU811  SER814 

> <Gold.Protein.RotatedAtoms>
  150.6866  134.3007  159.4705 H   0  0  0  0  0  0  0  0  0  0  0  0  # atno 6907 bound_to 6896
  152.0903  134.9409  160.0581 H   0  0  0  0  0  0  0  0  0  0  0  0  # atno 6908 bound_to 6896
  152.0727  133.4080  159.4503 H   0  0  0  0  0  0  0  0  0  0  0  0  # atno 6909 bound_to 6896
  145.9501  140.7580  142.9509 H   0  0  0  0  0  0  0  0  0  0  0  0  # atno 7974 bound_to 7965
  156.0920  140.3255  155.7828 H   0  0  0  0  0  0  0  0  0  0  0  0  # atno 8008 bound_to 7997
  155.4980  140.0567  157.2961 H   0  0  0  0  0  0  0  0  0  0  0  0  # atno 8009 bound_to 7997
  154.4643  140.1982  156.0175 H   0  0  0  0  0  0  0  0  0  0  0  0  # atno 8010 bound_to 7997
  139.5819  144.6990  151.3506 H   0  0  0  0  0  0  0  0  0  0  0  0  # atno 10167 bound_to 10162
  156.0655  130.4251  150.1600 H   0  0  0  0  0  0  0  0  0  0  0  0  # atno 10718 bound_to 10713
  152.9785  135.5850  154.4395 H   0  0  0  0  0  0  0  0  0  0  0  0  # atno 10763 bound_to 10752
  154.3998  135.2768  155.2105 H   0  0  0  0  0  0  0  0  0  0  0  0  # atno 10764 bound_to 10752
  154.3941  135.6118  153.5914 H   0  0  0  0  0  0  0  0  0  0  0  0  # atno 10765 bound_to 10752
  140.9675  133.7128  156.1469 H   0  0  0  0  0  0  0  0  0  0  0  0  # atno 11005 bound_to 11000
  144.6794  140.2420  143.7342 LP  0  0  0  0  0  0  0  0  0  0  0  0  # atno 17320 bound_to 7965
  145.8183  139.2032  143.1953 LP  0  0  0  0  0  0  0  0  0  0  0  0  # atno 17321 bound_to 7965
  140.7096  143.7424  150.7544 LP  0  0  0  0  0  0  0  0  0  0  0  0  # atno 17342 bound_to 10162
  140.0959  143.4834  152.2453 LP  0  0  0  0  0  0  0  0  0  0  0  0  # atno 17343 bound_to 10162
  156.9660  130.9820  151.3469 LP  0  0  0  0  0  0  0  0  0  0  0  0  # atno 17370 bound_to 10713
  157.5694  130.8300  149.8371 LP  0  0  0  0  0  0  0  0  0  0  0  0  # atno 17371 bound_to 10713
  140.7377  134.4184  157.5558 LP  0  0  0  0  0  0  0  0  0  0  0  0  # atno 17394 bound_to 11000
  139.8900  134.8816  156.2393 LP  0  0  0  0  0  0  0  0  0  0  0  0  # atno 17395 bound_to 11000

$$$$
