#       Name:                AV-unprocessed.smi:831
#       Creating user name   scv26
#       Creation time:       Fri Mar 27 01:33:01 2020


#       File generated by GOLD software.
#

@<TRIPOS>MOLECULE
AV-unprocessed.smi:831
    58    59     1
SMALL
NO_CHARGES


@<TRIPOS>ATOM
      1 ****        -5.5454  -2.6539  -1.0252 C.3            1 S1                 0.0000
      2 ****        -5.1595  -2.2435   0.4047 C.3            1 S1                 0.0000
      3 ****        -5.8155  -0.9084   0.7859 C.3            1 S1                 0.0000
      4 ****        -3.6336  -2.1787   0.5773 C.3            1 S1                 0.0000
      5 ****        -3.0904  -3.4845   0.4187 O.3            1 S1                 0.0000
      6 ****        -1.6742  -3.5727   0.5399 C.3            1 S1                 0.0000
      7 ****        -1.3277  -5.0560   0.7366 C.3            1 S1                 0.0000
      8 ****        -1.0029  -3.0132  -0.7330 C.2            1 S1                 0.0000
      9 ****        -1.1852  -3.5815  -1.8081 O.2            1 S1                 0.0000
     10 ****        -0.2418  -1.9078  -0.6664 N.am           1 S1                 0.0000
     11 ****         0.4600  -1.2499  -1.7632 C.3            1 S1                 0.0000
     12 ****         1.2194   0.0017  -1.3491 C.ar           1 S1                 0.0000
     13 ****         1.6323   0.2355  -0.0198 C.ar           1 S1                 0.0000
     14 ****         2.3334   1.4189   0.2805 C.ar           1 S1                 0.0000
     15 ****         2.6103   2.3414  -0.7563 C.ar           1 S1                 0.0000
     16 ****         3.3073   3.5365  -0.4756 N.3            1 S1                 0.0000
     17 ****         2.7513   4.3516   0.6019 C.3            1 S1                 0.0000
     18 ****         3.7473   5.4498   1.0129 C.3            1 S1                 0.0000
     19 ****         4.1163   6.2179  -0.1274 O.3            1 S1                 0.0000
     20 ****         4.7599   5.4209  -1.1160 C.3            1 S1                 0.0000
     21 ****         3.7980   4.3250  -1.6048 C.3            1 S1                 0.0000
     22 ****         2.2260   2.1054  -2.0352 N.ar           1 S1                 0.0000
     23 ****         1.5522   0.9706  -2.3171 C.ar           1 S1                 0.0000
     24 ****        -5.1822  -1.9314  -1.7568 H              1 S1                 0.0000
     25 ****        -6.6277  -2.7245  -1.1358 H              1 S1                 0.0000
     26 ****        -5.1267  -3.6268  -1.2845 H              1 S1                 0.0000
     27 ****        -5.5426  -3.0025   1.0879 H              1 S1                 0.0000
     28 ****        -5.4736  -0.0994   0.1395 H              1 S1                 0.0000
     29 ****        -5.5810  -0.6340   1.8149 H              1 S1                 0.0000
     30 ****        -6.9011  -0.9662   0.7019 H              1 S1                 0.0000
     31 ****        -3.2088  -1.4781  -0.1426 H              1 S1                 0.0000
     32 ****        -3.3864  -1.8090   1.5736 H              1 S1                 0.0000
     33 ****        -1.3626  -3.0427   1.4391 H              1 S1                 0.0000
     34 ****        -0.2510  -5.2010   0.8317 H              1 S1                 0.0000
     35 ****        -1.6771  -5.6667  -0.0968 H              1 S1                 0.0000
     36 ****        -1.7923  -5.4433   1.6437 H              1 S1                 0.0000
     37 ****        -0.1451  -1.4777   0.2419 H              1 S1                 0.0000
     38 ****         1.1701  -1.9463  -2.2114 H              1 S1                 0.0000
     39 ****        -0.2611  -0.9751  -2.5346 H              1 S1                 0.0000
     40 ****         1.4253  -0.4755   0.7661 H              1 S1                 0.0000
     41 ****         2.6617   1.5968   1.2936 H              1 S1                 0.0000
     42 ****         1.8207   4.8036   0.2563 H              1 S1                 0.0000
     43 ****         2.5060   3.7512   1.4766 H              1 S1                 0.0000
     44 ****         3.2940   6.1090   1.7534 H              1 S1                 0.0000
     45 ****         4.6353   5.0156   1.4754 H              1 S1                 0.0000
     46 ****         5.0556   6.0586  -1.9489 H              1 S1                 0.0000
     47 ****         5.6737   4.9845  -0.7091 H              1 S1                 0.0000
     48 ****         4.3152   3.6820  -2.3179 H              1 S1                 0.0000
     49 ****         2.9523   4.7768  -2.1253 H              1 S1                 0.0000
     50 ****         1.2679   0.8339  -3.3502 H              1 S1                 0.0000
     51 ****        -3.3441  -3.8166  -0.4898 LP             1 S1                 0.0000
     52 ****        -3.4976  -4.0754   1.1152 LP             1 S1                 0.0000
     53 ****        -1.7629  -4.3967  -1.8512 LP             1 S1                 0.0000
     54 ****        -0.7557  -3.2286  -2.6394 LP             1 S1                 0.0000
     55 ****         4.1511   3.1440  -0.1097 LP             1 S1                 0.0000
     56 ****         4.7409   6.9442   0.1599 LP             1 S1                 0.0000
     57 ****         3.2932   6.6240  -0.5244 LP             1 S1                 0.0000
     58 ****         2.4386   2.7624  -2.7585 LP             1 S1                 0.0000
@<TRIPOS>BOND
    1    1    2 1     
    2    1   24 1     
    3    1   25 1     
    4    1   26 1     
    5    2    3 1     
    6    2    4 1     
    7    2   27 1     
    8    3   28 1     
    9    3   29 1     
   10    3   30 1     
   11    4    5 1     
   12    4   31 1     
   13    4   32 1     
   14    5    6 1     
   15    6    7 1     
   16    6    8 1     
   17    6   33 1     
   18    7   34 1     
   19    7   35 1     
   20    7   36 1     
   21    8    9 2     
   22    8   10 am    
   23   10   11 1     
   24   10   37 1     
   25   11   12 1     
   26   11   38 1     
   27   11   39 1     
   28   12   23 ar    
   29   12   13 ar    
   30   13   14 ar    
   31   13   40 1     
   32   14   15 ar    
   33   14   41 1     
   34   15   16 1     
   35   15   22 ar    
   36   16   21 1     
   37   16   17 1     
   38   17   18 1     
   39   17   42 1     
   40   17   43 1     
   41   18   19 1     
   42   18   44 1     
   43   18   45 1     
   44   19   20 1     
   45   20   21 1     
   46   20   46 1     
   47   20   47 1     
   48   21   48 1     
   49   21   49 1     
   50   22   23 ar    
   51   23   50 1     
   52    5   51 1     
   53    5   52 1     
   54    9   53 1     
   55    9   54 1     
   56   16   55 1     
   57   19   56 1     
   58   19   57 1     
   59   22   58 1     
@<TRIPOS>SUBSTRUCTURE
      1 S1             1
@<TRIPOS>SET
LONE_PAIRS      STATIC     ATOMS    <user>   **** ""
8 51 52 53 54 55 56 57 58
DONOR_HYDROGENS      STATIC     ATOMS    <user>   **** ""
1 37
ATOM$BLUE        STATIC     ATOMS    COLORGROUP SYSTEM
8 51 52 53 54 55 56 57 58
ATOM$RED        STATIC     ATOMS    COLORGROUP SYSTEM
1 37
