AV-unprocessed.smi:504|AV-procd|sdf|2747|dock7
  -GOLD-   2262023213D 1   1.00000     0.00000
 Structure written by MMmdl.
 35 36  0  0  0  0  0  0  0  0  1 V2000
  152.7269  139.4819  155.9364 N   0  0  0  0  0  0  0  0  0  0  0  0
  152.1695  139.6825  156.9305 C   0  0  0  0  0  0  0  0  0  0  0  0
  151.4570  139.9378  158.1991 C   0  0  0  0  0  0  0  0  0  0  0  0
  150.1760  139.2280  158.2313 N   0  0  0  0  0  0  0  0  0  0  0  0
  149.9702  137.9481  158.5827 C   0  0  0  0  0  0  0  0  0  0  0  0
  150.8693  137.1958  158.9598 O   0  0  0  0  0  0  0  0  0  0  0  0
  148.5160  137.4596  158.5093 C   0  0  0  0  0  0  0  0  0  0  0  0
  148.1200  136.6263  159.6544 N   0  0  0  0  0  0  0  0  0  0  0  0
  147.3403  137.2848  160.5889 N   0  0  0  0  0  0  0  0  0  0  0  0
  146.9453  136.6558  161.6419 C   0  0  0  0  0  0  0  0  0  0  0  0
  147.2859  135.2716  161.8858 C   0  0  0  0  0  0  0  0  0  0  0  0
  146.7268  134.4806  163.3173 Cl  0  0  0  0  0  0  0  0  0  0  0  0
  148.0460  134.6333  160.9608 C   0  0  0  0  0  0  0  0  0  0  0  0
  148.4932  132.9765  161.1823 Cl  0  0  0  0  0  0  0  0  0  0  0  0
  148.5133  135.3183  159.7474 C   0  0  0  0  0  0  0  0  0  0  0  0
  149.2004  134.7737  158.8822 O   0  0  0  0  0  0  0  0  0  0  0  0
  152.3289  139.5142  159.4086 C   0  0  0  0  0  0  0  0  0  0  0  0
  153.6097  140.3581  159.5280 C   0  0  0  0  0  0  0  0  0  0  0  0
  153.2807  141.8549  159.6167 C   0  0  0  0  0  0  0  0  0  0  0  0
  152.4169  142.3050  158.4299 C   0  0  0  0  0  0  0  0  0  0  0  0
  151.1448  141.4474  158.3155 C   0  0  0  0  0  0  0  0  0  0  0  0
  149.3688  139.7609  157.9424 H   0  0  0  0  0  0  0  0  0  0  0  0
  147.8699  138.3365  158.4378 H   0  0  0  0  0  0  0  0  0  0  0  0
  148.3630  136.9074  157.5800 H   0  0  0  0  0  0  0  0  0  0  0  0
  146.3320  137.1340  162.4058 H   0  0  0  0  0  0  0  0  0  0  0  0
  151.7528  139.6106  160.3300 H   0  0  0  0  0  0  0  0  0  0  0  0
  152.6048  138.4621  159.3319 H   0  0  0  0  0  0  0  0  0  0  0  0
  154.1757  140.0505  160.4076 H   0  0  0  0  0  0  0  0  0  0  0  0
  154.2558  140.1747  158.6687 H   0  0  0  0  0  0  0  0  0  0  0  0
  152.7529  142.0575  160.5496 H   0  0  0  0  0  0  0  0  0  0  0  0
  154.2016  142.4376  159.6502 H   0  0  0  0  0  0  0  0  0  0  0  0
  152.1468  143.3550  158.5467 H   0  0  0  0  0  0  0  0  0  0  0  0
  152.9950  142.2378  157.5075 H   0  0  0  0  0  0  0  0  0  0  0  0
  150.5635  141.7758  157.4526 H   0  0  0  0  0  0  0  0  0  0  0  0
  150.5180  141.6291  159.1904 H   0  0  0  0  0  0  0  0  0  0  0  0
  1  2  3  0  0  0  0
  2  3  1  0  0  0  0
  3 21  1  0  0  0  0
  3  4  1  0  0  0  0
  3 17  1  0  0  0  0
  4  5  1  0  0  0  0
  4 22  1  0  0  0  0
  5  6  2  0  0  0  0
  5  7  1  0  0  0  0
  7  8  1  0  0  0  0
  7 23  1  0  0  0  0
  7 24  1  0  0  0  0
  8 15  1  0  0  0  0
  8  9  1  0  0  0  0
  9 10  2  0  0  0  0
 10 11  1  0  0  0  0
 10 25  1  0  0  0  0
 11 12  1  0  0  0  0
 11 13  2  0  0  0  0
 13 14  1  0  0  0  0
 13 15  1  0  0  0  0
 15 16  2  0  0  0  0
 17 18  1  0  0  0  0
 17 26  1  0  0  0  0
 17 27  1  0  0  0  0
 18 19  1  0  0  0  0
 18 28  1  0  0  0  0
 18 29  1  0  0  0  0
 19 20  1  0  0  0  0
 19 30  1  0  0  0  0
 19 31  1  0  0  0  0
 20 21  1  0  0  0  0
 20 32  1  0  0  0  0
 20 33  1  0  0  0  0
 21 34  1  0  0  0  0
 21 35  1  0  0  0  0
M  END
> <s_m_source_file>
AV-unprocessed.smi

> <i_m_source_file_index>
504

> <i_lp_mmshare_version>
43012

> <i_f3d_flags>
0

> <s_epik_input>
W0NIMl0xW0NIMl1bQ0gyXVtDSDJdW0NIMl1DMShDI04pW05IXUMoPU8pW0NIMl1uMm5bY0hdYyhDbCljKENsKWMyPU8=

> <s_epik_cmdline>
J2VwaWtfcHl0aG9uJywgJy1waCcsICc3LjAnLCAnLXRuJywgJzgnLCAnLW1hJywgJzIwMCcsICctbWV0YWxfYmluZGluZycsICctaW1hZScsICc8aW5maWxlLm1hZT4nLCAnLW9tYWUnLCAnPG91dGZpbGUubWFlPic=

> <r_lp_tautomer_probability>
1

> <r_epik_Ionization_Penalty>
4.52612e-07

> <r_epik_Ionization_Penalty_Charging>
2.33921e-11

> <r_epik_Ionization_Penalty_Neutral>
4.52589e-07

> <r_epik_State_Penalty>
-0

> <r_epik_Charging_Adjusted_Penalty>
2.33921e-11

> <i_epik_Tot_Q>
0

> <i_epik_Tot_abs_Q>
0

> <r_epik_Metal_State_Penalty>
-0

> <b_epik_Metal_Only>
0

> <s_lp_Force_Field>
OPLS_2005

> <r_lp_Energy>
21.394

> <b_lp_Chiralities_Consistent>
1

> <s_lp_Variant>
AV-unprocessed.smi:504-1

> <Gold.Version>
5.8.1

> <Gold.Id.Protein>
6NUR|6NUR_protein|mol2

> <Gold.PLP.Fitness>
41.2941

> <Gold.PLP.PLP>
-32.7598

> <Gold.PLP.part.hbond>
-4.8745

> <Gold.PLP.part.metal>
0.0000

> <Gold.PLP.part.buried>
-1.6044

> <Gold.PLP.part.nonpolar>
-27.7191

> <Gold.PLP.part.repulsive>
0.1874

> <Gold.PLP.ligand.clash>
0.0000

> <Gold.PLP.ligand.torsion>
0.9601

> <Gold.PLP.Chemscore.Hbond>
3.4830

> <Gold.PLP.Chemscore.CHOScore>
0.0000

> <Gold.PLP.Chemscore.Metal>
0.0000

> <Gold.Chemscore.Hbonds>
donor molecule, donor type, donor heavy atom, donor atom, acceptor molecule, acceptor atom, score
      P1  H  6896  6908       L1    16  1.00
      P1  H  6931  6943       L1     9  0.06
      P1  H  6934  6947       L1     9  1.00
      P1  H  7997  8008       L1     1  1.00

> <Gold.PLP.Chemscore.Internal.Correction>
0.0055

> <Gold.Rescore>
     Score         DG    S(hbond)    S(metal)    S(lipo)     H(rot)  DE(clash)    DE(int)     intcor
     15.47     -20.34       2.81        0.00      81.85       1.60       0.40       4.48       ----

> <Gold.Chemscore.Fitness>
15.4674

> <Gold.Chemscore.DG>
-20.3412

> <Gold.Chemscore.ZeroCoef>
-5.4800

> <Gold.Chemscore.Hbond>
2.8092

> <Gold.Chemscore.Metal>
0.0000

> <Gold.Chemscore.Lipo>
81.8487

> <Gold.Chemscore.Internal_Hbond>
0.0000

> <Gold.Chemscore.DEClash>
0.3976

> <Gold.Chemscore.DEInternal>
4.4761

> <Gold.Chemscore.Rot>
1.6007

> <Gold.Chemscore.Internal.Correction>
   9.000000E+99

> <Gold.Chemscore.Hbonds>
donor molecule, donor type, donor heavy atom, donor atom, acceptor molecule, acceptor atom, score
      P1  H  6896  6908       L1    16  0.84
      P1  H  6934  6947       L1     9  0.59
      P1  H  7997  8008       L1     1  0.50

> <Gold.Chemscore.Hbond.Weighted>
-9.3827

> <Gold.Chemscore.Metal.Weighted>
-0.0000

> <Gold.Chemscore.Lipo.Weighted>
-9.5763

> <Gold.Chemscore.Internal_Hbond.Weighted>
0.0000

> <Gold.Chemscore.DEClash.Weighted>
0.3976

> <Gold.Chemscore.DEInternal.Weighted>
4.4761

> <Gold.Chemscore.Rot.Weighted>
4.0978

> <Gold.Chemscore.Internal.Correction.Weighted>
   9.000000E+99

> <Gold.Protein.RotatedTorsions>
[ 6907 6896 6895 6894 ] final  151.34 input  -60.11 | X-H torsion
[ 7974 7965 7964 7962 ] final -157.27 input  175.53 | X-H torsion
[ 8008 7997 7996 7995 ] final  -32.46 input   59.86 | X-H torsion
[ 10167 10162 10161 10158 ] final  -52.65 input  -65.29 | X-H torsion
[ 10718 10713 10712 10709 ] final  -62.73 input   66.30 | X-H torsion
[ 10763 10752 10751 10750 ] final  167.39 input  -60.55 | X-H torsion
[ 11005 11000 10999 10996 ] final   56.40 input  -57.11 | X-H torsion

> <Gold.Protein.ActiveResidues>
 VAL166  LYS551  ARG553  GLY616  TRP617  ASP618  TYR619  PRO620  LYS621  CYS622 
 ASP623  PHE694  ASN695  SER759  ASP760  ASP761  ALA762  ILE779  LEU786  VAL792 
 PHE793  MET794  SER795  GLU796  ALA797  LYS798  CYS799  TRP800  GLU811  SER814 

> <Gold.Protein.RotatedAtoms>
  152.1020  133.4255  159.4591 H   0  0  0  0  0  0  0  0  0  0  0  0  # atno 6907 bound_to 6896
  150.6864  134.2749  159.4612 H   0  0  0  0  0  0  0  0  0  0  0  0  # atno 6908 bound_to 6896
  152.0610  134.9593  160.0625 H   0  0  0  0  0  0  0  0  0  0  0  0  # atno 6909 bound_to 6896
  144.7556  140.3993  143.6015 H   0  0  0  0  0  0  0  0  0  0  0  0  # atno 7974 bound_to 7965
  154.4179  140.1737  156.1731 H   0  0  0  0  0  0  0  0  0  0  0  0  # atno 8008 bound_to 7997
  155.9744  140.3383  155.6581 H   0  0  0  0  0  0  0  0  0  0  0  0  # atno 8009 bound_to 7997
  155.6583  140.0698  157.2554 H   0  0  0  0  0  0  0  0  0  0  0  0  # atno 8010 bound_to 7997
  140.6526  143.2577  151.4678 H   0  0  0  0  0  0  0  0  0  0  0  0  # atno 10167 bound_to 10162
  156.0836  130.4212  150.1176 H   0  0  0  0  0  0  0  0  0  0  0  0  # atno 10718 bound_to 10713
  154.3531  135.2753  155.2361 H   0  0  0  0  0  0  0  0  0  0  0  0  # atno 10763 bound_to 10752
  154.4581  135.5914  153.6240 H   0  0  0  0  0  0  0  0  0  0  0  0  # atno 10764 bound_to 10752
  152.9848  135.6058  154.3744 H   0  0  0  0  0  0  0  0  0  0  0  0  # atno 10765 bound_to 10752
  140.0532  134.5707  155.9239 H   0  0  0  0  0  0  0  0  0  0  0  0  # atno 11005 bound_to 11000
  145.6792  139.1615  143.2710 LP  0  0  0  0  0  0  0  0  0  0  0  0  # atno 17320 bound_to 7965
  146.1561  140.6856  142.9299 LP  0  0  0  0  0  0  0  0  0  0  0  0  # atno 17321 bound_to 7965
  139.5744  144.1854  152.1882 LP  0  0  0  0  0  0  0  0  0  0  0  0  # atno 17342 bound_to 10162
  140.1160  144.5415  150.6894 LP  0  0  0  0  0  0  0  0  0  0  0  0  # atno 17343 bound_to 10162
  156.9202  130.9680  151.3549 LP  0  0  0  0  0  0  0  0  0  0  0  0  # atno 17370 bound_to 10713
  157.5963  130.8480  149.8733 LP  0  0  0  0  0  0  0  0  0  0  0  0  # atno 17371 bound_to 10713
  141.1940  133.6581  156.5574 LP  0  0  0  0  0  0  0  0  0  0  0  0  # atno 17394 bound_to 11000
  140.3885  134.7461  157.4706 LP  0  0  0  0  0  0  0  0  0  0  0  0  # atno 17395 bound_to 11000

$$$$
