#       Name:                AV-unprocessed.smi:100
#       Creating user name   scv26
#       Creation time:       Thu Mar 26 17:40:15 2020


#       File generated by GOLD software.
#

@<TRIPOS>MOLECULE
AV-unprocessed.smi:100
    40    42     1
SMALL
NO_CHARGES


@<TRIPOS>ATOM
      1 ****        -5.0409   0.8700  -0.1887 N.pl3          1 S1                 0.0000
      2 ****        -3.7070   0.9373  -0.3001 C.ar           1 S1                 0.0000
      3 ****        -3.1565   2.0962  -0.7308 N.ar           1 S1                 0.0000
      4 ****        -1.8284   2.1884  -0.8519 C.ar           1 S1                 0.0000
      5 ****        -0.9007   1.2608  -0.6013 N.ar           1 S1                 0.0000
      6 ****        -1.4564   0.0915  -0.1673 C.ar           1 S1                 0.0000
      7 ****        -2.8479  -0.1470   0.0107 C.ar           1 S1                 0.0000
      8 ****        -3.0521  -1.4415   0.4679 N.2            1 S1                 0.0000
      9 ****        -1.8471  -1.9373   0.5531 C.2            1 S1                 0.0000
     10 ****        -0.8262  -1.0857   0.1904 N.pl3          1 S1                 0.0000
     11 ****         0.6442  -1.3857   0.1898 C.3            1 S1                 0.0000
     12 ****         1.2595  -0.7211  -0.8773 O.3            1 S1                 0.0000
     13 ****         2.2639   0.1693  -0.3931 C.3            1 S1                 0.0000
     14 ****         3.3874   0.3003  -1.4318 C.3            1 S1                 0.0000
     15 ****         4.3103   1.2946  -1.0417 O.3            1 S1                 0.0000
     16 ****         2.6808  -0.4691   0.9314 C.3            1 S1                 0.0000
     17 ****         3.3275   0.3526   1.7600 F              1 S1                 0.0000
     18 ****         1.3540  -0.9518   1.4880 C.3            1 S1                 0.0000
     19 ****         0.6734   0.0738   2.1926 O.3            1 S1                 0.0000
     20 ****        -5.4770   0.0164   0.1299 H              1 S1                 0.0000
     21 ****        -5.6072   1.6709  -0.4278 H              1 S1                 0.0000
     22 ****        -1.4550   3.1402  -1.1996 H              1 S1                 0.0000
     23 ****        -1.6677  -2.9489   0.8874 H              1 S1                 0.0000
     24 ****         0.7079  -2.4603   0.0126 H              1 S1                 0.0000
     25 ****         1.8031   1.1411  -0.2104 H              1 S1                 0.0000
     26 ****         3.9067  -0.6482  -1.5703 H              1 S1                 0.0000
     27 ****         2.9691   0.5835  -2.3980 H              1 S1                 0.0000
     28 ****         4.9750   1.3674  -1.7096 H              1 S1                 0.0000
     29 ****         3.3365  -1.3215   0.7483 H              1 S1                 0.0000
     30 ****         1.4736  -1.8099   2.1500 H              1 S1                 0.0000
     31 ****        -0.2017  -0.2253   2.3869 H              1 S1                 0.0000
     32 ****        -3.7386   2.8773  -0.9566 LP             1 S1                 0.0000
     33 ****         0.0819   1.4051  -0.7174 LP             1 S1                 0.0000
     34 ****        -3.9199  -1.8900   0.6822 LP             1 S1                 0.0000
     35 ****         0.5715  -0.1994  -1.3817 LP             1 S1                 0.0000
     36 ****         1.6804  -1.3936  -1.4861 LP             1 S1                 0.0000
     37 ****         4.7329   1.0394  -0.1720 LP             1 S1                 0.0000
     38 ****         3.8386   2.1703  -0.9388 LP             1 S1                 0.0000
     39 ****         0.6304   0.8988   1.6291 LP             1 S1                 0.0000
     40 ****         1.1573   0.2764   3.0439 LP             1 S1                 0.0000
@<TRIPOS>BOND
    1    1    2 1     
    2    1   20 1     
    3    1   21 1     
    4    2    7 ar    
    5    2    3 ar    
    6    3    4 ar    
    7    4    5 ar    
    8    4   22 1     
    9    5    6 ar    
   10    6   10 1     
   11    6    7 ar    
   12    7    8 1     
   13    8    9 2     
   14    9   10 1     
   15    9   23 1     
   16   10   11 1     
   17   11   18 1     
   18   11   12 1     
   19   11   24 1     
   20   12   13 1     
   21   13   14 1     
   22   13   16 1     
   23   13   25 1     
   24   14   15 1     
   25   14   26 1     
   26   14   27 1     
   27   15   28 1     
   28   16   17 1     
   29   16   18 1     
   30   16   29 1     
   31   18   19 1     
   32   18   30 1     
   33   19   31 1     
   34    3   32 1     
   35    5   33 1     
   36    8   34 1     
   37   12   35 1     
   38   12   36 1     
   39   15   37 1     
   40   15   38 1     
   41   19   39 1     
   42   19   40 1     
@<TRIPOS>SUBSTRUCTURE
      1 S1             1
@<TRIPOS>SET
LONE_PAIRS      STATIC     ATOMS    <user>   **** ""
9 32 33 34 35 36 37 38 39 40
DONOR_HYDROGENS      STATIC     ATOMS    <user>   **** ""
4 20 21 28 31
ATOM$BLUE        STATIC     ATOMS    COLORGROUP SYSTEM
9 32 33 34 35 36 37 38 39 40
ATOM$RED        STATIC     ATOMS    COLORGROUP SYSTEM
4 20 21 28 31
