AV-unprocessed.smi:1046|AV-procd|sdf|4549|dock6
  -GOLD-   22720 2573D 1   1.00000     0.00000
 Structure written by MMmdl.
 53 55  0  0  0  0  0  0  0  0  2 V2000
  151.5968  143.9884  158.7669 C   0  0  0  0  0  0  0  0  0  0  0  0
  151.4427  142.6227  158.1212 C   0  0  0  0  0  0  0  0  0  0  0  0
  150.7231  142.5128  156.9102 C   0  0  0  0  0  0  0  0  0  0  0  0
  150.5589  141.2618  156.2768 C   0  0  0  0  0  0  0  0  0  0  0  0
  149.9061  140.9275  155.1028 N   0  0  0  0  0  0  0  0  0  0  0  0
  150.1064  139.6144  155.0490 C   0  0  0  0  0  0  0  0  0  0  0  0
  150.8150  139.0566  156.0496 N   0  0  0  0  0  0  0  0  0  0  0  0
  151.1572  137.6534  156.1994 C   0  0  0  0  0  0  0  0  0  0  0  0
  150.5962  136.7865  155.0534 C   0  0  1  0  0  0  0  0  0  0  0  0
  151.5781  136.6530  154.0455 O   0  0  0  0  0  0  0  0  0  0  0  0
  150.1981  135.3676  155.5104 C   0  0  0  0  0  0  0  0  0  0  0  0
  149.2997  134.6732  154.5527 N   0  3  0  0  0  0  0  0  0  0  0  0
  147.8962  134.6143  155.0364 C   0  0  0  0  0  0  0  0  0  0  0  0
  146.9878  133.9626  153.9735 C   0  0  0  0  0  0  0  0  0  0  0  0
  147.4252  132.6231  153.5811 N   0  0  0  0  0  0  0  0  0  0  0  0
  147.1882  131.6189  154.6230 C   0  0  0  0  0  0  0  0  0  0  0  0
  147.4219  130.1648  154.1828 C   0  0  0  0  0  0  0  0  0  0  0  0
  146.3077  129.7137  153.4450 O   0  0  0  0  0  0  0  0  0  0  0  0
  148.8123  132.7032  153.1169 C   0  0  0  0  0  0  0  0  0  0  0  0
  149.7719  133.3197  154.1554 C   0  0  0  0  0  0  0  0  0  0  0  0
  151.1378  140.1140  156.8937 C   0  0  0  0  0  0  0  0  0  0  0  0
  151.8553  140.2107  158.0987 C   0  0  0  0  0  0  0  0  0  0  0  0
  152.0105  141.4686  158.7180 C   0  0  0  0  0  0  0  0  0  0  0  0
  152.7884  141.5631  160.0185 C   0  0  0  0  0  0  0  0  0  0  0  0
  151.1188  144.7668  158.1716 H   0  0  0  0  0  0  0  0  0  0  0  0
  152.6512  144.2459  158.8688 H   0  0  0  0  0  0  0  0  0  0  0  0
  151.1402  143.9960  159.7568 H   0  0  0  0  0  0  0  0  0  0  0  0
  150.2903  143.3918  156.4557 H   0  0  0  0  0  0  0  0  0  0  0  0
  149.7169  139.0230  154.2330 H   0  0  0  0  0  0  0  0  0  0  0  0
  152.2427  137.5608  156.2564 H   0  0  0  0  0  0  0  0  0  0  0  0
  150.7668  137.3149  157.1598 H   0  0  0  0  0  0  0  0  0  0  0  0
  149.7451  137.2901  154.5960 H   0  0  0  0  0  0  0  0  0  0  0  0
  151.1441  136.5402  153.2128 H   0  0  0  0  0  0  0  0  0  0  0  0
  151.0863  134.7550  155.6740 H   0  0  0  0  0  0  0  0  0  0  0  0
  149.6986  135.4451  156.4777 H   0  0  0  0  0  0  0  0  0  0  0  0
  147.8493  134.0670  155.9787 H   0  0  0  0  0  0  0  0  0  0  0  0
  147.5380  135.6237  155.2418 H   0  0  0  0  0  0  0  0  0  0  0  0
  145.9598  133.9263  154.3361 H   0  0  0  0  0  0  0  0  0  0  0  0
  146.9665  134.6017  153.0897 H   0  0  0  0  0  0  0  0  0  0  0  0
  147.7919  131.8301  155.5054 H   0  0  0  0  0  0  0  0  0  0  0  0
  146.1504  131.6991  154.9497 H   0  0  0  0  0  0  0  0  0  0  0  0
  148.3145  130.0889  153.5612 H   0  0  0  0  0  0  0  0  0  0  0  0
  147.5567  129.5028  155.0376 H   0  0  0  0  0  0  0  0  0  0  0  0
  145.6188  129.4837  154.0499 H   0  0  0  0  0  0  0  0  0  0  0  0
  149.1723  131.7208  152.8138 H   0  0  0  0  0  0  0  0  0  0  0  0
  148.8438  133.3115  152.2119 H   0  0  0  0  0  0  0  0  0  0  0  0
  150.7647  133.3820  153.7125 H   0  0  0  0  0  0  0  0  0  0  0  0
  149.8606  132.6795  155.0340 H   0  0  0  0  0  0  0  0  0  0  0  0
  152.2854  139.3245  158.5415 H   0  0  0  0  0  0  0  0  0  0  0  0
  153.1350  140.5831  160.3478 H   0  0  0  0  0  0  0  0  0  0  0  0
  152.1631  141.9790  160.8088 H   0  0  0  0  0  0  0  0  0  0  0  0
  153.6622  142.2032  159.8945 H   0  0  0  0  0  0  0  0  0  0  0  0
  149.2817  135.2351  153.7138 H   0  0  0  0  0  0  0  0  0  0  0  0
  1  2  1  0  0  0  0
  1 25  1  0  0  0  0
  1 26  1  0  0  0  0
  1 27  1  0  0  0  0
  2 23  1  0  0  0  0
  2  3  2  0  0  0  0
  3  4  1  0  0  0  0
  3 28  1  0  0  0  0
  4 21  2  0  0  0  0
  4  5  1  0  0  0  0
  5  6  2  0  0  0  0
  6  7  1  0  0  0  0
  6 29  1  0  0  0  0
  7  8  1  0  0  0  0
  7 21  1  0  0  0  0
  8  9  1  0  0  0  0
  8 30  1  0  0  0  0
  8 31  1  0  0  0  0
  9 10  1  0  0  0  0
  9 11  1  0  0  0  0
  9 32  1  0  0  0  0
 10 33  1  0  0  0  0
 11 12  1  0  0  0  0
 11 34  1  0  0  0  0
 11 35  1  0  0  0  0
 12 20  1  0  0  0  0
 12 13  1  0  0  0  0
 12 53  1  0  0  0  0
 13 14  1  0  0  0  0
 13 36  1  0  0  0  0
 13 37  1  0  0  0  0
 14 15  1  0  0  0  0
 14 38  1  0  0  0  0
 14 39  1  0  0  0  0
 15 16  1  0  0  0  0
 15 19  1  0  0  0  0
 16 17  1  0  0  0  0
 16 40  1  0  0  0  0
 16 41  1  0  0  0  0
 17 18  1  0  0  0  0
 17 42  1  0  0  0  0
 17 43  1  0  0  0  0
 18 44  1  0  0  0  0
 19 20  1  0  0  0  0
 19 45  1  0  0  0  0
 19 46  1  0  0  0  0
 20 47  1  0  0  0  0
 20 48  1  0  0  0  0
 21 22  1  0  0  0  0
 22 23  2  0  0  0  0
 22 49  1  0  0  0  0
 23 24  1  0  0  0  0
 24 50  1  0  0  0  0
 24 51  1  0  0  0  0
 24 52  1  0  0  0  0
M  CHG  1  12   1
M  END
> <s_m_source_file>
AV-unprocessed.smi

> <i_m_source_file_index>
1046

> <i_lp_mmshare_version>
43012

> <i_f3d_flags>
0

> <s_epik_input>
W0NIM11jKFtjSF0xKWMoW0NIM10pW2NIXWMoYzEyKW4oW2NIXW4yKVtDSDJdW0NASF0oW09IXSlbQ0gyXU4zW0NIMl1bQ0gyXU4oW0NIMl1bQ0gyXTMpW0NIMl1bQ0gyXVtPSF0=

> <s_epik_cmdline>
J2VwaWtfcHl0aG9uJywgJy1waCcsICc3LjAnLCAnLXRuJywgJzgnLCAnLW1hJywgJzIwMCcsICctbWV0YWxfYmluZGluZycsICctaW1hZScsICc8aW5maWxlLm1hZT4nLCAnLW9tYWUnLCAnPG91dGZpbGUubWFlPic=

> <r_epik_Ionization_Penalty>
0.131947

> <r_epik_Ionization_Penalty_Charging>
0.00213896

> <r_epik_Ionization_Penalty_Neutral>
0.129808

> <r_epik_State_Penalty>
0.319681

> <r_epik_Charging_Adjusted_Penalty>
0.32182

> <i_epik_Tot_Q>
1

> <i_epik_Tot_abs_Q>
1

> <r_epik_Metal_State_Penalty>
0.225417

> <b_epik_Metal_Only>
0

> <s_lp_Force_Field>
OPLS_2005

> <r_lp_Energy>
33.7571

> <b_lp_Chiralities_Consistent>
1

> <s_lp_Variant>
AV-unprocessed.smi:1046-2

> <Gold.Version>
5.8.1

> <Gold.Id.Protein>
6NUR|6NUR_protein|mol2

> <Gold.PLP.Fitness>
54.9196

> <Gold.PLP.PLP>
-42.4480

> <Gold.PLP.part.hbond>
-5.0000

> <Gold.PLP.part.metal>
0.0000

> <Gold.PLP.part.buried>
-6.0719

> <Gold.PLP.part.nonpolar>
-33.2028

> <Gold.PLP.part.repulsive>
0.2161

> <Gold.PLP.ligand.clash>
0.0000

> <Gold.PLP.ligand.torsion>
1.3792

> <Gold.PLP.Chemscore.Hbond>
5.0364

> <Gold.PLP.Chemscore.CHOScore>
0.0000

> <Gold.PLP.Chemscore.Metal>
0.0000

> <Gold.Chemscore.Hbonds>
donor molecule, donor type, donor heavy atom, donor atom, acceptor molecule, acceptor atom, score
      L1  H    10    33       P1  7949  1.00
      L1  H    12    53       P1  7948  1.69
      P1  H  7989  7998       L1     5  0.02
      P1  H 10752 10763       L1    10  1.00

> <Gold.PLP.Chemscore.Internal.Correction>
0.1208

> <Gold.Rescore>
     Score         DG    S(hbond)    S(metal)    S(lipo)     H(rot)  DE(clash)    DE(int)     intcor
     16.70     -18.16       2.56        0.00     105.55       3.21       0.02       1.44       ----

> <Gold.Chemscore.Fitness>
16.7016

> <Gold.Chemscore.DG>
-18.1601

> <Gold.Chemscore.ZeroCoef>
-5.4800

> <Gold.Chemscore.Hbond>
2.5562

> <Gold.Chemscore.Metal>
0.0000

> <Gold.Chemscore.Lipo>
105.5489

> <Gold.Chemscore.Internal_Hbond>
0.0000

> <Gold.Chemscore.DEClash>
0.0207

> <Gold.Chemscore.DEInternal>
1.4378

> <Gold.Chemscore.Rot>
3.2058

> <Gold.Chemscore.Internal.Correction>
   9.000000E+99

> <Gold.Chemscore.Hbonds>
donor molecule, donor type, donor heavy atom, donor atom, acceptor molecule, acceptor atom, score
      L1  H    10    33       P1  7949  0.42
      L1  H    12    53       P1  7948  0.25
      L1  H    18    44       P1 10956  0.04
      P1  H 10752 10763       L1    10  0.74

> <Gold.Chemscore.Hbond.Weighted>
-8.5376

> <Gold.Chemscore.Metal.Weighted>
-0.0000

> <Gold.Chemscore.Lipo.Weighted>
-12.3492

> <Gold.Chemscore.Internal_Hbond.Weighted>
0.0000

> <Gold.Chemscore.DEClash.Weighted>
0.0207

> <Gold.Chemscore.DEInternal.Weighted>
1.4378

> <Gold.Chemscore.Rot.Weighted>
8.2067

> <Gold.Chemscore.Internal.Correction.Weighted>
   9.000000E+99

> <Gold.Protein.RotatedTorsions>
[ 6907 6896 6895 6894 ] final   61.22 input  -60.11 | X-H torsion
[ 7974 7965 7964 7962 ] final  152.23 input  175.53 | X-H torsion
[ 8008 7997 7996 7995 ] final  -18.52 input   59.86 | X-H torsion
[ 10167 10162 10161 10158 ] final   65.53 input  -65.29 | X-H torsion
[ 10718 10713 10712 10709 ] final   56.41 input   66.30 | X-H torsion
[ 10763 10752 10751 10750 ] final   30.53 input  -60.55 | X-H torsion
[ 11005 11000 10999 10996 ] final  133.16 input  -57.11 | X-H torsion

> <Gold.Protein.ActiveResidues>
 VAL166  LYS551  ARG553  GLY616  TRP617  ASP618  TYR619  PRO620  LYS621  CYS622 
 ASP623  PHE694  ASN695  SER759  ASP760  ASP761  ALA762  ILE779  LEU786  VAL792 
 PHE793  MET794  SER795  GLU796  ALA797  LYS798  CYS799  TRP800  GLU811  SER814 

> <Gold.Protein.RotatedAtoms>
  152.4070  134.6189  160.0045 H   0  0  0  0  0  0  0  0  0  0  0  0  # atno 6907 bound_to 6896
  151.6377  133.3322  159.3131 H   0  0  0  0  0  0  0  0  0  0  0  0  # atno 6908 bound_to 6896
  150.7964  134.7068  159.6626 H   0  0  0  0  0  0  0  0  0  0  0  0  # atno 6909 bound_to 6896
  144.8237  139.6641  143.6089 H   0  0  0  0  0  0  0  0  0  0  0  0  # atno 7974 bound_to 7965
  154.4900  140.2113  155.9569 H   0  0  0  0  0  0  0  0  0  0  0  0  # atno 8008 bound_to 7997
  156.1292  140.3200  155.8292 H   0  0  0  0  0  0  0  0  0  0  0  0  # atno 8009 bound_to 7997
  155.4327  140.0504  157.3008 H   0  0  0  0  0  0  0  0  0  0  0  0  # atno 8010 bound_to 7997
  140.1103  144.4824  150.6982 H   0  0  0  0  0  0  0  0  0  0  0  0  # atno 10167 bound_to 10162
  157.5428  130.8710  149.8848 H   0  0  0  0  0  0  0  0  0  0  0  0  # atno 10718 bound_to 10713
  153.0366  135.6462  154.1059 H   0  0  0  0  0  0  0  0  0  0  0  0  # atno 10763 bound_to 10752
  154.0773  135.2876  155.3298 H   0  0  0  0  0  0  0  0  0  0  0  0  # atno 10764 bound_to 10752
  154.6554  135.5411  153.8017 H   0  0  0  0  0  0  0  0  0  0  0  0  # atno 10765 bound_to 10752
  139.9834  134.9540  156.9685 H   0  0  0  0  0  0  0  0  0  0  0  0  # atno 11005 bound_to 11000
  146.2542  139.6266  142.9406 LP  0  0  0  0  0  0  0  0  0  0  0  0  # atno 17320 bound_to 7965
  145.5048  141.0437  143.2520 LP  0  0  0  0  0  0  0  0  0  0  0  0  # atno 17321 bound_to 7965
  140.6929  143.2386  151.5080 LP  0  0  0  0  0  0  0  0  0  0  0  0  # atno 17342 bound_to 10162
  139.5623  144.2127  152.1710 LP  0  0  0  0  0  0  0  0  0  0  0  0  # atno 17343 bound_to 10162
  156.0511  130.3717  150.1199 LP  0  0  0  0  0  0  0  0  0  0  0  0  # atno 17370 bound_to 10713
  156.9378  130.9734  151.3521 LP  0  0  0  0  0  0  0  0  0  0  0  0  # atno 17371 bound_to 10713
  140.5050  134.1059  155.7258 LP  0  0  0  0  0  0  0  0  0  0  0  0  # atno 17394 bound_to 11000
  141.1503  133.8981  157.2114 LP  0  0  0  0  0  0  0  0  0  0  0  0  # atno 17395 bound_to 11000

$$$$
