#       Name:                AV-unprocessed.smi:3189
#       Creating user name   scv26
#       Creation time:       Fri Mar 27 18:03:12 2020


#       File generated by GOLD software.
#

@<TRIPOS>MOLECULE
AV-unprocessed.smi:3189
    33    34     1
SMALL
NO_CHARGES


@<TRIPOS>ATOM
      1 ****        -4.3886   1.7068   0.5210 C.3            1 S1                 0.0000
      2 ****        -3.5379   0.4719   0.2942 C.ar           1 S1                 0.0000
      3 ****        -4.1761  -0.6981   0.0707 N.pl3          1 S1                 1.0000
      4 ****        -3.5264  -1.8624  -0.1357 C.ar           1 S1                 0.0000
      5 ****        -2.1183  -1.8922  -0.1293 C.ar           1 S1                 0.0000
      6 ****        -1.3975  -0.6900   0.0828 C.ar           1 S1                 0.0000
      7 ****         0.0229  -0.6339   0.1230 N.am           1 S1                 0.0000
      8 ****         0.9168  -1.4508  -0.4677 C.2            1 S1                 0.0000
      9 ****         0.6227  -2.4058  -1.1838 O.2            1 S1                 0.0000
     10 ****         2.1982  -1.0952  -0.2704 N.am           1 S1                 0.0000
     11 ****         3.3707  -1.7548  -0.7634 C.3            1 S1                 0.0000
     12 ****         4.6914  -1.0380  -0.5852 C.3            1 S1                 0.0000
     13 ****         4.4001  -2.2775   0.2206 C.3            1 S1                 0.0000
     14 ****         4.1935  -2.1955   1.7200 C.3            1 S1                 0.0000
     15 ****        -2.1233   0.5056   0.3105 C.ar           1 S1                 0.0000
     16 ****        -1.2921   1.9977   0.5980 Cl             1 S1                 0.0000
     17 ****        -4.1959   2.4472  -0.2560 H              1 S1                 0.0000
     18 ****        -4.1592   2.1543   1.4886 H              1 S1                 0.0000
     19 ****        -5.4524   1.4670   0.5039 H              1 S1                 0.0000
     20 ****        -4.1484  -2.7317  -0.2922 H              1 S1                 0.0000
     21 ****        -1.6182  -2.8376  -0.2752 H              1 S1                 0.0000
     22 ****         0.4100   0.1725   0.5914 H              1 S1                 0.0000
     23 ****         2.3559  -0.2168   0.2030 H              1 S1                 0.0000
     24 ****         3.2730  -2.2979  -1.7024 H              1 S1                 0.0000
     25 ****         5.4225  -1.1235  -1.3864 H              1 S1                 0.0000
     26 ****         4.6859  -0.0828  -0.0630 H              1 S1                 0.0000
     27 ****         4.9205  -3.1815  -0.0905 H              1 S1                 0.0000
     28 ****         3.7475  -1.2423   2.0051 H              1 S1                 0.0000
     29 ****         5.1499  -2.2934   2.2332 H              1 S1                 0.0000
     30 ****         3.5372  -3.0005   2.0512 H              1 S1                 0.0000
     31 ****        -5.1965  -0.7022   0.0631 H              1 S1                 0.0000
     32 ****        -0.3377  -2.6203  -1.3616 LP             1 S1                 0.0000
     33 ****         1.3439  -2.9681  -1.5884 LP             1 S1                 0.0000
@<TRIPOS>BOND
    1    1    2 1     
    2    1   17 1     
    3    1   18 1     
    4    1   19 1     
    5    2   15 ar    
    6    2    3 ar    
    7    3    4 ar    
    8    3   31 1     
    9    4    5 ar    
   10    4   20 1     
   11    5    6 ar    
   12    5   21 1     
   13    6    7 1     
   14    6   15 ar    
   15    7    8 am    
   16    7   22 1     
   17    8    9 2     
   18    8   10 am    
   19   10   11 1     
   20   10   23 1     
   21   11   13 1     
   22   11   12 1     
   23   11   24 1     
   24   12   13 1     
   25   12   25 1     
   26   12   26 1     
   27   13   14 1     
   28   13   27 1     
   29   14   28 1     
   30   14   29 1     
   31   14   30 1     
   32   15   16 1     
   33    9   32 1     
   34    9   33 1     
@<TRIPOS>SUBSTRUCTURE
      1 S1             1
@<TRIPOS>SET
LONE_PAIRS      STATIC     ATOMS    <user>   **** ""
2 32 33
DONOR_HYDROGENS      STATIC     ATOMS    <user>   **** ""
3 31 22 23
ATOM$BLUE        STATIC     ATOMS    COLORGROUP SYSTEM
2 32 33
ATOM$RED        STATIC     ATOMS    COLORGROUP SYSTEM
3 31 22 23
