AV-unprocessed.smi:467|AV-procd|sdf|2647|dock1
  -GOLD-   2262023 53D 1   1.00000     0.00000
 Structure written by MMmdl.
 45 47  0  0  0  0  0  0  0  0  2 V2000
  151.9155  145.0859  160.3926 C   0  0  0  0  0  0  0  0  0  0  0  0
  151.8690  143.8605  159.4957 C   0  0  0  0  0  0  0  0  0  0  0  0
  151.1493  143.9400  158.2823 C   0  0  0  0  0  0  0  0  0  0  0  0
  151.1211  142.8017  157.4858 C   0  0  0  0  0  0  0  0  0  0  0  0
  150.5057  142.5635  156.2552 N   0  3  0  0  0  0  0  0  0  0  0  0
  150.7555  141.2840  155.8628 C   0  0  0  0  0  0  0  0  0  0  0  0
  151.5233  140.7017  156.8232 N   0  0  0  0  0  0  0  0  0  0  0  0
  152.0616  139.3354  156.8861 C   0  0  0  0  0  0  0  0  0  0  0  0
  152.2947  138.7220  155.4898 C   0  0  2  0  0  0  0  0  0  0  0  0
  153.0839  139.5999  154.7130 O   0  0  0  0  0  0  0  0  0  0  0  0
  150.9808  138.4706  154.7233 C   0  0  0  0  0  0  0  0  0  0  0  0
  150.1050  137.4459  155.2930 N   0  0  0  0  0  0  0  0  0  0  0  0
  150.6257  136.0925  155.1070 C   0  0  0  0  0  0  0  0  0  0  0  0
  149.6755  135.0262  155.6800 C   0  0  0  0  0  0  0  0  0  0  0  0
  148.3876  135.1627  155.0891 O   0  0  0  0  0  0  0  0  0  0  0  0
  147.8254  136.4542  155.2942 C   0  0  0  0  0  0  0  0  0  0  0  0
  148.7680  137.5221  154.7130 C   0  0  0  0  0  0  0  0  0  0  0  0
  151.7784  141.6121  157.8562 C   0  0  0  0  0  0  0  0  0  0  0  0
  152.4946  141.5183  159.0475 C   0  0  0  0  0  0  0  0  0  0  0  0
  152.5338  142.6650  159.8728 C   0  0  0  0  0  0  0  0  0  0  0  0
  153.3046  142.5903  161.1799 C   0  0  0  0  0  0  0  0  0  0  0  0
  151.3200  145.9027  159.9835 H   0  0  0  0  0  0  0  0  0  0  0  0
  152.9405  145.4413  160.5010 H   0  0  0  0  0  0  0  0  0  0  0  0
  151.5226  144.8526  161.3824 H   0  0  0  0  0  0  0  0  0  0  0  0
  150.6406  144.8465  157.9883 H   0  0  0  0  0  0  0  0  0  0  0  0
  150.4061  140.8149  154.9541 H   0  0  0  0  0  0  0  0  0  0  0  0
  153.0063  139.3955  157.4277 H   0  0  0  0  0  0  0  0  0  0  0  0
  151.4043  138.7118  157.4925 H   0  0  0  0  0  0  0  0  0  0  0  0
  152.8614  137.7963  155.5864 H   0  0  0  0  0  0  0  0  0  0  0  0
  152.5511  139.9404  154.0110 H   0  0  0  0  0  0  0  0  0  0  0  0
  150.4363  139.4148  154.6755 H   0  0  0  0  0  0  0  0  0  0  0  0
  151.2104  138.2089  153.6889 H   0  0  0  0  0  0  0  0  0  0  0  0
  150.7853  135.8999  154.0449 H   0  0  0  0  0  0  0  0  0  0  0  0
  151.5944  135.9873  155.5936 H   0  0  0  0  0  0  0  0  0  0  0  0
  150.0586  134.0267  155.4735 H   0  0  0  0  0  0  0  0  0  0  0  0
  149.5974  135.1221  156.7641 H   0  0  0  0  0  0  0  0  0  0  0  0
  146.8520  136.5010  154.8058 H   0  0  0  0  0  0  0  0  0  0  0  0
  147.6594  136.6226  156.3596 H   0  0  0  0  0  0  0  0  0  0  0  0
  148.3429  138.5105  154.8909 H   0  0  0  0  0  0  0  0  0  0  0  0
  148.8262  137.3981  153.6303 H   0  0  0  0  0  0  0  0  0  0  0  0
  152.9978  140.6085  159.3387 H   0  0  0  0  0  0  0  0  0  0  0  0
  153.7734  141.6146  161.3116 H   0  0  0  0  0  0  0  0  0  0  0  0
  152.6382  142.7561  162.0268 H   0  0  0  0  0  0  0  0  0  0  0  0
  154.0920  143.3439  161.2051 H   0  0  0  0  0  0  0  0  0  0  0  0
  149.9538  143.2231  155.7216 H   0  0  0  0  0  0  0  0  0  0  0  0
  1  2  1  0  0  0  0
  1 22  1  0  0  0  0
  1 23  1  0  0  0  0
  1 24  1  0  0  0  0
  2 20  1  0  0  0  0
  2  3  2  0  0  0  0
  3  4  1  0  0  0  0
  3 25  1  0  0  0  0
  4 18  2  0  0  0  0
  4  5  1  0  0  0  0
  5  6  2  0  0  0  0
  5 45  1  0  0  0  0
  6  7  1  0  0  0  0
  6 26  1  0  0  0  0
  7  8  1  0  0  0  0
  7 18  1  0  0  0  0
  8  9  1  0  0  0  0
  8 27  1  0  0  0  0
  8 28  1  0  0  0  0
  9 10  1  0  0  0  0
  9 11  1  0  0  0  0
  9 29  1  0  0  0  0
 10 30  1  0  0  0  0
 11 12  1  0  0  0  0
 11 31  1  0  0  0  0
 11 32  1  0  0  0  0
 12 17  1  0  0  0  0
 12 13  1  0  0  0  0
 13 14  1  0  0  0  0
 13 33  1  0  0  0  0
 13 34  1  0  0  0  0
 14 15  1  0  0  0  0
 14 35  1  0  0  0  0
 14 36  1  0  0  0  0
 15 16  1  0  0  0  0
 16 17  1  0  0  0  0
 16 37  1  0  0  0  0
 16 38  1  0  0  0  0
 17 39  1  0  0  0  0
 17 40  1  0  0  0  0
 18 19  1  0  0  0  0
 19 20  2  0  0  0  0
 19 41  1  0  0  0  0
 20 21  1  0  0  0  0
 21 42  1  0  0  0  0
 21 43  1  0  0  0  0
 21 44  1  0  0  0  0
M  CHG  1   5   1
M  END
> <s_m_source_file>
AV-unprocessed.smi

> <i_m_source_file_index>
467

> <i_lp_mmshare_version>
43012

> <i_f3d_flags>
0

> <s_epik_input>
W0NIM11jKFtjSF0xKWMoW0NIM10pW2NIXWMoYzEyKW4oW2NIXW4yKVtDSDJdW0NASF0oW09IXSlbQ0gyXU4zW0NIMl1bQ0gyXU9bQ0gyXVtDSDJdMw==

> <s_epik_cmdline>
J2VwaWtfcHl0aG9uJywgJy1waCcsICc3LjAnLCAnLXRuJywgJzgnLCAnLW1hJywgJzIwMCcsICctbWV0YWxfYmluZGluZycsICctaW1hZScsICc8aW5maWxlLm1hZT4nLCAnLW9tYWUnLCAnPG91dGZpbGUubWFlPic=

> <r_epik_Ionization_Penalty>
1.42557

> <r_epik_Ionization_Penalty_Charging>
1.21121

> <r_epik_Ionization_Penalty_Neutral>
0.214359

> <r_epik_State_Penalty>
1.47019

> <r_epik_Charging_Adjusted_Penalty>
2.68141

> <i_epik_Tot_Q>
1

> <i_epik_Tot_abs_Q>
1

> <r_epik_Metal_State_Penalty>
5.48819

> <b_epik_Metal_Only>
0

> <s_lp_Force_Field>
OPLS_2005

> <r_lp_Energy>
33.4521

> <b_lp_Chiralities_Consistent>
1

> <s_lp_Variant>
AV-unprocessed.smi:467-5

> <Gold.Version>
5.8.1

> <Gold.Id.Protein>
6NUR|6NUR_protein|mol2

> <Gold.PLP.Fitness>
52.2547

> <Gold.PLP.PLP>
-44.2718

> <Gold.PLP.part.hbond>
-3.0000

> <Gold.PLP.part.metal>
0.0000

> <Gold.PLP.part.buried>
-5.3179

> <Gold.PLP.part.nonpolar>
-36.4820

> <Gold.PLP.part.repulsive>
0.3149

> <Gold.PLP.ligand.clash>
0.0000

> <Gold.PLP.ligand.torsion>
0.5112

> <Gold.PLP.Chemscore.Hbond>
3.0000

> <Gold.PLP.Chemscore.CHOScore>
0.0000

> <Gold.PLP.Chemscore.Metal>
0.0000

> <Gold.Chemscore.Hbonds>
donor molecule, donor type, donor heavy atom, donor atom, acceptor molecule, acceptor atom, score
      L1  H     5    45       P1  8028  2.00
      P1  H  7997  8008       L1    10  1.00

> <Gold.PLP.Chemscore.Internal.Correction>
0.0052

> <Gold.Rescore>
     Score         DG    S(hbond)    S(metal)    S(lipo)     H(rot)  DE(clash)    DE(int)     intcor
     18.87     -20.24       1.95        0.00     116.11       2.08       0.04       1.32       ----

> <Gold.Chemscore.Fitness>
18.8719

> <Gold.Chemscore.DG>
-20.2355

> <Gold.Chemscore.ZeroCoef>
-5.4800

> <Gold.Chemscore.Hbond>
1.9456

> <Gold.Chemscore.Metal>
0.0000

> <Gold.Chemscore.Lipo>
116.1075

> <Gold.Chemscore.Internal_Hbond>
0.0000

> <Gold.Chemscore.DEClash>
0.0419

> <Gold.Chemscore.DEInternal>
1.3217

> <Gold.Chemscore.Rot>
2.0811

> <Gold.Chemscore.Internal.Correction>
   9.000000E+99

> <Gold.Chemscore.Hbonds>
donor molecule, donor type, donor heavy atom, donor atom, acceptor molecule, acceptor atom, score
      L1  H     5    45       P1  8028  0.94
      P1  H  7997  8008       L1    10  0.78

> <Gold.Chemscore.Hbond.Weighted>
-6.4985

> <Gold.Chemscore.Metal.Weighted>
-0.0000

> <Gold.Chemscore.Lipo.Weighted>
-13.5846

> <Gold.Chemscore.Internal_Hbond.Weighted>
0.0000

> <Gold.Chemscore.DEClash.Weighted>
0.0419

> <Gold.Chemscore.DEInternal.Weighted>
1.3217

> <Gold.Chemscore.Rot.Weighted>
5.3275

> <Gold.Chemscore.Internal.Correction.Weighted>
   9.000000E+99

> <Gold.Protein.RotatedTorsions>
[ 6907 6896 6895 6894 ] final  162.19 input  -60.11 | X-H torsion
[ 7974 7965 7964 7962 ] final   69.97 input  175.53 | X-H torsion
[ 8008 7997 7996 7995 ] final   -2.47 input   59.86 | X-H torsion
[ 10167 10162 10161 10158 ] final   76.73 input  -65.29 | X-H torsion
[ 10718 10713 10712 10709 ] final   30.00 input   66.30 | X-H torsion
[ 10763 10752 10751 10750 ] final   59.60 input  -60.55 | X-H torsion
[ 11005 11000 10999 10996 ] final   -6.68 input  -57.11 | X-H torsion

> <Gold.Protein.ActiveResidues>
 VAL166  LYS551  ARG553  GLY616  TRP617  ASP618  TYR619  PRO620  LYS621  CYS622 
 ASP623  PHE694  ASN695  SER759  ASP760  ASP761  ALA762  ILE779  LEU786  VAL792 
 PHE793  MET794  SER795  GLU796  ALA797  LYS798  CYS799  TRP800  GLU811  SER814 

> <Gold.Protein.RotatedAtoms>
  151.9443  133.3647  159.3976 H   0  0  0  0  0  0  0  0  0  0  0  0  # atno 6907 bound_to 6896
  150.6992  134.4407  159.5300 H   0  0  0  0  0  0  0  0  0  0  0  0  # atno 6908 bound_to 6896
  152.2069  134.8537  160.0552 H   0  0  0  0  0  0  0  0  0  0  0  0  # atno 6909 bound_to 6896
  145.7839  139.2901  143.1249 H   0  0  0  0  0  0  0  0  0  0  0  0  # atno 7974 bound_to 7965
  154.6354  140.2533  155.7385 H   0  0  0  0  0  0  0  0  0  0  0  0  # atno 8008 bound_to 7997
  156.2501  140.2898  156.0644 H   0  0  0  0  0  0  0  0  0  0  0  0  # atno 8009 bound_to 7997
  155.1680  140.0386  157.2847 H   0  0  0  0  0  0  0  0  0  0  0  0  # atno 8010 bound_to 7997
  139.9891  144.5770  150.7833 H   0  0  0  0  0  0  0  0  0  0  0  0  # atno 10167 bound_to 10162
  157.2538  130.7128  149.6419 H   0  0  0  0  0  0  0  0  0  0  0  0  # atno 10718 bound_to 10713
  152.9899  135.5566  154.5740 H   0  0  0  0  0  0  0  0  0  0  0  0  # atno 10763 bound_to 10752
  154.5134  135.2803  155.1325 H   0  0  0  0  0  0  0  0  0  0  0  0  # atno 10764 bound_to 10752
  154.2708  135.6363  153.5362 H   0  0  0  0  0  0  0  0  0  0  0  0  # atno 10765 bound_to 10752
  140.7045  133.8961  155.8707 H   0  0  0  0  0  0  0  0  0  0  0  0  # atno 11005 bound_to 11000
  146.0046  140.8490  143.0001 LP  0  0  0  0  0  0  0  0  0  0  0  0  # atno 17320 bound_to 7965
  144.6792  140.2401  143.7345 LP  0  0  0  0  0  0  0  0  0  0  0  0  # atno 17321 bound_to 7965
  140.7461  143.2886  151.3394 LP  0  0  0  0  0  0  0  0  0  0  0  0  # atno 17342 bound_to 10162
  139.6353  144.0642  152.2510 LP  0  0  0  0  0  0  0  0  0  0  0  0  # atno 17343 bound_to 10162
  155.9665  130.4419  150.5359 LP  0  0  0  0  0  0  0  0  0  0  0  0  # atno 17370 bound_to 10713
  157.3249  131.0689  151.1904 LP  0  0  0  0  0  0  0  0  0  0  0  0  # atno 17371 bound_to 10713
  141.0136  134.0987  157.4196 LP  0  0  0  0  0  0  0  0  0  0  0  0  # atno 17394 bound_to 11000
  139.8888  135.0100  156.6640 LP  0  0  0  0  0  0  0  0  0  0  0  0  # atno 17395 bound_to 11000

$$$$
