AV-unprocessed.smi:2021|AV-procd|sdf|8178|dock3
  -GOLD-   2272010423D 1   1.00000     0.00000
 Structure written by MMmdl.
 42 43  0  0  0  0  0  0  0  0  2 V2000
  152.5235  143.4240  159.9387 C   0  0  0  0  0  0  0  0  0  0  0  0
  152.0302  142.9128  158.5746 C   0  0  0  0  0  0  0  0  0  0  0  0
  151.6251  144.0902  157.6750 C   0  0  0  0  0  0  0  0  0  0  0  0
  150.8588  141.9185  158.7234 C   0  0  0  0  0  0  0  0  0  0  0  0
  150.6439  141.0829  157.5143 N   0  3  2  0  0  0  0  0  0  0  0  0
  151.8993  140.7138  156.8147 C   0  0  0  0  0  0  0  0  0  0  0  0
  151.5928  139.8291  155.5959 C   0  0  0  0  0  0  0  0  0  0  0  0
  150.6890  140.5076  154.7346 O   0  0  0  0  0  0  0  0  0  0  0  0
  149.4371  140.7718  155.3598 C   0  0  2  0  0  0  0  0  0  0  0  0
  148.4885  141.4158  154.3329 C   0  0  0  0  0  0  0  0  0  0  0  0
  148.1707  140.5027  153.2397 N   0  0  0  0  0  0  0  0  0  0  0  0
  147.2575  139.5223  153.2974 C   0  0  0  0  0  0  0  0  0  0  0  0
  146.5790  139.2871  154.2975 O   0  0  0  0  0  0  0  0  0  0  0  0
  147.1884  138.8508  152.1346 N   0  0  0  0  0  0  0  0  0  0  0  0
  146.3517  137.7525  151.8018 C   0  0  0  0  0  0  0  0  0  0  0  0
  146.4619  137.0505  150.6629 N   0  0  0  0  0  0  0  0  0  0  0  0
  145.5208  136.0319  150.5874 N   0  0  0  0  0  0  0  0  0  0  0  0
  144.7394  136.0052  151.6707 C   0  0  0  0  0  0  0  0  0  0  0  0
  145.0784  137.2206  152.8908 S   0  0  0  0  0  0  0  0  0  0  0  0
  149.6848  141.6985  156.5662 C   0  0  0  0  0  0  0  0  0  0  0  0
  151.7253  143.9279  160.4848 H   0  0  0  0  0  0  0  0  0  0  0  0
  153.3427  144.1337  159.8195 H   0  0  0  0  0  0  0  0  0  0  0  0
  152.8907  142.6086  160.5622 H   0  0  0  0  0  0  0  0  0  0  0  0
  152.8642  142.4140  158.0815 H   0  0  0  0  0  0  0  0  0  0  0  0
  150.7925  144.6495  158.1032 H   0  0  0  0  0  0  0  0  0  0  0  0
  151.3198  143.7438  156.6872 H   0  0  0  0  0  0  0  0  0  0  0  0
  152.4547  144.7840  157.5358 H   0  0  0  0  0  0  0  0  0  0  0  0
  151.0684  141.2718  159.5769 H   0  0  0  0  0  0  0  0  0  0  0  0
  149.9341  142.4456  158.9639 H   0  0  0  0  0  0  0  0  0  0  0  0
  152.4205  141.6173  156.4947 H   0  0  0  0  0  0  0  0  0  0  0  0
  152.5699  140.1786  157.4860 H   0  0  0  0  0  0  0  0  0  0  0  0
  152.5095  139.6144  155.0465 H   0  0  0  0  0  0  0  0  0  0  0  0
  151.1733  138.8699  155.9032 H   0  0  0  0  0  0  0  0  0  0  0  0
  148.9980  139.8338  155.7053 H   0  0  0  0  0  0  0  0  0  0  0  0
  147.5491  141.6801  154.8190 H   0  0  0  0  0  0  0  0  0  0  0  0
  148.9082  142.3486  153.9515 H   0  0  0  0  0  0  0  0  0  0  0  0
  148.6843  140.6255  152.3791 H   0  0  0  0  0  0  0  0  0  0  0  0
  147.8099  139.1575  151.4009 H   0  0  0  0  0  0  0  0  0  0  0  0
  143.9583  135.2640  151.7521 H   0  0  0  0  0  0  0  0  0  0  0  0
  148.7408  141.8944  157.0765 H   0  0  0  0  0  0  0  0  0  0  0  0
  150.0736  142.6614  156.2297 H   0  0  0  0  0  0  0  0  0  0  0  0
  150.2164  140.2239  157.8302 H   0  0  0  0  0  0  0  0  0  0  0  0
  1  2  1  0  0  0  0
  1 21  1  0  0  0  0
  1 22  1  0  0  0  0
  1 23  1  0  0  0  0
  2  3  1  0  0  0  0
  2  4  1  0  0  0  0
  2 24  1  0  0  0  0
  3 25  1  0  0  0  0
  3 26  1  0  0  0  0
  3 27  1  0  0  0  0
  4  5  1  0  0  0  0
  4 28  1  0  0  0  0
  4 29  1  0  0  0  0
  5 20  1  0  0  0  0
  5  6  1  0  0  0  0
  5 42  1  0  0  0  0
  6  7  1  0  0  0  0
  6 30  1  0  0  0  0
  6 31  1  0  0  0  0
  7  8  1  0  0  0  0
  7 32  1  0  0  0  0
  7 33  1  0  0  0  0
  8  9  1  0  0  0  0
  9 10  1  0  0  0  0
  9 20  1  0  0  0  0
  9 34  1  0  0  0  0
 10 11  1  0  0  0  0
 10 35  1  0  0  0  0
 10 36  1  0  0  0  0
 11 12  1  0  0  0  0
 11 37  1  0  0  0  0
 12 13  2  0  0  0  0
 12 14  1  0  0  0  0
 14 15  1  0  0  0  0
 14 38  1  0  0  0  0
 15 19  1  0  0  0  0
 15 16  2  0  0  0  0
 16 17  1  0  0  0  0
 17 18  2  0  0  0  0
 18 19  1  0  0  0  0
 18 39  1  0  0  0  0
 20 40  1  0  0  0  0
 20 41  1  0  0  0  0
M  CHG  1   5   1
M  END
> <s_m_source_file>
AV-unprocessed.smi

> <i_m_source_file_index>
2021

> <i_lp_mmshare_version>
43012

> <i_f3d_flags>
0

> <s_epik_input>
W0NIM11bQ0hdKFtDSDNdKVtDSDJdTjFbQ0gyXVtDSDJdT1tDQEhdKFtDSDJdMSlbQ0gyXVtOSF1DKD1PKVtOSF1jMm5uW2NIXXMy

> <s_epik_cmdline>
J2VwaWtfcHl0aG9uJywgJy1waCcsICc3LjAnLCAnLXRuJywgJzgnLCAnLW1hJywgJzIwMCcsICctbWV0YWxfYmluZGluZycsICctaW1hZScsICc8aW5maWxlLm1hZT4nLCAnLW9tYWUnLCAnPG91dGZpbGUubWFlPic=

> <r_lp_tautomer_probability>
1

> <r_epik_Ionization_Penalty>
0.102019

> <r_epik_Ionization_Penalty_Charging>
0.098413

> <r_epik_Ionization_Penalty_Neutral>
0.00360555

> <r_epik_State_Penalty>
0.0884988

> <r_epik_Charging_Adjusted_Penalty>
0.186912

> <i_epik_Tot_Q>
1

> <i_epik_Tot_abs_Q>
1

> <r_epik_Metal_State_Penalty>
0.454709

> <b_epik_Metal_Only>
0

> <s_lp_Force_Field>
OPLS_2005

> <r_lp_Energy>
16.3226

> <b_lp_Chiralities_Consistent>
1

> <s_lp_Variant>
AV-unprocessed.smi:2021-4

> <Gold.Version>
5.8.1

> <Gold.Id.Protein>
6NUR|6NUR_protein|mol2

> <Gold.PLP.Fitness>
44.6029

> <Gold.PLP.PLP>
-34.3967

> <Gold.PLP.part.hbond>
-4.6272

> <Gold.PLP.part.metal>
0.0000

> <Gold.PLP.part.buried>
-2.5481

> <Gold.PLP.part.nonpolar>
-30.4688

> <Gold.PLP.part.repulsive>
2.9851

> <Gold.PLP.ligand.clash>
0.0000

> <Gold.PLP.ligand.torsion>
0.6347

> <Gold.PLP.Chemscore.Hbond>
3.7920

> <Gold.PLP.Chemscore.CHOScore>
0.0000

> <Gold.PLP.Chemscore.Metal>
0.0000

> <Gold.Chemscore.Hbonds>
donor molecule, donor type, donor heavy atom, donor atom, acceptor molecule, acceptor atom, score
      L1  H    11    37       P1  7957  1.00
      L1  H    14    38       P1  7957  0.85
      P1  H  7954  7966       L1    16  0.94
      P1  H  7989  7998       L1     8  1.00

> <Gold.PLP.Chemscore.Internal.Correction>
0.0996

> <Gold.Rescore>
     Score         DG    S(hbond)    S(metal)    S(lipo)     H(rot)  DE(clash)    DE(int)     intcor
     17.74     -21.64       3.30        0.00      84.91       1.88       2.05       1.85       ----

> <Gold.Chemscore.Fitness>
17.7359

> <Gold.Chemscore.DG>
-21.6369

> <Gold.Chemscore.ZeroCoef>
-5.4800

> <Gold.Chemscore.Hbond>
3.3048

> <Gold.Chemscore.Metal>
0.0000

> <Gold.Chemscore.Lipo>
84.9129

> <Gold.Chemscore.Internal_Hbond>
0.0000

> <Gold.Chemscore.DEClash>
2.0540

> <Gold.Chemscore.DEInternal>
1.8470

> <Gold.Chemscore.Rot>
1.8812

> <Gold.Chemscore.Internal.Correction>
   9.000000E+99

> <Gold.Chemscore.Hbonds>
donor molecule, donor type, donor heavy atom, donor atom, acceptor molecule, acceptor atom, score
      L1  H    11    37       P1  7957  0.96
      L1  H    14    38       P1  7957  0.70
      P1  H  7954  7966       L1    16  0.25
      P1  H  7989  7998       L1     8  0.33

> <Gold.Chemscore.Hbond.Weighted>
-11.0380

> <Gold.Chemscore.Metal.Weighted>
-0.0000

> <Gold.Chemscore.Lipo.Weighted>
-9.9348

> <Gold.Chemscore.Internal_Hbond.Weighted>
0.0000

> <Gold.Chemscore.DEClash.Weighted>
2.0540

> <Gold.Chemscore.DEInternal.Weighted>
1.8470

> <Gold.Chemscore.Rot.Weighted>
4.8159

> <Gold.Chemscore.Internal.Correction.Weighted>
   9.000000E+99

> <Gold.Protein.RotatedTorsions>
[ 6907 6896 6895 6894 ] final  -53.09 input  -60.11 | X-H torsion
[ 7974 7965 7964 7962 ] final  -76.98 input  175.53 | X-H torsion
[ 8008 7997 7996 7995 ] final   84.29 input   59.86 | X-H torsion
[ 10167 10162 10161 10158 ] final  -70.29 input  -65.29 | X-H torsion
[ 10718 10713 10712 10709 ] final    7.42 input   66.30 | X-H torsion
[ 10763 10752 10751 10750 ] final  -65.14 input  -60.55 | X-H torsion
[ 11005 11000 10999 10996 ] final   77.48 input  -57.11 | X-H torsion

> <Gold.Protein.ActiveResidues>
 VAL166  LYS551  ARG553  GLY616  TRP617  ASP618  TYR619  PRO620  LYS621  CYS622 
 ASP623  PHE694  ASN695  SER759  ASP760  ASP761  ALA762  ILE779  LEU786  VAL792 
 PHE793  MET794  SER795  GLU796  ALA797  LYS798  CYS799  TRP800  GLU811  SER814 

> <Gold.Protein.RotatedAtoms>
  150.8458  134.7766  159.6968 H   0  0  0  0  0  0  0  0  0  0  0  0  # atno 6907 bound_to 6896
  152.4535  134.5339  159.9829 H   0  0  0  0  0  0  0  0  0  0  0  0  # atno 6908 bound_to 6896
  151.5469  133.3385  159.2981 H   0  0  0  0  0  0  0  0  0  0  0  0  # atno 6909 bound_to 6896
  145.6057  140.9398  143.1217 H   0  0  0  0  0  0  0  0  0  0  0  0  # atno 7974 bound_to 7965
  155.9351  140.3412  155.6281 H   0  0  0  0  0  0  0  0  0  0  0  0  # atno 8008 bound_to 7997
  155.7109  140.0771  157.2390 H   0  0  0  0  0  0  0  0  0  0  0  0  # atno 8009 bound_to 7997
  154.4092  140.1623  156.2282 H   0  0  0  0  0  0  0  0  0  0  0  0  # atno 8010 bound_to 7997
  140.5364  143.2317  151.7169 H   0  0  0  0  0  0  0  0  0  0  0  0  # atno 10167 bound_to 10162
  156.9366  130.5846  149.5651 H   0  0  0  0  0  0  0  0  0  0  0  0  # atno 10718 bound_to 10713
  154.3407  135.6157  153.5595 H   0  0  0  0  0  0  0  0  0  0  0  0  # atno 10763 bound_to 10752
  152.9804  135.5769  154.4857 H   0  0  0  0  0  0  0  0  0  0  0  0  # atno 10764 bound_to 10752
  154.4560  135.2854  155.1724 H   0  0  0  0  0  0  0  0  0  0  0  0  # atno 10765 bound_to 10752
  139.9252  134.7687  156.1528 H   0  0  0  0  0  0  0  0  0  0  0  0  # atno 11005 bound_to 11000
  144.7291  139.7782  143.7354 LP  0  0  0  0  0  0  0  0  0  0  0  0  # atno 17320 bound_to 7965
  146.1543  139.4635  143.0029 LP  0  0  0  0  0  0  0  0  0  0  0  0  # atno 17321 bound_to 7965
  139.4972  144.4036  152.0155 LP  0  0  0  0  0  0  0  0  0  0  0  0  # atno 17342 bound_to 10162
  140.3142  144.3503  150.6026 LP  0  0  0  0  0  0  0  0  0  0  0  0  # atno 17343 bound_to 10162
  156.0423  130.5504  150.8800 LP  0  0  0  0  0  0  0  0  0  0  0  0  # atno 17370 bound_to 10713
  157.5812  131.0946  150.9268 LP  0  0  0  0  0  0  0  0  0  0  0  0  # atno 17371 bound_to 10713
  141.0805  133.6756  156.2326 LP  0  0  0  0  0  0  0  0  0  0  0  0  # atno 17394 bound_to 11000
  140.6356  134.5219  157.5564 LP  0  0  0  0  0  0  0  0  0  0  0  0  # atno 17395 bound_to 11000

$$$$
