AV-unprocessed.smi:1807|AV-procd|sdf|7301|dock10
  -GOLD-   22720 8553D 1   1.00000     0.00000
 Structure written by MMmdl.
 44 45  0  0  0  0  0  0  0  0  1 V2000
  150.7619  141.5441  156.6493 C   0  0  0  0  0  0  0  0  0  0  0  0
  151.1319  142.2743  157.9526 C   0  0  2  0  0  0  0  0  0  0  0  0
  151.5441  143.7314  157.6604 C   0  0  0  0  0  0  0  0  0  0  0  0
  151.9032  144.4933  158.9452 C   0  0  0  0  0  0  0  0  0  0  0  0
  153.0122  143.7717  159.7227 C   0  0  0  0  0  0  0  0  0  0  0  0
  152.6117  142.3224  160.0298 C   0  0  0  0  0  0  0  0  0  0  0  0
  152.2427  141.5448  158.7484 C   0  0  1  0  0  0  0  0  0  0  0  0
  151.8110  140.1978  159.1118 N   0  0  0  0  0  0  0  0  0  0  0  0
  152.5192  139.0755  158.9179 C   0  0  0  0  0  0  0  0  0  0  0  0
  153.6020  139.0472  158.3315 O   0  0  0  0  0  0  0  0  0  0  0  0
  151.9060  137.7885  159.4820 C   0  0  0  0  0  0  0  0  0  0  0  0
  150.6400  137.4510  158.8392 N   0  0  0  0  0  0  0  0  0  0  0  0
  149.5456  137.0622  159.6240 C   0  0  0  0  0  0  0  0  0  0  0  0
  148.2937  136.7048  159.0536 C   0  0  0  0  0  0  0  0  0  0  0  0
  147.5412  136.3626  160.1415 C   0  0  0  0  0  0  0  0  0  0  0  0
  148.3327  136.5221  161.2624 N   0  0  0  0  0  0  0  0  0  0  0  0
  147.9957  136.2656  162.6517 C   0  0  0  0  0  0  0  0  0  0  0  0
  146.6642  136.9154  163.0401 C   0  0  0  0  0  0  0  0  0  0  0  0
  145.6928  136.1102  163.4798 N   0  0  0  0  0  0  0  0  0  0  0  0
  146.5101  138.1300  162.9338 O   0  0  0  0  0  0  0  0  0  0  0  0
  149.5659  136.9726  160.9456 N   0  0  0  0  0  0  0  0  0  0  0  0
  151.6260  141.4478  155.9916 H   0  0  0  0  0  0  0  0  0  0  0  0
  149.9883  142.0850  156.1038 H   0  0  0  0  0  0  0  0  0  0  0  0
  150.3782  140.5422  156.8430 H   0  0  0  0  0  0  0  0  0  0  0  0
  150.2359  142.3053  158.5748 H   0  0  0  0  0  0  0  0  0  0  0  0
  152.3984  143.7431  156.9821 H   0  0  0  0  0  0  0  0  0  0  0  0
  150.7360  144.2518  157.1451 H   0  0  0  0  0  0  0  0  0  0  0  0
  152.2203  145.5073  158.7005 H   0  0  0  0  0  0  0  0  0  0  0  0
  151.0174  144.5885  159.5744 H   0  0  0  0  0  0  0  0  0  0  0  0
  153.9357  143.7820  159.1421 H   0  0  0  0  0  0  0  0  0  0  0  0
  153.2227  144.3031  160.6512 H   0  0  0  0  0  0  0  0  0  0  0  0
  153.4265  141.8230  160.5555 H   0  0  0  0  0  0  0  0  0  0  0  0
  151.7617  142.3234  160.7132 H   0  0  0  0  0  0  0  0  0  0  0  0
  153.1278  141.4793  158.1121 H   0  0  0  0  0  0  0  0  0  0  0  0
  150.9287  140.1197  159.5963 H   0  0  0  0  0  0  0  0  0  0  0  0
  152.6028  136.9533  159.3922 H   0  0  0  0  0  0  0  0  0  0  0  0
  151.7247  137.9300  160.5475 H   0  0  0  0  0  0  0  0  0  0  0  0
  150.6456  137.2237  157.8555 H   0  0  0  0  0  0  0  0  0  0  0  0
  147.9981  136.6886  158.0150 H   0  0  0  0  0  0  0  0  0  0  0  0
  146.5212  136.0146  160.2106 H   0  0  0  0  0  0  0  0  0  0  0  0
  147.9481  135.1873  162.8121 H   0  0  0  0  0  0  0  0  0  0  0  0
  148.7930  136.6502  163.2888 H   0  0  0  0  0  0  0  0  0  0  0  0
  144.7968  136.4947  163.7412 H   0  0  0  0  0  0  0  0  0  0  0  0
  145.8580  135.1161  163.5433 H   0  0  0  0  0  0  0  0  0  0  0  0
  1  2  1  0  0  0  0
  1 22  1  0  0  0  0
  1 23  1  0  0  0  0
  1 24  1  0  0  0  0
  2  7  1  0  0  0  0
  2  3  1  0  0  0  0
  2 25  1  0  0  0  0
  3  4  1  0  0  0  0
  3 26  1  0  0  0  0
  3 27  1  0  0  0  0
  4  5  1  0  0  0  0
  4 28  1  0  0  0  0
  4 29  1  0  0  0  0
  5  6  1  0  0  0  0
  5 30  1  0  0  0  0
  5 31  1  0  0  0  0
  6  7  1  0  0  0  0
  6 32  1  0  0  0  0
  6 33  1  0  0  0  0
  7  8  1  0  0  0  0
  7 34  1  0  0  0  0
  8  9  1  0  0  0  0
  8 35  1  0  0  0  0
  9 10  2  0  0  0  0
  9 11  1  0  0  0  0
 11 12  1  0  0  0  0
 11 36  1  0  0  0  0
 11 37  1  0  0  0  0
 12 13  1  0  0  0  0
 12 38  1  0  0  0  0
 13 21  2  0  0  0  0
 13 14  1  0  0  0  0
 14 15  2  0  0  0  0
 14 39  1  0  0  0  0
 15 16  1  0  0  0  0
 15 40  1  0  0  0  0
 16 17  1  0  0  0  0
 16 21  1  0  0  0  0
 17 18  1  0  0  0  0
 17 41  1  0  0  0  0
 17 42  1  0  0  0  0
 18 19  1  0  0  0  0
 18 20  2  0  0  0  0
 19 43  1  0  0  0  0
 19 44  1  0  0  0  0
M  END
> <s_m_source_file>
AV-unprocessed.smi

> <i_m_source_file_index>
1807

> <i_lp_mmshare_version>
43012

> <i_f3d_flags>
0

> <s_epik_input>
W0NIM11bQ0BASF0xW0NIMl1bQ0gyXVtDSDJdW0NIMl1bQ0BIXTFbTkhdQyg9TylbQ0gyXVtOSF1jMltjSF1bY0hdbihuMilbQ0gyXUMoPU8pW05IMl0=

> <s_epik_cmdline>
J2VwaWtfcHl0aG9uJywgJy1waCcsICc3LjAnLCAnLXRuJywgJzgnLCAnLW1hJywgJzIwMCcsICctbWV0YWxfYmluZGluZycsICctaW1hZScsICc8aW5maWxlLm1hZT4nLCAnLW9tYWUnLCAnPG91dGZpbGUubWFlPic=

> <r_lp_tautomer_probability>
1

> <r_epik_Ionization_Penalty>
0.000167642

> <r_epik_Ionization_Penalty_Charging>
0

> <r_epik_Ionization_Penalty_Neutral>
0.000167642

> <r_epik_State_Penalty>
-0

> <r_epik_Charging_Adjusted_Penalty>
0

> <i_epik_Tot_Q>
0

> <i_epik_Tot_abs_Q>
0

> <r_epik_Metal_State_Penalty>
-0

> <b_epik_Metal_Only>
0

> <s_lp_Force_Field>
OPLS_2005

> <r_lp_Energy>
5.76299

> <b_lp_Chiralities_Consistent>
1

> <s_lp_Variant>
AV-unprocessed.smi:1807-1

> <Gold.Version>
5.8.1

> <Gold.Id.Protein>
6NUR|6NUR_protein|mol2

> <Gold.PLP.Fitness>
46.9289

> <Gold.PLP.PLP>
-41.5776

> <Gold.PLP.part.hbond>
-3.0000

> <Gold.PLP.part.metal>
0.0000

> <Gold.PLP.part.buried>
-7.0808

> <Gold.PLP.part.nonpolar>
-32.9171

> <Gold.PLP.part.repulsive>
0.3224

> <Gold.PLP.ligand.clash>
0.0000

> <Gold.PLP.ligand.torsion>
0.3362

> <Gold.PLP.Chemscore.Hbond>
2.0032

> <Gold.PLP.Chemscore.CHOScore>
0.0000

> <Gold.PLP.Chemscore.Metal>
0.0000

> <Gold.Chemscore.Hbonds>
donor molecule, donor type, donor heavy atom, donor atom, acceptor molecule, acceptor atom, score
      P1  H  6931  6943       L1    21  0.06
      P1  H  6934  6947       L1    20  0.10
      P1  H  7997  8009       L1    10  1.00

> <Gold.PLP.Chemscore.Internal.Correction>
0.0142

> <Gold.Rescore>
     Score         DG    S(hbond)    S(metal)    S(lipo)     H(rot)  DE(clash)    DE(int)     intcor
     15.28     -15.80       1.97        0.00      89.64       2.64       0.03       0.49       ----

> <Gold.Chemscore.Fitness>
15.2822

> <Gold.Chemscore.DG>
-15.8016

> <Gold.Chemscore.ZeroCoef>
-5.4800

> <Gold.Chemscore.Hbond>
1.9711

> <Gold.Chemscore.Metal>
0.0000

> <Gold.Chemscore.Lipo>
89.6435

> <Gold.Chemscore.Internal_Hbond>
0.0000

> <Gold.Chemscore.DEClash>
0.0310

> <Gold.Chemscore.DEInternal>
0.4884

> <Gold.Chemscore.Rot>
2.6369

> <Gold.Chemscore.Internal.Correction>
   9.000000E+99

> <Gold.Chemscore.Hbonds>
donor molecule, donor type, donor heavy atom, donor atom, acceptor molecule, acceptor atom, score
      P1  H  6934  6947       L1    20  0.10
      P1  H  7997  8009       L1    10  1.00

> <Gold.Chemscore.Hbond.Weighted>
-6.5836

> <Gold.Chemscore.Metal.Weighted>
-0.0000

> <Gold.Chemscore.Lipo.Weighted>
-10.4883

> <Gold.Chemscore.Internal_Hbond.Weighted>
0.0000

> <Gold.Chemscore.DEClash.Weighted>
0.0310

> <Gold.Chemscore.DEInternal.Weighted>
0.4884

> <Gold.Chemscore.Rot.Weighted>
6.7504

> <Gold.Chemscore.Internal.Correction.Weighted>
   9.000000E+99

> <Gold.Protein.RotatedTorsions>
[ 6907 6896 6895 6894 ] final    0.20 input  -60.11 | X-H torsion
[ 7974 7965 7964 7962 ] final   69.09 input  175.53 | X-H torsion
[ 8008 7997 7996 7995 ] final  155.05 input   59.86 | X-H torsion
[ 10167 10162 10161 10158 ] final -173.11 input  -65.29 | X-H torsion
[ 10718 10713 10712 10709 ] final  103.22 input   66.30 | X-H torsion
[ 10763 10752 10751 10750 ] final  -97.83 input  -60.55 | X-H torsion
[ 11005 11000 10999 10996 ] final  159.51 input  -57.11 | X-H torsion

> <Gold.Protein.ActiveResidues>
 VAL166  LYS551  ARG553  GLY616  TRP617  ASP618  TYR619  PRO620  LYS621  CYS622 
 ASP623  PHE694  ASN695  SER759  ASP760  ASP761  ALA762  ILE779  LEU786  VAL792 
 PHE793  MET794  SER795  GLU796  ALA797  LYS798  CYS799  TRP800  GLU811  SER814 

> <Gold.Protein.RotatedAtoms>
  151.5726  135.1062  159.9998 H   0  0  0  0  0  0  0  0  0  0  0  0  # atno 6907 bound_to 6896
  152.4393  133.7415  159.6654 H   0  0  0  0  0  0  0  0  0  0  0  0  # atno 6908 bound_to 6896
  150.8296  133.8044  159.3127 H   0  0  0  0  0  0  0  0  0  0  0  0  # atno 6909 bound_to 6896
  145.7947  139.2951  143.1190 H   0  0  0  0  0  0  0  0  0  0  0  0  # atno 7974 bound_to 7965
  156.2499  140.1950  156.6742 H   0  0  0  0  0  0  0  0  0  0  0  0  # atno 8008 bound_to 7997
  154.6370  140.0588  156.9826 H   0  0  0  0  0  0  0  0  0  0  0  0  # atno 8009 bound_to 7997
  155.1621  140.3261  155.4412 H   0  0  0  0  0  0  0  0  0  0  0  0  # atno 8010 bound_to 7997
  139.5707  144.1649  152.1379 H   0  0  0  0  0  0  0  0  0  0  0  0  # atno 10167 bound_to 10162
  157.6779  131.0773  150.5523 H   0  0  0  0  0  0  0  0  0  0  0  0  # atno 10718 bound_to 10713
  154.7362  135.5032  153.9046 H   0  0  0  0  0  0  0  0  0  0  0  0  # atno 10763 bound_to 10752
  153.0998  135.6682  153.9703 H   0  0  0  0  0  0  0  0  0  0  0  0  # atno 10764 bound_to 10752
  153.9492  135.3059  155.3418 H   0  0  0  0  0  0  0  0  0  0  0  0  # atno 10765 bound_to 10752
  140.1968  134.8367  157.2974 H   0  0  0  0  0  0  0  0  0  0  0  0  # atno 11005 bound_to 11000
  145.9940  140.8578  143.0052 LP  0  0  0  0  0  0  0  0  0  0  0  0  # atno 17320 bound_to 7965
  144.6777  140.2257  143.7361 LP  0  0  0  0  0  0  0  0  0  0  0  0  # atno 17321 bound_to 7965
  140.1181  144.5397  150.6880 LP  0  0  0  0  0  0  0  0  0  0  0  0  # atno 17342 bound_to 10162
  140.6991  143.2423  151.4916 LP  0  0  0  0  0  0  0  0  0  0  0  0  # atno 17343 bound_to 10162
  156.5827  130.4308  149.5970 LP  0  0  0  0  0  0  0  0  0  0  0  0  # atno 17370 bound_to 10713
  156.2648  130.6983  151.1763 LP  0  0  0  0  0  0  0  0  0  0  0  0  # atno 17371 bound_to 10713
  140.2098  134.4153  155.7619 LP  0  0  0  0  0  0  0  0  0  0  0  0  # atno 17394 bound_to 11000
  141.2227  133.7112  156.8319 LP  0  0  0  0  0  0  0  0  0  0  0  0  # atno 17395 bound_to 11000

$$$$
