#       Name:                AV-unprocessed.smi:3
#       Creating user name   scv26
#       Creation time:       Thu Mar 26 15:14:05 2020


#       File generated by GOLD software.
#

@<TRIPOS>MOLECULE
AV-unprocessed.smi:3
    37    39     1
SMALL
NO_CHARGES


@<TRIPOS>ATOM
      1 ****        -0.7098   2.2453   0.3000 C.3            1 S1                 0.0000
      2 ****        -0.3282   1.1132  -0.5320 N.pl3          1 S1                 0.0000
      3 ****         1.0413   1.0796  -1.0505 C.3            1 S1                 0.0000
      4 ****         2.0586   0.6803   0.0181 C.3            1 S1                 0.0000
      5 ****         2.2266  -0.7943   0.4150 C.3            1 S1                 0.0000
      6 ****         3.7260  -0.5377   0.5952 C.3            1 S1                 0.0000
      7 ****         4.6098  -1.5542   0.1780 O.3            1 S1                 0.0000
      8 ****         3.5516   0.6648  -0.3387 C.3            1 S1                 0.0000
      9 ****        -1.1534  -0.0383  -0.5793 C.ar           1 S1                 0.0000
     10 ****        -0.6753  -1.1272  -1.2373 N.ar           1 S1                 0.0000
     11 ****        -1.3984  -2.2458  -1.3182 C.ar           1 S1                 0.0000
     12 ****        -2.6118  -2.4891  -0.8237 N.ar           1 S1                 0.0000
     13 ****        -3.1046  -1.4015  -0.1691 C.ar           1 S1                 0.0000
     14 ****        -4.3304  -1.3065   0.4546 N.pl3          1 S1                 0.0000
     15 ****        -4.4900  -0.0514   1.0093 C.2            1 S1                 0.0000
     16 ****        -3.3673   0.6935   0.7553 C.2            1 S1                 0.0000
     17 ****        -2.4568  -0.1407   0.0042 C.ar           1 S1                 0.0000
     18 ****         1.9348   1.2797   0.9226 H              1 S1                 0.0000
     19 ****         3.9667  -0.2278   1.6136 H              1 S1                 0.0000
     20 ****        -5.0290  -2.0335   0.5102 H              1 S1                 0.0000
     21 ****        -1.5928   2.7373  -0.1074 H              1 S1                 0.0000
     22 ****         0.0881   2.9872   0.3405 H              1 S1                 0.0000
     23 ****        -0.9115   1.9252   1.3223 H              1 S1                 0.0000
     24 ****         1.1228   0.4353  -1.9259 H              1 S1                 0.0000
     25 ****         1.2782   2.0776  -1.4206 H              1 S1                 0.0000
     26 ****         1.6972  -1.0770   1.3254 H              1 S1                 0.0000
     27 ****         2.0133  -1.4857  -0.4020 H              1 S1                 0.0000
     28 ****         4.5484  -2.2515   0.8129 H              1 S1                 0.0000
     29 ****         3.7373   0.4204  -1.3863 H              1 S1                 0.0000
     30 ****         4.0963   1.5595  -0.0355 H              1 S1                 0.0000
     31 ****        -0.9389  -3.0617  -1.8563 H              1 S1                 0.0000
     32 ****        -5.3928   0.2116   1.5412 H              1 S1                 0.0000
     33 ****        -3.2069   1.7140   1.0657 H              1 S1                 0.0000
     34 ****         5.5454  -1.2029   0.1431 LP             1 S1                 0.0000
     35 ****         4.3457  -1.8891  -0.7265 LP             1 S1                 0.0000
     36 ****         0.2278  -1.0897  -1.6653 LP             1 S1                 0.0000
     37 ****        -3.0974  -3.3579  -0.9208 LP             1 S1                 0.0000
@<TRIPOS>BOND
    1    1    2 1     
    2    1   21 1     
    3    1   22 1     
    4    1   23 1     
    5    2    3 1     
    6    2    9 1     
    7    3    4 1     
    8    3   24 1     
    9    3   25 1     
   10    4   18 1     
   11    4    8 1     
   12    4    5 1     
   13    5    6 1     
   14    5   26 1     
   15    5   27 1     
   16    6   19 1     
   17    6    7 1     
   18    6    8 1     
   19    7   28 1     
   20    8   29 1     
   21    8   30 1     
   22    9   17 ar    
   23    9   10 ar    
   24   10   11 ar    
   25   11   12 ar    
   26   11   31 1     
   27   12   13 ar    
   28   13   17 ar    
   29   13   14 1     
   30   14   20 1     
   31   14   15 1     
   32   15   16 2     
   33   15   32 1     
   34   16   17 1     
   35   16   33 1     
   36    7   34 1     
   37    7   35 1     
   38   10   36 1     
   39   12   37 1     
@<TRIPOS>SUBSTRUCTURE
      1 S1             1
@<TRIPOS>SET
LONE_PAIRS      STATIC     ATOMS    <user>   **** ""
4 34 35 36 37
DONOR_HYDROGENS      STATIC     ATOMS    <user>   **** ""
2 28 20
ATOM$BLUE        STATIC     ATOMS    COLORGROUP SYSTEM
4 34 35 36 37
ATOM$RED        STATIC     ATOMS    COLORGROUP SYSTEM
2 28 20
