AV-unprocessed.smi:2778|AV-procd|sdf|10710|dock3
  -GOLD-   2272015143D 1   1.00000     0.00000
 Structure written by MMmdl.
 37 38  0  0  0  0  0  0  0  0  1 V2000
  146.3381  142.2487  154.2588 C   0  0  0  0  0  0  0  0  0  0  0  0
  147.5583  142.1211  154.9735 O   0  0  0  0  0  0  0  0  0  0  0  0
  148.3538  141.0209  154.7179 C   0  0  0  0  0  0  0  0  0  0  0  0
  147.9025  139.8702  154.0226 C   0  0  0  0  0  0  0  0  0  0  0  0
  148.7881  138.7992  153.8113 C   0  0  0  0  0  0  0  0  0  0  0  0
  150.0998  138.9143  154.3047 C   0  0  0  0  0  0  0  0  0  0  0  0
  151.1075  137.8002  154.1137 C   0  0  0  0  0  0  0  0  0  0  0  0
  150.5405  140.0030  154.9665 N   0  0  0  0  0  0  0  0  0  0  0  0
  149.6962  141.0433  155.1764 C   0  0  0  0  0  0  0  0  0  0  0  0
  150.0840  142.2264  155.8620 N   0  0  0  0  0  0  0  0  0  0  0  0
  151.0458  142.3875  156.7922 C   0  0  0  0  0  0  0  0  0  0  0  0
  151.7602  141.4859  157.2270 O   0  0  0  0  0  0  0  0  0  0  0  0
  151.1650  143.6497  157.2438 N   0  0  0  0  0  0  0  0  0  0  0  0
  152.1011  144.1652  158.2464 C   0  0  0  0  0  0  0  0  0  0  0  0
  152.3272  143.1296  159.3639 C   0  0  0  0  0  0  0  0  0  0  0  0
  152.2210  143.8994  160.6809 C   0  0  0  0  0  0  0  0  0  0  0  0
  151.2339  145.0219  160.3793 C   0  0  0  0  0  0  0  0  0  0  0  0
  151.5587  145.4316  158.9423 C   0  0  0  0  0  0  0  0  0  0  0  0
  145.8293  143.1588  154.5766 H   0  0  0  0  0  0  0  0  0  0  0  0
  145.6689  141.4107  154.4584 H   0  0  0  0  0  0  0  0  0  0  0  0
  146.5113  142.3262  153.1847 H   0  0  0  0  0  0  0  0  0  0  0  0
  146.8945  139.7867  153.6459 H   0  0  0  0  0  0  0  0  0  0  0  0
  148.4644  137.9144  153.2831 H   0  0  0  0  0  0  0  0  0  0  0  0
  150.6517  136.9310  153.6387 H   0  0  0  0  0  0  0  0  0  0  0  0
  151.5146  137.4868  155.0756 H   0  0  0  0  0  0  0  0  0  0  0  0
  151.9314  138.1394  153.4855 H   0  0  0  0  0  0  0  0  0  0  0  0
  149.5633  143.0548  155.6138 H   0  0  0  0  0  0  0  0  0  0  0  0
  150.5097  144.3217  156.8715 H   0  0  0  0  0  0  0  0  0  0  0  0
  153.0607  144.3898  157.7767 H   0  0  0  0  0  0  0  0  0  0  0  0
  151.5505  142.3634  159.3405 H   0  0  0  0  0  0  0  0  0  0  0  0
  153.2855  142.6189  159.2650 H   0  0  0  0  0  0  0  0  0  0  0  0
  151.9013  143.2691  161.5109 H   0  0  0  0  0  0  0  0  0  0  0  0
  153.1920  144.3245  160.9387 H   0  0  0  0  0  0  0  0  0  0  0  0
  150.2145  144.6369  160.4299 H   0  0  0  0  0  0  0  0  0  0  0  0
  151.3128  145.8524  161.0815 H   0  0  0  0  0  0  0  0  0  0  0  0
  152.3377  146.1952  158.9518 H   0  0  0  0  0  0  0  0  0  0  0  0
  150.6927  145.8671  158.4420 H   0  0  0  0  0  0  0  0  0  0  0  0
  1  2  1  0  0  0  0
  1 19  1  0  0  0  0
  1 20  1  0  0  0  0
  1 21  1  0  0  0  0
  2  3  1  0  0  0  0
  3  9  1  0  0  0  0
  3  4  2  0  0  0  0
  4  5  1  0  0  0  0
  4 22  1  0  0  0  0
  5  6  2  0  0  0  0
  5 23  1  0  0  0  0
  6  7  1  0  0  0  0
  6  8  1  0  0  0  0
  7 24  1  0  0  0  0
  7 25  1  0  0  0  0
  7 26  1  0  0  0  0
  8  9  2  0  0  0  0
  9 10  1  0  0  0  0
 10 11  1  0  0  0  0
 10 27  1  0  0  0  0
 11 12  2  0  0  0  0
 11 13  1  0  0  0  0
 13 14  1  0  0  0  0
 13 28  1  0  0  0  0
 14 18  1  0  0  0  0
 14 15  1  0  0  0  0
 14 29  1  0  0  0  0
 15 16  1  0  0  0  0
 15 30  1  0  0  0  0
 15 31  1  0  0  0  0
 16 17  1  0  0  0  0
 16 32  1  0  0  0  0
 16 33  1  0  0  0  0
 17 18  1  0  0  0  0
 17 34  1  0  0  0  0
 17 35  1  0  0  0  0
 18 36  1  0  0  0  0
 18 37  1  0  0  0  0
M  END
> <s_m_source_file>
AV-unprocessed.smi

> <i_m_source_file_index>
2778

> <i_lp_mmshare_version>
43012

> <i_f3d_flags>
0

> <s_epik_input>
W0NIM11PYzFbY0hdW2NIXWMoW0NIM10pbmMxW05IXUMoPU8pW05IXVtDSF0yW0NIMl1bQ0gyXVtDSDJdW0NIMl0y

> <s_epik_cmdline>
J2VwaWtfcHl0aG9uJywgJy1waCcsICc3LjAnLCAnLXRuJywgJzgnLCAnLW1hJywgJzIwMCcsICctbWV0YWxfYmluZGluZycsICctaW1hZScsICc8aW5maWxlLm1hZT4nLCAnLW9tYWUnLCAnPG91dGZpbGUubWFlPic=

> <r_lp_tautomer_probability>
1

> <r_epik_Ionization_Penalty>
6.53997e-05

> <r_epik_Ionization_Penalty_Charging>
0

> <r_epik_Ionization_Penalty_Neutral>
6.53997e-05

> <r_epik_State_Penalty>
-0

> <r_epik_Charging_Adjusted_Penalty>
0

> <i_epik_Tot_Q>
0

> <i_epik_Tot_abs_Q>
0

> <r_epik_Metal_State_Penalty>
-0

> <b_epik_Metal_Only>
0

> <s_lp_Force_Field>
OPLS_2005

> <r_lp_Energy>
34.0049

> <b_lp_Chiralities_Consistent>
1

> <s_lp_Variant>
AV-unprocessed.smi:2778-1

> <Gold.Version>
5.8.1

> <Gold.Id.Protein>
6NUR|6NUR_protein|mol2

> <Gold.PLP.Fitness>
47.5785

> <Gold.PLP.PLP>
-40.3912

> <Gold.PLP.part.hbond>
-3.0000

> <Gold.PLP.part.metal>
0.0000

> <Gold.PLP.part.buried>
-2.3703

> <Gold.PLP.part.nonpolar>
-37.4442

> <Gold.PLP.part.repulsive>
1.3624

> <Gold.PLP.ligand.clash>
0.0000

> <Gold.PLP.ligand.torsion>
0.6698

> <Gold.PLP.Chemscore.Hbond>
2.8413

> <Gold.PLP.Chemscore.CHOScore>
0.0000

> <Gold.PLP.Chemscore.Metal>
0.0000

> <Gold.Chemscore.Hbonds>
donor molecule, donor type, donor heavy atom, donor atom, acceptor molecule, acceptor atom, score
      L1  H    10    27       P1  8028  1.00
      L1  H    13    28       P1  8028  0.99
      P1  H  7989  7998       L1     8  0.85

> <Gold.PLP.Chemscore.Internal.Correction>
0.0031

> <Gold.Rescore>
     Score         DG    S(hbond)    S(metal)    S(lipo)     H(rot)  DE(clash)    DE(int)     intcor
     17.39     -20.58       2.05        0.00      96.95       1.21       0.20       2.99       ----

> <Gold.Chemscore.Fitness>
17.3864

> <Gold.Chemscore.DG>
-20.5760

> <Gold.Chemscore.ZeroCoef>
-5.4800

> <Gold.Chemscore.Hbond>
2.0512

> <Gold.Chemscore.Metal>
0.0000

> <Gold.Chemscore.Lipo>
96.9527

> <Gold.Chemscore.Internal_Hbond>
0.0000

> <Gold.Chemscore.DEClash>
0.2034

> <Gold.Chemscore.DEInternal>
2.9862

> <Gold.Chemscore.Rot>
1.2103

> <Gold.Chemscore.Internal.Correction>
   9.000000E+99

> <Gold.Chemscore.Hbonds>
donor molecule, donor type, donor heavy atom, donor atom, acceptor molecule, acceptor atom, score
      L1  H    10    27       P1  8028  1.00
      L1  H    13    28       P1  8028  0.84
      P1  H  7989  7998       L1     8  0.03

> <Gold.Chemscore.Hbond.Weighted>
-6.8510

> <Gold.Chemscore.Metal.Weighted>
-0.0000

> <Gold.Chemscore.Lipo.Weighted>
-11.3435

> <Gold.Chemscore.Internal_Hbond.Weighted>
0.0000

> <Gold.Chemscore.DEClash.Weighted>
0.2034

> <Gold.Chemscore.DEInternal.Weighted>
2.9862

> <Gold.Chemscore.Rot.Weighted>
3.0984

> <Gold.Chemscore.Internal.Correction.Weighted>
   9.000000E+99

> <Gold.Protein.RotatedTorsions>
[ 6907 6896 6895 6894 ] final  146.27 input  -60.11 | X-H torsion
[ 7974 7965 7964 7962 ] final  -83.46 input  175.53 | X-H torsion
[ 8008 7997 7996 7995 ] final  -51.61 input   59.86 | X-H torsion
[ 10167 10162 10161 10158 ] final   83.25 input  -65.29 | X-H torsion
[ 10718 10713 10712 10709 ] final   76.43 input   66.30 | X-H torsion
[ 10763 10752 10751 10750 ] final -131.99 input  -60.55 | X-H torsion
[ 11005 11000 10999 10996 ] final  104.72 input  -57.11 | X-H torsion

> <Gold.Protein.ActiveResidues>
 VAL166  LYS551  ARG553  GLY616  TRP617  ASP618  TYR619  PRO620  LYS621  CYS622 
 ASP623  PHE694  ASN695  SER759  ASP760  ASP761  ALA762  ILE779  LEU786  VAL792 
 PHE793  MET794  SER795  GLU796  ALA797  LYS798  CYS799  TRP800  GLU811  SER814 

> <Gold.Protein.RotatedAtoms>
  152.1701  133.4637  159.4904 H   0  0  0  0  0  0  0  0  0  0  0  0  # atno 6907 bound_to 6896
  150.6918  134.1964  159.4314 H   0  0  0  0  0  0  0  0  0  0  0  0  # atno 6908 bound_to 6896
  151.9871  134.9998  160.0610 H   0  0  0  0  0  0  0  0  0  0  0  0  # atno 6909 bound_to 6896
  145.5196  140.9532  143.1662 H   0  0  0  0  0  0  0  0  0  0  0  0  # atno 7974 bound_to 7965
  154.4087  140.1244  156.4856 H   0  0  0  0  0  0  0  0  0  0  0  0  # atno 8008 bound_to 7997
  155.7041  140.3494  155.4926 H   0  0  0  0  0  0  0  0  0  0  0  0  # atno 8009 bound_to 7997
  155.9359  140.1078  157.1085 H   0  0  0  0  0  0  0  0  0  0  0  0  # atno 8010 bound_to 7997
  139.9203  144.6216  150.8446 H   0  0  0  0  0  0  0  0  0  0  0  0  # atno 10167 bound_to 10162
  157.6673  130.9774  150.1496 H   0  0  0  0  0  0  0  0  0  0  0  0  # atno 10718 bound_to 10713
  154.8747  135.3812  154.4337 H   0  0  0  0  0  0  0  0  0  0  0  0  # atno 10763 bound_to 10752
  153.5028  135.7030  153.5827 H   0  0  0  0  0  0  0  0  0  0  0  0  # atno 10764 bound_to 10752
  153.4151  135.3915  155.2042 H   0  0  0  0  0  0  0  0  0  0  0  0  # atno 10765 bound_to 10752
  139.8794  134.9310  156.5404 H   0  0  0  0  0  0  0  0  0  0  0  0  # atno 11005 bound_to 11000
  144.7683  139.6794  143.7205 LP  0  0  0  0  0  0  0  0  0  0  0  0  # atno 17320 bound_to 7965
  146.2114  139.5473  142.9678 LP  0  0  0  0  0  0  0  0  0  0  0  0  # atno 17321 bound_to 7965
  140.7664  143.3301  151.2428 LP  0  0  0  0  0  0  0  0  0  0  0  0  # atno 17342 bound_to 10162
  139.6867  143.9762  152.2838 LP  0  0  0  0  0  0  0  0  0  0  0  0  # atno 17343 bound_to 10162
  156.2298  130.3681  149.8458 LP  0  0  0  0  0  0  0  0  0  0  0  0  # atno 17370 bound_to 10713
  156.6287  130.8657  151.3491 LP  0  0  0  0  0  0  0  0  0  0  0  0  # atno 17371 bound_to 10713
  140.8314  133.8276  155.8988 LP  0  0  0  0  0  0  0  0  0  0  0  0  # atno 17394 bound_to 11000
  140.9325  134.2004  157.4854 LP  0  0  0  0  0  0  0  0  0  0  0  0  # atno 17395 bound_to 11000

$$$$
