AV-unprocessed.smi:912|AV-procd|sdf|4140|dock9
  -GOLD-   22720 2 43D 1   1.00000     0.00000
 Structure written by MMmdl.
 26 26  0  0  0  0  0  0  0  0  1 V2000
  149.0867  141.6493  154.6827 C   0  0  0  0  0  0  0  0  0  0  0  0
  150.0039  142.3159  155.6049 N   0  0  0  0  0  0  0  0  0  0  0  0
  150.4551  141.5692  156.7946 C   0  0  1  0  0  0  0  0  0  0  0  0
  149.1550  141.1252  157.5150 C   0  0  0  0  0  0  0  0  0  0  0  0
  151.3341  140.3440  156.4195 C   0  0  0  0  0  0  0  0  0  0  0  0
  151.5641  139.4355  157.3742 N   0  0  0  0  0  0  0  0  0  0  0  0
  151.8051  140.2173  155.2898 O   0  0  0  0  0  0  0  0  0  0  0  0
  151.2837  142.4624  157.7416 C   0  0  0  0  0  0  0  0  0  0  0  0
  151.6349  143.7962  157.4132 C   0  0  0  0  0  0  0  0  0  0  0  0
  152.3990  144.5489  158.3269 C   0  0  0  0  0  0  0  0  0  0  0  0
  152.8267  144.0683  159.5124 N   0  0  0  0  0  0  0  0  0  0  0  0
  152.5004  142.7983  159.8270 C   0  0  0  0  0  0  0  0  0  0  0  0
  151.7406  141.9625  158.9855 C   0  0  0  0  0  0  0  0  0  0  0  0
  148.7481  142.3696  153.9384 H   0  0  0  0  0  0  0  0  0  0  0  0
  148.2035  141.2635  155.1911 H   0  0  0  0  0  0  0  0  0  0  0  0
  149.5653  140.8336  154.1409 H   0  0  0  0  0  0  0  0  0  0  0  0
  149.5188  143.1353  155.9412 H   0  0  0  0  0  0  0  0  0  0  0  0
  149.3571  140.5435  158.4147 H   0  0  0  0  0  0  0  0  0  0  0  0
  148.5196  140.5040  156.8835 H   0  0  0  0  0  0  0  0  0  0  0  0
  148.5623  141.9883  157.8204 H   0  0  0  0  0  0  0  0  0  0  0  0
  152.1290  138.6245  157.1674 H   0  0  0  0  0  0  0  0  0  0  0  0
  151.1708  139.5634  158.2952 H   0  0  0  0  0  0  0  0  0  0  0  0
  151.3382  144.2544  156.4819 H   0  0  0  0  0  0  0  0  0  0  0  0
  152.6763  145.5668  158.0963 H   0  0  0  0  0  0  0  0  0  0  0  0
  152.8583  142.4340  160.7786 H   0  0  0  0  0  0  0  0  0  0  0  0
  151.5238  140.9509  159.2953 H   0  0  0  0  0  0  0  0  0  0  0  0
  1  2  1  0  0  0  0
  1 14  1  0  0  0  0
  1 15  1  0  0  0  0
  1 16  1  0  0  0  0
  2  3  1  0  0  0  0
  2 17  1  0  0  0  0
  3  4  1  0  0  0  0
  3  5  1  0  0  0  0
  3  8  1  0  0  0  0
  4 18  1  0  0  0  0
  4 19  1  0  0  0  0
  4 20  1  0  0  0  0
  5  6  1  0  0  0  0
  5  7  2  0  0  0  0
  6 21  1  0  0  0  0
  6 22  1  0  0  0  0
  8 13  1  0  0  0  0
  8  9  2  0  0  0  0
  9 10  1  0  0  0  0
  9 23  1  0  0  0  0
 10 11  2  0  0  0  0
 10 24  1  0  0  0  0
 11 12  1  0  0  0  0
 12 13  2  0  0  0  0
 12 25  1  0  0  0  0
 13 26  1  0  0  0  0
M  END
> <s_m_source_file>
AV-unprocessed.smi

> <i_m_source_file_index>
912

> <i_lp_mmshare_version>
43012

> <i_f3d_flags>
0

> <s_epik_input>
W0NIM11bTkhdW0NAQF0oW0NIM10pKEMoPU8pW05IMl0pYzFbY0hdW2NIXW5bY0hdW2NIXTE=

> <s_epik_cmdline>
J2VwaWtfcHl0aG9uJywgJy1waCcsICc3LjAnLCAnLXRuJywgJzgnLCAnLW1hJywgJzIwMCcsICctbWV0YWxfYmluZGluZycsICctaW1hZScsICc8aW5maWxlLm1hZT4nLCAnLW9tYWUnLCAnPG91dGZpbGUubWFlPic=

> <r_epik_Ionization_Penalty>
0.458428

> <r_epik_Ionization_Penalty_Charging>
0

> <r_epik_Ionization_Penalty_Neutral>
0.458428

> <r_epik_State_Penalty>
0.443707

> <r_epik_Charging_Adjusted_Penalty>
0.443707

> <i_epik_Tot_Q>
0

> <i_epik_Tot_abs_Q>
0

> <r_epik_Metal_State_Penalty>
0.312856

> <b_epik_Metal_Only>
0

> <s_lp_Force_Field>
OPLS_2005

> <r_lp_Energy>
10.7043

> <b_lp_Chiralities_Consistent>
1

> <s_lp_Variant>
AV-unprocessed.smi:912-1

> <Gold.Version>
5.8.1

> <Gold.Id.Protein>
6NUR|6NUR_protein|mol2

> <Gold.PLP.Fitness>
34.2229

> <Gold.PLP.PLP>
-29.5166

> <Gold.PLP.part.hbond>
-2.0000

> <Gold.PLP.part.metal>
0.0000

> <Gold.PLP.part.buried>
-3.6334

> <Gold.PLP.part.nonpolar>
-23.8076

> <Gold.PLP.part.repulsive>
0.0749

> <Gold.PLP.ligand.clash>
0.0000

> <Gold.PLP.ligand.torsion>
0.4477

> <Gold.PLP.Chemscore.Hbond>
1.8560

> <Gold.PLP.Chemscore.CHOScore>
0.0000

> <Gold.PLP.Chemscore.Metal>
0.0000

> <Gold.Chemscore.Hbonds>
donor molecule, donor type, donor heavy atom, donor atom, acceptor molecule, acceptor atom, score
      L1  H     2    17       P1  8028  0.99
      P1  H  7989  7998       L1     7  0.85

> <Gold.PLP.Chemscore.Internal.Correction>
0.0336

> <Gold.Rescore>
     Score         DG    S(hbond)    S(metal)    S(lipo)     H(rot)  DE(clash)    DE(int)     intcor
     14.66     -15.60       1.81        0.00      73.56       1.77       0.10       0.84       ----

> <Gold.Chemscore.Fitness>
14.6559

> <Gold.Chemscore.DG>
-15.5977

> <Gold.Chemscore.ZeroCoef>
-5.4800

> <Gold.Chemscore.Hbond>
1.8102

> <Gold.Chemscore.Metal>
0.0000

> <Gold.Chemscore.Lipo>
73.5562

> <Gold.Chemscore.Internal_Hbond>
0.0000

> <Gold.Chemscore.DEClash>
0.0998

> <Gold.Chemscore.DEInternal>
0.8421

> <Gold.Chemscore.Rot>
1.7712

> <Gold.Chemscore.Internal.Correction>
   9.000000E+99

> <Gold.Chemscore.Hbonds>
donor molecule, donor type, donor heavy atom, donor atom, acceptor molecule, acceptor atom, score
      L1  H     2    17       P1  8028  0.94
      P1  H  7989  7998       L1     7  0.83

> <Gold.Chemscore.Hbond.Weighted>
-6.0460

> <Gold.Chemscore.Metal.Weighted>
-0.0000

> <Gold.Chemscore.Lipo.Weighted>
-8.6061

> <Gold.Chemscore.Internal_Hbond.Weighted>
0.0000

> <Gold.Chemscore.DEClash.Weighted>
0.0998

> <Gold.Chemscore.DEInternal.Weighted>
0.8421

> <Gold.Chemscore.Rot.Weighted>
4.5343

> <Gold.Chemscore.Internal.Correction.Weighted>
   9.000000E+99

> <Gold.Protein.RotatedTorsions>
[ 6907 6896 6895 6894 ] final   58.78 input  -60.11 | X-H torsion
[ 7974 7965 7964 7962 ] final   72.98 input  175.53 | X-H torsion
[ 8008 7997 7996 7995 ] final  -16.75 input   59.86 | X-H torsion
[ 10167 10162 10161 10158 ] final  179.56 input  -65.29 | X-H torsion
[ 10718 10713 10712 10709 ] final   93.34 input   66.30 | X-H torsion
[ 10763 10752 10751 10750 ] final   88.59 input  -60.55 | X-H torsion
[ 11005 11000 10999 10996 ] final -179.09 input  -57.11 | X-H torsion

> <Gold.Protein.ActiveResidues>
 VAL166  LYS551  ARG553  GLY616  TRP617  ASP618  TYR619  PRO620  LYS621  CYS622 
 ASP623  PHE694  ASN695  SER759  ASP760  ASP761  ALA762  ILE779  LEU786  VAL792 
 PHE793  MET794  SER795  GLU796  ALA797  LYS798  CYS799  TRP800  GLU811  SER814 

> <Gold.Protein.RotatedAtoms>
  152.3855  134.6524  160.0126 H   0  0  0  0  0  0  0  0  0  0  0  0  # atno 6907 bound_to 6896
  151.6774  133.3307  159.3219 H   0  0  0  0  0  0  0  0  0  0  0  0  # atno 6908 bound_to 6896
  150.7782  134.6747  159.6455 H   0  0  0  0  0  0  0  0  0  0  0  0  # atno 6909 bound_to 6896
  145.7466  139.2742  143.1456 H   0  0  0  0  0  0  0  0  0  0  0  0  # atno 7974 bound_to 7965
  154.5029  140.2161  155.9309 H   0  0  0  0  0  0  0  0  0  0  0  0  # atno 8008 bound_to 7997
  156.1457  140.3171  155.8533 H   0  0  0  0  0  0  0  0  0  0  0  0  # atno 8009 bound_to 7997
  155.4035  140.0486  157.3026 H   0  0  0  0  0  0  0  0  0  0  0  0  # atno 8010 bound_to 7997
  139.5342  144.2546  152.0756 H   0  0  0  0  0  0  0  0  0  0  0  0  # atno 10167 bound_to 10162
  157.6955  131.0475  150.4020 H   0  0  0  0  0  0  0  0  0  0  0  0  # atno 10718 bound_to 10713
  153.1784  135.4501  154.9996 H   0  0  0  0  0  0  0  0  0  0  0  0  # atno 10763 bound_to 10752
  154.8014  135.3257  154.7543 H   0  0  0  0  0  0  0  0  0  0  0  0  # atno 10764 bound_to 10752
  153.8011  135.6962  153.4910 H   0  0  0  0  0  0  0  0  0  0  0  0  # atno 10765 bound_to 10752
  140.4225  134.6593  157.4671 H   0  0  0  0  0  0  0  0  0  0  0  0  # atno 11005 bound_to 11000
  146.0397  140.8177  142.9835 LP  0  0  0  0  0  0  0  0  0  0  0  0  # atno 17320 bound_to 7965
  144.6859  140.2892  143.7280 LP  0  0  0  0  0  0  0  0  0  0  0  0  # atno 17321 bound_to 7965
  140.2014  144.4654  150.6429 LP  0  0  0  0  0  0  0  0  0  0  0  0  # atno 17342 bound_to 10162
  140.6538  143.2232  151.6015 LP  0  0  0  0  0  0  0  0  0  0  0  0  # atno 17343 bound_to 10162
  156.4412  130.3992  149.6696 LP  0  0  0  0  0  0  0  0  0  0  0  0  # atno 17370 bound_to 10713
  156.3879  130.7612  151.2610 LP  0  0  0  0  0  0  0  0  0  0  0  0  # atno 17371 bound_to 10713
  140.0190  134.6575  155.9267 LP  0  0  0  0  0  0  0  0  0  0  0  0  # atno 17394 bound_to 11000
  141.1778  133.6542  156.4899 LP  0  0  0  0  0  0  0  0  0  0  0  0  # atno 17395 bound_to 11000

$$$$
