AV-unprocessed.smi:1157|AV-procd|sdf|4906|dock8
  -GOLD-   22720 3483D 1   1.00000     0.00000
 Structure written by MMmdl.
 54 56  0  0  0  0  0  0  0  0  1 V2000
  144.9543  136.9792  153.9483 C   0  0  0  0  0  0  0  0  0  0  0  0
  144.8246  136.7594  152.4192 C   0  0  0  0  0  0  0  0  0  0  0  0
  143.3548  137.0570  152.0359 C   0  0  0  0  0  0  0  0  0  0  0  0
  145.7062  137.8506  151.7475 C   0  0  0  0  0  0  0  0  0  0  0  0
  147.0547  137.8894  152.3047 N   0  0  0  0  0  0  0  0  0  0  0  0
  147.4678  138.7563  153.2369 C   0  0  0  0  0  0  0  0  0  0  0  0
  146.7394  139.6158  153.7327 O   0  0  0  0  0  0  0  0  0  0  0  0
  148.7660  138.5716  153.5304 N   0  0  0  0  0  0  0  0  0  0  0  0
  149.5679  139.2791  154.4656 C   0  0  0  0  0  0  0  0  0  0  0  0
  150.8868  138.9125  154.8202 C   0  0  0  0  0  0  0  0  0  0  0  0
  151.5886  139.7050  155.7487 C   0  0  0  0  0  0  0  0  0  0  0  0
  150.9584  140.8467  156.2977 C   0  0  0  0  0  0  0  0  0  0  0  0
  151.6275  141.6655  157.2290 N   0  0  0  0  0  0  0  0  0  0  0  0
  151.2409  143.0507  157.4479 C   0  0  0  0  0  0  0  0  0  0  0  0
  152.1065  143.5128  158.6189 C   0  0  0  0  0  0  0  0  0  0  0  0
  152.2720  142.2407  159.4502 C   0  0  0  0  0  0  0  0  0  0  0  0
  152.2699  141.1115  158.4131 C   0  0  0  0  0  0  0  0  0  0  0  0
  149.7028  141.2074  155.9401 N   0  0  0  0  0  0  0  0  0  0  0  0
  149.0348  140.4453  155.0492 C   0  0  0  0  0  0  0  0  0  0  0  0
  145.2619  135.3873  152.0361 N   0  0  0  0  0  0  0  0  0  0  0  0
  145.3218  135.1405  150.5904 C   0  0  0  0  0  0  0  0  0  0  0  0
  145.8983  133.7525  150.2642 C   0  0  0  0  0  0  0  0  0  0  0  0
  145.1236  132.7491  150.9092 O   0  0  0  0  0  0  0  0  0  0  0  0
  145.0871  132.9162  152.3213 C   0  0  0  0  0  0  0  0  0  0  0  0
  144.5064  134.2982  152.6660 C   0  0  0  0  0  0  0  0  0  0  0  0
  144.8002  138.0251  154.2166 H   0  0  0  0  0  0  0  0  0  0  0  0
  145.9404  136.6922  154.3153 H   0  0  0  0  0  0  0  0  0  0  0  0
  144.2141  136.4114  154.5119 H   0  0  0  0  0  0  0  0  0  0  0  0
  143.0683  138.0644  152.3403 H   0  0  0  0  0  0  0  0  0  0  0  0
  142.6561  136.3739  152.5184 H   0  0  0  0  0  0  0  0  0  0  0  0
  143.1891  136.9964  150.9604 H   0  0  0  0  0  0  0  0  0  0  0  0
  145.7716  137.7000  150.6694 H   0  0  0  0  0  0  0  0  0  0  0  0
  145.2455  138.8325  151.8715 H   0  0  0  0  0  0  0  0  0  0  0  0
  147.7158  137.2180  151.9419 H   0  0  0  0  0  0  0  0  0  0  0  0
  149.2534  137.8838  152.9747 H   0  0  0  0  0  0  0  0  0  0  0  0
  151.3784  138.0540  154.3901 H   0  0  0  0  0  0  0  0  0  0  0  0
  152.5986  139.4325  156.0165 H   0  0  0  0  0  0  0  0  0  0  0  0
  151.4055  143.6610  156.5591 H   0  0  0  0  0  0  0  0  0  0  0  0
  150.1828  143.0972  157.7095 H   0  0  0  0  0  0  0  0  0  0  0  0
  153.0796  143.8421  158.2518 H   0  0  0  0  0  0  0  0  0  0  0  0
  151.6598  144.3351  159.1782 H   0  0  0  0  0  0  0  0  0  0  0  0
  153.1722  142.2481  160.0653 H   0  0  0  0  0  0  0  0  0  0  0  0
  151.4142  142.1273  160.1143 H   0  0  0  0  0  0  0  0  0  0  0  0
  151.7459  140.2344  158.7947 H   0  0  0  0  0  0  0  0  0  0  0  0
  153.2887  140.8194  158.1566 H   0  0  0  0  0  0  0  0  0  0  0  0
  148.0375  140.7772  154.7994 H   0  0  0  0  0  0  0  0  0  0  0  0
  144.3263  135.2182  150.1532 H   0  0  0  0  0  0  0  0  0  0  0  0
  145.9444  135.8823  150.0935 H   0  0  0  0  0  0  0  0  0  0  0  0
  145.8810  133.5787  149.1882 H   0  0  0  0  0  0  0  0  0  0  0  0
  146.9394  133.6820  150.5834 H   0  0  0  0  0  0  0  0  0  0  0  0
  144.4728  132.1281  152.7570 H   0  0  0  0  0  0  0  0  0  0  0  0
  146.0911  132.8050  152.7342 H   0  0  0  0  0  0  0  0  0  0  0  0
  144.5122  134.3969  153.7501 H   0  0  0  0  0  0  0  0  0  0  0  0
  143.4637  134.3297  152.3498 H   0  0  0  0  0  0  0  0  0  0  0  0
  1  2  1  0  0  0  0
  1 26  1  0  0  0  0
  1 27  1  0  0  0  0
  1 28  1  0  0  0  0
  2  3  1  0  0  0  0
  2  4  1  0  0  0  0
  2 20  1  0  0  0  0
  3 29  1  0  0  0  0
  3 30  1  0  0  0  0
  3 31  1  0  0  0  0
  4  5  1  0  0  0  0
  4 32  1  0  0  0  0
  4 33  1  0  0  0  0
  5  6  1  0  0  0  0
  5 34  1  0  0  0  0
  6  7  2  0  0  0  0
  6  8  1  0  0  0  0
  8  9  1  0  0  0  0
  8 35  1  0  0  0  0
  9 19  1  0  0  0  0
  9 10  2  0  0  0  0
 10 11  1  0  0  0  0
 10 36  1  0  0  0  0
 11 12  2  0  0  0  0
 11 37  1  0  0  0  0
 12 13  1  0  0  0  0
 12 18  1  0  0  0  0
 13 17  1  0  0  0  0
 13 14  1  0  0  0  0
 14 15  1  0  0  0  0
 14 38  1  0  0  0  0
 14 39  1  0  0  0  0
 15 16  1  0  0  0  0
 15 40  1  0  0  0  0
 15 41  1  0  0  0  0
 16 17  1  0  0  0  0
 16 42  1  0  0  0  0
 16 43  1  0  0  0  0
 17 44  1  0  0  0  0
 17 45  1  0  0  0  0
 18 19  2  0  0  0  0
 19 46  1  0  0  0  0
 20 25  1  0  0  0  0
 20 21  1  0  0  0  0
 21 22  1  0  0  0  0
 21 47  1  0  0  0  0
 21 48  1  0  0  0  0
 22 23  1  0  0  0  0
 22 49  1  0  0  0  0
 22 50  1  0  0  0  0
 23 24  1  0  0  0  0
 24 25  1  0  0  0  0
 24 51  1  0  0  0  0
 24 52  1  0  0  0  0
 25 53  1  0  0  0  0
 25 54  1  0  0  0  0
M  END
> <s_m_source_file>
AV-unprocessed.smi

> <i_m_source_file_index>
1157

> <i_lp_mmshare_version>
43012

> <i_f3d_flags>
0

> <s_epik_input>
W0NIMl0xW0NIMl1PW0NIMl1bQ0gyXU4xQyhbQ0gzXSkoW0NIM10pW0NIMl1bTkhdQyg9TylbTkhdYzJbY0hdW2NIXWMobltjSF0yKU4zW0NIMl1bQ0gyXVtDSDJdW0NIMl0z

> <s_epik_cmdline>
J2VwaWtfcHl0aG9uJywgJy1waCcsICc3LjAnLCAnLXRuJywgJzgnLCAnLW1hJywgJzIwMCcsICctbWV0YWxfYmluZGluZycsICctaW1hZScsICc8aW5maWxlLm1hZT4nLCAnLW9tYWUnLCAnPG91dGZpbGUubWFlPic=

> <r_lp_tautomer_probability>
1

> <r_epik_Ionization_Penalty>
0.366523

> <r_epik_Ionization_Penalty_Charging>
0

> <r_epik_Ionization_Penalty_Neutral>
0.366523

> <r_epik_State_Penalty>
0.351681

> <r_epik_Charging_Adjusted_Penalty>
0.351681

> <i_epik_Tot_Q>
0

> <i_epik_Tot_abs_Q>
0

> <r_epik_Metal_State_Penalty>
0.334658

> <b_epik_Metal_Only>
0

> <s_lp_Force_Field>
OPLS_2005

> <r_lp_Energy>
67.3279

> <b_lp_Chiralities_Consistent>
1

> <s_lp_Variant>
AV-unprocessed.smi:1157-1

> <Gold.Version>
5.8.1

> <Gold.Id.Protein>
6NUR|6NUR_protein|mol2

> <Gold.PLP.Fitness>
44.5437

> <Gold.PLP.PLP>
-40.5688

> <Gold.PLP.part.hbond>
-2.9689

> <Gold.PLP.part.metal>
0.0000

> <Gold.PLP.part.buried>
-3.5203

> <Gold.PLP.part.nonpolar>
-34.7221

> <Gold.PLP.part.repulsive>
0.5526

> <Gold.PLP.ligand.clash>
0.0000

> <Gold.PLP.ligand.torsion>
0.8553

> <Gold.PLP.Chemscore.Hbond>
1.8130

> <Gold.PLP.Chemscore.CHOScore>
0.0000

> <Gold.PLP.Chemscore.Metal>
0.0000

> <Gold.Chemscore.Hbonds>
donor molecule, donor type, donor heavy atom, donor atom, acceptor molecule, acceptor atom, score
      L1  H     5    34       P1  7948  1.00
      L1  H     8    35       P1  7948  0.88

> <Gold.PLP.Chemscore.Internal.Correction>
0.2464

> <Gold.Rescore>
     Score         DG    S(hbond)    S(metal)    S(lipo)     H(rot)  DE(clash)    DE(int)     intcor
     17.36     -19.79       1.84        0.00      99.93       1.38       0.18       2.25       ----

> <Gold.Chemscore.Fitness>
17.3617

> <Gold.Chemscore.DG>
-19.7938

> <Gold.Chemscore.ZeroCoef>
-5.4800

> <Gold.Chemscore.Hbond>
1.8435

> <Gold.Chemscore.Metal>
0.0000

> <Gold.Chemscore.Lipo>
99.9326

> <Gold.Chemscore.Internal_Hbond>
0.0000

> <Gold.Chemscore.DEClash>
0.1845

> <Gold.Chemscore.DEInternal>
2.2476

> <Gold.Chemscore.Rot>
1.3812

> <Gold.Chemscore.Internal.Correction>
   9.000000E+99

> <Gold.Chemscore.Hbonds>
donor molecule, donor type, donor heavy atom, donor atom, acceptor molecule, acceptor atom, score
      L1  H     5    34       P1  7948  0.96
      L1  H     8    35       P1  7948  0.82

> <Gold.Chemscore.Hbond.Weighted>
-6.1574

> <Gold.Chemscore.Metal.Weighted>
-0.0000

> <Gold.Chemscore.Lipo.Weighted>
-11.6921

> <Gold.Chemscore.Internal_Hbond.Weighted>
0.0000

> <Gold.Chemscore.DEClash.Weighted>
0.1845

> <Gold.Chemscore.DEInternal.Weighted>
2.2476

> <Gold.Chemscore.Rot.Weighted>
3.5358

> <Gold.Chemscore.Internal.Correction.Weighted>
   9.000000E+99

> <Gold.Protein.RotatedTorsions>
[ 6907 6896 6895 6894 ] final -115.89 input  -60.11 | X-H torsion
[ 7974 7965 7964 7962 ] final -171.14 input  175.53 | X-H torsion
[ 8008 7997 7996 7995 ] final -131.08 input   59.86 | X-H torsion
[ 10167 10162 10161 10158 ] final   48.27 input  -65.29 | X-H torsion
[ 10718 10713 10712 10709 ] final  152.51 input   66.30 | X-H torsion
[ 10763 10752 10751 10750 ] final    7.51 input  -60.55 | X-H torsion
[ 11005 11000 10999 10996 ] final   89.75 input  -57.11 | X-H torsion

> <Gold.Protein.ActiveResidues>
 VAL166  LYS551  ARG553  GLY616  TRP617  ASP618  TYR619  PRO620  LYS621  CYS622 
 ASP623  PHE694  ASN695  SER759  ASP760  ASP761  ALA762  ILE779  LEU786  VAL792 
 PHE793  MET794  SER795  GLU796  ALA797  LYS798  CYS799  TRP800  GLU811  SER814 

> <Gold.Protein.RotatedAtoms>
  150.8013  133.8594  159.3227 H   0  0  0  0  0  0  0  0  0  0  0  0  # atno 6907 bound_to 6896
  151.6405  135.1011  160.0150 H   0  0  0  0  0  0  0  0  0  0  0  0  # atno 6908 bound_to 6896
  152.4101  133.6910  159.6425 H   0  0  0  0  0  0  0  0  0  0  0  0  # atno 6909 bound_to 6896
  144.7161  140.1967  143.6342 H   0  0  0  0  0  0  0  0  0  0  0  0  # atno 7974 bound_to 7965
  155.3064  140.0455  157.3032 H   0  0  0  0  0  0  0  0  0  0  0  0  # atno 8008 bound_to 7997
  154.5457  140.2302  155.8533 H   0  0  0  0  0  0  0  0  0  0  0  0  # atno 8009 bound_to 7997
  156.1922  140.3047  155.9362 H   0  0  0  0  0  0  0  0  0  0  0  0  # atno 8010 bound_to 7997
  140.2950  144.3001  150.6232 H   0  0  0  0  0  0  0  0  0  0  0  0  # atno 10167 bound_to 10162
  157.2569  131.0790  151.1692 H   0  0  0  0  0  0  0  0  0  0  0  0  # atno 10718 bound_to 10713
  153.2355  135.6897  153.7841 H   0  0  0  0  0  0  0  0  0  0  0  0  # atno 10763 bound_to 10752
  153.6990  135.3300  155.3221 H   0  0  0  0  0  0  0  0  0  0  0  0  # atno 10764 bound_to 10752
  154.8333  135.4563  154.1257 H   0  0  0  0  0  0  0  0  0  0  0  0  # atno 10765 bound_to 10752
  139.8869  134.8571  156.3187 H   0  0  0  0  0  0  0  0  0  0  0  0  # atno 11005 bound_to 11000
  145.8718  139.2276  143.1656 LP  0  0  0  0  0  0  0  0  0  0  0  0  # atno 17320 bound_to 7965
  146.0078  140.8463  142.9986 LP  0  0  0  0  0  0  0  0  0  0  0  0  # atno 17321 bound_to 7965
  140.5700  143.2182  151.7616 LP  0  0  0  0  0  0  0  0  0  0  0  0  # atno 17342 bound_to 10162
  139.4929  144.4230  151.9957 LP  0  0  0  0  0  0  0  0  0  0  0  0  # atno 17343 bound_to 10162
  157.3218  130.6941  149.6273 LP  0  0  0  0  0  0  0  0  0  0  0  0  # atno 17370 bound_to 10713
  155.9665  130.4333  150.5001 LP  0  0  0  0  0  0  0  0  0  0  0  0  # atno 17371 bound_to 10713
  140.9801  133.7272  156.0660 LP  0  0  0  0  0  0  0  0  0  0  0  0  # atno 17394 bound_to 11000
  140.7760  134.3779  157.5498 LP  0  0  0  0  0  0  0  0  0  0  0  0  # atno 17395 bound_to 11000

$$$$
