AV-unprocessed.smi:472|AV-procd|sdf|2660|dock2
  -GOLD-   2262023 73D 1   1.00000     0.00000
 Structure written by MMmdl.
 35 36  0  0  0  0  0  0  0  0  1 V2000
  150.0413  137.1914  158.3897 C   0  0  0  0  0  0  0  0  0  0  0  0
  150.2138  138.1779  157.3884 O   0  0  0  0  0  0  0  0  0  0  0  0
  151.5576  138.2789  156.9468 C   0  0  0  0  0  0  0  0  0  0  0  0
  151.7088  139.4710  155.9904 C   0  0  0  0  0  0  0  0  0  0  0  0
  151.3563  140.7362  156.6291 N   0  0  0  0  0  0  0  0  0  0  0  0
  150.4659  141.6581  156.1864 C   0  0  0  0  0  0  0  0  0  0  0  0
  149.7708  141.4500  154.9998 N   0  0  0  0  0  0  0  0  0  0  0  0
  148.8302  142.3171  154.4354 N   0  0  0  0  0  0  0  0  0  0  0  0
  150.3378  142.7343  156.9662 N   0  0  0  0  0  0  0  0  0  0  0  0
  151.2331  142.4753  157.9949 C   0  0  0  0  0  0  0  0  0  0  0  0
  151.8564  141.2869  157.8115 C   0  0  0  0  0  0  0  0  0  0  0  0
  152.8672  140.7699  158.7423 C   0  0  0  0  0  0  0  0  0  0  0  0
  153.4288  139.6900  158.5524 O   0  0  0  0  0  0  0  0  0  0  0  0
  153.1170  141.5908  159.8096 N   0  0  0  0  0  0  0  0  0  0  0  0
  154.1274  141.1050  160.7686 C   0  0  0  0  0  0  0  0  0  0  0  0
  152.5106  142.8155  160.0331 C   0  0  0  0  0  0  0  0  0  0  0  0
  152.8017  143.5121  161.0091 O   0  0  0  0  0  0  0  0  0  0  0  0
  151.5667  143.2498  159.1362 N   0  0  0  0  0  0  0  0  0  0  0  0
  150.8965  144.5366  159.3445 C   0  0  0  0  0  0  0  0  0  0  0  0
  148.9952  137.1588  158.6941 H   0  0  0  0  0  0  0  0  0  0  0  0
  150.6421  137.4157  159.2718 H   0  0  0  0  0  0  0  0  0  0  0  0
  150.3159  136.2026  158.0199 H   0  0  0  0  0  0  0  0  0  0  0  0
  152.2201  138.4048  157.8046 H   0  0  0  0  0  0  0  0  0  0  0  0
  151.8541  137.3603  156.4385 H   0  0  0  0  0  0  0  0  0  0  0  0
  152.7359  139.5290  155.6290 H   0  0  0  0  0  0  0  0  0  0  0  0
  151.0992  139.3283  155.1000 H   0  0  0  0  0  0  0  0  0  0  0  0
  149.9750  140.6051  154.4855 H   0  0  0  0  0  0  0  0  0  0  0  0
  148.6706  143.0944  155.0734 H   0  0  0  0  0  0  0  0  0  0  0  0
  149.2055  142.6881  153.5643 H   0  0  0  0  0  0  0  0  0  0  0  0
  154.2395  141.7115  161.6675 H   0  0  0  0  0  0  0  0  0  0  0  0
  155.1081  141.0623  160.2920 H   0  0  0  0  0  0  0  0  0  0  0  0
  153.8795  140.0997  161.1145 H   0  0  0  0  0  0  0  0  0  0  0  0
  150.4126  144.5654  160.3222 H   0  0  0  0  0  0  0  0  0  0  0  0
  150.1261  144.7376  158.6000 H   0  0  0  0  0  0  0  0  0  0  0  0
  151.6178  145.3537  159.2971 H   0  0  0  0  0  0  0  0  0  0  0  0
  1  2  1  0  0  0  0
  1 20  1  0  0  0  0
  1 21  1  0  0  0  0
  1 22  1  0  0  0  0
  2  3  1  0  0  0  0
  3  4  1  0  0  0  0
  3 23  1  0  0  0  0
  3 24  1  0  0  0  0
  4  5  1  0  0  0  0
  4 25  1  0  0  0  0
  4 26  1  0  0  0  0
  5 11  1  0  0  0  0
  5  6  1  0  0  0  0
  6  7  1  0  0  0  0
  6  9  2  0  0  0  0
  7  8  1  0  0  0  0
  7 27  1  0  0  0  0
  8 28  1  0  0  0  0
  8 29  1  0  0  0  0
  9 10  1  0  0  0  0
 10 18  1  0  0  0  0
 10 11  2  0  0  0  0
 11 12  1  0  0  0  0
 12 13  2  0  0  0  0
 12 14  1  0  0  0  0
 14 15  1  0  0  0  0
 14 16  1  0  0  0  0
 15 30  1  0  0  0  0
 15 31  1  0  0  0  0
 15 32  1  0  0  0  0
 16 17  2  0  0  0  0
 16 18  1  0  0  0  0
 18 19  1  0  0  0  0
 19 33  1  0  0  0  0
 19 34  1  0  0  0  0
 19 35  1  0  0  0  0
M  END
> <s_m_source_file>
AV-unprocessed.smi

> <i_m_source_file_index>
472

> <i_lp_mmshare_version>
43012

> <i_f3d_flags>
0

> <s_epik_input>
W0NIM11PW0NIMl1bQ0gyXW4oYyhuMSlbTkhdW05IMl0pYyhjMTIpYyg9TyluKFtDSDNdKWMoPU8pbjJbQ0gzXQ==

> <s_epik_cmdline>
J2VwaWtfcHl0aG9uJywgJy1waCcsICc3LjAnLCAnLXRuJywgJzgnLCAnLW1hJywgJzIwMCcsICctbWV0YWxfYmluZGluZycsICctaW1hZScsICc8aW5maWxlLm1hZT4nLCAnLW9tYWUnLCAnPG91dGZpbGUubWFlPic=

> <r_lp_tautomer_probability>
1

> <r_epik_Ionization_Penalty>
0.000822794

> <r_epik_Ionization_Penalty_Charging>
3.05595e-09

> <r_epik_Ionization_Penalty_Neutral>
0.000822791

> <r_epik_State_Penalty>
-0

> <r_epik_Charging_Adjusted_Penalty>
3.05595e-09

> <i_epik_Tot_Q>
0

> <i_epik_Tot_abs_Q>
0

> <r_epik_Metal_State_Penalty>
-0

> <b_epik_Metal_Only>
0

> <s_lp_Force_Field>
OPLS_2005

> <r_lp_Energy>
30.834

> <b_lp_Chiralities_Consistent>
1

> <s_lp_Variant>
AV-unprocessed.smi:472-1

> <Gold.Version>
5.8.1

> <Gold.Id.Protein>
6NUR|6NUR_protein|mol2

> <Gold.PLP.Fitness>
40.2231

> <Gold.PLP.PLP>
-34.3168

> <Gold.PLP.part.hbond>
-3.0000

> <Gold.PLP.part.metal>
0.0000

> <Gold.PLP.part.buried>
-5.4194

> <Gold.PLP.part.nonpolar>
-28.1577

> <Gold.PLP.part.repulsive>
2.6210

> <Gold.PLP.ligand.clash>
0.0000

> <Gold.PLP.ligand.torsion>
0.0480

> <Gold.PLP.Chemscore.Hbond>
2.0000

> <Gold.PLP.Chemscore.CHOScore>
0.0000

> <Gold.PLP.Chemscore.Metal>
0.0000

> <Gold.Chemscore.Hbonds>
donor molecule, donor type, donor heavy atom, donor atom, acceptor molecule, acceptor atom, score
      L1  H     8    28       P1  8028  1.00
      P1  H  7997  8009       L1    13  1.00

> <Gold.PLP.Chemscore.Internal.Correction>
0.0023

> <Gold.Rescore>
     Score         DG    S(hbond)    S(metal)    S(lipo)     H(rot)  DE(clash)    DE(int)     intcor
     10.08     -12.20       1.82        0.00      42.57       1.70       0.69       1.42       ----

> <Gold.Chemscore.Fitness>
10.0813

> <Gold.Chemscore.DG>
-12.1990

> <Gold.Chemscore.ZeroCoef>
-5.4800

> <Gold.Chemscore.Hbond>
1.8224

> <Gold.Chemscore.Metal>
0.0000

> <Gold.Chemscore.Lipo>
42.5745

> <Gold.Chemscore.Internal_Hbond>
0.0000

> <Gold.Chemscore.DEClash>
0.6937

> <Gold.Chemscore.DEInternal>
1.4241

> <Gold.Chemscore.Rot>
1.6988

> <Gold.Chemscore.Internal.Correction>
   9.000000E+99

> <Gold.Chemscore.Hbonds>
donor molecule, donor type, donor heavy atom, donor atom, acceptor molecule, acceptor atom, score
      L1  H     8    28       P1  8028  0.98
      P1  H  7997  8009       L1    13  0.44

> <Gold.Chemscore.Hbond.Weighted>
-6.0868

> <Gold.Chemscore.Metal.Weighted>
-0.0000

> <Gold.Chemscore.Lipo.Weighted>
-4.9812

> <Gold.Chemscore.Internal_Hbond.Weighted>
0.0000

> <Gold.Chemscore.DEClash.Weighted>
0.6937

> <Gold.Chemscore.DEInternal.Weighted>
1.4241

> <Gold.Chemscore.Rot.Weighted>
4.3490

> <Gold.Chemscore.Internal.Correction.Weighted>
   9.000000E+99

> <Gold.Protein.RotatedTorsions>
[ 6907 6896 6895 6894 ] final  110.56 input  -60.11 | X-H torsion
[ 7974 7965 7964 7962 ] final  -22.26 input  175.53 | X-H torsion
[ 8008 7997 7996 7995 ] final  152.99 input   59.86 | X-H torsion
[ 10167 10162 10161 10158 ] final -103.18 input  -65.29 | X-H torsion
[ 10718 10713 10712 10709 ] final  160.98 input   66.30 | X-H torsion
[ 10763 10752 10751 10750 ] final  -51.99 input  -60.55 | X-H torsion
[ 11005 11000 10999 10996 ] final  172.78 input  -57.11 | X-H torsion

> <Gold.Protein.ActiveResidues>
 VAL166  LYS551  ARG553  GLY616  TRP617  ASP618  TYR619  PRO620  LYS621  CYS622 
 ASP623  PHE694  ASN695  SER759  ASP760  ASP761  ALA762  ILE779  LEU786  VAL792 
 PHE793  MET794  SER795  GLU796  ALA797  LYS798  CYS799  TRP800  GLU811  SER814 

> <Gold.Protein.RotatedAtoms>
  152.5013  133.8783  159.7333 H   0  0  0  0  0  0  0  0  0  0  0  0  # atno 6907 bound_to 6896
  150.9252  133.6824  159.2830 H   0  0  0  0  0  0  0  0  0  0  0  0  # atno 6908 bound_to 6896
  151.4187  135.0999  159.9660 H   0  0  0  0  0  0  0  0  0  0  0  0  # atno 6909 bound_to 6896
  146.1686  140.4455  142.8542 H   0  0  0  0  0  0  0  0  0  0  0  0  # atno 7974 bound_to 7965
  156.2603  140.2006  156.6420 H   0  0  0  0  0  0  0  0  0  0  0  0  # atno 8008 bound_to 7997
  154.6602  140.0561  157.0078 H   0  0  0  0  0  0  0  0  0  0  0  0  # atno 8009 bound_to 7997
  155.1287  140.3231  155.4482 H   0  0  0  0  0  0  0  0  0  0  0  0  # atno 8010 bound_to 7997
  140.2228  143.3663  152.0955 H   0  0  0  0  0  0  0  0  0  0  0  0  # atno 10167 bound_to 10162
  157.1429  131.0545  151.2318 H   0  0  0  0  0  0  0  0  0  0  0  0  # atno 10718 bound_to 10713
  154.1356  135.6513  153.4931 H   0  0  0  0  0  0  0  0  0  0  0  0  # atno 10763 bound_to 10752
  153.0182  135.5303  154.6957 H   0  0  0  0  0  0  0  0  0  0  0  0  # atno 10764 bound_to 10752
  154.6204  135.2964  155.0303 H   0  0  0  0  0  0  0  0  0  0  0  0  # atno 10765 bound_to 10752
  140.3334  134.7338  157.4151 H   0  0  0  0  0  0  0  0  0  0  0  0  # atno 11005 bound_to 11000
  144.8129  140.6417  143.6403 LP  0  0  0  0  0  0  0  0  0  0  0  0  # atno 17320 bound_to 7965
  145.4402  139.1537  143.3975 LP  0  0  0  0  0  0  0  0  0  0  0  0  # atno 17321 bound_to 7965
  139.5138  144.6938  151.5687 LP  0  0  0  0  0  0  0  0  0  0  0  0  # atno 17342 bound_to 10162
  140.6243  143.9199  150.6551 LP  0  0  0  0  0  0  0  0  0  0  0  0  # atno 17343 bound_to 10162
  157.4290  130.7480  149.6975 LP  0  0  0  0  0  0  0  0  0  0  0  0  # atno 17370 bound_to 10713
  155.9785  130.4050  150.3645 LP  0  0  0  0  0  0  0  0  0  0  0  0  # atno 17371 bound_to 10713
  140.0841  134.5690  155.8510 LP  0  0  0  0  0  0  0  0  0  0  0  0  # atno 17394 bound_to 11000
  141.2057  133.6649  156.6199 LP  0  0  0  0  0  0  0  0  0  0  0  0  # atno 17395 bound_to 11000

$$$$
