AV-unprocessed.smi:3056|AV-procd|sdf|11650|dock8
  -GOLD-   2272017 43D 1   1.00000     0.00000
 Structure written by MMmdl.
 48 49  0  0  0  0  0  0  0  0  2 V2000
  150.4884  141.8831  157.8866 C   0  0  0  0  0  0  0  0  0  0  0  0
  150.4354  141.0541  156.6357 C   0  0  0  0  0  0  0  0  0  0  0  0
  150.0396  141.4630  155.3310 C   0  0  0  0  0  0  0  0  0  0  0  0
  150.0954  140.4812  154.4460 N   0  0  0  0  0  0  0  0  0  0  0  0
  150.5435  139.4157  155.1454 N   0  0  0  0  0  0  0  0  0  0  0  0
  150.6923  138.1277  154.4779 C   0  0  1  0  0  0  0  0  0  0  0  0
  152.1883  137.7966  154.3138 C   0  0  0  0  0  0  0  0  0  0  0  0
  149.8879  137.0163  155.2078 C   0  0  2  0  0  0  0  0  0  0  0  0
  150.4245  136.7359  156.6219 C   0  0  0  0  0  0  0  0  0  0  0  0
  149.9214  135.7468  154.4390 N   0  3  0  0  0  0  0  0  0  0  0  0
  149.1082  134.6333  154.9830 C   0  0  0  0  0  0  0  0  0  0  0  0
  149.9087  133.3408  155.2153 C   0  0  0  0  0  0  0  0  0  0  0  0
  150.7648  133.3215  156.1014 O   0  0  0  0  0  0  0  0  0  0  0  0
  149.6554  132.2653  154.4321 N   0  0  0  0  0  0  0  0  0  0  0  0
  150.2778  130.9434  154.5522 C   0  0  0  0  0  0  0  0  0  0  0  0
  149.1921  129.9416  154.9824 C   0  0  0  0  0  0  0  0  0  0  0  0
  148.1291  129.9489  154.0317 O   0  0  0  0  0  0  0  0  0  0  0  0
  147.5231  131.2302  153.8635 C   0  0  2  0  0  0  0  0  0  0  0  0
  146.3909  131.0957  152.8396 C   0  0  0  0  0  0  0  0  0  0  0  0
  148.5984  132.2419  153.4173 C   0  0  0  0  0  0  0  0  0  0  0  0
  150.7465  139.7339  156.4741 C   0  0  0  0  0  0  0  0  0  0  0  0
  150.3870  142.9473  157.6726 H   0  0  0  0  0  0  0  0  0  0  0  0
  151.4316  141.7517  158.4172 H   0  0  0  0  0  0  0  0  0  0  0  0
  149.6894  141.6172  158.5788 H   0  0  0  0  0  0  0  0  0  0  0  0
  149.7084  142.4378  155.0041 H   0  0  0  0  0  0  0  0  0  0  0  0
  150.2827  138.2347  153.4715 H   0  0  0  0  0  0  0  0  0  0  0  0
  152.3422  136.9471  153.6490 H   0  0  0  0  0  0  0  0  0  0  0  0
  152.6559  137.5603  155.2699 H   0  0  0  0  0  0  0  0  0  0  0  0
  152.7287  138.6380  153.8781 H   0  0  0  0  0  0  0  0  0  0  0  0
  148.8516  137.3413  155.3146 H   0  0  0  0  0  0  0  0  0  0  0  0
  150.3085  137.5987  157.2775 H   0  0  0  0  0  0  0  0  0  0  0  0
  151.4816  136.4683  156.6013 H   0  0  0  0  0  0  0  0  0  0  0  0
  149.8840  135.9123  157.0895 H   0  0  0  0  0  0  0  0  0  0  0  0
  149.6043  135.9485  153.5013 H   0  0  0  0  0  0  0  0  0  0  0  0
  148.6174  134.9418  155.9050 H   0  0  0  0  0  0  0  0  0  0  0  0
  148.3250  134.4217  154.2545 H   0  0  0  0  0  0  0  0  0  0  0  0
  150.6922  130.6522  153.5857 H   0  0  0  0  0  0  0  0  0  0  0  0
  151.1096  130.9057  155.2535 H   0  0  0  0  0  0  0  0  0  0  0  0
  149.6073  128.9354  155.0398 H   0  0  0  0  0  0  0  0  0  0  0  0
  148.8080  130.1869  155.9738 H   0  0  0  0  0  0  0  0  0  0  0  0
  147.0949  131.5472  154.8161 H   0  0  0  0  0  0  0  0  0  0  0  0
  145.8908  132.0513  152.6798 H   0  0  0  0  0  0  0  0  0  0  0  0
  145.6408  130.3815  153.1800 H   0  0  0  0  0  0  0  0  0  0  0  0
  146.7681  130.7494  151.8769 H   0  0  0  0  0  0  0  0  0  0  0  0
  148.1447  133.2207  153.2566 H   0  0  0  0  0  0  0  0  0  0  0  0
  149.0245  131.9464  152.4572 H   0  0  0  0  0  0  0  0  0  0  0  0
  151.0874  139.0015  157.1912 H   0  0  0  0  0  0  0  0  0  0  0  0
  150.8782  135.4266  154.3916 H   0  0  0  0  0  0  0  0  0  0  0  0
  1  2  1  0  0  0  0
  1 22  1  0  0  0  0
  1 23  1  0  0  0  0
  1 24  1  0  0  0  0
  2 21  2  0  0  0  0
  2  3  1  0  0  0  0
  3  4  2  0  0  0  0
  3 25  1  0  0  0  0
  4  5  1  0  0  0  0
  5  6  1  0  0  0  0
  5 21  1  0  0  0  0
  6  7  1  0  0  0  0
  6  8  1  0  0  0  0
  6 26  1  0  0  0  0
  7 27  1  0  0  0  0
  7 28  1  0  0  0  0
  7 29  1  0  0  0  0
  8  9  1  0  0  0  0
  8 10  1  0  0  0  0
  8 30  1  0  0  0  0
  9 31  1  0  0  0  0
  9 32  1  0  0  0  0
  9 33  1  0  0  0  0
 10 11  1  0  0  0  0
 10 34  1  0  0  0  0
 10 48  1  0  0  0  0
 11 12  1  0  0  0  0
 11 35  1  0  0  0  0
 11 36  1  0  0  0  0
 12 13  2  0  0  0  0
 12 14  1  0  0  0  0
 14 20  1  0  0  0  0
 14 15  1  0  0  0  0
 15 16  1  0  0  0  0
 15 37  1  0  0  0  0
 15 38  1  0  0  0  0
 16 17  1  0  0  0  0
 16 39  1  0  0  0  0
 16 40  1  0  0  0  0
 17 18  1  0  0  0  0
 18 19  1  0  0  0  0
 18 20  1  0  0  0  0
 18 41  1  0  0  0  0
 19 42  1  0  0  0  0
 19 43  1  0  0  0  0
 19 44  1  0  0  0  0
 20 45  1  0  0  0  0
 20 46  1  0  0  0  0
 21 47  1  0  0  0  0
M  CHG  1  10   1
M  END
> <s_m_source_file>
AV-unprocessed.smi

> <i_m_source_file_index>
3056

> <i_lp_mmshare_version>
43012

> <i_f3d_flags>
0

> <s_epik_input>
W0NIM11jMVtjSF1ubihbY0hdMSlbQ0BIXShbQ0gzXSlbQ0BIXShbQ0gzXSlbTkhdW0NIMl1DKD1PKU4yW0NIMl1bQ0gyXU9bQ0BASF0oW0NIM10pW0NIMl0y

> <s_epik_cmdline>
J2VwaWtfcHl0aG9uJywgJy1waCcsICc3LjAnLCAnLXRuJywgJzgnLCAnLW1hJywgJzIwMCcsICctbWV0YWxfYmluZGluZycsICctaW1hZScsICc8aW5maWxlLm1hZT4nLCAnLW9tYWUnLCAnPG91dGZpbGUubWFlPic=

> <r_lp_tautomer_probability>
1

> <r_epik_Ionization_Penalty>
0.233715

> <r_epik_Ionization_Penalty_Charging>
0.233698

> <r_epik_Ionization_Penalty_Neutral>
1.68157e-05

> <r_epik_State_Penalty>
0.225221

> <r_epik_Charging_Adjusted_Penalty>
0.458919

> <i_epik_Tot_Q>
1

> <i_epik_Tot_abs_Q>
1

> <r_epik_Metal_State_Penalty>
0.225535

> <b_epik_Metal_Only>
0

> <s_lp_Force_Field>
OPLS_2005

> <r_lp_Energy>
28.2676

> <b_lp_Chiralities_Consistent>
1

> <s_lp_Variant>
AV-unprocessed.smi:3056-6

> <Gold.Version>
5.8.1

> <Gold.Id.Protein>
6NUR|6NUR_protein|mol2

> <Gold.PLP.Fitness>
44.8445

> <Gold.PLP.PLP>
-34.2692

> <Gold.PLP.part.hbond>
-2.5989

> <Gold.PLP.part.metal>
0.0000

> <Gold.PLP.part.buried>
-3.6206

> <Gold.PLP.part.nonpolar>
-28.4867

> <Gold.PLP.part.repulsive>
0.2277

> <Gold.PLP.ligand.clash>
0.0000

> <Gold.PLP.ligand.torsion>
0.6303

> <Gold.PLP.Chemscore.Hbond>
2.9120

> <Gold.PLP.Chemscore.CHOScore>
1.0000

> <Gold.PLP.Chemscore.Metal>
0.0000

> <Gold.Chemscore.Hbonds>
donor molecule, donor type, donor heavy atom, donor atom, acceptor molecule, acceptor atom, score
      L1  H    10    34       P1  7948  2.00
      P1  H  7989  7998       L1     4  0.88
      L1  C     3    25       P1  8028  1.00

> <Gold.PLP.Chemscore.Internal.Correction>
0.0998

> <Gold.Rescore>
     Score         DG    S(hbond)    S(metal)    S(lipo)     H(rot)  DE(clash)    DE(int)     intcor
     12.35     -14.39       1.56        0.00      69.70       1.74       0.26       1.78       ----

> <Gold.Chemscore.Fitness>
12.3506

> <Gold.Chemscore.DG>
-14.3907

> <Gold.Chemscore.ZeroCoef>
-5.4800

> <Gold.Chemscore.Hbond>
1.5566

> <Gold.Chemscore.Metal>
0.0000

> <Gold.Chemscore.Lipo>
69.6959

> <Gold.Chemscore.Internal_Hbond>
0.0000

> <Gold.Chemscore.DEClash>
0.2566

> <Gold.Chemscore.DEInternal>
1.7836

> <Gold.Chemscore.Rot>
1.7354

> <Gold.Chemscore.Internal.Correction>
   9.000000E+99

> <Gold.Chemscore.Hbonds>
donor molecule, donor type, donor heavy atom, donor atom, acceptor molecule, acceptor atom, score
      L1  H    10    34       P1  7948  0.26
      P1  H  7989  7998       L1     4  0.09

> <Gold.Chemscore.Hbond.Weighted>
-5.1989

> <Gold.Chemscore.Metal.Weighted>
-0.0000

> <Gold.Chemscore.Lipo.Weighted>
-8.1544

> <Gold.Chemscore.Internal_Hbond.Weighted>
0.0000

> <Gold.Chemscore.DEClash.Weighted>
0.2566

> <Gold.Chemscore.DEInternal.Weighted>
1.7836

> <Gold.Chemscore.Rot.Weighted>
4.4426

> <Gold.Chemscore.Internal.Correction.Weighted>
   9.000000E+99

> <Gold.Protein.RotatedTorsions>
[ 6907 6896 6895 6894 ] final  -86.45 input  -60.11 | X-H torsion
[ 7974 7965 7964 7962 ] final -160.49 input  175.53 | X-H torsion
[ 8008 7997 7996 7995 ] final    8.84 input   59.86 | X-H torsion
[ 10167 10162 10161 10158 ] final   -3.91 input  -65.29 | X-H torsion
[ 10718 10713 10712 10709 ] final   72.50 input   66.30 | X-H torsion
[ 10763 10752 10751 10750 ] final    6.25 input  -60.55 | X-H torsion
[ 11005 11000 10999 10996 ] final  120.04 input  -57.11 | X-H torsion

> <Gold.Protein.ActiveResidues>
 VAL166  LYS551  ARG553  GLY616  TRP617  ASP618  TYR619  PRO620  LYS621  CYS622 
 ASP623  PHE694  ASN695  SER759  ASP760  ASP761  ALA762  ILE779  LEU786  VAL792 
 PHE793  MET794  SER795  GLU796  ALA797  LYS798  CYS799  TRP800  GLU811  SER814 

> <Gold.Protein.RotatedAtoms>
  150.6867  134.3049  159.4721 H   0  0  0  0  0  0  0  0  0  0  0  0  # atno 6907 bound_to 6896
  152.0941  134.9384  160.0580 H   0  0  0  0  0  0  0  0  0  0  0  0  # atno 6908 bound_to 6896
  152.0689  133.4062  159.4487 H   0  0  0  0  0  0  0  0  0  0  0  0  # atno 6909 bound_to 6896
  144.7425  140.3534  143.6111 H   0  0  0  0  0  0  0  0  0  0  0  0  # atno 7974 bound_to 7965
  154.7722  140.2804  155.6129 H   0  0  0  0  0  0  0  0  0  0  0  0  # atno 8008 bound_to 7997
  156.2935  140.2639  156.2455 H   0  0  0  0  0  0  0  0  0  0  0  0  # atno 8009 bound_to 7997
  154.9886  140.0374  157.2299 H   0  0  0  0  0  0  0  0  0  0  0  0  # atno 8010 bound_to 7997
  140.6908  143.6485  150.8371 H   0  0  0  0  0  0  0  0  0  0  0  0  # atno 10167 bound_to 10162
  157.6504  130.9582  150.0938 H   0  0  0  0  0  0  0  0  0  0  0  0  # atno 10718 bound_to 10713
  153.2499  135.6912  153.7691 H   0  0  0  0  0  0  0  0  0  0  0  0  # atno 10763 bound_to 10752
  153.6789  135.3332  155.3174 H   0  0  0  0  0  0  0  0  0  0  0  0  # atno 10764 bound_to 10752
  154.8390  135.4518  154.1452 H   0  0  0  0  0  0  0  0  0  0  0  0  # atno 10765 bound_to 10752
  139.9170  134.9632  156.7747 H   0  0  0  0  0  0  0  0  0  0  0  0  # atno 11005 bound_to 11000
  145.7252  139.1721  143.2462 LP  0  0  0  0  0  0  0  0  0  0  0  0  # atno 17320 bound_to 7965
  146.1247  140.7263  142.9440 LP  0  0  0  0  0  0  0  0  0  0  0  0  # atno 17321 bound_to 7965
  140.0197  143.5555  152.2805 LP  0  0  0  0  0  0  0  0  0  0  0  0  # atno 17342 bound_to 10162
  139.6309  144.7644  151.2539 LP  0  0  0  0  0  0  0  0  0  0  0  0  # atno 17343 bound_to 10162
  156.1880  130.3653  149.8948 LP  0  0  0  0  0  0  0  0  0  0  0  0  # atno 17370 bound_to 10713
  156.6883  130.8886  151.3585 LP  0  0  0  0  0  0  0  0  0  0  0  0  # atno 17371 bound_to 10713
  140.6593  133.9660  155.7796 LP  0  0  0  0  0  0  0  0  0  0  0  0  # atno 17394 bound_to 11000
  141.0655  134.0284  157.3600 LP  0  0  0  0  0  0  0  0  0  0  0  0  # atno 17395 bound_to 11000

$$$$
