#       Name:                AV-unprocessed.smi:1248
#       Creating user name   scv26
#       Creation time:       Fri Mar 27 04:36:24 2020


#       File generated by GOLD software.
#

@<TRIPOS>MOLECULE
AV-unprocessed.smi:1248
    47    49     1
SMALL
NO_CHARGES


@<TRIPOS>ATOM
      1 ****        -7.1181  -2.3924  -2.1611 C.3            1 S1                 0.0000
      2 ****        -6.7445  -2.2942  -0.6771 C.3            1 S1                 0.0000
      3 ****        -5.5260  -1.5340  -0.4753 N.pl3          1 S1                 0.0000
      4 ****        -4.2692  -2.0046  -0.1501 C.2            1 S1                 0.0000
      5 ****        -3.4691  -0.9046  -0.0714 C.2            1 S1                 0.0000
      6 ****        -2.0869  -0.9291   0.2412 N.am           1 S1                 0.0000
      7 ****        -1.2519   0.1201   0.3137 C.2            1 S1                 0.0000
      8 ****        -1.5700   1.2928   0.1174 O.2            1 S1                 0.0000
      9 ****        -0.0075  -0.2680   0.6273 N.am           1 S1                 0.0000
     10 ****         1.1390   0.6234   0.7778 C.3            1 S1                 0.0000
     11 ****         1.7438   0.9793  -0.5923 C.3            1 S1                 0.0000
     12 ****         3.0437   1.7866  -0.4304 C.3            1 S1                 0.0000
     13 ****         4.0147   1.0299   0.3602 N.3            1 S1                 0.0000
     14 ****         5.2454   1.7981   0.4538 C.3            1 S1                 0.0000
     15 ****         6.2449   1.6568  -0.6717 C.3            1 S1                 0.0000
     16 ****         6.5311   1.0340   0.6733 C.3            1 S1                 0.0000
     17 ****         3.4910   0.8073   1.7079 C.3            1 S1                 0.0000
     18 ****         2.2144  -0.0497   1.6451 C.3            1 S1                 0.0000
     19 ****        -4.3089   0.2082  -0.3594 C.2            1 S1                 0.0000
     20 ****        -5.5509  -0.1840  -0.6005 N.2            1 S1                 0.0000
     21 ****        -8.0256  -2.9815  -2.2938 H              1 S1                 0.0000
     22 ****        -6.3241  -2.8692  -2.7362 H              1 S1                 0.0000
     23 ****        -7.2975  -1.4064  -2.5902 H              1 S1                 0.0000
     24 ****        -7.5495  -1.8212  -0.1134 H              1 S1                 0.0000
     25 ****        -6.6077  -3.2916  -0.2580 H              1 S1                 0.0000
     26 ****        -4.0609  -3.0549  -0.0079 H              1 S1                 0.0000
     27 ****        -1.6920  -1.8397   0.4239 H              1 S1                 0.0000
     28 ****         0.1616  -1.2527   0.7704 H              1 S1                 0.0000
     29 ****         0.8209   1.5409   1.2768 H              1 S1                 0.0000
     30 ****         1.9514   0.0693  -1.1576 H              1 S1                 0.0000
     31 ****         1.0288   1.5532  -1.1826 H              1 S1                 0.0000
     32 ****         3.4625   1.9996  -1.4146 H              1 S1                 0.0000
     33 ****         2.8368   2.7471   0.0445 H              1 S1                 0.0000
     34 ****         5.2077   2.7830   0.9163 H              1 S1                 0.0000
     35 ****         5.9988   0.9853  -1.4922 H              1 S1                 0.0000
     36 ****         6.8151   2.5410  -0.9488 H              1 S1                 0.0000
     37 ****         7.2935   1.5026   1.2921 H              1 S1                 0.0000
     38 ****         6.4745  -0.0507   0.7454 H              1 S1                 0.0000
     39 ****         4.2424   0.2962   2.3108 H              1 S1                 0.0000
     40 ****         3.2844   1.7618   2.1953 H              1 S1                 0.0000
     41 ****         1.8321  -0.2154   2.6529 H              1 S1                 0.0000
     42 ****         2.4603  -1.0332   1.2412 H              1 S1                 0.0000
     43 ****        -4.0766   1.2618  -0.4017 H              1 S1                 0.0000
     44 ****        -2.5148   1.5221  -0.1166 LP             1 S1                 0.0000
     45 ****        -0.8837   2.0162   0.1919 LP             1 S1                 0.0000
     46 ****         4.1875   0.1483  -0.0791 LP             1 S1                 0.0000
     47 ****        -6.3372   0.3912  -0.8262 LP             1 S1                 0.0000
@<TRIPOS>BOND
    1    1    2 1     
    2    1   21 1     
    3    1   22 1     
    4    1   23 1     
    5    2    3 1     
    6    2   24 1     
    7    2   25 1     
    8    3   20 1     
    9    3    4 1     
   10    4    5 2     
   11    4   26 1     
   12    5    6 1     
   13    5   19 1     
   14    6    7 am    
   15    6   27 1     
   16    7    8 2     
   17    7    9 am    
   18    9   10 1     
   19    9   28 1     
   20   10   18 1     
   21   10   11 1     
   22   10   29 1     
   23   11   12 1     
   24   11   30 1     
   25   11   31 1     
   26   12   13 1     
   27   12   32 1     
   28   12   33 1     
   29   13   14 1     
   30   13   17 1     
   31   14   16 1     
   32   14   15 1     
   33   14   34 1     
   34   15   16 1     
   35   15   35 1     
   36   15   36 1     
   37   16   37 1     
   38   16   38 1     
   39   17   18 1     
   40   17   39 1     
   41   17   40 1     
   42   18   41 1     
   43   18   42 1     
   44   19   20 2     
   45   19   43 1     
   46    8   44 1     
   47    8   45 1     
   48   13   46 1     
   49   20   47 1     
@<TRIPOS>SUBSTRUCTURE
      1 S1             1
@<TRIPOS>SET
LONE_PAIRS      STATIC     ATOMS    <user>   **** ""
4 44 45 46 47
DONOR_HYDROGENS      STATIC     ATOMS    <user>   **** ""
2 27 28
ATOM$BLUE        STATIC     ATOMS    COLORGROUP SYSTEM
4 44 45 46 47
ATOM$RED        STATIC     ATOMS    COLORGROUP SYSTEM
2 27 28
