AV-unprocessed.smi:2741|AV-procd|sdf|10558|dock3
  -GOLD-   2272015 13D 1   1.00000     0.00000
 Structure written by MMmdl.
 39 40  0  0  0  0  0  0  0  0  1 V2000
  146.0853  134.6909  155.1959 O   0  0  0  0  0  0  0  0  0  0  0  0
  147.0895  134.8630  154.5037 C   0  0  0  0  0  0  0  0  0  0  0  0
  148.4914  134.8257  155.1283 C   0  0  0  0  0  0  0  0  0  0  0  0
  149.2187  136.1001  155.0030 N   0  0  0  0  0  0  0  0  0  0  0  0
  148.4503  137.2809  154.9882 C   0  0  0  0  0  0  0  0  0  0  0  0
  148.9935  138.5073  154.8657 C   0  0  0  0  0  0  0  0  0  0  0  0
  148.1413  139.7664  154.9045 C   0  0  0  0  0  0  0  0  0  0  0  0
  147.2316  139.7615  153.9298 F   0  0  0  0  0  0  0  0  0  0  0  0
  147.5010  139.8443  156.0701 F   0  0  0  0  0  0  0  0  0  0  0  0
  148.8929  140.8600  154.7702 F   0  0  0  0  0  0  0  0  0  0  0  0
  150.4397  138.5670  154.7816 C   0  0  0  0  0  0  0  0  0  0  0  0
  151.1896  137.4477  154.8003 C   0  0  0  0  0  0  0  0  0  0  0  0
  150.5822  136.1195  154.9088 C   0  0  0  0  0  0  0  0  0  0  0  0
  151.2565  135.0891  154.9174 O   0  0  0  0  0  0  0  0  0  0  0  0
  147.0427  135.0681  153.1789 N   0  0  0  0  0  0  0  0  0  0  0  0
  145.8238  135.1226  152.3788 C   0  0  0  0  0  0  0  0  0  0  0  0
  145.4300  133.7379  151.8283 C   0  0  2  0  0  0  0  0  0  0  0  0
  146.3277  133.2366  150.6860 C   0  0  0  0  0  0  0  0  0  0  0  0
  145.4325  132.2942  149.8869 C   0  0  0  0  0  0  0  0  0  0  0  0
  144.0807  133.0061  149.9008 C   0  0  1  0  0  0  0  0  0  0  0  0
  143.0108  132.1156  149.6641 O   0  0  0  0  0  0  0  0  0  0  0  0
  143.9903  133.6778  151.2797 C   0  0  0  0  0  0  0  0  0  0  0  0
  148.3860  134.5445  156.1770 H   0  0  0  0  0  0  0  0  0  0  0  0
  149.0713  134.0190  154.6752 H   0  0  0  0  0  0  0  0  0  0  0  0
  147.3849  137.1257  155.0786 H   0  0  0  0  0  0  0  0  0  0  0  0
  150.9313  139.5249  154.6973 H   0  0  0  0  0  0  0  0  0  0  0  0
  152.2645  137.5296  154.7328 H   0  0  0  0  0  0  0  0  0  0  0  0
  147.9156  135.1938  152.6872 H   0  0  0  0  0  0  0  0  0  0  0  0
  145.0078  135.5425  152.9696 H   0  0  0  0  0  0  0  0  0  0  0  0
  145.9945  135.8162  151.5550 H   0  0  0  0  0  0  0  0  0  0  0  0
  145.4953  133.0104  152.6390 H   0  0  0  0  0  0  0  0  0  0  0  0
  146.6337  134.0697  150.0517 H   0  0  0  0  0  0  0  0  0  0  0  0
  147.2317  132.7464  151.0490 H   0  0  0  0  0  0  0  0  0  0  0  0
  145.8038  132.1105  148.8782 H   0  0  0  0  0  0  0  0  0  0  0  0
  145.3631  131.3337  150.4005 H   0  0  0  0  0  0  0  0  0  0  0  0
  144.0756  133.7749  149.1266 H   0  0  0  0  0  0  0  0  0  0  0  0
  142.1981  132.5819  149.7878 H   0  0  0  0  0  0  0  0  0  0  0  0
  143.3660  133.0995  151.9624 H   0  0  0  0  0  0  0  0  0  0  0  0
  143.5372  134.6662  151.1933 H   0  0  0  0  0  0  0  0  0  0  0  0
  1  2  2  0  0  0  0
  2  3  1  0  0  0  0
  2 15  1  0  0  0  0
  3  4  1  0  0  0  0
  3 23  1  0  0  0  0
  3 24  1  0  0  0  0
  4 13  1  0  0  0  0
  4  5  1  0  0  0  0
  5  6  2  0  0  0  0
  5 25  1  0  0  0  0
  6  7  1  0  0  0  0
  6 11  1  0  0  0  0
  7  8  1  0  0  0  0
  7  9  1  0  0  0  0
  7 10  1  0  0  0  0
 11 12  2  0  0  0  0
 11 26  1  0  0  0  0
 12 13  1  0  0  0  0
 12 27  1  0  0  0  0
 13 14  2  0  0  0  0
 15 16  1  0  0  0  0
 15 28  1  0  0  0  0
 16 17  1  0  0  0  0
 16 29  1  0  0  0  0
 16 30  1  0  0  0  0
 17 22  1  0  0  0  0
 17 18  1  0  0  0  0
 17 31  1  0  0  0  0
 18 19  1  0  0  0  0
 18 32  1  0  0  0  0
 18 33  1  0  0  0  0
 19 20  1  0  0  0  0
 19 34  1  0  0  0  0
 19 35  1  0  0  0  0
 20 21  1  0  0  0  0
 20 22  1  0  0  0  0
 20 36  1  0  0  0  0
 21 37  1  0  0  0  0
 22 38  1  0  0  0  0
 22 39  1  0  0  0  0
M  END
> <s_m_source_file>
AV-unprocessed.smi

> <i_m_source_file_index>
2741

> <i_lp_mmshare_version>
43012

> <i_f3d_flags>
0

> <s_epik_input>
W09IXVtDQEBIXShbQ0gyXTEpW0NIMl1bQ0gyXVtDQEhdMVtDSDJdW05IXUMoPU8pW0NIMl1uMltjSF1jKEMoRikoRilGKVtjSF1bY0hdYzI9Tw==

> <s_epik_cmdline>
J2VwaWtfcHl0aG9uJywgJy1waCcsICc3LjAnLCAnLXRuJywgJzgnLCAnLW1hJywgJzIwMCcsICctbWV0YWxfYmluZGluZycsICctaW1hZScsICc8aW5maWxlLm1hZT4nLCAnLW9tYWUnLCAnPG91dGZpbGUubWFlPic=

> <r_lp_tautomer_probability>
1

> <r_epik_Ionization_Penalty>
1.17551e-06

> <r_epik_Ionization_Penalty_Charging>
1.78841e-08

> <r_epik_Ionization_Penalty_Neutral>
1.15762e-06

> <r_epik_State_Penalty>
-0

> <r_epik_Charging_Adjusted_Penalty>
1.78841e-08

> <i_epik_Tot_Q>
0

> <i_epik_Tot_abs_Q>
0

> <r_epik_Metal_State_Penalty>
-0

> <b_epik_Metal_Only>
0

> <s_lp_Force_Field>
OPLS_2005

> <r_lp_Energy>
33.5858

> <b_lp_Chiralities_Consistent>
1

> <s_lp_Variant>
AV-unprocessed.smi:2741-1

> <Gold.Version>
5.8.1

> <Gold.Id.Protein>
6NUR|6NUR_protein|mol2

> <Gold.PLP.Fitness>
45.4981

> <Gold.PLP.PLP>
-36.7928

> <Gold.PLP.part.hbond>
-4.3501

> <Gold.PLP.part.metal>
0.0000

> <Gold.PLP.part.buried>
-2.6714

> <Gold.PLP.part.nonpolar>
-30.0917

> <Gold.PLP.part.repulsive>
0.1711

> <Gold.PLP.ligand.clash>
0.0000

> <Gold.PLP.ligand.torsion>
0.6876

> <Gold.PLP.Chemscore.Hbond>
3.3408

> <Gold.PLP.Chemscore.CHOScore>
0.0000

> <Gold.PLP.Chemscore.Metal>
0.0000

> <Gold.Chemscore.Hbonds>
donor molecule, donor type, donor heavy atom, donor atom, acceptor molecule, acceptor atom, score
      L1  H    15    28       P1  7948  0.99
      L1  H    21    37       P1 10186  0.59
      P1  H 10752 10765       L1    14  0.83
      P1  H 10785 10796       L1    21  0.62

> <Gold.PLP.Chemscore.Internal.Correction>
0.0582

> <Gold.Rescore>
     Score         DG    S(hbond)    S(metal)    S(lipo)     H(rot)  DE(clash)    DE(int)     intcor
     17.48     -18.21       3.20        0.00      71.63       2.48       0.08       0.65       ----

> <Gold.Chemscore.Fitness>
17.4796

> <Gold.Chemscore.DG>
-18.2130

> <Gold.Chemscore.ZeroCoef>
-5.4800

> <Gold.Chemscore.Hbond>
3.2046

> <Gold.Chemscore.Metal>
0.0000

> <Gold.Chemscore.Lipo>
71.6271

> <Gold.Chemscore.Internal_Hbond>
0.0000

> <Gold.Chemscore.DEClash>
0.0811

> <Gold.Chemscore.DEInternal>
0.6524

> <Gold.Chemscore.Rot>
2.4807

> <Gold.Chemscore.Internal.Correction>
   9.000000E+99

> <Gold.Chemscore.Hbonds>
donor molecule, donor type, donor heavy atom, donor atom, acceptor molecule, acceptor atom, score
      L1  H    15    28       P1  7948  0.93
      L1  H    21    37       P1 10186  0.55
      P1  H 10752 10765       L1    14  0.57
      P1  H 10785 10796       L1    21  0.60

> <Gold.Chemscore.Hbond.Weighted>
-10.7033

> <Gold.Chemscore.Metal.Weighted>
-0.0000

> <Gold.Chemscore.Lipo.Weighted>
-8.3804

> <Gold.Chemscore.Internal_Hbond.Weighted>
0.0000

> <Gold.Chemscore.DEClash.Weighted>
0.0811

> <Gold.Chemscore.DEInternal.Weighted>
0.6524

> <Gold.Chemscore.Rot.Weighted>
6.3507

> <Gold.Chemscore.Internal.Correction.Weighted>
   9.000000E+99

> <Gold.Protein.RotatedTorsions>
[ 6907 6896 6895 6894 ] final  133.80 input  -60.11 | X-H torsion
[ 7974 7965 7964 7962 ] final -159.42 input  175.53 | X-H torsion
[ 8008 7997 7996 7995 ] final  -43.97 input   59.86 | X-H torsion
[ 10167 10162 10161 10158 ] final -143.32 input  -65.29 | X-H torsion
[ 10718 10713 10712 10709 ] final  -21.44 input   66.30 | X-H torsion
[ 10763 10752 10751 10750 ] final -172.89 input  -60.55 | X-H torsion
[ 11005 11000 10999 10996 ] final  140.96 input  -57.11 | X-H torsion

> <Gold.Protein.ActiveResidues>
 VAL166  LYS551  ARG553  GLY616  TRP617  ASP618  TYR619  PRO620  LYS621  CYS622 
 ASP623  PHE694  ASN695  SER759  ASP760  ASP761  ALA762  ILE779  LEU786  VAL792 
 PHE793  MET794  SER795  GLU796  ALA797  LYS798  CYS799  TRP800  GLU811  SER814 

> <Gold.Protein.RotatedAtoms>
  152.3181  133.5824  159.5725 H   0  0  0  0  0  0  0  0  0  0  0  0  # atno 6907 bound_to 6896
  150.7357  134.0052  159.3660 H   0  0  0  0  0  0  0  0  0  0  0  0  # atno 6908 bound_to 6896
  151.7939  135.0728  160.0442 H   0  0  0  0  0  0  0  0  0  0  0  0  # atno 6909 bound_to 6896
  144.7466  140.3687  143.6080 H   0  0  0  0  0  0  0  0  0  0  0  0  # atno 7974 bound_to 7965
  154.3997  140.1434  156.3606 H   0  0  0  0  0  0  0  0  0  0  0  0  # atno 8008 bound_to 7997
  155.8184  140.3470  155.5478 H   0  0  0  0  0  0  0  0  0  0  0  0  # atno 8009 bound_to 7997
  155.8313  140.0912  157.1781 H   0  0  0  0  0  0  0  0  0  0  0  0  # atno 8010 bound_to 7997
  139.8005  143.7841  152.2657 H   0  0  0  0  0  0  0  0  0  0  0  0  # atno 10167 bound_to 10162
  156.5181  130.4626  149.6612 H   0  0  0  0  0  0  0  0  0  0  0  0  # atno 10718 bound_to 10713
  154.6142  135.2868  155.0399 H   0  0  0  0  0  0  0  0  0  0  0  0  # atno 10763 bound_to 10752
  154.1617  135.6487  153.4991 H   0  0  0  0  0  0  0  0  0  0  0  0  # atno 10764 bound_to 10752
  153.0208  135.5380  154.6907 H   0  0  0  0  0  0  0  0  0  0  0  0  # atno 10765 bound_to 10752
  140.0366  134.9326  157.0764 H   0  0  0  0  0  0  0  0  0  0  0  0  # atno 11005 bound_to 11000
  145.7101  139.1682  143.2544 LP  0  0  0  0  0  0  0  0  0  0  0  0  # atno 17320 bound_to 7965
  146.1353  140.7131  142.9392 LP  0  0  0  0  0  0  0  0  0  0  0  0  # atno 17321 bound_to 7965
  139.7959  144.7393  150.9891 LP  0  0  0  0  0  0  0  0  0  0  0  0  # atno 17342 bound_to 10162
  140.7820  143.4394  151.0574 LP  0  0  0  0  0  0  0  0  0  0  0  0  # atno 17343 bound_to 10162
  156.3176  130.7263  151.2168 LP  0  0  0  0  0  0  0  0  0  0  0  0  # atno 17370 bound_to 10713
  157.7441  131.0464  150.4893 LP  0  0  0  0  0  0  0  0  0  0  0  0  # atno 17371 bound_to 10713
  140.4138  134.1953  155.7163 LP  0  0  0  0  0  0  0  0  0  0  0  0  # atno 17394 bound_to 11000
  141.1860  133.8310  157.1082 LP  0  0  0  0  0  0  0  0  0  0  0  0  # atno 17395 bound_to 11000

$$$$
