#       Name:                AV-unprocessed.smi:1777
#       Creating user name   scv26
#       Creation time:       Fri Mar 27 08:41:49 2020


#       File generated by GOLD software.
#

@<TRIPOS>MOLECULE
AV-unprocessed.smi:1777
    42    43     1
SMALL
NO_CHARGES


@<TRIPOS>ATOM
      1 ****        -0.1765   1.6514   1.0027 O.2            1 S1                 0.0000
      2 ****        -0.7199   0.5670   1.2121 C.2            1 S1                 0.0000
      3 ****        -0.0478  -0.5841   1.3578 N.am           1 S1                 0.0000
      4 ****         1.4062  -0.7349   1.3100 C.3            1 S1                 0.0000
      5 ****         1.9160  -1.3410  -0.0215 C.3            1 S1                 0.0000
      6 ****         1.5282  -2.7036  -0.0214 O.3            1 S1                 0.0000
      7 ****         1.3342  -0.6444  -1.2788 C.3            1 S1                 0.0000
      8 ****         1.9511  -1.1573  -2.5929 C.3            1 S1                 0.0000
      9 ****         3.4822  -1.0566  -2.5723 C.3            1 S1                 0.0000
     10 ****         4.0629  -1.8105  -1.3686 C.3            1 S1                 0.0000
     11 ****         3.4631  -1.2971  -0.0477 C.3            1 S1                 0.0000
     12 ****        -2.0469   0.3703   1.2980 N.am           1 S1                 0.0000
     13 ****        -3.0882   1.3353   1.2263 C.ar           1 S1                 0.0000
     14 ****        -4.3773   0.8838   0.8658 C.ar           1 S1                 0.0000
     15 ****        -5.4435   1.8040   0.8000 C.ar           1 S1                 0.0000
     16 ****        -5.2279   3.1049   1.0912 N.pl3          1 S1                 1.0000
     17 ****        -4.0178   3.5808   1.4549 C.ar           1 S1                 0.0000
     18 ****        -2.9138   2.7080   1.5380 C.ar           1 S1                 0.0000
     19 ****        -0.5780  -1.4294   1.5107 H              1 S1                 0.0000
     20 ****         1.8840   0.2317   1.4795 H              1 S1                 0.0000
     21 ****         1.7116  -1.3600   2.1501 H              1 S1                 0.0000
     22 ****         1.8610  -3.1084  -0.8079 H              1 S1                 0.0000
     23 ****         0.2522  -0.7715  -1.3244 H              1 S1                 0.0000
     24 ****         1.5113   0.4293  -1.2053 H              1 S1                 0.0000
     25 ****         1.6551  -2.1936  -2.7604 H              1 S1                 0.0000
     26 ****         1.5549  -0.5868  -3.4334 H              1 S1                 0.0000
     27 ****         3.8948  -1.4580  -3.4983 H              1 S1                 0.0000
     28 ****         3.7806  -0.0084  -2.5284 H              1 S1                 0.0000
     29 ****         3.8693  -2.8785  -1.4750 H              1 S1                 0.0000
     30 ****         5.1471  -1.6971  -1.3495 H              1 S1                 0.0000
     31 ****         3.7943  -0.2684   0.1018 H              1 S1                 0.0000
     32 ****         3.8724  -1.8674   0.7875 H              1 S1                 0.0000
     33 ****        -2.3481  -0.5903   1.3739 H              1 S1                 0.0000
     34 ****        -4.5501  -0.1576   0.6347 H              1 S1                 0.0000
     35 ****        -6.4549   1.5406   0.5270 H              1 S1                 0.0000
     36 ****        -3.9701   4.6376   1.6744 H              1 S1                 0.0000
     37 ****        -1.9604   3.1054   1.8510 H              1 S1                 0.0000
     38 ****        -6.0130   3.7547   1.0396 H              1 S1                 0.0000
     39 ****         0.8196   1.7063   0.9327 LP             1 S1                 0.0000
     40 ****        -0.7310   2.4775   0.9025 LP             1 S1                 0.0000
     41 ****         0.5307  -2.7709  -0.0030 LP             1 S1                 0.0000
     42 ****         1.9081  -3.1628   0.7816 LP             1 S1                 0.0000
@<TRIPOS>BOND
    1    1    2 2     
    2    2    3 am    
    3    2   12 am    
    4    3    4 1     
    5    3   19 1     
    6    4    5 1     
    7    4   20 1     
    8    4   21 1     
    9    5   11 1     
   10    5    6 1     
   11    5    7 1     
   12    6   22 1     
   13    7    8 1     
   14    7   23 1     
   15    7   24 1     
   16    8    9 1     
   17    8   25 1     
   18    8   26 1     
   19    9   10 1     
   20    9   27 1     
   21    9   28 1     
   22   10   11 1     
   23   10   29 1     
   24   10   30 1     
   25   11   31 1     
   26   11   32 1     
   27   12   13 1     
   28   12   33 1     
   29   13   18 ar    
   30   13   14 ar    
   31   14   15 ar    
   32   14   34 1     
   33   15   16 ar    
   34   15   35 1     
   35   16   17 ar    
   36   16   38 1     
   37   17   18 ar    
   38   17   36 1     
   39   18   37 1     
   40    1   39 1     
   41    1   40 1     
   42    6   41 1     
   43    6   42 1     
@<TRIPOS>SUBSTRUCTURE
      1 S1             1
@<TRIPOS>SET
LONE_PAIRS      STATIC     ATOMS    <user>   **** ""
4 39 40 41 42
DONOR_HYDROGENS      STATIC     ATOMS    <user>   **** ""
4 19 22 33 38
ATOM$BLUE        STATIC     ATOMS    COLORGROUP SYSTEM
4 39 40 41 42
ATOM$RED        STATIC     ATOMS    COLORGROUP SYSTEM
4 19 22 33 38
