AV-unprocessed.smi:2124|AV-procd|sdf|8665|dock1
  -GOLD-   2272011413D 1   1.00000     0.00000
 Structure written by MMmdl.
 47 49  0  0  0  0  0  0  0  0  1 V2000
  147.7536  134.6832  154.3889 C   0  0  0  0  0  0  0  0  0  0  0  0
  148.7883  135.3753  155.2492 C   0  0  0  0  0  0  0  0  0  0  0  0
  149.7352  136.0787  154.5231 N   0  0  0  0  0  0  0  0  0  0  0  0
  150.7282  136.7400  155.2239 C   0  0  0  0  0  0  0  0  0  0  0  0
  151.7282  137.4815  154.3535 C   0  0  0  0  0  0  0  0  0  0  0  0
  150.7753  136.7022  156.5798 C   0  0  0  0  0  0  0  0  0  0  0  0
  151.8615  137.4104  157.3874 C   0  0  0  0  0  0  0  0  0  0  0  0
  152.1448  138.8598  156.9857 C   0  0  0  0  0  0  0  0  0  0  0  0
  153.1647  139.1398  156.3556 O   0  0  0  0  0  0  0  0  0  0  0  0
  151.2285  139.7673  157.3580 N   0  0  0  0  0  0  0  0  0  0  0  0
  151.2695  141.2020  157.0786 C   0  0  1  0  0  0  0  0  0  0  0  0
  150.2207  141.5191  156.0017 C   0  0  0  0  0  0  0  0  0  0  0  0
  151.0372  141.9960  158.3874 C   0  0  1  0  0  0  0  0  0  0  0  0
  152.2496  142.0456  159.3468 C   0  0  0  0  0  0  0  0  0  0  0  0
  152.3608  143.5424  159.6905 C   0  0  1  0  0  0  0  0  0  0  0  0
  152.9388  144.2936  158.4773 C   0  0  0  0  0  0  0  0  0  0  0  0
  151.7641  144.2812  157.4827 C   0  0  0  0  0  0  0  0  0  0  0  0
  150.6769  143.4959  158.2453 C   0  0  2  0  0  0  0  0  0  0  0  0
  150.9034  143.9882  159.6716 C   0  0  0  0  0  0  0  0  0  0  0  0
  149.7335  135.9337  157.3016 C   0  0  0  0  0  0  0  0  0  0  0  0
  149.7242  135.8566  158.5295 O   0  0  0  0  0  0  0  0  0  0  0  0
  148.7474  135.2819  156.5435 N   0  0  0  0  0  0  0  0  0  0  0  0
  149.7408  136.1278  153.5145 H   0  0  0  0  0  0  0  0  0  0  0  0
  146.9426  134.2845  154.9996 H   0  0  0  0  0  0  0  0  0  0  0  0
  148.2088  133.8563  153.8432 H   0  0  0  0  0  0  0  0  0  0  0  0
  147.3248  135.3805  153.6683 H   0  0  0  0  0  0  0  0  0  0  0  0
  151.7169  138.5472  154.5825 H   0  0  0  0  0  0  0  0  0  0  0  0
  151.5016  137.3657  153.2929 H   0  0  0  0  0  0  0  0  0  0  0  0
  152.7364  137.1023  154.5227 H   0  0  0  0  0  0  0  0  0  0  0  0
  152.7999  136.8569  157.3461 H   0  0  0  0  0  0  0  0  0  0  0  0
  151.5732  137.3864  158.4389 H   0  0  0  0  0  0  0  0  0  0  0  0
  150.4277  139.4352  157.8755 H   0  0  0  0  0  0  0  0  0  0  0  0
  152.2468  141.4605  156.6703 H   0  0  0  0  0  0  0  0  0  0  0  0
  150.2578  142.5679  155.7074 H   0  0  0  0  0  0  0  0  0  0  0  0
  149.2107  141.3069  156.3543 H   0  0  0  0  0  0  0  0  0  0  0  0
  150.3920  140.9259  155.1027 H   0  0  0  0  0  0  0  0  0  0  0  0
  150.2119  141.5173  158.9180 H   0  0  0  0  0  0  0  0  0  0  0  0
  152.0556  141.4497  160.2392 H   0  0  0  0  0  0  0  0  0  0  0  0
  153.1698  141.6726  158.8959 H   0  0  0  0  0  0  0  0  0  0  0  0
  152.8939  143.7392  160.6209 H   0  0  0  0  0  0  0  0  0  0  0  0
  153.2055  145.3174  158.7427 H   0  0  0  0  0  0  0  0  0  0  0  0
  153.8296  143.8091  158.0757 H   0  0  0  0  0  0  0  0  0  0  0  0
  151.4277  145.3000  157.2860 H   0  0  0  0  0  0  0  0  0  0  0  0
  152.0276  143.8395  156.5226 H   0  0  0  0  0  0  0  0  0  0  0  0
  149.6689  143.6691  157.8675 H   0  0  0  0  0  0  0  0  0  0  0  0
  150.2853  143.4780  160.4127 H   0  0  0  0  0  0  0  0  0  0  0  0
  150.7787  145.0667  159.7844 H   0  0  0  0  0  0  0  0  0  0  0  0
  1 24  1  0  0  0  0
  1 25  1  0  0  0  0
  1 26  1  0  0  0  0
  1  2  1  0  0  0  0
  2  3  1  0  0  0  0
  2 22  2  0  0  0  0
  3  4  1  0  0  0  0
  3 23  1  0  0  0  0
  4  6  2  0  0  0  0
  4  5  1  0  0  0  0
  5 27  1  0  0  0  0
  5 28  1  0  0  0  0
  5 29  1  0  0  0  0
  6 20  1  0  0  0  0
  6  7  1  0  0  0  0
  7  8  1  0  0  0  0
  7 30  1  0  0  0  0
  7 31  1  0  0  0  0
  8  9  2  0  0  0  0
  8 10  1  0  0  0  0
 10 11  1  0  0  0  0
 10 32  1  0  0  0  0
 11 12  1  0  0  0  0
 11 13  1  0  0  0  0
 11 33  1  0  0  0  0
 12 34  1  0  0  0  0
 12 35  1  0  0  0  0
 12 36  1  0  0  0  0
 13 18  1  0  0  0  0
 13 14  1  0  0  0  0
 13 37  1  0  0  0  0
 14 15  1  0  0  0  0
 14 38  1  0  0  0  0
 14 39  1  0  0  0  0
 15 19  1  0  0  0  0
 15 16  1  0  0  0  0
 15 40  1  0  0  0  0
 16 17  1  0  0  0  0
 16 41  1  0  0  0  0
 16 42  1  0  0  0  0
 17 18  1  0  0  0  0
 17 43  1  0  0  0  0
 17 44  1  0  0  0  0
 18 19  1  0  0  0  0
 18 45  1  0  0  0  0
 19 46  1  0  0  0  0
 19 47  1  0  0  0  0
 20 21  2  0  0  0  0
 20 22  1  0  0  0  0
M  END
> <s_m_source_file>
AV-unprocessed.smi

> <i_m_source_file_index>
2124

> <i_lp_mmshare_version>
43012

> <i_f3d_flags>
0

> <s_epik_input>
W0NIM11jMW5jKFtDSDNdKWMoYyg9TylbbkhdMSlbQ0gyXUMoPU8pW05IXVtDQEhdKFtDSDNdKVtDQEhdKFtDSDJdW0NASF0yMylbQ0BIXShbQ0gyXTMpW0NIMl1bQ0gyXTI=

> <s_epik_cmdline>
J2VwaWtfcHl0aG9uJywgJy1waCcsICc3LjAnLCAnLXRuJywgJzgnLCAnLW1hJywgJzIwMCcsICctbWV0YWxfYmluZGluZycsICctaW1hZScsICc8aW5maWxlLm1hZT4nLCAnLW9tYWUnLCAnPG91dGZpbGUubWFlPic=

> <r_lp_tautomer_probability>
0.156392

> <r_epik_Ionization_Penalty>
0.0139374

> <r_epik_Ionization_Penalty_Charging>
0.0138122

> <r_epik_Ionization_Penalty_Neutral>
0.000125146

> <r_epik_State_Penalty>
1.15342

> <r_epik_Charging_Adjusted_Penalty>
1.16723

> <i_epik_Tot_Q>
0

> <i_epik_Tot_abs_Q>
0

> <r_epik_Metal_State_Penalty>
1.3173

> <b_epik_Metal_Only>
0

> <s_lp_Force_Field>
OPLS_2005

> <r_lp_Energy>
55.9992

> <b_lp_Chiralities_Consistent>
1

> <s_lp_Variant>
AV-unprocessed.smi:2124-16

> <Gold.Version>
5.8.1

> <Gold.Id.Protein>
6NUR|6NUR_protein|mol2

> <Gold.PLP.Fitness>
45.6992

> <Gold.PLP.PLP>
-38.0656

> <Gold.PLP.part.hbond>
-2.9403

> <Gold.PLP.part.metal>
0.0000

> <Gold.PLP.part.buried>
-6.1839

> <Gold.PLP.part.nonpolar>
-29.5745

> <Gold.PLP.part.repulsive>
0.0706

> <Gold.PLP.ligand.clash>
0.0000

> <Gold.PLP.ligand.torsion>
0.7007

> <Gold.PLP.Chemscore.Hbond>
2.9920

> <Gold.PLP.Chemscore.CHOScore>
0.0000

> <Gold.PLP.Chemscore.Metal>
0.0000

> <Gold.Chemscore.Hbonds>
donor molecule, donor type, donor heavy atom, donor atom, acceptor molecule, acceptor atom, score
      L1  H     3    23       P1  7948  0.95
      P1  H  6896  6907       L1    21  1.00
      P1  H  7997  8009       L1     9  1.00

> <Gold.PLP.Chemscore.Internal.Correction>
0.0590

> <Gold.Rescore>
     Score         DG    S(hbond)    S(metal)    S(lipo)     H(rot)  DE(clash)    DE(int)     intcor
     22.61     -24.86       2.98        0.00     116.81       1.65       0.22       2.03       ----

> <Gold.Chemscore.Fitness>
22.6127

> <Gold.Chemscore.DG>
-24.8556

> <Gold.Chemscore.ZeroCoef>
-5.4800

> <Gold.Chemscore.Hbond>
2.9764

> <Gold.Chemscore.Metal>
0.0000

> <Gold.Chemscore.Lipo>
116.8113

> <Gold.Chemscore.Internal_Hbond>
0.0000

> <Gold.Chemscore.DEClash>
0.2154

> <Gold.Chemscore.DEInternal>
2.0275

> <Gold.Chemscore.Rot>
1.6534

> <Gold.Chemscore.Internal.Correction>
   9.000000E+99

> <Gold.Chemscore.Hbonds>
donor molecule, donor type, donor heavy atom, donor atom, acceptor molecule, acceptor atom, score
      L1  H     3    23       P1  7948  0.21
      P1  H  6896  6907       L1    21  0.96
      P1  H  7997  8009       L1     9  0.93

> <Gold.Chemscore.Hbond.Weighted>
-9.9412

> <Gold.Chemscore.Metal.Weighted>
-0.0000

> <Gold.Chemscore.Lipo.Weighted>
-13.6669

> <Gold.Chemscore.Internal_Hbond.Weighted>
0.0000

> <Gold.Chemscore.DEClash.Weighted>
0.2154

> <Gold.Chemscore.DEInternal.Weighted>
2.0275

> <Gold.Chemscore.Rot.Weighted>
4.2326

> <Gold.Chemscore.Internal.Correction.Weighted>
   9.000000E+99

> <Gold.Protein.RotatedTorsions>
[ 6907 6896 6895 6894 ] final  -75.05 input  -60.11 | X-H torsion
[ 7974 7965 7964 7962 ] final  145.94 input  175.53 | X-H torsion
[ 8008 7997 7996 7995 ] final -175.31 input   59.86 | X-H torsion
[ 10167 10162 10161 10158 ] final  -84.42 input  -65.29 | X-H torsion
[ 10718 10713 10712 10709 ] final -125.93 input   66.30 | X-H torsion
[ 10763 10752 10751 10750 ] final  142.69 input  -60.55 | X-H torsion
[ 11005 11000 10999 10996 ] final  -36.58 input  -57.11 | X-H torsion

> <Gold.Protein.ActiveResidues>
 VAL166  LYS551  ARG553  GLY616  TRP617  ASP618  TYR619  PRO620  LYS621  CYS622 
 ASP623  PHE694  ASN695  SER759  ASP760  ASP761  ALA762  ILE779  LEU786  VAL792 
 PHE793  MET794  SER795  GLU796  ALA797  LYS798  CYS799  TRP800  GLU811  SER814 

> <Gold.Protein.RotatedAtoms>
  150.7072  134.4778  159.5455 H   0  0  0  0  0  0  0  0  0  0  0  0  # atno 6907 bound_to 6896
  152.2422  134.8214  160.0468 H   0  0  0  0  0  0  0  0  0  0  0  0  # atno 6908 bound_to 6896
  151.8992  133.3499  159.3862 H   0  0  0  0  0  0  0  0  0  0  0  0  # atno 6909 bound_to 6896
  144.8712  139.5844  143.5886 H   0  0  0  0  0  0  0  0  0  0  0  0  # atno 7974 bound_to 7965
  155.9810  140.1181  157.0727 H   0  0  0  0  0  0  0  0  0  0  0  0  # atno 8008 bound_to 7997
  154.4183  140.1144  156.5503 H   0  0  0  0  0  0  0  0  0  0  0  0  # atno 8009 bound_to 7997
  155.6471  140.3473  155.4737 H   0  0  0  0  0  0  0  0  0  0  0  0  # atno 8010 bound_to 7997
  140.4134  143.2613  151.8988 H   0  0  0  0  0  0  0  0  0  0  0  0  # atno 10167 bound_to 10162
  156.1719  130.6673  151.0191 H   0  0  0  0  0  0  0  0  0  0  0  0  # atno 10718 bound_to 10713
  153.9600  135.2961  155.3434 H   0  0  0  0  0  0  0  0  0  0  0  0  # atno 10763 bound_to 10752
  154.7380  135.5038  153.9077 H   0  0  0  0  0  0  0  0  0  0  0  0  # atno 10764 bound_to 10752
  153.0951  135.6719  153.9889 H   0  0  0  0  0  0  0  0  0  0  0  0  # atno 10765 bound_to 10752
  140.9886  133.7017  156.1809 H   0  0  0  0  0  0  0  0  0  0  0  0  # atno 11005 bound_to 11000
  146.2931  139.7197  142.9146 LP  0  0  0  0  0  0  0  0  0  0  0  0  # atno 17320 bound_to 7965
  145.4128  141.0398  143.3007 LP  0  0  0  0  0  0  0  0  0  0  0  0  # atno 17321 bound_to 7965
  139.4782  144.5513  151.8381 LP  0  0  0  0  0  0  0  0  0  0  0  0  # atno 17342 bound_to 10162
  140.4613  144.1717  150.5906 LP  0  0  0  0  0  0  0  0  0  0  0  0  # atno 17343 bound_to 10162
  157.6809  131.0838  150.7373 LP  0  0  0  0  0  0  0  0  0  0  0  0  # atno 17370 bound_to 10713
  156.7431  130.4745  149.5473 LP  0  0  0  0  0  0  0  0  0  0  0  0  # atno 17371 bound_to 10713
  140.7076  134.4496  157.5583 LP  0  0  0  0  0  0  0  0  0  0  0  0  # atno 17394 bound_to 11000
  139.8982  134.8620  156.2013 LP  0  0  0  0  0  0  0  0  0  0  0  0  # atno 17395 bound_to 11000

$$$$
