AV-unprocessed.smi:1626|AV-procd|sdf|6506|dock1
  -GOLD-   22720 7173D 1   1.00000     0.00000
 Structure written by MMmdl.
 48 50  0  0  0  0  0  0  0  0  2 V2000
  152.5061  143.3099  161.6845 C   0  0  0  0  0  0  0  0  0  0  0  0
  152.0595  142.9107  160.2890 C   0  0  0  0  0  0  0  0  0  0  0  0
  152.4390  141.6475  159.7815 C   0  0  0  0  0  0  0  0  0  0  0  0
  152.0422  141.2369  158.4901 C   0  0  0  0  0  0  0  0  0  0  0  0
  152.2956  140.0622  157.8033 N   0  0  0  0  0  0  0  0  0  0  0  0
  151.6594  140.2791  156.6562 C   0  0  0  0  0  0  0  0  0  0  0  0
  151.0356  141.4646  156.5116 N   0  0  0  0  0  0  0  0  0  0  0  0
  150.2935  141.9274  155.3520 C   0  0  0  0  0  0  0  0  0  0  0  0
  149.3357  140.8556  154.7937 C   0  0  2  0  0  0  0  0  0  0  0  0
  150.1178  139.8977  154.1096 O   0  0  0  0  0  0  0  0  0  0  0  0
  148.2714  141.4236  153.8271 C   0  0  0  0  0  0  0  0  0  0  0  0
  147.3945  142.4311  154.4759 N   0  3  2  0  0  0  0  0  0  0  0  0
  146.9067  141.9821  155.8059 C   0  0  0  0  0  0  0  0  0  0  0  0
  146.1194  143.0975  156.5142 C   0  0  0  0  0  0  0  0  0  0  0  0
  144.9525  143.5826  155.6417 C   0  0  1  0  0  0  0  0  0  0  0  0
  144.3103  144.6710  156.2704 O   0  0  0  0  0  0  0  0  0  0  0  0
  145.4759  144.0129  154.2636 C   0  0  0  0  0  0  0  0  0  0  0  0
  146.2724  142.8750  153.6041 C   0  0  0  0  0  0  0  0  0  0  0  0
  151.2514  142.1327  157.7125 C   0  0  0  0  0  0  0  0  0  0  0  0
  150.8656  143.3910  158.2076 C   0  0  0  0  0  0  0  0  0  0  0  0
  151.2710  143.7859  159.4995 C   0  0  0  0  0  0  0  0  0  0  0  0
  150.8500  145.1471  160.0242 C   0  0  0  0  0  0  0  0  0  0  0  0
  153.0448  142.5000  162.1771 H   0  0  0  0  0  0  0  0  0  0  0  0
  151.6461  143.5632  162.3049 H   0  0  0  0  0  0  0  0  0  0  0  0
  153.1683  144.1748  161.6394 H   0  0  0  0  0  0  0  0  0  0  0  0
  153.0384  140.9800  160.3832 H   0  0  0  0  0  0  0  0  0  0  0  0
  151.6555  139.5368  155.8712 H   0  0  0  0  0  0  0  0  0  0  0  0
  149.7370  142.8240  155.6307 H   0  0  0  0  0  0  0  0  0  0  0  0
  151.0123  142.2293  154.5889 H   0  0  0  0  0  0  0  0  0  0  0  0
  148.8605  140.3515  155.6335 H   0  0  0  0  0  0  0  0  0  0  0  0
  149.7447  139.7480  153.2545 H   0  0  0  0  0  0  0  0  0  0  0  0
  148.7324  141.8877  152.9545 H   0  0  0  0  0  0  0  0  0  0  0  0
  147.6768  140.5934  153.4419 H   0  0  0  0  0  0  0  0  0  0  0  0
  146.2820  141.0954  155.6865 H   0  0  0  0  0  0  0  0  0  0  0  0
  147.7529  141.6931  156.4303 H   0  0  0  0  0  0  0  0  0  0  0  0
  145.7469  142.7364  157.4736 H   0  0  0  0  0  0  0  0  0  0  0  0
  146.7899  143.9293  156.7352 H   0  0  0  0  0  0  0  0  0  0  0  0
  144.2246  142.7786  155.5240 H   0  0  0  0  0  0  0  0  0  0  0  0
  143.5619  144.3468  156.7484 H   0  0  0  0  0  0  0  0  0  0  0  0
  144.6455  144.3055  153.6198 H   0  0  0  0  0  0  0  0  0  0  0  0
  146.1151  144.8916  154.3648 H   0  0  0  0  0  0  0  0  0  0  0  0
  146.6474  143.2174  152.6403 H   0  0  0  0  0  0  0  0  0  0  0  0
  145.6132  142.0298  153.3991 H   0  0  0  0  0  0  0  0  0  0  0  0
  150.2599  144.0468  157.6002 H   0  0  0  0  0  0  0  0  0  0  0  0
  150.3001  145.7117  159.2707 H   0  0  0  0  0  0  0  0  0  0  0  0
  151.7223  145.7351  160.3105 H   0  0  0  0  0  0  0  0  0  0  0  0
  150.2050  145.0360  160.8961 H   0  0  0  0  0  0  0  0  0  0  0  0
  147.9725  143.2405  154.6511 H   0  0  0  0  0  0  0  0  0  0  0  0
  1  2  1  0  0  0  0
  1 23  1  0  0  0  0
  1 24  1  0  0  0  0
  1 25  1  0  0  0  0
  2 21  1  0  0  0  0
  2  3  2  0  0  0  0
  3  4  1  0  0  0  0
  3 26  1  0  0  0  0
  4 19  2  0  0  0  0
  4  5  1  0  0  0  0
  5  6  2  0  0  0  0
  6  7  1  0  0  0  0
  6 27  1  0  0  0  0
  7  8  1  0  0  0  0
  7 19  1  0  0  0  0
  8  9  1  0  0  0  0
  8 28  1  0  0  0  0
  8 29  1  0  0  0  0
  9 10  1  0  0  0  0
  9 11  1  0  0  0  0
  9 30  1  0  0  0  0
 10 31  1  0  0  0  0
 11 12  1  0  0  0  0
 11 32  1  0  0  0  0
 11 33  1  0  0  0  0
 12 18  1  0  0  0  0
 12 13  1  0  0  0  0
 12 48  1  0  0  0  0
 13 14  1  0  0  0  0
 13 34  1  0  0  0  0
 13 35  1  0  0  0  0
 14 15  1  0  0  0  0
 14 36  1  0  0  0  0
 14 37  1  0  0  0  0
 15 16  1  0  0  0  0
 15 17  1  0  0  0  0
 15 38  1  0  0  0  0
 16 39  1  0  0  0  0
 17 18  1  0  0  0  0
 17 40  1  0  0  0  0
 17 41  1  0  0  0  0
 18 42  1  0  0  0  0
 18 43  1  0  0  0  0
 19 20  1  0  0  0  0
 20 21  2  0  0  0  0
 20 44  1  0  0  0  0
 21 22  1  0  0  0  0
 22 45  1  0  0  0  0
 22 46  1  0  0  0  0
 22 47  1  0  0  0  0
M  CHG  1  12   1
M  END
> <s_m_source_file>
AV-unprocessed.smi

> <i_m_source_file_index>
1626

> <i_lp_mmshare_version>
43012

> <i_f3d_flags>
0

> <s_epik_input>
W0NIM11jKFtjSF0xKWMoW0NIM10pW2NIXWMoYzEyKW4oW2NIXW4yKVtDSDJdW0NASF0oW09IXSlbQ0gyXU4zW0NIMl1bQ0gyXVtDSF0oW09IXSlbQ0gyXVtDSDJdMw==

> <s_epik_cmdline>
J2VwaWtfcHl0aG9uJywgJy1waCcsICc3LjAnLCAnLXRuJywgJzgnLCAnLW1hJywgJzIwMCcsICctbWV0YWxfYmluZGluZycsICctaW1hZScsICc8aW5maWxlLm1hZT4nLCAnLW9tYWUnLCAnPG91dGZpbGUubWFlPic=

> <r_epik_Ionization_Penalty>
0.106584

> <r_epik_Ionization_Penalty_Charging>
0.0185694

> <r_epik_Ionization_Penalty_Neutral>
0.0880147

> <r_epik_State_Penalty>
0.0908428

> <r_epik_Charging_Adjusted_Penalty>
0.109412

> <i_epik_Tot_Q>
1

> <i_epik_Tot_abs_Q>
1

> <r_epik_Metal_State_Penalty>
0.0153739

> <b_epik_Metal_Only>
0

> <s_lp_Force_Field>
OPLS_2005

> <r_lp_Energy>
21.7695

> <b_lp_Chiralities_Consistent>
1

> <s_lp_Variant>
AV-unprocessed.smi:1626-1

> <Gold.Version>
5.8.1

> <Gold.Id.Protein>
6NUR|6NUR_protein|mol2

> <Gold.PLP.Fitness>
61.2814

> <Gold.PLP.PLP>
-47.2197

> <Gold.PLP.part.hbond>
-4.0000

> <Gold.PLP.part.metal>
0.0000

> <Gold.PLP.part.buried>
-5.9400

> <Gold.PLP.part.nonpolar>
-37.2873

> <Gold.PLP.part.repulsive>
0.1157

> <Gold.PLP.ligand.clash>
0.0000

> <Gold.PLP.ligand.torsion>
0.3423

> <Gold.PLP.Chemscore.Hbond>
4.8960

> <Gold.PLP.Chemscore.CHOScore>
0.0000

> <Gold.PLP.Chemscore.Metal>
0.0000

> <Gold.Chemscore.Hbonds>
donor molecule, donor type, donor heavy atom, donor atom, acceptor molecule, acceptor atom, score
      L1  H    10    31       P1  7957  0.78
      L1  H    12    48       P1  8028  2.00
      P1  H  7989  7998       L1    10  0.75
      P1  H  7997  8008       L1     5  0.08

> <Gold.PLP.Chemscore.Internal.Correction>
0.0582

> <Gold.Rescore>
     Score         DG    S(hbond)    S(metal)    S(lipo)     H(rot)  DE(clash)    DE(int)     intcor
     18.51     -19.71       1.92        0.00     125.17       2.67       0.61       0.60       ----

> <Gold.Chemscore.Fitness>
18.5054

> <Gold.Chemscore.DG>
-19.7113

> <Gold.Chemscore.ZeroCoef>
-5.4800

> <Gold.Chemscore.Hbond>
1.9237

> <Gold.Chemscore.Metal>
0.0000

> <Gold.Chemscore.Lipo>
125.1676

> <Gold.Chemscore.Internal_Hbond>
0.0000

> <Gold.Chemscore.DEClash>
0.6097

> <Gold.Chemscore.DEInternal>
0.5962

> <Gold.Chemscore.Rot>
2.6712

> <Gold.Chemscore.Internal.Correction>
   9.000000E+99

> <Gold.Chemscore.Hbonds>
donor molecule, donor type, donor heavy atom, donor atom, acceptor molecule, acceptor atom, score
      L1  H    10    31       P1  7957  0.77
      L1  H    12    48       P1  8028  0.86
      P1  H  7989  7998       L1    10  0.04

> <Gold.Chemscore.Hbond.Weighted>
-6.4250

> <Gold.Chemscore.Metal.Weighted>
-0.0000

> <Gold.Chemscore.Lipo.Weighted>
-14.6446

> <Gold.Chemscore.Internal_Hbond.Weighted>
0.0000

> <Gold.Chemscore.DEClash.Weighted>
0.6097

> <Gold.Chemscore.DEInternal.Weighted>
0.5962

> <Gold.Chemscore.Rot.Weighted>
6.8383

> <Gold.Chemscore.Internal.Correction.Weighted>
   9.000000E+99

> <Gold.Protein.RotatedTorsions>
[ 6907 6896 6895 6894 ] final  -85.18 input  -60.11 | X-H torsion
[ 7974 7965 7964 7962 ] final  148.21 input  175.53 | X-H torsion
[ 8008 7997 7996 7995 ] final  -62.90 input   59.86 | X-H torsion
[ 10167 10162 10161 10158 ] final   20.85 input  -65.29 | X-H torsion
[ 10718 10713 10712 10709 ] final  143.97 input   66.30 | X-H torsion
[ 10763 10752 10751 10750 ] final  132.51 input  -60.55 | X-H torsion
[ 11005 11000 10999 10996 ] final    7.17 input  -57.11 | X-H torsion

> <Gold.Protein.ActiveResidues>
 VAL166  LYS551  ARG553  GLY616  TRP617  ASP618  TYR619  PRO620  LYS621  CYS622 
 ASP623  PHE694  ASN695  SER759  ASP760  ASP761  ALA762  ILE779  LEU786  VAL792 
 PHE793  MET794  SER795  GLU796  ALA797  LYS798  CYS799  TRP800  GLU811  SER814 

> <Gold.Protein.RotatedAtoms>
  150.6872  134.3245  159.4800 H   0  0  0  0  0  0  0  0  0  0  0  0  # atno 6907 bound_to 6896
  152.1117  134.9267  160.0575 H   0  0  0  0  0  0  0  0  0  0  0  0  # atno 6908 bound_to 6896
  152.0507  133.3983  159.4413 H   0  0  0  0  0  0  0  0  0  0  0  0  # atno 6909 bound_to 6896
  144.8531  139.6125  143.5964 H   0  0  0  0  0  0  0  0  0  0  0  0  # atno 7974 bound_to 7965
  154.4524  140.0986  156.6659 H   0  0  0  0  0  0  0  0  0  0  0  0  # atno 8008 bound_to 7997
  155.5242  140.3479  155.4394 H   0  0  0  0  0  0  0  0  0  0  0  0  # atno 8009 bound_to 7997
  156.0709  140.1349  156.9818 H   0  0  0  0  0  0  0  0  0  0  0  0  # atno 8010 bound_to 7997
  140.5472  143.9573  150.6555 H   0  0  0  0  0  0  0  0  0  0  0  0  # atno 10167 bound_to 10162
  157.3627  131.0967  151.0901 H   0  0  0  0  0  0  0  0  0  0  0  0  # atno 10718 bound_to 10713
  153.7918  135.3154  155.3379 H   0  0  0  0  0  0  0  0  0  0  0  0  # atno 10763 bound_to 10752
  154.8122  135.4659  154.0551 H   0  0  0  0  0  0  0  0  0  0  0  0  # atno 10764 bound_to 10752
  153.1871  135.6903  153.8487 H   0  0  0  0  0  0  0  0  0  0  0  0  # atno 10765 bound_to 10752
  140.5513  134.0281  155.7938 H   0  0  0  0  0  0  0  0  0  0  0  0  # atno 11005 bound_to 11000
  146.2801  139.6855  142.9235 LP  0  0  0  0  0  0  0  0  0  0  0  0  # atno 17320 bound_to 7965
  145.4460  141.0425  143.2831 LP  0  0  0  0  0  0  0  0  0  0  0  0  # atno 17321 bound_to 7965
  140.2989  143.3273  152.0990 LP  0  0  0  0  0  0  0  0  0  0  0  0  # atno 17342 bound_to 10162
  139.5012  144.6709  151.6245 LP  0  0  0  0  0  0  0  0  0  0  0  0  # atno 17343 bound_to 10162
  157.2034  130.6405  149.5747 LP  0  0  0  0  0  0  0  0  0  0  0  0  # atno 17370 bound_to 10713
  155.9740  130.4683  150.6356 LP  0  0  0  0  0  0  0  0  0  0  0  0  # atno 17371 bound_to 10713
  141.1170  133.9524  157.2803 LP  0  0  0  0  0  0  0  0  0  0  0  0  # atno 17394 bound_to 11000
  139.9454  135.0185  156.8836 LP  0  0  0  0  0  0  0  0  0  0  0  0  # atno 17395 bound_to 11000

$$$$
