AV-unprocessed.smi:1360|AV-procd|sdf|5553|dock7
  -GOLD-   22720 5143D 1   1.00000     0.00000
 Structure written by MMmdl.
 36 37  0  0  0  0  0  0  0  0  1 V2000
  152.5879  138.8674  154.9211 C   0  0  0  0  0  0  0  0  0  0  0  0
  151.3884  138.6212  155.8511 C   0  0  2  0  0  0  0  0  0  0  0  0
  150.0608  138.4098  155.0900 C   0  0  0  0  0  0  0  0  0  0  0  0
  149.4550  139.6532  154.6486 N   0  0  0  0  0  0  0  0  0  0  0  0
  148.2330  139.8422  154.0376 C   0  0  0  0  0  0  0  0  0  0  0  0
  148.0970  141.1811  153.8071 C   0  0  0  0  0  0  0  0  0  0  0  0
  149.3060  141.7356  154.3129 C   0  0  0  0  0  0  0  0  0  0  0  0
  150.1175  140.8184  154.8138 N   0  0  0  0  0  0  0  0  0  0  0  0
  151.2633  139.7439  156.7762 N   0  0  0  0  0  0  0  0  0  0  0  0
  152.1979  140.1359  157.6566 C   0  0  0  0  0  0  0  0  0  0  0  0
  153.2835  139.5690  157.7856 O   0  0  0  0  0  0  0  0  0  0  0  0
  151.8549  141.3559  158.5222 C   0  0  1  0  0  0  0  0  0  0  0  0
  153.0296  141.7322  159.4551 C   0  0  0  0  0  0  0  0  0  0  0  0
  152.8206  143.0783  160.1266 C   0  0  0  0  0  0  0  0  0  0  0  0
  151.9131  143.9787  159.7115 C   0  0  0  0  0  0  0  0  0  0  0  0
  150.9968  143.7535  158.5218 C   0  0  0  0  0  0  0  0  0  0  0  0
  151.4486  142.5634  157.6539 C   0  0  0  0  0  0  0  0  0  0  0  0
  152.7771  138.0092  154.2759 H   0  0  0  0  0  0  0  0  0  0  0  0
  153.4983  139.0442  155.4946 H   0  0  0  0  0  0  0  0  0  0  0  0
  152.4225  139.7351  154.2818 H   0  0  0  0  0  0  0  0  0  0  0  0
  151.6064  137.7196  156.4269 H   0  0  0  0  0  0  0  0  0  0  0  0
  150.2184  137.7785  154.2141 H   0  0  0  0  0  0  0  0  0  0  0  0
  149.3436  137.8868  155.7242 H   0  0  0  0  0  0  0  0  0  0  0  0
  147.5682  139.0181  153.8236 H   0  0  0  0  0  0  0  0  0  0  0  0
  147.2619  141.6873  153.3462 H   0  0  0  0  0  0  0  0  0  0  0  0
  149.6162  142.7699  154.3303 H   0  0  0  0  0  0  0  0  0  0  0  0
  150.4009  140.2674  156.7405 H   0  0  0  0  0  0  0  0  0  0  0  0
  150.9981  141.0985  159.1483 H   0  0  0  0  0  0  0  0  0  0  0  0
  153.1436  140.9724  160.2290 H   0  0  0  0  0  0  0  0  0  0  0  0
  153.9738  141.7739  158.9103 H   0  0  0  0  0  0  0  0  0  0  0  0
  153.4547  143.3052  160.9711 H   0  0  0  0  0  0  0  0  0  0  0  0
  151.8036  144.9140  160.2406 H   0  0  0  0  0  0  0  0  0  0  0  0
  149.9892  143.5821  158.9011 H   0  0  0  0  0  0  0  0  0  0  0  0
  150.9590  144.6605  157.9181 H   0  0  0  0  0  0  0  0  0  0  0  0
  152.2963  142.8712  157.0395 H   0  0  0  0  0  0  0  0  0  0  0  0
  150.6503  142.2918  156.9618 H   0  0  0  0  0  0  0  0  0  0  0  0
  1  2  1  0  0  0  0
  1 18  1  0  0  0  0
  1 19  1  0  0  0  0
  1 20  1  0  0  0  0
  2  3  1  0  0  0  0
  2  9  1  0  0  0  0
  2 21  1  0  0  0  0
  3  4  1  0  0  0  0
  3 22  1  0  0  0  0
  3 23  1  0  0  0  0
  4  8  1  0  0  0  0
  4  5  1  0  0  0  0
  5  6  2  0  0  0  0
  5 24  1  0  0  0  0
  6  7  1  0  0  0  0
  6 25  1  0  0  0  0
  7  8  2  0  0  0  0
  7 26  1  0  0  0  0
  9 10  1  0  0  0  0
  9 27  1  0  0  0  0
 10 11  2  0  0  0  0
 10 12  1  0  0  0  0
 12 17  1  0  0  0  0
 12 13  1  0  0  0  0
 12 28  1  0  0  0  0
 13 14  1  0  0  0  0
 13 29  1  0  0  0  0
 13 30  1  0  0  0  0
 14 15  2  0  0  0  0
 14 31  1  0  0  0  0
 15 16  1  0  0  0  0
 15 32  1  0  0  0  0
 16 17  1  0  0  0  0
 16 33  1  0  0  0  0
 16 34  1  0  0  0  0
 17 35  1  0  0  0  0
 17 36  1  0  0  0  0
M  END
> <s_m_source_file>
AV-unprocessed.smi

> <i_m_source_file_index>
1360

> <i_lp_mmshare_version>
43012

> <i_f3d_flags>
0

> <s_epik_input>
bjFbY0hdW2NIXVtjSF1uMVtDSDJdW0NAQEhdKFtDSDNdKVtOSF1DKD1PKVtDQEBIXTJbQ0gyXVtDSF09W0NIXVtDSDJdW0NIMl0y

> <s_epik_cmdline>
J2VwaWtfcHl0aG9uJywgJy1waCcsICc3LjAnLCAnLXRuJywgJzgnLCAnLW1hJywgJzIwMCcsICctbWV0YWxfYmluZGluZycsICctaW1hZScsICc8aW5maWxlLm1hZT4nLCAnLW9tYWUnLCAnPG91dGZpbGUubWFlPic=

> <r_lp_tautomer_probability>
1

> <r_epik_Ionization_Penalty>
0.000315076

> <r_epik_Ionization_Penalty_Charging>
0

> <r_epik_Ionization_Penalty_Neutral>
0.000315076

> <r_epik_State_Penalty>
-0

> <r_epik_Charging_Adjusted_Penalty>
0

> <i_epik_Tot_Q>
0

> <i_epik_Tot_abs_Q>
0

> <r_epik_Metal_State_Penalty>
-0

> <b_epik_Metal_Only>
0

> <s_lp_Force_Field>
OPLS_2005

> <r_lp_Energy>
8.32294

> <b_lp_Chiralities_Consistent>
1

> <s_lp_Variant>
AV-unprocessed.smi:1360-3

> <Gold.Version>
5.8.1

> <Gold.Id.Protein>
6NUR|6NUR_protein|mol2

> <Gold.PLP.Fitness>
44.0847

> <Gold.PLP.PLP>
-36.2382

> <Gold.PLP.part.hbond>
-1.8793

> <Gold.PLP.part.metal>
0.0000

> <Gold.PLP.part.buried>
-0.6700

> <Gold.PLP.part.nonpolar>
-32.9659

> <Gold.PLP.part.repulsive>
0.1874

> <Gold.PLP.ligand.clash>
0.0000

> <Gold.PLP.ligand.torsion>
0.2444

> <Gold.PLP.Chemscore.Hbond>
1.7644

> <Gold.PLP.Chemscore.CHOScore>
1.0000

> <Gold.PLP.Chemscore.Metal>
0.0000

> <Gold.Chemscore.Hbonds>
donor molecule, donor type, donor heavy atom, donor atom, acceptor molecule, acceptor atom, score
      P1  H  7989  7998       L1     8  0.77
      P1  H  7997  8010       L1    11  1.00
      L1  C     7    26       P1  8028  1.00

> <Gold.PLP.Chemscore.Internal.Correction>
0.0421

> <Gold.Rescore>
     Score         DG    S(hbond)    S(metal)    S(lipo)     H(rot)  DE(clash)    DE(int)     intcor
     16.99     -17.33       1.13        0.00     101.88       1.51       0.03       0.31       ----

> <Gold.Chemscore.Fitness>
16.9905

> <Gold.Chemscore.DG>
-17.3287

> <Gold.Chemscore.ZeroCoef>
-5.4800

> <Gold.Chemscore.Hbond>
1.1329

> <Gold.Chemscore.Metal>
0.0000

> <Gold.Chemscore.Lipo>
101.8755

> <Gold.Chemscore.Internal_Hbond>
0.0000

> <Gold.Chemscore.DEClash>
0.0291

> <Gold.Chemscore.DEInternal>
0.3090

> <Gold.Chemscore.Rot>
1.5057

> <Gold.Chemscore.Internal.Correction>
   9.000000E+99

> <Gold.Chemscore.Hbonds>
donor molecule, donor type, donor heavy atom, donor atom, acceptor molecule, acceptor atom, score
      P1  H  7989  7998       L1     8  0.13
      P1  H  7997  8010       L1    11  0.97

> <Gold.Chemscore.Hbond.Weighted>
-3.7839

> <Gold.Chemscore.Metal.Weighted>
-0.0000

> <Gold.Chemscore.Lipo.Weighted>
-11.9194

> <Gold.Chemscore.Internal_Hbond.Weighted>
0.0000

> <Gold.Chemscore.DEClash.Weighted>
0.0291

> <Gold.Chemscore.DEInternal.Weighted>
0.3090

> <Gold.Chemscore.Rot.Weighted>
3.8546

> <Gold.Chemscore.Internal.Correction.Weighted>
   9.000000E+99

> <Gold.Protein.RotatedTorsions>
[ 6907 6896 6895 6894 ] final  146.30 input  -60.11 | X-H torsion
[ 7974 7965 7964 7962 ] final  167.22 input  175.53 | X-H torsion
[ 8008 7997 7996 7995 ] final   24.92 input   59.86 | X-H torsion
[ 10167 10162 10161 10158 ] final -178.89 input  -65.29 | X-H torsion
[ 10718 10713 10712 10709 ] final   90.65 input   66.30 | X-H torsion
[ 10763 10752 10751 10750 ] final  -55.43 input  -60.55 | X-H torsion
[ 11005 11000 10999 10996 ] final  -52.03 input  -57.11 | X-H torsion

> <Gold.Protein.ActiveResidues>
 VAL166  LYS551  ARG553  GLY616  TRP617  ASP618  TYR619  PRO620  LYS621  CYS622 
 ASP623  PHE694  ASN695  SER759  ASP760  ASP761  ALA762  ILE779  LEU786  VAL792 
 PHE793  MET794  SER795  GLU796  ALA797  LYS798  CYS799  TRP800  GLU811  SER814 

> <Gold.Protein.RotatedAtoms>
  152.1697  133.4635  159.4902 H   0  0  0  0  0  0  0  0  0  0  0  0  # atno 6907 bound_to 6896
  150.6918  134.1968  159.4315 H   0  0  0  0  0  0  0  0  0  0  0  0  # atno 6908 bound_to 6896
  151.9874  134.9996  160.0611 H   0  0  0  0  0  0  0  0  0  0  0  0  # atno 6909 bound_to 6896
  144.7432  139.8729  143.6390 H   0  0  0  0  0  0  0  0  0  0  0  0  # atno 7974 bound_to 7965
  155.0037  140.3128  155.4857 H   0  0  0  0  0  0  0  0  0  0  0  0  # atno 8008 bound_to 7997
  156.2921  140.2227  156.5089 H   0  0  0  0  0  0  0  0  0  0  0  0  # atno 8009 bound_to 7997
  154.7596  140.0460  157.0950 H   0  0  0  0  0  0  0  0  0  0  0  0  # atno 8010 bound_to 7997
  139.5411  144.2361  152.0897 H   0  0  0  0  0  0  0  0  0  0  0  0  # atno 10167 bound_to 10162
  157.6959  131.0378  150.3610 H   0  0  0  0  0  0  0  0  0  0  0  0  # atno 10718 bound_to 10713
  154.1907  135.6428  153.5059 H   0  0  0  0  0  0  0  0  0  0  0  0  # atno 10763 bound_to 10752
  153.0036  135.5428  154.6418 H   0  0  0  0  0  0  0  0  0  0  0  0  # atno 10764 bound_to 10752
  154.5806  135.2925  155.0709 H   0  0  0  0  0  0  0  0  0  0  0  0  # atno 10765 bound_to 10752
  141.0903  133.6634  156.3965 H   0  0  0  0  0  0  0  0  0  0  0  0  # atno 11005 bound_to 11000
  146.1267  139.4294  143.0194 LP  0  0  0  0  0  0  0  0  0  0  0  0  # atno 17320 bound_to 7965
  145.7224  141.0070  143.1395 LP  0  0  0  0  0  0  0  0  0  0  0  0  # atno 17321 bound_to 7965
  140.1839  144.4817  150.6514 LP  0  0  0  0  0  0  0  0  0  0  0  0  # atno 17342 bound_to 10162
  140.6641  143.2262  151.5785 LP  0  0  0  0  0  0  0  0  0  0  0  0  # atno 17343 bound_to 10162
  156.4046  130.3922  149.6935 LP  0  0  0  0  0  0  0  0  0  0  0  0  # atno 17370 bound_to 10713
  156.4240  130.7783  151.2801 LP  0  0  0  0  0  0  0  0  0  0  0  0  # atno 17371 bound_to 10713
  140.5268  134.6251  157.5337 LP  0  0  0  0  0  0  0  0  0  0  0  0  # atno 17394 bound_to 11000
  139.9727  134.7265  156.0009 LP  0  0  0  0  0  0  0  0  0  0  0  0  # atno 17395 bound_to 11000

$$$$
