#       Name:                AV-unprocessed.smi:2287
#       Creating user name   scv26
#       Creation time:       Fri Mar 27 12:42:18 2020


#       File generated by GOLD software.
#

@<TRIPOS>MOLECULE
AV-unprocessed.smi:2287
    42    43     1
SMALL
NO_CHARGES


@<TRIPOS>ATOM
      1 ****        -3.5314   4.2959  -1.8679 C.3            1 S1                 0.0000
      2 ****        -3.9844   3.3192  -0.8508 N.4            1 S1                 1.0000
      3 ****        -5.4568   3.1727  -0.8580 C.3            1 S1                 0.0000
      4 ****        -3.2932   2.0083  -0.9430 C.3            1 S1                 0.0000
      5 ****        -1.8398   2.0711  -0.4457 C.3            1 S1                 0.0000
      6 ****        -1.2230   0.7520  -0.4983 N.am           1 S1                 0.0000
      7 ****        -0.0534   0.4431   0.0774 C.2            1 S1                 0.0000
      8 ****         0.6289   1.2577   0.6976 O.2            1 S1                 0.0000
      9 ****         0.2663  -0.8458  -0.1289 N.am           1 S1                 0.0000
     10 ****         1.3776  -1.5750   0.3743 C.ar           1 S1                 0.0000
     11 ****         2.2199  -1.1574   1.4349 C.ar           1 S1                 0.0000
     12 ****         3.2417  -1.9240   1.8737 N.ar           1 S1                 0.0000
     13 ****         3.4309  -3.0942   1.2581 C.ar           1 S1                 0.0000
     14 ****         4.5328  -3.9605   1.7852 C.3            1 S1                 0.0000
     15 ****         5.9523  -3.4396   1.8801 C.3            1 S1                 0.0000
     16 ****         5.6111  -4.4941   0.8643 C.3            1 S1                 0.0000
     17 ****         2.6946  -3.5978   0.2638 N.ar           1 S1                 0.0000
     18 ****         1.6700  -2.8389  -0.1804 C.ar           1 S1                 0.0000
     19 ****        -3.7286   3.9306  -2.8767 H              1 S1                 0.0000
     20 ****        -2.4651   4.5010  -1.7801 H              1 S1                 0.0000
     21 ****        -4.0524   5.2460  -1.7444 H              1 S1                 0.0000
     22 ****        -5.8008   2.7323  -1.7947 H              1 S1                 0.0000
     23 ****        -5.9426   4.1416  -0.7370 H              1 S1                 0.0000
     24 ****        -5.7872   2.5352  -0.0373 H              1 S1                 0.0000
     25 ****        -3.8295   1.2824  -0.3294 H              1 S1                 0.0000
     26 ****        -3.3368   1.6385  -1.9689 H              1 S1                 0.0000
     27 ****        -1.2435   2.7502  -1.0554 H              1 S1                 0.0000
     28 ****        -1.8156   2.4485   0.5782 H              1 S1                 0.0000
     29 ****        -1.7189   0.0275  -0.9968 H              1 S1                 0.0000
     30 ****        -0.3564  -1.3689  -0.7270 H              1 S1                 0.0000
     31 ****         2.0818  -0.2271   1.9625 H              1 S1                 0.0000
     32 ****         4.1765  -4.6115   2.5812 H              1 S1                 0.0000
     33 ****         6.1516  -2.4353   1.5112 H              1 S1                 0.0000
     34 ****         6.5398  -3.7438   2.7440 H              1 S1                 0.0000
     35 ****         5.9705  -5.5046   1.0475 H              1 S1                 0.0000
     36 ****         5.5836  -4.1913  -0.1808 H              1 S1                 0.0000
     37 ****         1.0759  -3.2482  -0.9845 H              1 S1                 0.0000
     38 ****        -3.7481   3.7059   0.0522 H              1 S1                 0.0000
     39 ****         0.3170   2.2032   0.7908 LP             1 S1                 0.0000
     40 ****         1.4954   0.9742   1.1085 LP             1 S1                 0.0000
     41 ****         3.8305  -1.6286   2.6261 LP             1 S1                 0.0000
     42 ****         2.8929  -4.4942  -0.1327 LP             1 S1                 0.0000
@<TRIPOS>BOND
    1    1    2 1     
    2    1   19 1     
    3    1   20 1     
    4    1   21 1     
    5    2    3 1     
    6    2    4 1     
    7    2   38 1     
    8    3   22 1     
    9    3   23 1     
   10    3   24 1     
   11    4    5 1     
   12    4   25 1     
   13    4   26 1     
   14    5    6 1     
   15    5   27 1     
   16    5   28 1     
   17    6    7 am    
   18    6   29 1     
   19    7    8 2     
   20    7    9 am    
   21    9   10 1     
   22    9   30 1     
   23   10   18 ar    
   24   10   11 ar    
   25   11   12 ar    
   26   11   31 1     
   27   12   13 ar    
   28   13   14 1     
   29   13   17 ar    
   30   14   16 1     
   31   14   15 1     
   32   14   32 1     
   33   15   16 1     
   34   15   33 1     
   35   15   34 1     
   36   16   35 1     
   37   16   36 1     
   38   17   18 ar    
   39   18   37 1     
   40    8   39 1     
   41    8   40 1     
   42   12   41 1     
   43   17   42 1     
@<TRIPOS>SUBSTRUCTURE
      1 S1             1
@<TRIPOS>SET
LONE_PAIRS      STATIC     ATOMS    <user>   **** ""
4 39 40 41 42
DONOR_HYDROGENS      STATIC     ATOMS    <user>   **** ""
3 38 29 30
ATOM$BLUE        STATIC     ATOMS    COLORGROUP SYSTEM
4 39 40 41 42
ATOM$RED        STATIC     ATOMS    COLORGROUP SYSTEM
3 38 29 30
