AV-unprocessed.smi:3126|AV-procd|sdf|11912|dock1
  -GOLD-   2272017293D 1   1.00000     0.00000
 Structure written by MMmdl.
 42 43  0  0  0  0  0  0  0  0  2 V2000
  153.4270  142.5980  162.7348 C   0  0  0  0  0  0  0  0  0  0  0  0
  153.4312  142.2031  161.2516 C   0  0  0  0  0  0  0  0  0  0  0  0
  152.9048  143.3010  160.3046 C   0  0  2  0  0  0  0  0  0  0  0  0
  151.9243  144.2324  161.0442 C   0  0  0  0  0  0  0  0  0  0  0  0
  151.3908  145.3402  160.1247 C   0  0  0  0  0  0  0  0  0  0  0  0
  150.7240  144.7520  158.8727 C   0  0  0  0  0  0  0  0  0  0  0  0
  151.6893  143.8219  158.1087 C   0  0  2  0  0  0  0  0  0  0  0  0
  151.0377  143.1999  156.9341 N   0  3  0  0  0  0  0  0  0  0  0  0
  150.2022  142.0160  157.2228 C   0  0  0  0  0  0  0  0  0  0  0  0
  149.7040  141.3683  155.9245 C   0  0  0  0  0  0  0  0  0  0  0  0
  150.6638  140.3140  155.4099 C   0  0  0  0  0  0  0  0  0  0  0  0
  150.2458  139.3446  154.4747 C   0  0  0  0  0  0  0  0  0  0  0  0
  151.1755  138.3834  154.0331 C   0  0  0  0  0  0  0  0  0  0  0  0
  152.4869  138.4326  154.5468 C   0  0  0  0  0  0  0  0  0  0  0  0
  152.8974  139.3554  155.4433 N   0  0  0  0  0  0  0  0  0  0  0  0
  152.0007  140.2739  155.8607 C   0  0  0  0  0  0  0  0  0  0  0  0
  152.2266  142.7205  159.0438 C   0  0  0  0  0  0  0  0  0  0  0  0
  153.7364  141.7574  163.3561 H   0  0  0  0  0  0  0  0  0  0  0  0
  152.4308  142.8994  163.0599 H   0  0  0  0  0  0  0  0  0  0  0  0
  154.1125  143.4203  162.9377 H   0  0  0  0  0  0  0  0  0  0  0  0
  154.4381  141.9065  160.9553 H   0  0  0  0  0  0  0  0  0  0  0  0
  152.8120  141.3122  161.1415 H   0  0  0  0  0  0  0  0  0  0  0  0
  153.7568  143.9043  159.9867 H   0  0  0  0  0  0  0  0  0  0  0  0
  151.0881  143.6520  161.4368 H   0  0  0  0  0  0  0  0  0  0  0  0
  152.4159  144.6844  161.9065 H   0  0  0  0  0  0  0  0  0  0  0  0
  150.6778  145.9612  160.6678 H   0  0  0  0  0  0  0  0  0  0  0  0
  152.2099  145.9973  159.8295 H   0  0  0  0  0  0  0  0  0  0  0  0
  149.8294  144.1998  159.1643 H   0  0  0  0  0  0  0  0  0  0  0  0
  150.3898  145.5711  158.2363 H   0  0  0  0  0  0  0  0  0  0  0  0
  152.5399  144.4063  157.7537 H   0  0  0  0  0  0  0  0  0  0  0  0
  150.4368  143.8963  156.5164 H   0  0  0  0  0  0  0  0  0  0  0  0
  150.7786  141.2888  157.7948 H   0  0  0  0  0  0  0  0  0  0  0  0
  149.3520  142.3130  157.8382 H   0  0  0  0  0  0  0  0  0  0  0  0
  148.7253  140.9128  156.0826 H   0  0  0  0  0  0  0  0  0  0  0  0
  149.5699  142.1282  155.1533 H   0  0  0  0  0  0  0  0  0  0  0  0
  149.2319  139.3350  154.1026 H   0  0  0  0  0  0  0  0  0  0  0  0
  150.8911  137.6259  153.3177 H   0  0  0  0  0  0  0  0  0  0  0  0
  153.2253  137.7108  154.2304 H   0  0  0  0  0  0  0  0  0  0  0  0
  152.3596  140.9959  156.5795 H   0  0  0  0  0  0  0  0  0  0  0  0
  152.9337  142.1018  158.4910 H   0  0  0  0  0  0  0  0  0  0  0  0
  151.4096  142.0614  159.3423 H   0  0  0  0  0  0  0  0  0  0  0  0
  151.7482  142.9476  156.2620 H   0  0  0  0  0  0  0  0  0  0  0  0
  1  2  1  0  0  0  0
  1 18  1  0  0  0  0
  1 19  1  0  0  0  0
  1 20  1  0  0  0  0
  2  3  1  0  0  0  0
  2 21  1  0  0  0  0
  2 22  1  0  0  0  0
  3 17  1  0  0  0  0
  3  4  1  0  0  0  0
  3 23  1  0  0  0  0
  4  5  1  0  0  0  0
  4 24  1  0  0  0  0
  4 25  1  0  0  0  0
  5  6  1  0  0  0  0
  5 26  1  0  0  0  0
  5 27  1  0  0  0  0
  6  7  1  0  0  0  0
  6 28  1  0  0  0  0
  6 29  1  0  0  0  0
  7  8  1  0  0  0  0
  7 17  1  0  0  0  0
  7 30  1  0  0  0  0
  8  9  1  0  0  0  0
  8 31  1  0  0  0  0
  8 42  1  0  0  0  0
  9 10  1  0  0  0  0
  9 32  1  0  0  0  0
  9 33  1  0  0  0  0
 10 11  1  0  0  0  0
 10 34  1  0  0  0  0
 10 35  1  0  0  0  0
 11 16  1  0  0  0  0
 11 12  2  0  0  0  0
 12 13  1  0  0  0  0
 12 36  1  0  0  0  0
 13 14  2  0  0  0  0
 13 37  1  0  0  0  0
 14 15  1  0  0  0  0
 14 38  1  0  0  0  0
 15 16  2  0  0  0  0
 16 39  1  0  0  0  0
 17 40  1  0  0  0  0
 17 41  1  0  0  0  0
M  CHG  1   8   1
M  END
> <s_m_source_file>
AV-unprocessed.smi

> <i_m_source_file_index>
3126

> <i_lp_mmshare_version>
43012

> <i_f3d_flags>
0

> <s_epik_input>
W0NIM11bQ0gyXVtDQEBIXTFbQ0gyXVtDSDJdW0NIMl1bQ0BIXShbQ0gyXTEpW05IXVtDSDJdW0NIMl1jMltjSF1bY0hdW2NIXW5bY0hdMg==

> <s_epik_cmdline>
J2VwaWtfcHl0aG9uJywgJy1waCcsICc3LjAnLCAnLXRuJywgJzgnLCAnLW1hJywgJzIwMCcsICctbWV0YWxfYmluZGluZycsICctaW1hZScsICc8aW5maWxlLm1hZT4nLCAnLW9tYWUnLCAnPG91dGZpbGUubWFlPic=

> <r_lp_tautomer_probability>
1

> <r_epik_Ionization_Penalty>
0.000947364

> <r_epik_Ionization_Penalty_Charging>
0.000286103

> <r_epik_Ionization_Penalty_Neutral>
0.000661261

> <r_epik_State_Penalty>
-0

> <r_epik_Charging_Adjusted_Penalty>
0.000286103

> <i_epik_Tot_Q>
1

> <i_epik_Tot_abs_Q>
1

> <r_epik_Metal_State_Penalty>
-0

> <b_epik_Metal_Only>
0

> <s_lp_Force_Field>
OPLS_2005

> <r_lp_Energy>
14.2685

> <b_lp_Chiralities_Consistent>
1

> <s_lp_Variant>
AV-unprocessed.smi:3126-3

> <Gold.Version>
5.8.1

> <Gold.Id.Protein>
6NUR|6NUR_protein|mol2

> <Gold.PLP.Fitness>
58.8497

> <Gold.PLP.PLP>
-51.8288

> <Gold.PLP.part.hbond>
-2.0000

> <Gold.PLP.part.metal>
0.0000

> <Gold.PLP.part.buried>
-6.7545

> <Gold.PLP.part.nonpolar>
-44.1388

> <Gold.PLP.part.repulsive>
0.0277

> <Gold.PLP.ligand.clash>
0.0000

> <Gold.PLP.ligand.torsion>
1.0464

> <Gold.PLP.Chemscore.Hbond>
3.0000

> <Gold.PLP.Chemscore.CHOScore>
0.0000

> <Gold.PLP.Chemscore.Metal>
0.0000

> <Gold.Chemscore.Hbonds>
donor molecule, donor type, donor heavy atom, donor atom, acceptor molecule, acceptor atom, score
      L1  H     8    31       P1  8028  2.00
      P1  H  7997  8008       L1    15  1.00

> <Gold.PLP.Chemscore.Internal.Correction>
0.1138

> <Gold.Rescore>
     Score         DG    S(hbond)    S(metal)    S(lipo)     H(rot)  DE(clash)    DE(int)     intcor
     22.25     -23.42       1.39        0.00     143.15       1.35       0.15       1.02       ----

> <Gold.Chemscore.Fitness>
22.2536

> <Gold.Chemscore.DG>
-23.4156

> <Gold.Chemscore.ZeroCoef>
-5.4800

> <Gold.Chemscore.Hbond>
1.3905

> <Gold.Chemscore.Metal>
0.0000

> <Gold.Chemscore.Lipo>
143.1543

> <Gold.Chemscore.Internal_Hbond>
0.0000

> <Gold.Chemscore.DEClash>
0.1462

> <Gold.Chemscore.DEInternal>
1.0158

> <Gold.Chemscore.Rot>
1.3507

> <Gold.Chemscore.Internal.Correction>
   9.000000E+99

> <Gold.Chemscore.Hbonds>
donor molecule, donor type, donor heavy atom, donor atom, acceptor molecule, acceptor atom, score
      L1  H     8    31       P1  8028  0.99
      P1  H  7997  8008       L1    15  0.34

> <Gold.Chemscore.Hbond.Weighted>
-4.6444

> <Gold.Chemscore.Metal.Weighted>
-0.0000

> <Gold.Chemscore.Lipo.Weighted>
-16.7491

> <Gold.Chemscore.Internal_Hbond.Weighted>
0.0000

> <Gold.Chemscore.DEClash.Weighted>
0.1462

> <Gold.Chemscore.DEInternal.Weighted>
1.0158

> <Gold.Chemscore.Rot.Weighted>
3.4579

> <Gold.Chemscore.Internal.Correction.Weighted>
   9.000000E+99

> <Gold.Protein.RotatedTorsions>
[ 6907 6896 6895 6894 ] final  -62.48 input  -60.11 | X-H torsion
[ 7974 7965 7964 7962 ] final -179.91 input  175.53 | X-H torsion
[ 8008 7997 7996 7995 ] final   -9.91 input   59.86 | X-H torsion
[ 10167 10162 10161 10158 ] final   56.82 input  -65.29 | X-H torsion
[ 10718 10713 10712 10709 ] final   35.83 input   66.30 | X-H torsion
[ 10763 10752 10751 10750 ] final  -13.63 input  -60.55 | X-H torsion
[ 11005 11000 10999 10996 ] final  -67.38 input  -57.11 | X-H torsion

> <Gold.Protein.ActiveResidues>
 VAL166  LYS551  ARG553  GLY616  TRP617  ASP618  TYR619  PRO620  LYS621  CYS622 
 ASP623  PHE694  ASN695  SER759  ASP760  ASP761  ALA762  ILE779  LEU786  VAL792 
 PHE793  MET794  SER795  GLU796  ALA797  LYS798  CYS799  TRP800  GLU811  SER814 

> <Gold.Protein.RotatedAtoms>
  150.7713  134.6564  159.6315 H   0  0  0  0  0  0  0  0  0  0  0  0  # atno 6907 bound_to 6896
  152.3766  134.6651  160.0166 H   0  0  0  0  0  0  0  0  0  0  0  0  # atno 6908 bound_to 6896
  151.6994  133.3274  159.3299 H   0  0  0  0  0  0  0  0  0  0  0  0  # atno 6909 bound_to 6896
  144.7140  140.0647  143.6431 H   0  0  0  0  0  0  0  0  0  0  0  0  # atno 7974 bound_to 7965
  154.5603  140.2342  155.8346 H   0  0  0  0  0  0  0  0  0  0  0  0  # atno 8008 bound_to 7997
  156.2023  140.3049  155.9512 H   0  0  0  0  0  0  0  0  0  0  0  0  # atno 8009 bound_to 7997
  155.2902  140.0426  157.3013 H   0  0  0  0  0  0  0  0  0  0  0  0  # atno 8010 bound_to 7997
  140.2046  144.3953  150.6514 H   0  0  0  0  0  0  0  0  0  0  0  0  # atno 10167 bound_to 10162
  157.3275  130.7480  149.6825 H   0  0  0  0  0  0  0  0  0  0  0  0  # atno 10718 bound_to 10713
  153.5162  135.7016  153.5755 H   0  0  0  0  0  0  0  0  0  0  0  0  # atno 10763 bound_to 10752
  153.3824  135.3917  155.1866 H   0  0  0  0  0  0  0  0  0  0  0  0  # atno 10764 bound_to 10752
  154.8699  135.3838  154.4646 H   0  0  0  0  0  0  0  0  0  0  0  0  # atno 10765 bound_to 10752
  141.1506  133.6718  156.6284 H   0  0  0  0  0  0  0  0  0  0  0  0  # atno 11005 bound_to 11000
  145.9834  139.2959  143.1028 LP  0  0  0  0  0  0  0  0  0  0  0  0  # atno 17320 bound_to 7965
  145.8985  140.9258  143.0515 LP  0  0  0  0  0  0  0  0  0  0  0  0  # atno 17321 bound_to 7965
  140.6366  143.2196  151.6380 LP  0  0  0  0  0  0  0  0  0  0  0  0  # atno 17342 bound_to 10162
  139.5204  144.3225  152.0898 LP  0  0  0  0  0  0  0  0  0  0  0  0  # atno 17343 bound_to 10162
  155.9692  130.4205  150.4425 LP  0  0  0  0  0  0  0  0  0  0  0  0  # atno 17370 bound_to 10713
  157.2451  131.0534  151.2413 LP  0  0  0  0  0  0  0  0  0  0  0  0  # atno 17371 bound_to 10713
  140.3486  134.7788  157.4450 LP  0  0  0  0  0  0  0  0  0  0  0  0  # atno 17394 bound_to 11000
  140.0879  134.5641  155.8473 LP  0  0  0  0  0  0  0  0  0  0  0  0  # atno 17395 bound_to 11000

$$$$
