AV-unprocessed.smi:881|AV-procd|sdf|4036|dock8
  -GOLD-   22720 1533D 1   1.00000     0.00000
 Structure written by MMmdl.
 31 32  0  0  0  0  0  0  0  0  2 V2000
  153.4936  139.4224  158.6126 O   0  0  0  0  0  0  0  0  0  0  0  0
  152.3348  139.4336  158.1909 C   0  0  0  0  0  0  0  0  0  0  0  0
  151.6109  138.3561  157.8102 N   0  5  0  0  0  0  0  0  0  0  0  0
  151.5327  138.0243  156.5110 C   0  0  0  0  0  0  0  0  0  0  0  0
  151.1857  136.7927  156.1039 N   0  0  0  0  0  0  0  0  0  0  0  0
  151.1614  136.6609  154.7222 N   0  0  0  0  0  0  0  0  0  0  0  0
  151.4835  137.8051  154.1193 C   0  0  0  0  0  0  0  0  0  0  0  0
  151.8425  139.1479  155.1841 S   0  0  0  0  0  0  0  0  0  0  0  0
  151.6733  140.5949  158.0757 N   0  0  0  0  0  0  0  0  0  0  0  0
  152.1880  141.9242  158.4015 C   0  0  0  0  0  0  0  0  0  0  0  0
  152.5409  141.9797  159.9025 C   0  0  0  0  0  0  0  0  0  0  0  0
  153.0548  143.3392  160.4072 C   0  0  0  0  0  0  0  0  0  0  0  0
  151.9365  144.3849  160.5426 C   0  0  0  0  0  0  0  0  0  0  0  0
  151.6177  145.1798  159.2642 C   0  0  0  0  0  0  0  0  0  0  0  0
  151.7093  144.4098  157.9351 C   0  0  0  0  0  0  0  0  0  0  0  0
  151.1507  142.9768  157.9573 C   0  0  0  0  0  0  0  0  0  0  0  0
  151.5068  137.8597  153.0412 H   0  0  0  0  0  0  0  0  0  0  0  0
  150.7268  140.5500  157.7281 H   0  0  0  0  0  0  0  0  0  0  0  0
  153.0985  142.0895  157.8225 H   0  0  0  0  0  0  0  0  0  0  0  0
  151.6797  141.6722  160.4977 H   0  0  0  0  0  0  0  0  0  0  0  0
  153.3124  141.2350  160.1027 H   0  0  0  0  0  0  0  0  0  0  0  0
  153.4851  143.1802  161.3964 H   0  0  0  0  0  0  0  0  0  0  0  0
  153.8702  143.7095  159.7849 H   0  0  0  0  0  0  0  0  0  0  0  0
  151.0299  143.8989  160.9051 H   0  0  0  0  0  0  0  0  0  0  0  0
  152.2087  145.0978  161.3215 H   0  0  0  0  0  0  0  0  0  0  0  0
  150.6168  145.6004  159.3666 H   0  0  0  0  0  0  0  0  0  0  0  0
  152.2890  146.0372  159.2025 H   0  0  0  0  0  0  0  0  0  0  0  0
  151.1718  144.9852  157.1804 H   0  0  0  0  0  0  0  0  0  0  0  0
  152.7448  144.3903  157.5931 H   0  0  0  0  0  0  0  0  0  0  0  0
  150.8390  142.7341  156.9402 H   0  0  0  0  0  0  0  0  0  0  0  0
  150.2470  142.9212  158.5658 H   0  0  0  0  0  0  0  0  0  0  0  0
  1  2  2  0  0  0  0
  2  3  1  0  0  0  0
  2  9  1  0  0  0  0
  3  4  1  0  0  0  0
  4  8  1  0  0  0  0
  4  5  2  0  0  0  0
  5  6  1  0  0  0  0
  6  7  2  0  0  0  0
  7  8  1  0  0  0  0
  7 17  1  0  0  0  0
  9 10  1  0  0  0  0
  9 18  1  0  0  0  0
 10 16  1  0  0  0  0
 10 11  1  0  0  0  0
 10 19  1  0  0  0  0
 11 12  1  0  0  0  0
 11 20  1  0  0  0  0
 11 21  1  0  0  0  0
 12 13  1  0  0  0  0
 12 22  1  0  0  0  0
 12 23  1  0  0  0  0
 13 14  1  0  0  0  0
 13 24  1  0  0  0  0
 13 25  1  0  0  0  0
 14 15  1  0  0  0  0
 14 26  1  0  0  0  0
 14 27  1  0  0  0  0
 15 16  1  0  0  0  0
 15 28  1  0  0  0  0
 15 29  1  0  0  0  0
 16 30  1  0  0  0  0
 16 31  1  0  0  0  0
M  CHG  1   3  -1
M  END
> <s_m_source_file>
AV-unprocessed.smi

> <i_m_source_file_index>
881

> <i_lp_mmshare_version>
43012

> <i_f3d_flags>
0

> <s_epik_input>
czFbY0hdbm5jMVtOSF1DKD1PKVtOSF1bQ0hdMltDSDJdW0NIMl1bQ0gyXVtDSDJdW0NIMl1bQ0gyXTI=

> <s_epik_cmdline>
J2VwaWtfcHl0aG9uJywgJy1waCcsICc3LjAnLCAnLXRuJywgJzgnLCAnLW1hJywgJzIwMCcsICctbWV0YWxfYmluZGluZycsICctaW1hZScsICc8aW5maWxlLm1hZT4nLCAnLW9tYWUnLCAnPG91dGZpbGUubWFlPic=

> <r_lp_tautomer_probability>
1

> <r_epik_Ionization_Penalty>
4.55263

> <r_epik_Ionization_Penalty_Charging>
4.50588

> <r_epik_Ionization_Penalty_Neutral>
0.0467569

> <r_epik_State_Penalty>
4.50558

> <r_epik_Charging_Adjusted_Penalty>
9.01146

> <i_epik_Tot_Q>
-1

> <i_epik_Tot_abs_Q>
1

> <r_epik_Metal_State_Penalty>
0.822218

> <b_epik_Metal_Only>
1

> <s_lp_Force_Field>
OPLS_2005

> <r_lp_Energy>
12.3928

> <b_lp_Chiralities_Consistent>
1

> <s_lp_Variant>
AV-unprocessed.smi:881-2

> <Gold.Version>
5.8.1

> <Gold.Id.Protein>
6NUR|6NUR_protein|mol2

> <Gold.PLP.Fitness>
41.2076

> <Gold.PLP.PLP>
-34.1280

> <Gold.PLP.part.hbond>
-2.0000

> <Gold.PLP.part.metal>
0.0000

> <Gold.PLP.part.buried>
-4.7852

> <Gold.PLP.part.nonpolar>
-27.6789

> <Gold.PLP.part.repulsive>
0.2704

> <Gold.PLP.ligand.clash>
0.0000

> <Gold.PLP.ligand.torsion>
0.8555

> <Gold.PLP.Chemscore.Hbond>
2.0000

> <Gold.PLP.Chemscore.CHOScore>
0.9256

> <Gold.PLP.Chemscore.Metal>
0.0000

> <Gold.Chemscore.Hbonds>
donor molecule, donor type, donor heavy atom, donor atom, acceptor molecule, acceptor atom, score
      P1  H  7997  8010       L1     1  0.96
      P1  H 10752 10764       L1     6  0.88
      L1  C     7    17       P1  7949  0.93

> <Gold.PLP.Chemscore.Internal.Correction>
0.0138

> <Gold.Rescore>
     Score         DG    S(hbond)    S(metal)    S(lipo)     H(rot)  DE(clash)    DE(int)     intcor
     17.53     -19.54       1.70        0.00      93.50       1.00       0.02       2.00       ----

> <Gold.Chemscore.Fitness>
17.5297

> <Gold.Chemscore.DG>
-19.5429

> <Gold.Chemscore.ZeroCoef>
-5.4800

> <Gold.Chemscore.Hbond>
1.7016

> <Gold.Chemscore.Metal>
0.0000

> <Gold.Chemscore.Lipo>
93.5018

> <Gold.Chemscore.Internal_Hbond>
0.0000

> <Gold.Chemscore.DEClash>
0.0166

> <Gold.Chemscore.DEInternal>
1.9967

> <Gold.Chemscore.Rot>
1.0000

> <Gold.Chemscore.Internal.Correction>
   9.000000E+99

> <Gold.Chemscore.Hbonds>
donor molecule, donor type, donor heavy atom, donor atom, acceptor molecule, acceptor atom, score
      P1  H  7997  8010       L1     1  0.82
      P1  H 10752 10764       L1     6  0.05

> <Gold.Chemscore.Hbond.Weighted>
-5.6832

> <Gold.Chemscore.Metal.Weighted>
-0.0000

> <Gold.Chemscore.Lipo.Weighted>
-10.9397

> <Gold.Chemscore.Internal_Hbond.Weighted>
0.0000

> <Gold.Chemscore.DEClash.Weighted>
0.0166

> <Gold.Chemscore.DEInternal.Weighted>
1.9967

> <Gold.Chemscore.Rot.Weighted>
2.5600

> <Gold.Chemscore.Internal.Correction.Weighted>
   9.000000E+99

> <Gold.Protein.RotatedTorsions>
[ 6907 6896 6895 6894 ] final   11.25 input  -60.11 | X-H torsion
[ 7974 7965 7964 7962 ] final  -17.80 input  175.53 | X-H torsion
[ 8008 7997 7996 7995 ] final   10.59 input   59.86 | X-H torsion
[ 10167 10162 10161 10158 ] final -113.72 input  -65.29 | X-H torsion
[ 10718 10713 10712 10709 ] final  -71.15 input   66.30 | X-H torsion
[ 10763 10752 10751 10750 ] final  -69.05 input  -60.55 | X-H torsion
[ 11005 11000 10999 10996 ] final  172.44 input  -57.11 | X-H torsion

> <Gold.Protein.ActiveResidues>
 VAL166  LYS551  ARG553  GLY616  TRP617  ASP618  TYR619  PRO620  LYS621  CYS622 
 ASP623  PHE694  ASN695  SER759  ASP760  ASP761  ALA762  ILE779  LEU786  VAL792 
 PHE793  MET794  SER795  GLU796  ALA797  LYS798  CYS799  TRP800  GLU811  SER814 

> <Gold.Protein.RotatedAtoms>
  151.7512  135.0832  160.0330 H   0  0  0  0  0  0  0  0  0  0  0  0  # atno 6907 bound_to 6896
  152.3415  133.6068  159.5888 H   0  0  0  0  0  0  0  0  0  0  0  0  # atno 6908 bound_to 6896
  150.7482  133.9631  159.3563 H   0  0  0  0  0  0  0  0  0  0  0  0  # atno 6909 bound_to 6896
  146.1923  140.3831  142.8453 H   0  0  0  0  0  0  0  0  0  0  0  0  # atno 7974 bound_to 7965
  154.7954  140.2843  155.5960 H   0  0  0  0  0  0  0  0  0  0  0  0  # atno 8008 bound_to 7997
  156.2970  140.2596  156.2740 H   0  0  0  0  0  0  0  0  0  0  0  0  # atno 8009 bound_to 7997
  154.9620  140.0377  157.2184 H   0  0  0  0  0  0  0  0  0  0  0  0  # atno 8010 bound_to 7997
  140.1088  143.4546  152.1766 H   0  0  0  0  0  0  0  0  0  0  0  0  # atno 10167 bound_to 10162
  156.0376  130.4345  150.2401 H   0  0  0  0  0  0  0  0  0  0  0  0  # atno 10718 bound_to 10713
  154.3979  135.6038  153.5880 H   0  0  0  0  0  0  0  0  0  0  0  0  # atno 10763 bound_to 10752
  152.9788  135.5899  154.4220 H   0  0  0  0  0  0  0  0  0  0  0  0  # atno 10764 bound_to 10752
  154.4014  135.2843  155.2072 H   0  0  0  0  0  0  0  0  0  0  0  0  # atno 10765 bound_to 10752
  140.3298  134.7367  157.4125 H   0  0  0  0  0  0  0  0  0  0  0  0  # atno 11005 bound_to 11000
  144.8511  140.7003  143.6167 LP  0  0  0  0  0  0  0  0  0  0  0  0  # atno 17320 bound_to 7965
  145.3753  139.1649  143.4310 LP  0  0  0  0  0  0  0  0  0  0  0  0  # atno 17321 bound_to 7965
  139.5630  144.7418  151.4100 LP  0  0  0  0  0  0  0  0  0  0  0  0  # atno 17342 bound_to 10162
  140.6937  143.7800  150.7294 LP  0  0  0  0  0  0  0  0  0  0  0  0  # atno 17343 bound_to 10162
  157.0499  131.0059  151.3257 LP  0  0  0  0  0  0  0  0  0  0  0  0  # atno 17370 bound_to 10713
  157.5148  130.7961  149.7744 LP  0  0  0  0  0  0  0  0  0  0  0  0  # atno 17371 bound_to 10713
  140.0871  134.5652  155.8482 LP  0  0  0  0  0  0  0  0  0  0  0  0  # atno 17394 bound_to 11000
  141.2066  133.6657  156.6254 LP  0  0  0  0  0  0  0  0  0  0  0  0  # atno 17395 bound_to 11000

$$$$
