AV-unprocessed.smi:730|AV-procd|sdf|3524|dock3
  -GOLD-   22720 0513D 1   1.00000     0.00000
 Structure written by MMmdl.
 40 41  0  0  0  0  0  0  0  0  1 V2000
  147.3166  134.1392  162.2463 C   0  0  0  0  0  0  0  0  0  0  0  0
  147.0142  135.6505  162.2886 C   0  0  0  0  0  0  0  0  0  0  0  0
  145.4926  135.8372  162.4383 C   0  0  0  0  0  0  0  0  0  0  0  0
  147.7218  136.2530  163.5168 C   0  0  0  0  0  0  0  0  0  0  0  0
  147.4946  136.3277  161.0353 C   0  0  0  0  0  0  0  0  0  0  0  0
  148.7029  136.3752  160.3939 C   0  0  0  0  0  0  0  0  0  0  0  0
  148.4420  137.1993  159.2675 C   0  0  0  0  0  0  0  0  0  0  0  0
  149.4653  137.4981  158.3320 N   0  0  0  0  0  0  0  0  0  0  0  0
  149.4427  138.4287  157.3628 C   0  0  0  0  0  0  0  0  0  0  0  0
  148.5011  139.1863  157.1267 O   0  0  0  0  0  0  0  0  0  0  0  0
  150.5882  138.4344  156.6669 N   0  0  0  0  0  0  0  0  0  0  0  0
  150.8864  139.3255  155.5453 C   0  0  2  0  0  0  0  0  0  0  0  0
  150.6838  140.8076  155.9293 C   0  0  0  0  0  0  0  0  0  0  0  0
  149.7722  141.4112  154.8571 C   0  0  0  0  0  0  0  0  0  0  0  0
  148.9575  140.2299  154.3399 C   0  0  0  0  0  0  0  0  0  0  0  0
  149.9602  139.0751  154.3321 C   0  0  2  0  0  0  0  0  0  0  0  0
  149.2999  137.8229  154.3321 O   0  0  0  0  0  0  0  0  0  0  0  0
  147.1888  137.6216  159.2200 N   0  0  0  0  0  0  0  0  0  0  0  0
  146.5771  137.0665  160.3493 O   0  0  0  0  0  0  0  0  0  0  0  0
  146.9731  133.6388  163.1522 H   0  0  0  0  0  0  0  0  0  0  0  0
  148.3869  133.9494  162.1554 H   0  0  0  0  0  0  0  0  0  0  0  0
  146.8233  133.6575  161.4012 H   0  0  0  0  0  0  0  0  0  0  0  0
  144.9562  135.4170  161.5866 H   0  0  0  0  0  0  0  0  0  0  0  0
  145.2240  136.8922  162.5061 H   0  0  0  0  0  0  0  0  0  0  0  0
  145.1172  135.3476  163.3376 H   0  0  0  0  0  0  0  0  0  0  0  0
  147.3972  135.7724  164.4402 H   0  0  0  0  0  0  0  0  0  0  0  0
  147.5142  137.3192  163.6143 H   0  0  0  0  0  0  0  0  0  0  0  0
  148.8038  136.1352  163.4472 H   0  0  0  0  0  0  0  0  0  0  0  0
  149.6258  135.8959  160.6852 H   0  0  0  0  0  0  0  0  0  0  0  0
  150.3045  136.9430  158.4083 H   0  0  0  0  0  0  0  0  0  0  0  0
  151.3118  137.7800  156.9273 H   0  0  0  0  0  0  0  0  0  0  0  0
  151.9182  139.1580  155.2302 H   0  0  0  0  0  0  0  0  0  0  0  0
  150.1934  140.8918  156.9005 H   0  0  0  0  0  0  0  0  0  0  0  0
  151.6307  141.3435  156.0024 H   0  0  0  0  0  0  0  0  0  0  0  0
  149.1468  142.2165  155.2433 H   0  0  0  0  0  0  0  0  0  0  0  0
  150.3779  141.8199  154.0470 H   0  0  0  0  0  0  0  0  0  0  0  0
  148.1429  140.0193  155.0350 H   0  0  0  0  0  0  0  0  0  0  0  0
  148.5207  140.4158  153.3582 H   0  0  0  0  0  0  0  0  0  0  0  0
  150.5555  139.1421  153.4201 H   0  0  0  0  0  0  0  0  0  0  0  0
  149.1788  137.5496  153.4356 H   0  0  0  0  0  0  0  0  0  0  0  0
  1  2  1  0  0  0  0
  1 20  1  0  0  0  0
  1 21  1  0  0  0  0
  1 22  1  0  0  0  0
  2  3  1  0  0  0  0
  2  4  1  0  0  0  0
  2  5  1  0  0  0  0
  3 23  1  0  0  0  0
  3 24  1  0  0  0  0
  3 25  1  0  0  0  0
  4 26  1  0  0  0  0
  4 27  1  0  0  0  0
  4 28  1  0  0  0  0
  5 19  1  0  0  0  0
  5  6  2  0  0  0  0
  6  7  1  0  0  0  0
  6 29  1  0  0  0  0
  7  8  1  0  0  0  0
  7 18  2  0  0  0  0
  8  9  1  0  0  0  0
  8 30  1  0  0  0  0
  9 10  2  0  0  0  0
  9 11  1  0  0  0  0
 11 12  1  0  0  0  0
 11 31  1  0  0  0  0
 12 16  1  0  0  0  0
 12 13  1  0  0  0  0
 12 32  1  0  0  0  0
 13 14  1  0  0  0  0
 13 33  1  0  0  0  0
 13 34  1  0  0  0  0
 14 15  1  0  0  0  0
 14 35  1  0  0  0  0
 14 36  1  0  0  0  0
 15 16  1  0  0  0  0
 15 37  1  0  0  0  0
 15 38  1  0  0  0  0
 16 17  1  0  0  0  0
 16 39  1  0  0  0  0
 17 40  1  0  0  0  0
 18 19  1  0  0  0  0
M  END
> <s_m_source_file>
AV-unprocessed.smi

> <i_m_source_file_index>
730

> <i_lp_mmshare_version>
43012

> <i_f3d_flags>
0

> <s_epik_input>
W0NIM11DKFtDSDNdKShbQ0gzXSljMVtjSF1jKG5vMSlbTkhdQyg9TylbTkhdW0NAQEhdMltDSDJdW0NIMl1bQ0gyXVtDQEhdMltPSF0=

> <s_epik_cmdline>
J2VwaWtfcHl0aG9uJywgJy1waCcsICc3LjAnLCAnLXRuJywgJzgnLCAnLW1hJywgJzIwMCcsICctbWV0YWxfYmluZGluZycsICctaW1hZScsICc8aW5maWxlLm1hZT4nLCAnLW9tYWUnLCAnPG91dGZpbGUubWFlPic=

> <r_lp_tautomer_probability>
1

> <r_epik_Ionization_Penalty>
2.23071e-05

> <r_epik_Ionization_Penalty_Charging>
0

> <r_epik_Ionization_Penalty_Neutral>
2.23071e-05

> <r_epik_State_Penalty>
-0

> <r_epik_Charging_Adjusted_Penalty>
0

> <i_epik_Tot_Q>
0

> <i_epik_Tot_abs_Q>
0

> <r_epik_Metal_State_Penalty>
-0

> <b_epik_Metal_Only>
0

> <s_lp_Force_Field>
OPLS_2005

> <r_lp_Energy>
21.1431

> <b_lp_Chiralities_Consistent>
1

> <s_lp_Variant>
AV-unprocessed.smi:730-3

> <Gold.Version>
5.8.1

> <Gold.Id.Protein>
6NUR|6NUR_protein|mol2

> <Gold.PLP.Fitness>
35.4719

> <Gold.PLP.PLP>
-32.8104

> <Gold.PLP.part.hbond>
-2.5957

> <Gold.PLP.part.metal>
0.0000

> <Gold.PLP.part.buried>
-2.7329

> <Gold.PLP.part.nonpolar>
-28.8360

> <Gold.PLP.part.repulsive>
0.1344

> <Gold.PLP.ligand.clash>
0.0000

> <Gold.PLP.ligand.torsion>
0.1702

> <Gold.PLP.Chemscore.Hbond>
1.0000

> <Gold.PLP.Chemscore.CHOScore>
0.0000

> <Gold.PLP.Chemscore.Metal>
0.0000

> <Gold.Chemscore.Hbonds>
donor molecule, donor type, donor heavy atom, donor atom, acceptor molecule, acceptor atom, score
      L1  H    17    40       P1  7948  0.98

> <Gold.PLP.Chemscore.Internal.Correction>
0.0019

> <Gold.Rescore>
     Score         DG    S(hbond)    S(metal)    S(lipo)     H(rot)  DE(clash)    DE(int)     intcor
     10.27     -14.42       0.99        0.00      85.51       1.71       0.10       4.05       ----

> <Gold.Chemscore.Fitness>
10.2674

> <Gold.Chemscore.DG>
-14.4227

> <Gold.Chemscore.ZeroCoef>
-5.4800

> <Gold.Chemscore.Hbond>
0.9946

> <Gold.Chemscore.Metal>
0.0000

> <Gold.Chemscore.Lipo>
85.5109

> <Gold.Chemscore.Internal_Hbond>
0.0000

> <Gold.Chemscore.DEClash>
0.1003

> <Gold.Chemscore.DEInternal>
4.0549

> <Gold.Chemscore.Rot>
1.7125

> <Gold.Chemscore.Internal.Correction>
   9.000000E+99

> <Gold.Chemscore.Hbonds>
donor molecule, donor type, donor heavy atom, donor atom, acceptor molecule, acceptor atom, score
      L1  H    17    40       P1  7948  0.90

> <Gold.Chemscore.Hbond.Weighted>
-3.3220

> <Gold.Chemscore.Metal.Weighted>
-0.0000

> <Gold.Chemscore.Lipo.Weighted>
-10.0048

> <Gold.Chemscore.Internal_Hbond.Weighted>
0.0000

> <Gold.Chemscore.DEClash.Weighted>
0.1003

> <Gold.Chemscore.DEInternal.Weighted>
4.0549

> <Gold.Chemscore.Rot.Weighted>
4.3841

> <Gold.Chemscore.Internal.Correction.Weighted>
   9.000000E+99

> <Gold.Protein.RotatedTorsions>
[ 6907 6896 6895 6894 ] final -103.46 input  -60.11 | X-H torsion
[ 7974 7965 7964 7962 ] final   78.65 input  175.53 | X-H torsion
[ 8008 7997 7996 7995 ] final  124.41 input   59.86 | X-H torsion
[ 10167 10162 10161 10158 ] final   45.91 input  -65.29 | X-H torsion
[ 10718 10713 10712 10709 ] final  147.61 input   66.30 | X-H torsion
[ 10763 10752 10751 10750 ] final  -22.81 input  -60.55 | X-H torsion
[ 11005 11000 10999 10996 ] final  152.95 input  -57.11 | X-H torsion

> <Gold.Protein.ActiveResidues>
 VAL166  LYS551  ARG553  GLY616  TRP617  ASP618  TYR619  PRO620  LYS621  CYS622 
 ASP623  PHE694  ASN695  SER759  ASP760  ASP761  ALA762  ILE779  LEU786  VAL792 
 PHE793  MET794  SER795  GLU796  ALA797  LYS798  CYS799  TRP800  GLU811  SER814 

> <Gold.Protein.RotatedAtoms>
  150.7241  134.0425  159.3770 H   0  0  0  0  0  0  0  0  0  0  0  0  # atno 6907 bound_to 6896
  151.8399  135.0591  160.0456 H   0  0  0  0  0  0  0  0  0  0  0  0  # atno 6908 bound_to 6896
  152.2870  133.5489  159.5570 H   0  0  0  0  0  0  0  0  0  0  0  0  # atno 6909 bound_to 6896
  145.6744  139.2506  143.1850 H   0  0  0  0  0  0  0  0  0  0  0  0  # atno 7974 bound_to 7965
  156.2800  140.2740  156.1784 H   0  0  0  0  0  0  0  0  0  0  0  0  # atno 8008 bound_to 7997
  155.0582  140.0386  157.2585 H   0  0  0  0  0  0  0  0  0  0  0  0  # atno 8009 bound_to 7997
  154.7139  140.2674  155.6609 H   0  0  0  0  0  0  0  0  0  0  0  0  # atno 8010 bound_to 7997
  140.3193  144.2725  150.6185 H   0  0  0  0  0  0  0  0  0  0  0  0  # atno 10167 bound_to 10162
  157.3189  131.0901  151.1256 H   0  0  0  0  0  0  0  0  0  0  0  0  # atno 10718 bound_to 10713
  153.6578  135.6978  153.5187 H   0  0  0  0  0  0  0  0  0  0  0  0  # atno 10763 bound_to 10752
  153.2655  135.4231  155.0936 H   0  0  0  0  0  0  0  0  0  0  0  0  # atno 10764 bound_to 10752
  154.8460  135.3565  154.6123 H   0  0  0  0  0  0  0  0  0  0  0  0  # atno 10765 bound_to 10752
  140.1354  134.8774  157.2260 H   0  0  0  0  0  0  0  0  0  0  0  0  # atno 11005 bound_to 11000
  146.1017  140.7535  142.9546 LP  0  0  0  0  0  0  0  0  0  0  0  0  # atno 17320 bound_to 7965
  144.7046  140.3798  143.7128 LP  0  0  0  0  0  0  0  0  0  0  0  0  # atno 17321 bound_to 7965
  140.5498  143.2208  151.7947 LP  0  0  0  0  0  0  0  0  0  0  0  0  # atno 17342 bound_to 10162
  139.4877  144.4492  151.9674 LP  0  0  0  0  0  0  0  0  0  0  0  0  # atno 17343 bound_to 10162
  157.2549  130.6631  149.5948 LP  0  0  0  0  0  0  0  0  0  0  0  0  # atno 17370 bound_to 10713
  155.9684  130.4527  150.5782 LP  0  0  0  0  0  0  0  0  0  0  0  0  # atno 17371 bound_to 10713
  140.2789  134.3373  155.7349 LP  0  0  0  0  0  0  0  0  0  0  0  0  # atno 17394 bound_to 11000
  141.2177  133.7467  156.9334 LP  0  0  0  0  0  0  0  0  0  0  0  0  # atno 17395 bound_to 11000

$$$$
