#       Name:                AV-unprocessed.smi:2798
#       Creating user name   scv26
#       Creation time:       Fri Mar 27 15:22:10 2020


#       File generated by GOLD software.
#

@<TRIPOS>MOLECULE
AV-unprocessed.smi:2798
    33    35     1
SMALL
NO_CHARGES


@<TRIPOS>ATOM
      1 ****        -6.6127  -1.0656  -0.8190 N.1            1 S1                 0.0000
      2 ****        -5.4594  -0.9749  -0.7886 C.1            1 S1                 0.0000
      3 ****        -4.0115  -0.8600  -0.7507 C.ar           1 S1                 0.0000
      4 ****        -3.4101   0.4072  -0.9003 C.ar           1 S1                 0.0000
      5 ****        -2.0056   0.4985  -0.8597 C.ar           1 S1                 0.0000
      6 ****        -1.2461  -0.6794  -0.6692 C.ar           1 S1                 0.0000
      7 ****         0.1555  -0.6966  -0.6104 N.pl3          1 S1                 0.0000
      8 ****         0.9338   0.5354  -0.5456 C.3            1 S1                 0.0000
      9 ****         0.7945   1.2987   0.7766 C.3            1 S1                 0.0000
     10 ****         2.2614   1.4780   1.1922 C.3            1 S1                 0.0000
     11 ****         2.8534   0.1714   1.7344 C.3            1 S1                 0.0000
     12 ****         2.9910  -0.6579   0.4594 C.3            1 S1                 0.0000
     13 ****         2.4550   0.3090  -0.6117 C.3            1 S1                 0.0000
     14 ****         2.8986   1.5434  -0.0732 O.3            1 S1                 0.0000
     15 ****        -1.9489  -1.8953  -0.5341 C.ar           1 S1                 0.0000
     16 ****        -3.2951  -1.9908  -0.5713 N.ar           1 S1                 0.0000
     17 ****        -4.0084   1.2956  -1.0440 H              1 S1                 0.0000
     18 ****        -1.5379   1.4644  -0.9754 H              1 S1                 0.0000
     19 ****         0.6317  -1.5719  -0.4450 H              1 S1                 0.0000
     20 ****         0.6513   1.1839  -1.3758 H              1 S1                 0.0000
     21 ****         0.3154   2.2636   0.6074 H              1 S1                 0.0000
     22 ****         0.2206   0.7645   1.5354 H              1 S1                 0.0000
     23 ****         2.4386   2.3425   1.8324 H              1 S1                 0.0000
     24 ****         3.8311   0.3453   2.1851 H              1 S1                 0.0000
     25 ****         2.2116  -0.2993   2.4798 H              1 S1                 0.0000
     26 ****         4.0399  -0.8914   0.2731 H              1 S1                 0.0000
     27 ****         2.4412  -1.5983   0.5031 H              1 S1                 0.0000
     28 ****         2.8261   0.1031  -1.6162 H              1 S1                 0.0000
     29 ****        -1.4155  -2.8234  -0.3878 H              1 S1                 0.0000
     30 ****        -7.6093  -1.1440  -0.8453 LP             1 S1                 0.0000
     31 ****         3.8945   1.5794   0.0103 LP             1 S1                 0.0000
     32 ****         2.5810   2.3232  -0.6127 LP             1 S1                 0.0000
     33 ****        -3.7498  -2.8755  -0.4688 LP             1 S1                 0.0000
@<TRIPOS>BOND
    1    1    2 3     
    2    2    3 1     
    3    3   16 ar    
    4    3    4 ar    
    5    4    5 ar    
    6    4   17 1     
    7    5    6 ar    
    8    5   18 1     
    9    6    7 1     
   10    6   15 ar    
   11    7    8 1     
   12    7   19 1     
   13    8   13 1     
   14    8    9 1     
   15    8   20 1     
   16    9   10 1     
   17    9   21 1     
   18    9   22 1     
   19   10   14 1     
   20   10   11 1     
   21   10   23 1     
   22   11   12 1     
   23   11   24 1     
   24   11   25 1     
   25   12   13 1     
   26   12   26 1     
   27   12   27 1     
   28   13   14 1     
   29   13   28 1     
   30   15   16 ar    
   31   15   29 1     
   32    1   30 1     
   33   14   31 1     
   34   14   32 1     
   35   16   33 1     
@<TRIPOS>SUBSTRUCTURE
      1 S1             1
@<TRIPOS>SET
LONE_PAIRS      STATIC     ATOMS    <user>   **** ""
4 30 31 32 33
DONOR_HYDROGENS      STATIC     ATOMS    <user>   **** ""
1 19
ATOM$BLUE        STATIC     ATOMS    COLORGROUP SYSTEM
4 30 31 32 33
ATOM$RED        STATIC     ATOMS    COLORGROUP SYSTEM
1 19
