AV-unprocessed.smi:2373|AV-procd|sdf|9439|dock9
  -GOLD-   2272013 73D 1   1.00000     0.00000
 Structure written by MMmdl.
 47 48  0  0  0  0  0  0  0  0  2 V2000
  145.5886  128.9100  151.9066 C   0  0  0  0  0  0  0  0  0  0  0  0
  146.8187  129.0191  152.6830 N   0  0  0  0  0  0  0  0  0  0  0  0
  147.4445  127.8271  153.2405 C   0  0  0  0  0  0  0  0  0  0  0  0
  147.3538  130.2928  152.9728 C   0  0  0  0  0  0  0  0  0  0  0  0
  148.4506  130.4932  153.8462 C   0  0  0  0  0  0  0  0  0  0  0  0
  148.9280  131.7982  154.0848 C   0  0  0  0  0  0  0  0  0  0  0  0
  148.3073  132.8998  153.4600 C   0  0  0  0  0  0  0  0  0  0  0  0
  148.8357  134.1932  153.7235 N   0  0  0  0  0  0  0  0  0  0  0  0
  149.4518  134.6413  154.8312 C   0  0  0  0  0  0  0  0  0  0  0  0
  149.6971  133.9632  155.8277 O   0  0  0  0  0  0  0  0  0  0  0  0
  149.7873  135.9364  154.7034 N   0  0  0  0  0  0  0  0  0  0  0  0
  150.4698  136.8015  155.6781 C   0  0  0  0  0  0  0  0  0  0  0  0
  150.8751  138.1605  155.0300 C   0  0  0  0  0  0  0  0  0  0  0  0
  149.7166  139.1253  154.7096 C   0  0  0  0  0  0  0  0  0  0  0  0
  150.1776  140.1503  153.8566 O   0  0  0  0  0  0  0  0  0  0  0  0
  149.4818  136.9952  156.8560 C   0  0  0  0  0  0  0  0  0  0  0  0
  150.1459  137.5932  158.1088 C   0  0  0  0  0  0  0  0  0  0  0  0
  151.2357  136.7770  158.5140 O   0  0  0  0  0  0  0  0  0  0  0  0
  152.2583  136.7050  157.5303 C   0  0  0  0  0  0  0  0  0  0  0  0
  151.7126  136.0627  156.2424 C   0  0  0  0  0  0  0  0  0  0  0  0
  147.2215  132.6474  152.5879 C   0  0  0  0  0  0  0  0  0  0  0  0
  146.7980  131.3810  152.3863 N   0  3  0  0  0  0  0  0  0  0  0  0
  145.7125  129.3689  150.9251 H   0  0  0  0  0  0  0  0  0  0  0  0
  144.7655  129.4072  152.4213 H   0  0  0  0  0  0  0  0  0  0  0  0
  145.3067  127.8681  151.7532 H   0  0  0  0  0  0  0  0  0  0  0  0
  147.4696  127.8795  154.3293 H   0  0  0  0  0  0  0  0  0  0  0  0
  148.4654  127.7229  152.8720 H   0  0  0  0  0  0  0  0  0  0  0  0
  146.8978  126.9254  152.9642 H   0  0  0  0  0  0  0  0  0  0  0  0
  148.9385  129.6650  154.3378 H   0  0  0  0  0  0  0  0  0  0  0  0
  149.7666  131.9480  154.7491 H   0  0  0  0  0  0  0  0  0  0  0  0
  148.7661  134.8516  152.9613 H   0  0  0  0  0  0  0  0  0  0  0  0
  149.5357  136.3847  153.8344 H   0  0  0  0  0  0  0  0  0  0  0  0
  151.5864  138.6792  155.6718 H   0  0  0  0  0  0  0  0  0  0  0  0
  151.4231  137.9681  154.1071 H   0  0  0  0  0  0  0  0  0  0  0  0
  148.8937  138.6098  154.2149 H   0  0  0  0  0  0  0  0  0  0  0  0
  149.3205  139.5849  155.6143 H   0  0  0  0  0  0  0  0  0  0  0  0
  149.8070  140.0175  152.9974 H   0  0  0  0  0  0  0  0  0  0  0  0
  148.6274  137.6036  156.5616 H   0  0  0  0  0  0  0  0  0  0  0  0
  149.0655  136.0266  157.1381 H   0  0  0  0  0  0  0  0  0  0  0  0
  150.4813  138.6164  157.9357 H   0  0  0  0  0  0  0  0  0  0  0  0
  149.4242  137.6363  158.9247 H   0  0  0  0  0  0  0  0  0  0  0  0
  152.6661  137.6979  157.3370 H   0  0  0  0  0  0  0  0  0  0  0  0
  153.0775  136.1037  157.9246 H   0  0  0  0  0  0  0  0  0  0  0  0
  151.4488  135.0282  156.4687 H   0  0  0  0  0  0  0  0  0  0  0  0
  152.5098  136.0145  155.5003 H   0  0  0  0  0  0  0  0  0  0  0  0
  146.6778  133.3966  152.0329 H   0  0  0  0  0  0  0  0  0  0  0  0
  146.0126  131.2361  151.7514 H   0  0  0  0  0  0  0  0  0  0  0  0
  1  2  1  0  0  0  0
  1 23  1  0  0  0  0
  1 24  1  0  0  0  0
  1 25  1  0  0  0  0
  2  3  1  0  0  0  0
  2  4  1  0  0  0  0
  3 26  1  0  0  0  0
  3 27  1  0  0  0  0
  3 28  1  0  0  0  0
  4 22  1  0  0  0  0
  4  5  2  0  0  0  0
  5  6  1  0  0  0  0
  5 29  1  0  0  0  0
  6  7  2  0  0  0  0
  6 30  1  0  0  0  0
  7  8  1  0  0  0  0
  7 21  1  0  0  0  0
  8  9  1  0  0  0  0
  8 31  1  0  0  0  0
  9 10  2  0  0  0  0
  9 11  1  0  0  0  0
 11 12  1  0  0  0  0
 11 32  1  0  0  0  0
 12 20  1  0  0  0  0
 12 13  1  0  0  0  0
 12 16  1  0  0  0  0
 13 14  1  0  0  0  0
 13 33  1  0  0  0  0
 13 34  1  0  0  0  0
 14 15  1  0  0  0  0
 14 35  1  0  0  0  0
 14 36  1  0  0  0  0
 15 37  1  0  0  0  0
 16 17  1  0  0  0  0
 16 38  1  0  0  0  0
 16 39  1  0  0  0  0
 17 18  1  0  0  0  0
 17 40  1  0  0  0  0
 17 41  1  0  0  0  0
 18 19  1  0  0  0  0
 19 20  1  0  0  0  0
 19 42  1  0  0  0  0
 19 43  1  0  0  0  0
 20 44  1  0  0  0  0
 20 45  1  0  0  0  0
 21 22  2  0  0  0  0
 21 46  1  0  0  0  0
 22 47  1  0  0  0  0
M  CHG  1  22   1
M  END
> <s_m_source_file>
AV-unprocessed.smi

> <i_m_source_file_index>
2373

> <i_lp_mmshare_version>
43012

> <i_f3d_flags>
0

> <s_epik_input>
W0NIM11OKFtDSDNdKWMxW2NIXVtjSF1jKFtjSF1uMSlbTkhdQyg9TylbTkhdQzIoW0NIMl1bQ0gyXVtPSF0pW0NIMl1bQ0gyXU9bQ0gyXVtDSDJdMg==

> <s_epik_cmdline>
J2VwaWtfcHl0aG9uJywgJy1waCcsICc3LjAnLCAnLXRuJywgJzgnLCAnLW1hJywgJzIwMCcsICctbWV0YWxfYmluZGluZycsICctaW1hZScsICc8aW5maWxlLm1hZT4nLCAnLW9tYWUnLCAnPG91dGZpbGUubWFlPic=

> <r_lp_tautomer_probability>
0.999994

> <r_epik_Ionization_Penalty>
0.250535

> <r_epik_Ionization_Penalty_Charging>
0.250515

> <r_epik_Ionization_Penalty_Neutral>
1.96065e-05

> <r_epik_State_Penalty>
0.241842

> <r_epik_Charging_Adjusted_Penalty>
0.492357

> <i_epik_Tot_Q>
1

> <i_epik_Tot_abs_Q>
1

> <r_epik_Metal_State_Penalty>
0.533268

> <b_epik_Metal_Only>
0

> <s_lp_Force_Field>
OPLS_2005

> <r_lp_Energy>
24.7544

> <b_lp_Chiralities_Consistent>
1

> <s_lp_Variant>
AV-unprocessed.smi:2373-1

> <Gold.Version>
5.8.1

> <Gold.Id.Protein>
6NUR|6NUR_protein|mol2

> <Gold.PLP.Fitness>
46.3180

> <Gold.PLP.PLP>
-33.9254

> <Gold.PLP.part.hbond>
-5.9158

> <Gold.PLP.part.metal>
0.0000

> <Gold.PLP.part.buried>
-3.8425

> <Gold.PLP.part.nonpolar>
-24.6931

> <Gold.PLP.part.repulsive>
0.0590

> <Gold.PLP.ligand.clash>
0.0000

> <Gold.PLP.ligand.torsion>
0.4909

> <Gold.PLP.Chemscore.Hbond>
4.4501

> <Gold.PLP.Chemscore.CHOScore>
0.0000

> <Gold.PLP.Chemscore.Metal>
0.0000

> <Gold.Chemscore.Hbonds>
donor molecule, donor type, donor heavy atom, donor atom, acceptor molecule, acceptor atom, score
      L1  H     8    31       P1  7948  0.95
      L1  H    11    32       P1  7948  0.97
      L1  H    15    37       P1  7957  1.00
      P1  H  6896  6909       L1    18  0.56
      P1  H  7989  7998       L1    15  0.85

> <Gold.PLP.Chemscore.Internal.Correction>
0.0242

> <Gold.Rescore>
     Score         DG    S(hbond)    S(metal)    S(lipo)     H(rot)  DE(clash)    DE(int)     intcor
     14.08     -17.47       2.98        0.00      63.74       2.12       0.09       3.30       ----

> <Gold.Chemscore.Fitness>
14.0787

> <Gold.Chemscore.DG>
-17.4729

> <Gold.Chemscore.ZeroCoef>
-5.4800

> <Gold.Chemscore.Hbond>
2.9795

> <Gold.Chemscore.Metal>
0.0000

> <Gold.Chemscore.Lipo>
63.7355

> <Gold.Chemscore.Internal_Hbond>
0.0000

> <Gold.Chemscore.DEClash>
0.0908

> <Gold.Chemscore.DEInternal>
3.3034

> <Gold.Chemscore.Rot>
2.1155

> <Gold.Chemscore.Internal.Correction>
   9.000000E+99

> <Gold.Chemscore.Hbonds>
donor molecule, donor type, donor heavy atom, donor atom, acceptor molecule, acceptor atom, score
      L1  H     8    31       P1  7948  0.22
      L1  H    11    32       P1  7948  0.60
      L1  H    15    37       P1  7957  1.00
      P1  H  6896  6909       L1    18  0.50
      P1  H  7989  7998       L1    15  0.25

> <Gold.Chemscore.Hbond.Weighted>
-9.9516

> <Gold.Chemscore.Metal.Weighted>
-0.0000

> <Gold.Chemscore.Lipo.Weighted>
-7.4571

> <Gold.Chemscore.Internal_Hbond.Weighted>
0.0000

> <Gold.Chemscore.DEClash.Weighted>
0.0908

> <Gold.Chemscore.DEInternal.Weighted>
3.3034

> <Gold.Chemscore.Rot.Weighted>
5.4158

> <Gold.Chemscore.Internal.Correction.Weighted>
   9.000000E+99

> <Gold.Protein.RotatedTorsions>
[ 6907 6896 6895 6894 ] final   93.80 input  -60.11 | X-H torsion
[ 7974 7965 7964 7962 ] final  -22.52 input  175.53 | X-H torsion
[ 8008 7997 7996 7995 ] final   -5.94 input   59.86 | X-H torsion
[ 10167 10162 10161 10158 ] final  -53.95 input  -65.29 | X-H torsion
[ 10718 10713 10712 10709 ] final  -95.38 input   66.30 | X-H torsion
[ 10763 10752 10751 10750 ] final   92.44 input  -60.55 | X-H torsion
[ 11005 11000 10999 10996 ] final   20.09 input  -57.11 | X-H torsion

> <Gold.Protein.ActiveResidues>
 VAL166  LYS551  ARG553  GLY616  TRP617  ASP618  TYR619  PRO620  LYS621  CYS622 
 ASP623  PHE694  ASN695  SER759  ASP760  ASP761  ALA762  ILE779  LEU786  VAL792 
 PHE793  MET794  SER795  GLU796  ALA797  LYS798  CYS799  TRP800  GLU811  SER814 

> <Gold.Protein.RotatedAtoms>
  152.5451  134.1292  159.8431 H   0  0  0  0  0  0  0  0  0  0  0  0  # atno 6907 bound_to 6896
  151.1339  133.5010  159.2606 H   0  0  0  0  0  0  0  0  0  0  0  0  # atno 6908 bound_to 6896
  151.1645  135.0299  159.8779 H   0  0  0  0  0  0  0  0  0  0  0  0  # atno 6909 bound_to 6896
  146.1671  140.4490  142.8548 H   0  0  0  0  0  0  0  0  0  0  0  0  # atno 7974 bound_to 7965
  154.5988  140.2445  155.7820 H   0  0  0  0  0  0  0  0  0  0  0  0  # atno 8008 bound_to 7997
  156.2297  140.2970  156.0110 H   0  0  0  0  0  0  0  0  0  0  0  0  # atno 8009 bound_to 7997
  155.2246  140.0401  157.2944 H   0  0  0  0  0  0  0  0  0  0  0  0  # atno 8010 bound_to 7997
  140.6457  143.2534  151.4866 H   0  0  0  0  0  0  0  0  0  0  0  0  # atno 10167 bound_to 10162
  156.0042  130.5107  150.6067 H   0  0  0  0  0  0  0  0  0  0  0  0  # atno 10718 bound_to 10713
  153.2192  135.4361  155.0469 H   0  0  0  0  0  0  0  0  0  0  0  0  # atno 10763 bound_to 10752
  154.8241  135.3352  154.6953 H   0  0  0  0  0  0  0  0  0  0  0  0  # atno 10764 bound_to 10752
  153.7386  135.7006  153.5028 H   0  0  0  0  0  0  0  0  0  0  0  0  # atno 10765 bound_to 10752
  140.4064  134.1664  155.7665 H   0  0  0  0  0  0  0  0  0  0  0  0  # atno 11005 bound_to 11000
  144.8108  140.6381  143.6417 LP  0  0  0  0  0  0  0  0  0  0  0  0  # atno 17320 bound_to 7965
  145.4440  139.1532  143.3955 LP  0  0  0  0  0  0  0  0  0  0  0  0  # atno 17321 bound_to 7965
  139.5668  144.2024  152.1776 LP  0  0  0  0  0  0  0  0  0  0  0  0  # atno 17342 bound_to 10162
  140.1308  144.5290  150.6804 LP  0  0  0  0  0  0  0  0  0  0  0  0  # atno 17343 bound_to 10162
  157.3907  131.0795  151.1396 LP  0  0  0  0  0  0  0  0  0  0  0  0  # atno 17370 bound_to 10713
  157.2089  130.6429  149.5766 LP  0  0  0  0  0  0  0  0  0  0  0  0  # atno 17371 bound_to 10713
  141.1837  133.8358  157.1164 LP  0  0  0  0  0  0  0  0  0  0  0  0  # atno 17394 bound_to 11000
  140.0299  134.9906  157.0759 LP  0  0  0  0  0  0  0  0  0  0  0  0  # atno 17395 bound_to 11000

$$$$
