AV-unprocessed.smi:3141|AV-procd|sdf|11963|dock10
  -GOLD-   2272017363D 1   1.00000     0.00000
 Structure written by MMmdl.
 36 38  0  0  0  0  0  0  0  0  2 V2000
  149.6273  141.8843  158.8661 O   0  0  0  0  0  0  0  0  0  0  0  0
  149.6322  142.6815  157.9278 C   0  0  0  0  0  0  0  0  0  0  0  0
  150.3865  143.7870  157.8812 N   0  0  0  0  0  0  0  0  0  0  0  0
  151.2991  144.2071  158.8947 C   0  0  0  0  0  0  0  0  0  0  0  0
  152.6507  144.7249  158.4536 C   0  0  0  0  0  0  0  0  0  0  0  0
  152.5446  143.3742  159.1056 C   0  0  0  0  0  0  0  0  0  0  0  0
  148.8968  142.5350  156.8160 N   0  0  0  0  0  0  0  0  0  0  0  0
  147.9644  141.4368  156.5505 C   0  0  1  0  0  0  0  0  0  0  0  0
  146.6705  141.9949  155.9216 C   0  0  0  0  0  0  0  0  0  0  0  0
  146.6251  141.4989  154.4672 C   0  0  0  0  0  0  0  0  0  0  0  0
  148.0283  140.9758  154.1625 C   0  0  0  0  0  0  0  0  0  0  0  0
  148.4970  140.4245  155.5115 C   0  0  1  0  0  0  0  0  0  0  0  0
  149.9356  140.1131  155.6027 N   0  0  0  0  0  0  0  0  0  0  0  0
  150.7669  140.1926  156.6944 C   0  0  0  0  0  0  0  0  0  0  0  0
  151.9982  139.7509  156.2842 C   0  0  0  0  0  0  0  0  0  0  0  0
  151.8685  139.4114  154.9652 N   0  3  0  0  0  0  0  0  0  0  0  0
  150.6154  139.6283  154.5546 C   0  0  0  0  0  0  0  0  0  0  0  0
  150.3156  144.3765  157.0646 H   0  0  0  0  0  0  0  0  0  0  0  0
  150.8783  144.6705  159.7859 H   0  0  0  0  0  0  0  0  0  0  0  0
  152.8632  144.7516  157.3865 H   0  0  0  0  0  0  0  0  0  0  0  0
  153.0928  145.5307  159.0360 H   0  0  0  0  0  0  0  0  0  0  0  0
  152.9167  143.2776  160.1236 H   0  0  0  0  0  0  0  0  0  0  0  0
  152.6868  142.4997  158.4735 H   0  0  0  0  0  0  0  0  0  0  0  0
  148.9746  143.2441  156.1014 H   0  0  0  0  0  0  0  0  0  0  0  0
  147.7284  140.9250  157.4855 H   0  0  0  0  0  0  0  0  0  0  0  0
  145.7918  141.6448  156.4647 H   0  0  0  0  0  0  0  0  0  0  0  0
  146.6443  143.0856  155.9549 H   0  0  0  0  0  0  0  0  0  0  0  0
  145.9063  140.6826  154.3837 H   0  0  0  0  0  0  0  0  0  0  0  0
  146.3155  142.2792  153.7713 H   0  0  0  0  0  0  0  0  0  0  0  0
  148.0327  140.2233  153.3735 H   0  0  0  0  0  0  0  0  0  0  0  0
  148.6537  141.8083  153.8394 H   0  0  0  0  0  0  0  0  0  0  0  0
  147.9691  139.4816  155.6682 H   0  0  0  0  0  0  0  0  0  0  0  0
  150.4363  140.5412  157.6613 H   0  0  0  0  0  0  0  0  0  0  0  0
  152.9306  139.6487  156.8200 H   0  0  0  0  0  0  0  0  0  0  0  0
  150.2250  139.4375  153.5708 H   0  0  0  0  0  0  0  0  0  0  0  0
  152.6095  139.0400  154.3841 H   0  0  0  0  0  0  0  0  0  0  0  0
  1  2  2  0  0  0  0
  2  3  1  0  0  0  0
  2  7  1  0  0  0  0
  3  4  1  0  0  0  0
  3 18  1  0  0  0  0
  4  6  1  0  0  0  0
  4  5  1  0  0  0  0
  4 19  1  0  0  0  0
  5  6  1  0  0  0  0
  5 20  1  0  0  0  0
  5 21  1  0  0  0  0
  6 22  1  0  0  0  0
  6 23  1  0  0  0  0
  7  8  1  0  0  0  0
  7 24  1  0  0  0  0
  8 12  1  0  0  0  0
  8  9  1  0  0  0  0
  8 25  1  0  0  0  0
  9 10  1  0  0  0  0
  9 26  1  0  0  0  0
  9 27  1  0  0  0  0
 10 11  1  0  0  0  0
 10 28  1  0  0  0  0
 10 29  1  0  0  0  0
 11 12  1  0  0  0  0
 11 30  1  0  0  0  0
 11 31  1  0  0  0  0
 12 13  1  0  0  0  0
 12 32  1  0  0  0  0
 13 17  1  0  0  0  0
 13 14  1  0  0  0  0
 14 15  2  0  0  0  0
 14 33  1  0  0  0  0
 15 16  1  0  0  0  0
 15 34  1  0  0  0  0
 16 17  2  0  0  0  0
 16 36  1  0  0  0  0
 17 35  1  0  0  0  0
M  CHG  1  16   1
M  END
> <s_m_source_file>
AV-unprocessed.smi

> <i_m_source_file_index>
3141

> <i_lp_mmshare_version>
43012

> <i_f3d_flags>
0

> <s_epik_input>
W0NIMl0xW0NIMl1bQ0hdMVtOSF1DKD1PKVtOSF1bQ0BASF0yW0NIMl1bQ0gyXVtDSDJdW0NASF0ybjNbY0hdW2NIXW5bY0hdMw==

> <s_epik_cmdline>
J2VwaWtfcHl0aG9uJywgJy1waCcsICc3LjAnLCAnLXRuJywgJzgnLCAnLW1hJywgJzIwMCcsICctbWV0YWxfYmluZGluZycsICctaW1hZScsICc8aW5maWxlLm1hZT4nLCAnLW9tYWUnLCAnPG91dGZpbGUubWFlPic=

> <r_lp_tautomer_probability>
1

> <r_epik_Ionization_Penalty>
0.205063

> <r_epik_Ionization_Penalty_Charging>
0

> <r_epik_Ionization_Penalty_Neutral>
0.205063

> <r_epik_State_Penalty>
0.194948

> <r_epik_Charging_Adjusted_Penalty>
0.194948

> <i_epik_Tot_Q>
1

> <i_epik_Tot_abs_Q>
1

> <r_epik_Metal_State_Penalty>
0.500882

> <b_epik_Metal_Only>
0

> <s_lp_Force_Field>
OPLS_2005

> <r_lp_Energy>
36.92

> <b_lp_Chiralities_Consistent>
1

> <s_lp_Variant>
AV-unprocessed.smi:3141-2

> <Gold.Version>
5.8.1

> <Gold.Id.Protein>
6NUR|6NUR_protein|mol2

> <Gold.PLP.Fitness>
36.7788

> <Gold.PLP.PLP>
-30.8484

> <Gold.PLP.part.hbond>
-2.7372

> <Gold.PLP.part.metal>
0.0000

> <Gold.PLP.part.buried>
-2.2057

> <Gold.PLP.part.nonpolar>
-27.7012

> <Gold.PLP.part.repulsive>
1.2847

> <Gold.PLP.ligand.clash>
0.0042

> <Gold.PLP.ligand.torsion>
1.0341

> <Gold.PLP.Chemscore.Hbond>
1.6480

> <Gold.PLP.Chemscore.CHOScore>
1.0000

> <Gold.PLP.Chemscore.Metal>
0.0000

> <Gold.Chemscore.Hbonds>
donor molecule, donor type, donor heavy atom, donor atom, acceptor molecule, acceptor atom, score
      L1  H     3    18       P1  8028  0.72
      L1  H     7    24       P1  8028  1.00
      L1  C    17    35       P1  7957  0.95

> <Gold.PLP.Chemscore.Internal.Correction>
0.0586

> <Gold.Rescore>
     Score         DG    S(hbond)    S(metal)    S(lipo)     H(rot)  DE(clash)    DE(int)     intcor
     13.44     -14.43       1.60        0.00      66.04       1.61       0.18       0.82       ----

> <Gold.Chemscore.Fitness>
13.4388

> <Gold.Chemscore.DG>
-14.4321

> <Gold.Chemscore.ZeroCoef>
-5.4800

> <Gold.Chemscore.Hbond>
1.6001

> <Gold.Chemscore.Metal>
0.0000

> <Gold.Chemscore.Lipo>
66.0385

> <Gold.Chemscore.Internal_Hbond>
0.0000

> <Gold.Chemscore.DEClash>
0.1753

> <Gold.Chemscore.DEInternal>
0.8180

> <Gold.Chemscore.Rot>
1.6088

> <Gold.Chemscore.Internal.Correction>
   9.000000E+99

> <Gold.Chemscore.Hbonds>
donor molecule, donor type, donor heavy atom, donor atom, acceptor molecule, acceptor atom, score
      L1  H     3    18       P1  8028  0.57
      L1  H     7    24       P1  8028  0.89

> <Gold.Chemscore.Hbond.Weighted>
-5.3442

> <Gold.Chemscore.Metal.Weighted>
-0.0000

> <Gold.Chemscore.Lipo.Weighted>
-7.7265

> <Gold.Chemscore.Internal_Hbond.Weighted>
0.0000

> <Gold.Chemscore.DEClash.Weighted>
0.1753

> <Gold.Chemscore.DEInternal.Weighted>
0.8180

> <Gold.Chemscore.Rot.Weighted>
4.1186

> <Gold.Chemscore.Internal.Correction.Weighted>
   9.000000E+99

> <Gold.Protein.RotatedTorsions>
[ 6907 6896 6895 6894 ] final  -32.57 input  -60.11 | X-H torsion
[ 7974 7965 7964 7962 ] final -159.53 input  175.53 | X-H torsion
[ 8008 7997 7996 7995 ] final    0.62 input   59.86 | X-H torsion
[ 10167 10162 10161 10158 ] final  173.99 input  -65.29 | X-H torsion
[ 10718 10713 10712 10709 ] final  -43.41 input   66.30 | X-H torsion
[ 10763 10752 10751 10750 ] final    5.24 input  -60.55 | X-H torsion
[ 11005 11000 10999 10996 ] final   -1.66 input  -57.11 | X-H torsion

> <Gold.Protein.ActiveResidues>
 VAL166  LYS551  ARG553  GLY616  TRP617  ASP618  TYR619  PRO620  LYS621  CYS622 
 ASP623  PHE694  ASN695  SER759  ASP760  ASP761  ALA762  ILE779  LEU786  VAL792 
 PHE793  MET794  SER795  GLU796  ALA797  LYS798  CYS799  TRP800  GLU811  SER814 

> <Gold.Protein.RotatedAtoms>
  151.0770  134.9834  159.8336 H   0  0  0  0  0  0  0  0  0  0  0  0  # atno 6907 bound_to 6896
  152.5415  134.2229  159.8805 H   0  0  0  0  0  0  0  0  0  0  0  0  # atno 6908 bound_to 6896
  151.2257  133.4434  159.2635 H   0  0  0  0  0  0  0  0  0  0  0  0  # atno 6909 bound_to 6896
  144.7462  140.3672  143.6083 H   0  0  0  0  0  0  0  0  0  0  0  0  # atno 7974 bound_to 7965
  154.6702  140.2610  155.7015 H   0  0  0  0  0  0  0  0  0  0  0  0  # atno 8008 bound_to 7997
  156.2656  140.2831  156.1131 H   0  0  0  0  0  0  0  0  0  0  0  0  # atno 8009 bound_to 7997
  155.1179  140.0376  157.2732 H   0  0  0  0  0  0  0  0  0  0  0  0  # atno 8010 bound_to 7997
  139.5127  144.3197  152.0214 H   0  0  0  0  0  0  0  0  0  0  0  0  # atno 10167 bound_to 10162
  156.2493  130.4186  149.8668 H   0  0  0  0  0  0  0  0  0  0  0  0  # atno 10718 bound_to 10713
  153.2617  135.6924  153.7571 H   0  0  0  0  0  0  0  0  0  0  0  0  # atno 10763 bound_to 10752
  153.6628  135.3357  155.3133 H   0  0  0  0  0  0  0  0  0  0  0  0  # atno 10764 bound_to 10752
  154.8433  135.4481  154.1610 H   0  0  0  0  0  0  0  0  0  0  0  0  # atno 10765 bound_to 10752
  140.6498  133.9415  155.8373 H   0  0  0  0  0  0  0  0  0  0  0  0  # atno 11005 bound_to 11000
  145.7116  139.1686  143.2536 LP  0  0  0  0  0  0  0  0  0  0  0  0  # atno 17320 bound_to 7965
  146.1343  140.7144  142.9397 LP  0  0  0  0  0  0  0  0  0  0  0  0  # atno 17321 bound_to 7965
  140.2640  144.4037  150.6175 LP  0  0  0  0  0  0  0  0  0  0  0  0  # atno 17342 bound_to 10162
  140.6137  143.2171  151.6835 LP  0  0  0  0  0  0  0  0  0  0  0  0  # atno 17343 bound_to 10162
  156.6223  130.8631  151.3478 LP  0  0  0  0  0  0  0  0  0  0  0  0  # atno 17370 bound_to 10713
  157.7208  130.9556  150.1431 LP  0  0  0  0  0  0  0  0  0  0  0  0  # atno 17371 bound_to 10713
  141.0545  134.0436  157.3740 LP  0  0  0  0  0  0  0  0  0  0  0  0  # atno 17394 bound_to 11000
  139.9050  135.0177  156.7444 LP  0  0  0  0  0  0  0  0  0  0  0  0  # atno 17395 bound_to 11000

$$$$
