AV-unprocessed.smi:2831|AV-procd|sdf|10908|dock3
  -GOLD-   2272015353D 1   1.00000     0.00000
 Structure written by MMmdl.
 30 31  0  0  0  0  0  0  0  0  1 V2000
  146.6914  133.9100  162.3937 C   0  0  0  0  0  0  0  0  0  0  0  0
  147.1559  135.0934  161.6157 C   0  0  0  0  0  0  0  0  0  0  0  0
  147.0648  136.3457  162.0798 N   0  0  0  0  0  0  0  0  0  0  0  0
  147.5551  137.2785  161.1766 N   0  0  0  0  0  0  0  0  0  0  0  0
  148.0012  136.6999  160.0531 C   0  0  0  0  0  0  0  0  0  0  0  0
  148.5501  137.4192  158.9587 N   0  0  0  0  0  0  0  0  0  0  0  0
  148.8016  136.9790  157.7134 C   0  0  0  0  0  0  0  0  0  0  0  0
  148.5768  135.8400  157.3038 O   0  0  0  0  0  0  0  0  0  0  0  0
  149.3376  137.9518  156.9576 N   0  0  0  0  0  0  0  0  0  0  0  0
  149.7340  137.8653  155.5472 C   0  0  1  0  0  0  0  0  0  0  0  0
  148.4859  137.7830  154.6419 C   0  0  0  0  0  0  0  0  0  0  0  0
  150.5858  139.0905  155.1826 C   0  0  0  0  0  0  0  0  0  0  0  0
  151.9701  138.5255  154.8757 C   0  0  0  0  0  0  0  0  0  0  0  0
  151.6889  137.2173  154.4163 O   0  0  0  0  0  0  0  0  0  0  0  0
  150.7064  136.6928  155.2929 C   0  0  0  0  0  0  0  0  0  0  0  0
  147.8590  134.9507  160.0090 S   0  0  0  0  0  0  0  0  0  0  0  0
  146.7507  134.1091  163.4642 H   0  0  0  0  0  0  0  0  0  0  0  0
  147.3117  133.0427  162.1666 H   0  0  0  0  0  0  0  0  0  0  0  0
  145.6578  133.6788  162.1363 H   0  0  0  0  0  0  0  0  0  0  0  0
  148.7824  138.3829  159.1480 H   0  0  0  0  0  0  0  0  0  0  0  0
  149.4823  138.8484  157.3981 H   0  0  0  0  0  0  0  0  0  0  0  0
  148.7649  137.7592  153.5878 H   0  0  0  0  0  0  0  0  0  0  0  0
  147.8320  138.6429  154.7911 H   0  0  0  0  0  0  0  0  0  0  0  0
  147.8996  136.8850  154.8374 H   0  0  0  0  0  0  0  0  0  0  0  0
  150.1947  139.5828  154.2912 H   0  0  0  0  0  0  0  0  0  0  0  0
  150.6280  139.8463  155.9682 H   0  0  0  0  0  0  0  0  0  0  0  0
  152.5083  139.1092  154.1287 H   0  0  0  0  0  0  0  0  0  0  0  0
  152.5806  138.4738  155.7786 H   0  0  0  0  0  0  0  0  0  0  0  0
  151.2050  136.3752  156.2104 H   0  0  0  0  0  0  0  0  0  0  0  0
  150.2197  135.8175  154.8616 H   0  0  0  0  0  0  0  0  0  0  0  0
  1  2  1  0  0  0  0
  1 17  1  0  0  0  0
  1 18  1  0  0  0  0
  1 19  1  0  0  0  0
  2 16  1  0  0  0  0
  2  3  2  0  0  0  0
  3  4  1  0  0  0  0
  4  5  2  0  0  0  0
  5  6  1  0  0  0  0
  5 16  1  0  0  0  0
  6  7  1  0  0  0  0
  6 20  1  0  0  0  0
  7  8  2  0  0  0  0
  7  9  1  0  0  0  0
  9 10  1  0  0  0  0
  9 21  1  0  0  0  0
 10 15  1  0  0  0  0
 10 11  1  0  0  0  0
 10 12  1  0  0  0  0
 11 22  1  0  0  0  0
 11 23  1  0  0  0  0
 11 24  1  0  0  0  0
 12 13  1  0  0  0  0
 12 25  1  0  0  0  0
 12 26  1  0  0  0  0
 13 14  1  0  0  0  0
 13 27  1  0  0  0  0
 13 28  1  0  0  0  0
 14 15  1  0  0  0  0
 15 29  1  0  0  0  0
 15 30  1  0  0  0  0
M  END
> <s_m_source_file>
AV-unprocessed.smi

> <i_m_source_file_index>
2831

> <i_lp_mmshare_version>
43012

> <i_f3d_flags>
0

> <s_epik_input>
W0NIM11jMW5uYyhzMSlbTkhdQyg9TylbTkhdW0NAQF0yKFtDSDNdKVtDSDJdW0NIMl1PW0NIMl0y

> <s_epik_cmdline>
J2VwaWtfcHl0aG9uJywgJy1waCcsICc3LjAnLCAnLXRuJywgJzgnLCAnLW1hJywgJzIwMCcsICctbWV0YWxfYmluZGluZycsICctaW1hZScsICc8aW5maWxlLm1hZT4nLCAnLW9tYWUnLCAnPG91dGZpbGUubWFlPic=

> <r_lp_tautomer_probability>
1

> <r_epik_Ionization_Penalty>
0.00277018

> <r_epik_Ionization_Penalty_Charging>
0

> <r_epik_Ionization_Penalty_Neutral>
0.00277018

> <r_epik_State_Penalty>
-0

> <r_epik_Charging_Adjusted_Penalty>
0

> <i_epik_Tot_Q>
0

> <i_epik_Tot_abs_Q>
0

> <r_epik_Metal_State_Penalty>
0.356997

> <b_epik_Metal_Only>
0

> <s_lp_Force_Field>
OPLS_2005

> <r_lp_Energy>
15.109

> <b_lp_Chiralities_Consistent>
1

> <s_lp_Variant>
AV-unprocessed.smi:2831-1

> <Gold.Version>
5.8.1

> <Gold.Id.Protein>
6NUR|6NUR_protein|mol2

> <Gold.PLP.Fitness>
31.3815

> <Gold.PLP.PLP>
-23.3452

> <Gold.PLP.part.hbond>
-3.0000

> <Gold.PLP.part.metal>
0.0000

> <Gold.PLP.part.buried>
-4.1740

> <Gold.PLP.part.nonpolar>
-16.8592

> <Gold.PLP.part.repulsive>
0.3622

> <Gold.PLP.ligand.clash>
0.0000

> <Gold.PLP.ligand.torsion>
0.1837

> <Gold.PLP.Chemscore.Hbond>
2.7920

> <Gold.PLP.Chemscore.CHOScore>
0.0000

> <Gold.PLP.Chemscore.Metal>
0.0000

> <Gold.Chemscore.Hbonds>
donor molecule, donor type, donor heavy atom, donor atom, acceptor molecule, acceptor atom, score
      P1  H  6931  6943       L1     4  0.86
      P1  H  6934  6947       L1     4  0.91
      P1  H 10752 10764       L1    14  1.00

> <Gold.PLP.Chemscore.Internal.Correction>
0.0275

> <Gold.Rescore>
     Score         DG    S(hbond)    S(metal)    S(lipo)     H(rot)  DE(clash)    DE(int)     intcor
     13.98     -15.36       2.22        0.00      43.12       1.00       0.08       1.30       ----

> <Gold.Chemscore.Fitness>
13.9849

> <Gold.Chemscore.DG>
-15.3635

> <Gold.Chemscore.ZeroCoef>
-5.4800

> <Gold.Chemscore.Hbond>
2.2151

> <Gold.Chemscore.Metal>
0.0000

> <Gold.Chemscore.Lipo>
43.1216

> <Gold.Chemscore.Internal_Hbond>
0.0000

> <Gold.Chemscore.DEClash>
0.0794

> <Gold.Chemscore.DEInternal>
1.2992

> <Gold.Chemscore.Rot>
1.0000

> <Gold.Chemscore.Internal.Correction>
   9.000000E+99

> <Gold.Chemscore.Hbonds>
donor molecule, donor type, donor heavy atom, donor atom, acceptor molecule, acceptor atom, score
      P1  H  6931  6943       L1     4  0.42
      P1  H  6934  6947       L1     4  0.74
      P1  H 10752 10764       L1    14  0.24

> <Gold.Chemscore.Hbond.Weighted>
-7.3983

> <Gold.Chemscore.Metal.Weighted>
-0.0000

> <Gold.Chemscore.Lipo.Weighted>
-5.0452

> <Gold.Chemscore.Internal_Hbond.Weighted>
0.0000

> <Gold.Chemscore.DEClash.Weighted>
0.0794

> <Gold.Chemscore.DEInternal.Weighted>
1.2992

> <Gold.Chemscore.Rot.Weighted>
2.5600

> <Gold.Chemscore.Internal.Correction.Weighted>
   9.000000E+99

> <Gold.Protein.RotatedTorsions>
[ 6907 6896 6895 6894 ] final  -46.22 input  -60.11 | X-H torsion
[ 7974 7965 7964 7962 ] final -135.36 input  175.53 | X-H torsion
[ 8008 7997 7996 7995 ] final  151.91 input   59.86 | X-H torsion
[ 10167 10162 10161 10158 ] final  -87.93 input  -65.29 | X-H torsion
[ 10718 10713 10712 10709 ] final   65.66 input   66.30 | X-H torsion
[ 10763 10752 10751 10750 ] final  -74.98 input  -60.55 | X-H torsion
[ 11005 11000 10999 10996 ] final  -85.54 input  -57.11 | X-H torsion

> <Gold.Protein.ActiveResidues>
 VAL166  LYS551  ARG553  GLY616  TRP617  ASP618  TYR619  PRO620  LYS621  CYS622 
 ASP623  PHE694  ASN695  SER759  ASP760  ASP761  ALA762  ILE779  LEU786  VAL792 
 PHE793  MET794  SER795  GLU796  ALA797  LYS798  CYS799  TRP800  GLU811  SER814 

> <Gold.Protein.RotatedAtoms>
  150.9135  134.8552  159.7441 H   0  0  0  0  0  0  0  0  0  0  0  0  # atno 6907 bound_to 6896
  152.4956  134.4323  159.9526 H   0  0  0  0  0  0  0  0  0  0  0  0  # atno 6908 bound_to 6896
  151.4364  133.3616  159.2811 H   0  0  0  0  0  0  0  0  0  0  0  0  # atno 6909 bound_to 6896
  144.9021  140.6784  143.5079 H   0  0  0  0  0  0  0  0  0  0  0  0  # atno 7974 bound_to 7965
  156.2653  140.2035  156.6250 H   0  0  0  0  0  0  0  0  0  0  0  0  # atno 8008 bound_to 7997
  154.6727  140.0548  157.0207 H   0  0  0  0  0  0  0  0  0  0  0  0  # atno 8009 bound_to 7997
  155.1113  140.3216  155.4523 H   0  0  0  0  0  0  0  0  0  0  0  0  # atno 8010 bound_to 7997
  140.3797  143.2755  151.9399 H   0  0  0  0  0  0  0  0  0  0  0  0  # atno 10167 bound_to 10162
  157.6119  130.9226  150.0005 H   0  0  0  0  0  0  0  0  0  0  0  0  # atno 10718 bound_to 10713
  154.4804  135.5846  153.6386 H   0  0  0  0  0  0  0  0  0  0  0  0  # atno 10763 bound_to 10752
  152.9847  135.6088  154.3253 H   0  0  0  0  0  0  0  0  0  0  0  0  # atno 10764 bound_to 10752
  154.3143  135.2844  155.2530 H   0  0  0  0  0  0  0  0  0  0  0  0  # atno 10765 bound_to 10752
  141.1640  133.7405  156.9030 H   0  0  0  0  0  0  0  0  0  0  0  0  # atno 11005 bound_to 11000
  145.3599  139.1684  143.4389 LP  0  0  0  0  0  0  0  0  0  0  0  0  # atno 17320 bound_to 7965
  146.3114  140.3660  142.8669 LP  0  0  0  0  0  0  0  0  0  0  0  0  # atno 17321 bound_to 7965
  139.4796  144.5830  151.7900 LP  0  0  0  0  0  0  0  0  0  0  0  0  # atno 17342 bound_to 10162
  140.4950  144.1253  150.5958 LP  0  0  0  0  0  0  0  0  0  0  0  0  # atno 17343 bound_to 10162
  156.1226  130.3645  149.9862 LP  0  0  0  0  0  0  0  0  0  0  0  0  # atno 17370 bound_to 10713
  156.7940  130.9266  151.3646 LP  0  0  0  0  0  0  0  0  0  0  0  0  # atno 17371 bound_to 10713
  140.1569  134.9192  157.2665 LP  0  0  0  0  0  0  0  0  0  0  0  0  # atno 17394 bound_to 11000
  140.2656  134.3520  155.7391 LP  0  0  0  0  0  0  0  0  0  0  0  0  # atno 17395 bound_to 11000

$$$$
