#       Name:                AV-unprocessed.smi:1986
#       Creating user name   scv26
#       Creation time:       Fri Mar 27 10:25:26 2020


#       File generated by GOLD software.
#

@<TRIPOS>MOLECULE
AV-unprocessed.smi:1986
    57    58     1
SMALL
NO_CHARGES


@<TRIPOS>ATOM
      1 ****        -1.9692  -0.7357   3.9942 C.3            1 S1                 0.0000
      2 ****        -2.3156  -0.6956   2.4952 C.3            1 S1                 0.0000
      3 ****        -1.1278  -0.4060   1.5274 C.3            1 S1                 0.0000
      4 ****        -0.4831   0.9520   1.9098 C.3            1 S1                 0.0000
      5 ****        -0.0381  -1.5152   1.6947 C.3            1 S1                 0.0000
      6 ****         0.9275  -1.5606   0.5981 N.am           1 S1                 0.0000
      7 ****         2.0763  -0.8733   0.5288 C.2            1 S1                 0.0000
      8 ****         2.5087  -0.1722   1.4430 O.2            1 S1                 0.0000
      9 ****         2.8481  -0.9868  -0.7906 C.3            1 S1                 0.0000
     10 ****         3.0285   0.3227  -1.4322 N.am           1 S1                 0.0000
     11 ****         4.3201   0.8203  -1.3559 N.2            1 S1                 0.0000
     12 ****         4.6009   1.9671  -1.8762 C.2            1 S1                 0.0000
     13 ****         5.8922   2.4233  -1.7766 O.3            1 S1                 0.0000
     14 ****         3.5883   2.7531  -2.5464 C.2            1 S1                 0.0000
     15 ****         2.3333   2.2584  -2.6200 C.2            1 S1                 0.0000
     16 ****         1.9810   0.9607  -2.0420 C.2            1 S1                 0.0000
     17 ****         0.8458   0.4850  -2.0932 O.2            1 S1                 0.0000
     18 ****        -1.5998  -0.3485   0.0935 N.4            1 S1                 1.0000
     19 ****        -2.2022  -1.6028  -0.4390 C.3            1 S1                 0.0000
     20 ****        -2.4191  -1.4861  -1.9557 C.3            1 S1                 0.0000
     21 ****        -3.2773  -0.3862  -2.2232 O.3            1 S1                 0.0000
     22 ****        -2.7085   0.8432  -1.7941 C.3            1 S1                 0.0000
     23 ****        -2.4629   0.8104  -0.2750 C.3            1 S1                 0.0000
     24 ****         6.3595   1.7521  -1.3034 H              1 S1                 0.0000
     25 ****        -2.8622  -0.9476   4.5826 H              1 S1                 0.0000
     26 ****        -1.5724   0.2157   4.3472 H              1 S1                 0.0000
     27 ****        -1.2415  -1.5136   4.2238 H              1 S1                 0.0000
     28 ****        -2.7746  -1.6520   2.2463 H              1 S1                 0.0000
     29 ****        -3.0971   0.0516   2.3605 H              1 S1                 0.0000
     30 ****         0.0982   0.8813   2.8294 H              1 S1                 0.0000
     31 ****        -1.2305   1.7277   2.0787 H              1 S1                 0.0000
     32 ****         0.1933   1.3107   1.1334 H              1 S1                 0.0000
     33 ****         0.4879  -1.4125   2.6453 H              1 S1                 0.0000
     34 ****        -0.5074  -2.4980   1.7412 H              1 S1                 0.0000
     35 ****         0.6770  -2.1280  -0.1989 H              1 S1                 0.0000
     36 ****         3.8135  -1.4510  -0.5812 H              1 S1                 0.0000
     37 ****         2.3371  -1.6662  -1.4760 H              1 S1                 0.0000
     38 ****         3.8404   3.7119  -2.9754 H              1 S1                 0.0000
     39 ****         1.5679   2.8355  -3.1178 H              1 S1                 0.0000
     40 ****        -1.5677  -2.4665  -0.2485 H              1 S1                 0.0000
     41 ****        -3.1601  -1.7974   0.0436 H              1 S1                 0.0000
     42 ****        -1.4693  -1.3656  -2.4799 H              1 S1                 0.0000
     43 ****        -2.8825  -2.3948  -2.3400 H              1 S1                 0.0000
     44 ****        -1.7827   1.0371  -2.3369 H              1 S1                 0.0000
     45 ****        -3.3948   1.6526  -2.0440 H              1 S1                 0.0000
     46 ****        -3.4192   0.7489   0.2446 H              1 S1                 0.0000
     47 ****        -2.0062   1.7588   0.0016 H              1 S1                 0.0000
     48 ****        -0.7520  -0.2159  -0.4404 H              1 S1                 0.0000
     49 ****         1.9952  -0.0920   2.2974 LP             1 S1                 0.0000
     50 ****         3.3735   0.3173   1.3315 LP             1 S1                 0.0000
     51 ****         5.0339   0.2906  -0.8978 LP             1 S1                 0.0000
     52 ****         5.9200   3.2883  -1.2757 LP             1 S1                 0.0000
     53 ****         6.2891   2.5514  -2.6855 LP             1 S1                 0.0000
     54 ****         0.6574  -0.4051  -1.6780 LP             1 S1                 0.0000
     55 ****         0.1126   0.9888  -2.5500 LP             1 S1                 0.0000
     56 ****        -4.1433  -0.5272  -1.7435 LP             1 S1                 0.0000
     57 ****        -3.4456  -0.3389  -3.2078 LP             1 S1                 0.0000
@<TRIPOS>BOND
    1    1    2 1     
    2    1   25 1     
    3    1   26 1     
    4    1   27 1     
    5    2    3 1     
    6    2   28 1     
    7    2   29 1     
    8    3    4 1     
    9    3    5 1     
   10    3   18 1     
   11    4   30 1     
   12    4   31 1     
   13    4   32 1     
   14    5    6 1     
   15    5   33 1     
   16    5   34 1     
   17    6    7 am    
   18    6   35 1     
   19    7    8 2     
   20    7    9 1     
   21    9   36 1     
   22    9   37 1     
   23    9   10 1     
   24   10   11 1     
   25   10   16 am    
   26   11   12 2     
   27   12   13 1     
   28   12   14 1     
   29   13   24 1     
   30   14   38 1     
   31   14   15 2     
   32   15   39 1     
   33   15   16 1     
   34   16   17 2     
   35   18   23 1     
   36   18   19 1     
   37   18   48 1     
   38   19   20 1     
   39   19   40 1     
   40   19   41 1     
   41   20   21 1     
   42   20   42 1     
   43   20   43 1     
   44   21   22 1     
   45   22   23 1     
   46   22   44 1     
   47   22   45 1     
   48   23   46 1     
   49   23   47 1     
   50    8   49 1     
   51    8   50 1     
   52   11   51 1     
   53   13   52 1     
   54   13   53 1     
   55   17   54 1     
   56   17   55 1     
   57   21   56 1     
   58   21   57 1     
@<TRIPOS>SUBSTRUCTURE
      1 S1             1
@<TRIPOS>SET
LONE_PAIRS      STATIC     ATOMS    <user>   **** ""
9 49 50 51 52 53 54 55 56 57
DONOR_HYDROGENS      STATIC     ATOMS    <user>   **** ""
3 35 24 48
ATOM$BLUE        STATIC     ATOMS    COLORGROUP SYSTEM
9 49 50 51 52 53 54 55 56 57
ATOM$RED        STATIC     ATOMS    COLORGROUP SYSTEM
3 35 24 48
