AV-unprocessed.smi:1239|AV-procd|sdf|5188|dock7
  -GOLD-   22720 4273D 1   1.00000     0.00000
 Structure written by MMmdl.
 47 48  0  0  0  0  0  0  0  0  1 V2000
  153.6422  138.5945  158.8209 C   0  0  0  0  0  0  0  0  0  0  0  0
  152.7974  139.7820  158.2927 C   0  0  1  0  0  0  0  0  0  0  0  0
  151.2918  139.3867  158.3333 C   0  0  0  0  0  0  0  0  0  0  0  0
  150.8687  138.5802  157.1913 N   0  0  0  0  0  0  0  0  0  0  0  0
  150.9518  137.2443  157.1185 C   0  0  0  0  0  0  0  0  0  0  0  0
  151.4182  136.5440  158.0168 O   0  0  0  0  0  0  0  0  0  0  0  0
  150.4772  136.7933  155.9449 N   0  0  0  0  0  0  0  0  0  0  0  0
  150.3686  135.4525  155.4866 C   0  0  0  0  0  0  0  0  0  0  0  0
  150.9962  134.3432  156.0984 C   0  0  0  0  0  0  0  0  0  0  0  0
  150.7946  133.0590  155.5570 C   0  0  0  0  0  0  0  0  0  0  0  0
  149.9648  132.9063  154.4186 C   0  0  0  0  0  0  0  0  0  0  0  0
  149.7341  131.6382  153.8379 N   0  0  0  0  0  0  0  0  0  0  0  0
  148.6895  131.4811  152.8311 C   0  0  0  0  0  0  0  0  0  0  0  0
  150.6003  130.5127  154.1659 C   0  0  0  0  0  0  0  0  0  0  0  0
  149.3555  133.9733  153.8458 N   0  0  0  0  0  0  0  0  0  0  0  0
  149.5508  135.2015  154.3680 C   0  0  0  0  0  0  0  0  0  0  0  0
  153.0901  141.0506  159.0003 N   0  0  0  0  0  0  0  0  0  0  0  0
  153.0267  140.9148  160.4604 C   0  0  0  0  0  0  0  0  0  0  0  0
  153.2959  142.2390  161.1966 C   0  0  0  0  0  0  0  0  0  0  0  0
  152.3763  143.2291  160.7575 O   0  0  0  0  0  0  0  0  0  0  0  0
  152.4595  143.4490  159.3564 C   0  0  0  0  0  0  0  0  0  0  0  0
  152.1805  142.1339  158.6086 C   0  0  0  0  0  0  0  0  0  0  0  0
  153.3918  137.6544  158.3308 H   0  0  0  0  0  0  0  0  0  0  0  0
  153.4974  138.4540  159.8925 H   0  0  0  0  0  0  0  0  0  0  0  0
  154.7072  138.7309  158.6395 H   0  0  0  0  0  0  0  0  0  0  0  0
  153.0648  139.9186  157.2437 H   0  0  0  0  0  0  0  0  0  0  0  0
  151.0808  138.8228  159.2423 H   0  0  0  0  0  0  0  0  0  0  0  0
  150.6409  140.2596  158.3547 H   0  0  0  0  0  0  0  0  0  0  0  0
  150.4780  139.0770  156.4041 H   0  0  0  0  0  0  0  0  0  0  0  0
  150.2018  137.4997  155.2784 H   0  0  0  0  0  0  0  0  0  0  0  0
  151.6144  134.4447  156.9766 H   0  0  0  0  0  0  0  0  0  0  0  0
  151.2776  132.2174  156.0300 H   0  0  0  0  0  0  0  0  0  0  0  0
  148.8941  132.1138  151.9668 H   0  0  0  0  0  0  0  0  0  0  0  0
  147.7169  131.7561  153.2407 H   0  0  0  0  0  0  0  0  0  0  0  0
  148.6239  130.4503  152.4825 H   0  0  0  0  0  0  0  0  0  0  0  0
  150.5366  130.2779  155.2286 H   0  0  0  0  0  0  0  0  0  0  0  0
  151.6374  130.7416  153.9189 H   0  0  0  0  0  0  0  0  0  0  0  0
  150.3169  129.6183  153.6110 H   0  0  0  0  0  0  0  0  0  0  0  0
  149.0379  136.0120  153.8707 H   0  0  0  0  0  0  0  0  0  0  0  0
  152.0496  140.5286  160.7545 H   0  0  0  0  0  0  0  0  0  0  0  0
  153.7697  140.2035  160.8146 H   0  0  0  0  0  0  0  0  0  0  0  0
  153.1838  142.1027  162.2723 H   0  0  0  0  0  0  0  0  0  0  0  0
  154.3186  142.5773  161.0222 H   0  0  0  0  0  0  0  0  0  0  0  0
  151.7300  144.2075  159.0725 H   0  0  0  0  0  0  0  0  0  0  0  0
  153.4449  143.8393  159.0976 H   0  0  0  0  0  0  0  0  0  0  0  0
  152.2711  142.3477  157.5452 H   0  0  0  0  0  0  0  0  0  0  0  0
  151.1473  141.8307  158.7849 H   0  0  0  0  0  0  0  0  0  0  0  0
  1  2  1  0  0  0  0
  1 23  1  0  0  0  0
  1 24  1  0  0  0  0
  1 25  1  0  0  0  0
  2  3  1  0  0  0  0
  2 17  1  0  0  0  0
  2 26  1  0  0  0  0
  3  4  1  0  0  0  0
  3 27  1  0  0  0  0
  3 28  1  0  0  0  0
  4  5  1  0  0  0  0
  4 29  1  0  0  0  0
  5  6  2  0  0  0  0
  5  7  1  0  0  0  0
  7  8  1  0  0  0  0
  7 30  1  0  0  0  0
  8 16  1  0  0  0  0
  8  9  2  0  0  0  0
  9 10  1  0  0  0  0
  9 31  1  0  0  0  0
 10 11  2  0  0  0  0
 10 32  1  0  0  0  0
 11 12  1  0  0  0  0
 11 15  1  0  0  0  0
 12 13  1  0  0  0  0
 12 14  1  0  0  0  0
 13 33  1  0  0  0  0
 13 34  1  0  0  0  0
 13 35  1  0  0  0  0
 14 36  1  0  0  0  0
 14 37  1  0  0  0  0
 14 38  1  0  0  0  0
 15 16  2  0  0  0  0
 16 39  1  0  0  0  0
 17 22  1  0  0  0  0
 17 18  1  0  0  0  0
 18 19  1  0  0  0  0
 18 40  1  0  0  0  0
 18 41  1  0  0  0  0
 19 20  1  0  0  0  0
 19 42  1  0  0  0  0
 19 43  1  0  0  0  0
 20 21  1  0  0  0  0
 21 22  1  0  0  0  0
 21 44  1  0  0  0  0
 21 45  1  0  0  0  0
 22 46  1  0  0  0  0
 22 47  1  0  0  0  0
M  END
> <s_m_source_file>
AV-unprocessed.smi

> <i_m_source_file_index>
1239

> <i_lp_mmshare_version>
43012

> <i_f3d_flags>
0

> <s_epik_input>
W0NIMl0xW0NIMl1PW0NIMl1bQ0gyXU4xW0NASF0oW0NIM10pW0NIMl1bTkhdQyg9TylbTkhdYzJbY0hdW2NIXWMoTihbQ0gzXSlbQ0gzXSluW2NIXTI=

> <s_epik_cmdline>
J2VwaWtfcHl0aG9uJywgJy1waCcsICc3LjAnLCAnLXRuJywgJzgnLCAnLW1hJywgJzIwMCcsICctbWV0YWxfYmluZGluZycsICctaW1hZScsICc8aW5maWxlLm1hZT4nLCAnLW9tYWUnLCAnPG91dGZpbGUubWFlPic=

> <r_lp_tautomer_probability>
1

> <r_epik_Ionization_Penalty>
0.87526

> <r_epik_Ionization_Penalty_Charging>
0

> <r_epik_Ionization_Penalty_Neutral>
0.87526

> <r_epik_State_Penalty>
0.859346

> <r_epik_Charging_Adjusted_Penalty>
0.859346

> <i_epik_Tot_Q>
0

> <i_epik_Tot_abs_Q>
0

> <r_epik_Metal_State_Penalty>
0.538105

> <b_epik_Metal_Only>
0

> <s_lp_Force_Field>
OPLS_2005

> <r_lp_Energy>
32.4423

> <b_lp_Chiralities_Consistent>
1

> <s_lp_Variant>
AV-unprocessed.smi:1239-4

> <Gold.Version>
5.8.1

> <Gold.Id.Protein>
6NUR|6NUR_protein|mol2

> <Gold.PLP.Fitness>
38.1430

> <Gold.PLP.PLP>
-35.0428

> <Gold.PLP.part.hbond>
-1.0000

> <Gold.PLP.part.metal>
0.0000

> <Gold.PLP.part.buried>
-3.1631

> <Gold.PLP.part.nonpolar>
-29.3013

> <Gold.PLP.part.repulsive>
0.2451

> <Gold.PLP.ligand.clash>
0.0000

> <Gold.PLP.ligand.torsion>
0.6911

> <Gold.PLP.Chemscore.Hbond>
0.4906

> <Gold.PLP.Chemscore.CHOScore>
0.9837

> <Gold.PLP.Chemscore.Metal>
0.0000

> <Gold.Chemscore.Hbonds>
donor molecule, donor type, donor heavy atom, donor atom, acceptor molecule, acceptor atom, score
      P1  H  6896  6908       L1     6  0.13
      L1  C    16    39       P1  7948  0.80

> <Gold.PLP.Chemscore.Internal.Correction>
0.0594

> <Gold.Rescore>
     Score         DG    S(hbond)    S(metal)    S(lipo)     H(rot)  DE(clash)    DE(int)     intcor
     13.12     -14.81       0.78        0.00      88.97       1.44       0.03       1.66       ----

> <Gold.Chemscore.Fitness>
13.1221

> <Gold.Chemscore.DG>
-14.8105

> <Gold.Chemscore.ZeroCoef>
-5.4800

> <Gold.Chemscore.Hbond>
0.7783

> <Gold.Chemscore.Metal>
0.0000

> <Gold.Chemscore.Lipo>
88.9701

> <Gold.Chemscore.Internal_Hbond>
0.0000

> <Gold.Chemscore.DEClash>
0.0310

> <Gold.Chemscore.DEInternal>
1.6575

> <Gold.Chemscore.Rot>
1.4370

> <Gold.Chemscore.Internal.Correction>
   9.000000E+99

> <Gold.Chemscore.Hbonds>
donor molecule, donor type, donor heavy atom, donor atom, acceptor molecule, acceptor atom, score
      P1  H  6896  6908       L1     6  0.13

> <Gold.Chemscore.Hbond.Weighted>
-2.5996

> <Gold.Chemscore.Metal.Weighted>
-0.0000

> <Gold.Chemscore.Lipo.Weighted>
-10.4095

> <Gold.Chemscore.Internal_Hbond.Weighted>
0.0000

> <Gold.Chemscore.DEClash.Weighted>
0.0310

> <Gold.Chemscore.DEInternal.Weighted>
1.6575

> <Gold.Chemscore.Rot.Weighted>
3.6786

> <Gold.Chemscore.Internal.Correction.Weighted>
   9.000000E+99

> <Gold.Protein.RotatedTorsions>
[ 6907 6896 6895 6894 ] final -137.11 input  -60.11 | X-H torsion
[ 7974 7965 7964 7962 ] final   78.98 input  175.53 | X-H torsion
[ 8008 7997 7996 7995 ] final  151.16 input   59.86 | X-H torsion
[ 10167 10162 10161 10158 ] final -146.73 input  -65.29 | X-H torsion
[ 10718 10713 10712 10709 ] final  112.73 input   66.30 | X-H torsion
[ 10763 10752 10751 10750 ] final  173.73 input  -60.55 | X-H torsion
[ 11005 11000 10999 10996 ] final -106.72 input  -57.11 | X-H torsion

> <Gold.Protein.ActiveResidues>
 VAL166  LYS551  ARG553  GLY616  TRP617  ASP618  TYR619  PRO620  LYS621  CYS622 
 ASP623  PHE694  ASN695  SER759  ASP760  ASP761  ALA762  ILE779  LEU786  VAL792 
 PHE793  MET794  SER795  GLU796  ALA797  LYS798  CYS799  TRP800  GLU811  SER814 

> <Gold.Protein.RotatedAtoms>
  151.0184  133.5900  159.2674 H   0  0  0  0  0  0  0  0  0  0  0  0  # atno 6907 bound_to 6896
  151.3026  135.0772  159.9253 H   0  0  0  0  0  0  0  0  0  0  0  0  # atno 6908 bound_to 6896
  152.5317  133.9863  159.7884 H   0  0  0  0  0  0  0  0  0  0  0  0  # atno 6909 bound_to 6896
  145.6702  139.2494  143.1873 H   0  0  0  0  0  0  0  0  0  0  0  0  # atno 7974 bound_to 7965
  156.2686  140.2055  156.6131 H   0  0  0  0  0  0  0  0  0  0  0  0  # atno 8008 bound_to 7997
  154.6815  140.0539  157.0295 H   0  0  0  0  0  0  0  0  0  0  0  0  # atno 8009 bound_to 7997
  155.0993  140.3204  155.4554 H   0  0  0  0  0  0  0  0  0  0  0  0  # atno 8010 bound_to 7997
  139.7686  143.8271  152.2620 H   0  0  0  0  0  0  0  0  0  0  0  0  # atno 10167 bound_to 10162
  157.6376  131.0972  150.6938 H   0  0  0  0  0  0  0  0  0  0  0  0  # atno 10718 bound_to 10713
  154.4441  135.2763  155.1827 H   0  0  0  0  0  0  0  0  0  0  0  0  # atno 10763 bound_to 10752
  154.3681  135.6115  153.5729 H   0  0  0  0  0  0  0  0  0  0  0  0  # atno 10764 bound_to 10752
  152.9842  135.5850  154.4774 H   0  0  0  0  0  0  0  0  0  0  0  0  # atno 10765 bound_to 10752
  141.0990  133.8918  157.1890 H   0  0  0  0  0  0  0  0  0  0  0  0  # atno 11005 bound_to 11000
  146.1052  140.7496  142.9530 LP  0  0  0  0  0  0  0  0  0  0  0  0  # atno 17320 bound_to 7965
  144.7059  140.3851  143.7118 LP  0  0  0  0  0  0  0  0  0  0  0  0  # atno 17321 bound_to 7965
  139.8298  144.7259  150.9465 LP  0  0  0  0  0  0  0  0  0  0  0  0  # atno 17342 bound_to 10162
  140.7812  143.4080  151.1039 LP  0  0  0  0  0  0  0  0  0  0  0  0  # atno 17343 bound_to 10162
  156.7267  130.4697  149.5509 LP  0  0  0  0  0  0  0  0  0  0  0  0  # atno 17370 bound_to 10713
  156.1629  130.6386  151.0741 LP  0  0  0  0  0  0  0  0  0  0  0  0  # atno 17371 bound_to 10713
  139.9836  135.0090  156.9808 LP  0  0  0  0  0  0  0  0  0  0  0  0  # atno 17394 bound_to 11000
  140.5069  134.1041  155.7262 LP  0  0  0  0  0  0  0  0  0  0  0  0  # atno 17395 bound_to 11000

$$$$
