#       Name:                AV-unprocessed.smi:2234
#       Creating user name   scv26
#       Creation time:       Fri Mar 27 12:25:12 2020


#       File generated by GOLD software.
#

@<TRIPOS>MOLECULE
AV-unprocessed.smi:2234
    27    28     1
SMALL
NO_CHARGES


@<TRIPOS>ATOM
      1 ****        -3.1796   1.8712  -1.2145 O.co2          1 S1                 0.0000
      2 ****        -2.5240   1.2155  -2.0544 C.2            1 S1                 0.0000
      3 ****        -3.0070   0.3710  -2.8406 O.co2          1 S1                -1.0000
      4 ****        -1.0106   1.4954  -2.1450 C.3            1 S1                 0.0000
      5 ****        -0.3095   1.4452  -0.7944 C.3            1 S1                 0.0000
      6 ****         0.2102   0.0446  -0.7797 C.2            1 S1                 0.0000
      7 ****         0.6644  -0.6701   0.4386 C.ar           1 S1                 0.0000
      8 ****         0.7663   0.0004   1.6779 C.ar           1 S1                 0.0000
      9 ****         1.2069  -0.7166   2.8073 C.ar           1 S1                 0.0000
     10 ****         1.5309  -2.0786   2.6533 C.ar           1 S1                 0.0000
     11 ****         1.4413  -2.7328   1.4762 N.ar           1 S1                 0.0000
     12 ****         1.0168  -2.0397   0.3969 C.ar           1 S1                 0.0000
     13 ****         0.1915  -0.4657  -1.9384 N.2            1 S1                 0.0000
     14 ****        -0.3348   0.4678  -2.8686 O.3            1 S1                 0.0000
     15 ****        -0.8666   2.4583  -2.6358 H              1 S1                 0.0000
     16 ****         0.5251   2.1456  -0.7536 H              1 S1                 0.0000
     17 ****        -0.9671   1.6377   0.0540 H              1 S1                 0.0000
     18 ****         0.5175   1.0468   1.7760 H              1 S1                 0.0000
     19 ****         1.2946  -0.2331   3.7687 H              1 S1                 0.0000
     20 ****         1.8731  -2.6576   3.4984 H              1 S1                 0.0000
     21 ****         0.9613  -2.6054  -0.5218 H              1 S1                 0.0000
     22 ****        -4.1675   1.7373  -1.1363 LP             1 S1                 0.0000
     23 ****        -2.7158   2.5292  -0.6214 LP             1 S1                 0.0000
     24 ****        -3.9882   0.1782  -2.8262 LP             1 S1                 0.0000
     25 ****        -2.4120  -0.1113  -3.4835 LP             1 S1                 0.0000
     26 ****         1.6817  -3.7008   1.4050 LP             1 S1                 0.0000
     27 ****         0.5015  -1.3892  -2.1644 LP             1 S1                 0.0000
@<TRIPOS>BOND
    1    1    2 ar    
    2    2    3 ar    
    3    2    4 1     
    4    4   14 1     
    5    4    5 1     
    6    4   15 1     
    7    5    6 1     
    8    5   16 1     
    9    5   17 1     
   10    6    7 1     
   11    6   13 2     
   12    7   12 ar    
   13    7    8 ar    
   14    8    9 ar    
   15    8   18 1     
   16    9   10 ar    
   17    9   19 1     
   18   10   11 ar    
   19   10   20 1     
   20   11   12 ar    
   21   12   21 1     
   22   13   14 1     
   23    1   22 1     
   24    1   23 1     
   25    3   24 1     
   26    3   25 1     
   27   11   26 1     
   28   13   27 1     
@<TRIPOS>SUBSTRUCTURE
      1 S1             1
@<TRIPOS>SET
LONE_PAIRS      STATIC     ATOMS    <user>   **** ""
6 22 23 24 25 26 27
ATOM$BLUE        STATIC     ATOMS    COLORGROUP SYSTEM
6 22 23 24 25 26 27
