AV-unprocessed.smi:2434|AV-procd|sdf|9591|dock8
  -GOLD-   2272013223D 1   1.00000     0.00000
 Structure written by MMmdl.
 36 37  0  0  0  0  0  0  0  0  1 V2000
  152.6893  142.9051  161.7425 C   0  0  0  0  0  0  0  0  0  0  0  0
  152.2176  142.6872  160.2964 C   0  0  0  0  0  0  0  0  0  0  0  0
  151.6136  143.9354  159.6215 C   0  0  0  0  0  0  0  0  0  0  0  0
  150.1546  143.6520  159.2034 C   0  0  0  0  0  0  0  0  0  0  0  0
  150.0604  143.0777  157.8630 N   0  0  0  0  0  0  0  0  0  0  0  0
  150.5911  141.9091  157.4754 C   0  0  0  0  0  0  0  0  0  0  0  0
  151.2511  141.1756  158.2121 O   0  0  0  0  0  0  0  0  0  0  0  0
  150.2839  141.6326  156.1977 N   0  0  0  0  0  0  0  0  0  0  0  0
  150.6453  140.4675  155.4746 C   0  0  0  0  0  0  0  0  0  0  0  0
  151.8236  139.7870  155.8445 C   0  0  0  0  0  0  0  0  0  0  0  0
  152.1780  138.6180  155.1416 C   0  0  0  0  0  0  0  0  0  0  0  0
  151.4371  138.1018  154.1381 N   0  0  0  0  0  0  0  0  0  0  0  0
  150.2960  138.7418  153.8038 C   0  0  0  0  0  0  0  0  0  0  0  0
  149.8491  139.9173  154.4406 C   0  0  0  0  0  0  0  0  0  0  0  0
  148.6688  140.4738  154.0764 F   0  0  0  0  0  0  0  0  0  0  0  0
  151.8212  145.2624  160.3869 C   0  0  0  0  0  0  0  0  0  0  0  0
  152.1426  145.9567  159.0648 C   0  0  0  0  0  0  0  0  0  0  0  0
  152.4846  144.5729  158.5163 C   0  0  0  0  0  0  0  0  0  0  0  0
  153.0190  141.9638  162.1824 H   0  0  0  0  0  0  0  0  0  0  0  0
  151.8878  143.2978  162.3681 H   0  0  0  0  0  0  0  0  0  0  0  0
  153.5292  143.5969  161.7966 H   0  0  0  0  0  0  0  0  0  0  0  0
  153.0401  142.2819  159.7069 H   0  0  0  0  0  0  0  0  0  0  0  0
  151.4724  141.8910  160.3130 H   0  0  0  0  0  0  0  0  0  0  0  0
  149.6975  142.9326  159.8831 H   0  0  0  0  0  0  0  0  0  0  0  0
  149.5441  144.5503  159.2995 H   0  0  0  0  0  0  0  0  0  0  0  0
  149.5319  143.6058  157.1841 H   0  0  0  0  0  0  0  0  0  0  0  0
  149.6286  142.2519  155.7444 H   0  0  0  0  0  0  0  0  0  0  0  0
  152.4521  140.1563  156.6418 H   0  0  0  0  0  0  0  0  0  0  0  0
  153.0807  138.0821  155.3943 H   0  0  0  0  0  0  0  0  0  0  0  0
  149.7128  138.2954  153.0119 H   0  0  0  0  0  0  0  0  0  0  0  0
  150.9355  145.6473  160.8933 H   0  0  0  0  0  0  0  0  0  0  0  0
  152.6795  145.2417  161.0607 H   0  0  0  0  0  0  0  0  0  0  0  0
  151.2669  146.4009  158.5895 H   0  0  0  0  0  0  0  0  0  0  0  0
  152.9814  146.6522  159.1049 H   0  0  0  0  0  0  0  0  0  0  0  0
  153.5461  144.3390  158.6175 H   0  0  0  0  0  0  0  0  0  0  0  0
  152.1378  144.3920  157.4981 H   0  0  0  0  0  0  0  0  0  0  0  0
  1  2  1  0  0  0  0
  1 19  1  0  0  0  0
  1 20  1  0  0  0  0
  1 21  1  0  0  0  0
  2  3  1  0  0  0  0
  2 22  1  0  0  0  0
  2 23  1  0  0  0  0
  3 18  1  0  0  0  0
  3  4  1  0  0  0  0
  3 16  1  0  0  0  0
  4  5  1  0  0  0  0
  4 24  1  0  0  0  0
  4 25  1  0  0  0  0
  5  6  1  0  0  0  0
  5 26  1  0  0  0  0
  6  7  2  0  0  0  0
  6  8  1  0  0  0  0
  8  9  1  0  0  0  0
  8 27  1  0  0  0  0
  9 14  1  0  0  0  0
  9 10  2  0  0  0  0
 10 11  1  0  0  0  0
 10 28  1  0  0  0  0
 11 12  2  0  0  0  0
 11 29  1  0  0  0  0
 12 13  1  0  0  0  0
 13 14  2  0  0  0  0
 13 30  1  0  0  0  0
 14 15  1  0  0  0  0
 16 17  1  0  0  0  0
 16 31  1  0  0  0  0
 16 32  1  0  0  0  0
 17 18  1  0  0  0  0
 17 33  1  0  0  0  0
 17 34  1  0  0  0  0
 18 35  1  0  0  0  0
 18 36  1  0  0  0  0
M  END
> <s_m_source_file>
AV-unprocessed.smi

> <i_m_source_file_index>
2434

> <i_lp_mmshare_version>
43012

> <i_f3d_flags>
0

> <s_epik_input>
W0NIMl0xW0NIMl1bQ0gyXUMxKFtDSDJdW0NIM10pW0NIMl1bTkhdQyg9TylbTkhdYzJbY0hdW2NIXW5bY0hdYzJG

> <s_epik_cmdline>
J2VwaWtfcHl0aG9uJywgJy1waCcsICc3LjAnLCAnLXRuJywgJzgnLCAnLW1hJywgJzIwMCcsICctbWV0YWxfYmluZGluZycsICctaW1hZScsICc8aW5maWxlLm1hZT4nLCAnLW9tYWUnLCAnPG91dGZpbGUubWFlPic=

> <r_epik_Ionization_Penalty>
0.00332283

> <r_epik_Ionization_Penalty_Charging>
0

> <r_epik_Ionization_Penalty_Neutral>
0.00332283

> <r_epik_State_Penalty>
0.00231995

> <r_epik_Charging_Adjusted_Penalty>
0.00231995

> <i_epik_Tot_Q>
0

> <i_epik_Tot_abs_Q>
0

> <r_epik_Metal_State_Penalty>
-0

> <b_epik_Metal_Only>
0

> <s_lp_Force_Field>
OPLS_2005

> <r_lp_Energy>
27.2745

> <b_lp_Chiralities_Consistent>
1

> <s_lp_Variant>
AV-unprocessed.smi:2434-1

> <Gold.Version>
5.8.1

> <Gold.Id.Protein>
6NUR|6NUR_protein|mol2

> <Gold.PLP.Fitness>
46.1431

> <Gold.PLP.PLP>
-41.7219

> <Gold.PLP.part.hbond>
-1.0000

> <Gold.PLP.part.metal>
0.0000

> <Gold.PLP.part.buried>
0.7064

> <Gold.PLP.part.nonpolar>
-38.8094

> <Gold.PLP.part.repulsive>
0.3367

> <Gold.PLP.ligand.clash>
0.0000

> <Gold.PLP.ligand.torsion>
1.7709

> <Gold.PLP.Chemscore.Hbond>
1.0000

> <Gold.PLP.Chemscore.CHOScore>
1.5101

> <Gold.PLP.Chemscore.Metal>
0.0000

> <Gold.Chemscore.Hbonds>
donor molecule, donor type, donor heavy atom, donor atom, acceptor molecule, acceptor atom, score
      L1  H     5    26       P1  8028  1.00
      L1  C    13    30       P1  7948  1.00
      L1  C    13    30       P1  7957  0.53

> <Gold.PLP.Chemscore.Internal.Correction>
0.4326

> <Gold.Rescore>
     Score         DG    S(hbond)    S(metal)    S(lipo)     H(rot)  DE(clash)    DE(int)     intcor
     11.99     -19.14       1.10        0.00     115.89       1.40       2.63       4.52       ----

> <Gold.Chemscore.Fitness>
11.9945

> <Gold.Chemscore.DG>
-19.1434

> <Gold.Chemscore.ZeroCoef>
-5.4800

> <Gold.Chemscore.Hbond>
1.1035

> <Gold.Chemscore.Metal>
0.0000

> <Gold.Chemscore.Lipo>
115.8901

> <Gold.Chemscore.Internal_Hbond>
0.0000

> <Gold.Chemscore.DEClash>
2.6291

> <Gold.Chemscore.DEInternal>
4.5198

> <Gold.Chemscore.Rot>
1.3990

> <Gold.Chemscore.Internal.Correction>
   9.000000E+99

> <Gold.Chemscore.Hbonds>
donor molecule, donor type, donor heavy atom, donor atom, acceptor molecule, acceptor atom, score
      L1  H     5    26       P1  8028  0.80

> <Gold.Chemscore.Hbond.Weighted>
-3.6856

> <Gold.Chemscore.Metal.Weighted>
-0.0000

> <Gold.Chemscore.Lipo.Weighted>
-13.5591

> <Gold.Chemscore.Internal_Hbond.Weighted>
0.0000

> <Gold.Chemscore.DEClash.Weighted>
2.6291

> <Gold.Chemscore.DEInternal.Weighted>
4.5198

> <Gold.Chemscore.Rot.Weighted>
3.5814

> <Gold.Chemscore.Internal.Correction.Weighted>
   9.000000E+99

> <Gold.Protein.RotatedTorsions>
[ 6907 6896 6895 6894 ] final   96.36 input  -60.11 | X-H torsion
[ 7974 7965 7964 7962 ] final  -44.16 input  175.53 | X-H torsion
[ 8008 7997 7996 7995 ] final   -8.07 input   59.86 | X-H torsion
[ 10167 10162 10161 10158 ] final  124.03 input  -65.29 | X-H torsion
[ 10718 10713 10712 10709 ] final -103.99 input   66.30 | X-H torsion
[ 10763 10752 10751 10750 ] final -156.94 input  -60.55 | X-H torsion
[ 11005 11000 10999 10996 ] final -112.14 input  -57.11 | X-H torsion

> <Gold.Protein.ActiveResidues>
 VAL166  LYS551  ARG553  GLY616  TRP617  ASP618  TYR619  PRO620  LYS621  CYS622 
 ASP623  PHE694  ASN695  SER759  ASP760  ASP761  ALA762  ILE779  LEU786  VAL792 
 PHE793  MET794  SER795  GLU796  ALA797  LYS798  CYS799  TRP800  GLU811  SER814 

> <Gold.Protein.RotatedAtoms>
  152.5435  134.0898  159.8271 H   0  0  0  0  0  0  0  0  0  0  0  0  # atno 6907 bound_to 6896
  151.0989  133.5251  159.2618 H   0  0  0  0  0  0  0  0  0  0  0  0  # atno 6908 bound_to 6896
  151.2014  135.0453  159.8928 H   0  0  0  0  0  0  0  0  0  0  0  0  # atno 6909 bound_to 6896
  145.9948  140.7140  142.9299 H   0  0  0  0  0  0  0  0  0  0  0  0  # atno 7974 bound_to 7965
  154.5776  140.2390  155.8100 H   0  0  0  0  0  0  0  0  0  0  0  0  # atno 8008 bound_to 7997
  156.2155  140.3013  155.9786 H   0  0  0  0  0  0  0  0  0  0  0  0  # atno 8009 bound_to 7997
  155.2598  140.0414  157.2986 H   0  0  0  0  0  0  0  0  0  0  0  0  # atno 8010 bound_to 7997
  139.5765  144.6966  151.3640 H   0  0  0  0  0  0  0  0  0  0  0  0  # atno 10167 bound_to 10162
  156.0287  130.5493  150.7332 H   0  0  0  0  0  0  0  0  0  0  0  0  # atno 10718 bound_to 10713
  154.7675  135.3135  154.8257 H   0  0  0  0  0  0  0  0  0  0  0  0  # atno 10763 bound_to 10752
  153.9001  135.6816  153.4760 H   0  0  0  0  0  0  0  0  0  0  0  0  # atno 10764 bound_to 10752
  153.1283  135.4791  154.9241 H   0  0  0  0  0  0  0  0  0  0  0  0  # atno 10765 bound_to 10752
  141.0692  133.9407  157.2518 H   0  0  0  0  0  0  0  0  0  0  0  0  # atno 11005 bound_to 11000
  144.6900  140.3132  143.7244 LP  0  0  0  0  0  0  0  0  0  0  0  0  # atno 17320 bound_to 7965
  145.7576  139.1814  143.2285 LP  0  0  0  0  0  0  0  0  0  0  0  0  # atno 17321 bound_to 7965
  140.7047  143.7544  150.7462 LP  0  0  0  0  0  0  0  0  0  0  0  0  # atno 17342 bound_to 10162
  140.1065  143.4739  152.2395 LP  0  0  0  0  0  0  0  0  0  0  0  0  # atno 17343 bound_to 10162
  157.4919  131.0911  151.0416 LP  0  0  0  0  0  0  0  0  0  0  0  0  # atno 17370 bound_to 10713
  157.0821  130.5907  149.5422 LP  0  0  0  0  0  0  0  0  0  0  0  0  # atno 17371 bound_to 10713
  139.9507  135.0176  156.8985 LP  0  0  0  0  0  0  0  0  0  0  0  0  # atno 17394 bound_to 11000
  140.5708  134.0445  155.7430 LP  0  0  0  0  0  0  0  0  0  0  0  0  # atno 17395 bound_to 11000

$$$$
