AV-unprocessed.smi:3349|AV-procd|sdf|12935|dock4
  -GOLD-   2272019363D 1   1.00000     0.00000
 Structure written by MMmdl.
 41 42  0  0  0  0  0  0  0  0  2 V2000
  148.7075  132.6829  155.1492 C   0  0  0  0  0  0  0  0  0  0  0  0
  148.8967  133.9346  154.2571 C   0  0  2  0  0  0  0  0  0  0  0  0
  149.0535  135.2121  155.1297 C   0  0  0  0  0  0  0  0  0  0  0  0
  149.6771  136.3259  154.4186 N   0  0  0  0  0  0  0  0  0  0  0  0
  150.9000  136.8241  154.6661 C   0  0  0  0  0  0  0  0  0  0  0  0
  151.6536  136.3587  155.5217 O   0  0  0  0  0  0  0  0  0  0  0  0
  151.3323  138.0218  153.8042 C   0  0  2  0  0  0  0  0  0  0  0  0
  152.8363  138.3400  153.9313 C   0  0  0  0  0  0  0  0  0  0  0  0
  150.4993  139.1824  154.0949 N   0  0  0  0  0  0  0  0  0  0  0  0
  149.5181  139.3326  154.9871 C   0  0  0  0  0  0  0  0  0  0  0  0
  148.9974  140.5512  155.0162 N   0  0  0  0  0  0  0  0  0  0  0  0
  149.7619  141.1484  154.0546 C   0  0  0  0  0  0  0  0  0  0  0  0
  150.6832  140.3767  153.4785 N   0  0  0  0  0  0  0  0  0  0  0  0
  147.7866  134.0590  153.2519 N   0  3  0  0  0  0  0  0  0  0  0  0
  147.5087  132.8108  152.4854 C   0  0  0  0  0  0  0  0  0  0  0  0
  146.3609  133.0038  151.4796 C   0  0  0  0  0  0  0  0  0  0  0  0
  145.1966  133.4482  152.1565 O   0  0  0  0  0  0  0  0  0  0  0  0
  145.4137  134.7063  152.7736 C   0  0  0  0  0  0  0  0  0  0  0  0
  146.5171  134.5774  153.8366 C   0  0  0  0  0  0  0  0  0  0  0  0
  149.4948  132.5896  155.8958 H   0  0  0  0  0  0  0  0  0  0  0  0
  148.7493  131.7529  154.5855 H   0  0  0  0  0  0  0  0  0  0  0  0
  147.7553  132.7158  155.6795 H   0  0  0  0  0  0  0  0  0  0  0  0
  149.8265  133.8074  153.7001 H   0  0  0  0  0  0  0  0  0  0  0  0
  148.0800  135.5954  155.4319 H   0  0  0  0  0  0  0  0  0  0  0  0
  149.5931  134.9785  156.0492 H   0  0  0  0  0  0  0  0  0  0  0  0
  149.1275  136.7669  153.6952 H   0  0  0  0  0  0  0  0  0  0  0  0
  151.1497  137.7501  152.7632 H   0  0  0  0  0  0  0  0  0  0  0  0
  153.4454  137.4769  153.6601 H   0  0  0  0  0  0  0  0  0  0  0  0
  153.1100  138.6316  154.9462 H   0  0  0  0  0  0  0  0  0  0  0  0
  153.1169  139.1576  153.2669 H   0  0  0  0  0  0  0  0  0  0  0  0
  149.1806  138.5352  155.6329 H   0  0  0  0  0  0  0  0  0  0  0  0
  149.6404  142.1848  153.7759 H   0  0  0  0  0  0  0  0  0  0  0  0
  148.3811  132.5017  151.9119 H   0  0  0  0  0  0  0  0  0  0  0  0
  147.2672  132.0026  153.1776 H   0  0  0  0  0  0  0  0  0  0  0  0
  146.6401  133.7153  150.7005 H   0  0  0  0  0  0  0  0  0  0  0  0
  146.1385  132.0605  150.9807 H   0  0  0  0  0  0  0  0  0  0  0  0
  145.6760  135.4563  152.0254 H   0  0  0  0  0  0  0  0  0  0  0  0
  144.4838  135.0344  153.2383 H   0  0  0  0  0  0  0  0  0  0  0  0
  146.1857  133.9131  154.6362 H   0  0  0  0  0  0  0  0  0  0  0  0
  146.6567  135.5635  154.2741 H   0  0  0  0  0  0  0  0  0  0  0  0
  148.0916  134.7424  152.5731 H   0  0  0  0  0  0  0  0  0  0  0  0
  1  2  1  0  0  0  0
  1 20  1  0  0  0  0
  1 21  1  0  0  0  0
  1 22  1  0  0  0  0
  2  3  1  0  0  0  0
  2 14  1  0  0  0  0
  2 23  1  0  0  0  0
  3  4  1  0  0  0  0
  3 24  1  0  0  0  0
  3 25  1  0  0  0  0
  4  5  1  0  0  0  0
  4 26  1  0  0  0  0
  5  6  2  0  0  0  0
  5  7  1  0  0  0  0
  7  8  1  0  0  0  0
  7  9  1  0  0  0  0
  7 27  1  0  0  0  0
  8 28  1  0  0  0  0
  8 29  1  0  0  0  0
  8 30  1  0  0  0  0
  9 13  1  0  0  0  0
  9 10  1  0  0  0  0
 10 11  2  0  0  0  0
 10 31  1  0  0  0  0
 11 12  1  0  0  0  0
 12 13  2  0  0  0  0
 12 32  1  0  0  0  0
 14 19  1  0  0  0  0
 14 15  1  0  0  0  0
 14 41  1  0  0  0  0
 15 16  1  0  0  0  0
 15 33  1  0  0  0  0
 15 34  1  0  0  0  0
 16 17  1  0  0  0  0
 16 35  1  0  0  0  0
 16 36  1  0  0  0  0
 17 18  1  0  0  0  0
 18 19  1  0  0  0  0
 18 37  1  0  0  0  0
 18 38  1  0  0  0  0
 19 39  1  0  0  0  0
 19 40  1  0  0  0  0
M  CHG  1  14   1
M  END
> <s_m_source_file>
AV-unprocessed.smi

> <i_m_source_file_index>
3349

> <i_lp_mmshare_version>
43012

> <i_f3d_flags>
0

> <s_epik_input>
W0NIMl0xW0NIMl1PW0NIMl1bQ0gyXU4xW0NASF0oW0NIM10pW0NIMl1bTkhdQyg9TylbQ0BIXShbQ0gzXSluMltjSF1uW2NIXW4y

> <s_epik_cmdline>
J2VwaWtfcHl0aG9uJywgJy1waCcsICc3LjAnLCAnLXRuJywgJzgnLCAnLW1hJywgJzIwMCcsICctbWV0YWxfYmluZGluZycsICctaW1hZScsICc8aW5maWxlLm1hZT4nLCAnLW9tYWUnLCAnPG91dGZpbGUubWFlPic=

> <r_lp_tautomer_probability>
1

> <r_epik_Ionization_Penalty>
0.71326

> <r_epik_Ionization_Penalty_Charging>
0.713252

> <r_epik_Ionization_Penalty_Neutral>
8.10337e-06

> <r_epik_State_Penalty>
0.737017

> <r_epik_Charging_Adjusted_Penalty>
1.45027

> <i_epik_Tot_Q>
1

> <i_epik_Tot_abs_Q>
1

> <r_epik_Metal_State_Penalty>
0.73702

> <b_epik_Metal_Only>
0

> <s_lp_Force_Field>
OPLS_2005

> <r_lp_Energy>
28.3535

> <b_lp_Chiralities_Consistent>
1

> <s_lp_Variant>
AV-unprocessed.smi:3349-5

> <Gold.Version>
5.8.1

> <Gold.Id.Protein>
6NUR|6NUR_protein|mol2

> <Gold.PLP.Fitness>
44.9021

> <Gold.PLP.PLP>
-31.0711

> <Gold.PLP.part.hbond>
-3.7750

> <Gold.PLP.part.metal>
0.0000

> <Gold.PLP.part.buried>
-1.6886

> <Gold.PLP.part.nonpolar>
-25.0584

> <Gold.PLP.part.repulsive>
0.3360

> <Gold.PLP.ligand.clash>
0.0000

> <Gold.PLP.ligand.torsion>
0.5251

> <Gold.PLP.Chemscore.Hbond>
4.1697

> <Gold.PLP.Chemscore.CHOScore>
0.7397

> <Gold.PLP.Chemscore.Metal>
0.0000

> <Gold.Chemscore.Hbonds>
donor molecule, donor type, donor heavy atom, donor atom, acceptor molecule, acceptor atom, score
      L1  H     4    26       P1  7948  0.54
      L1  H    14    41       P1  7948  2.00
      P1  H 10752 10765       L1     6  1.00

> <Gold.PLP.Chemscore.Internal.Correction>
0.1531

> <Gold.Rescore>
     Score         DG    S(hbond)    S(metal)    S(lipo)     H(rot)  DE(clash)    DE(int)     intcor
     13.51     -14.21       2.85        0.00      50.77       2.63       0.03       0.67       ----

> <Gold.Chemscore.Fitness>
13.5064

> <Gold.Chemscore.DG>
-14.2118

> <Gold.Chemscore.ZeroCoef>
-5.4800

> <Gold.Chemscore.Hbond>
2.8539

> <Gold.Chemscore.Metal>
0.0000

> <Gold.Chemscore.Lipo>
50.7712

> <Gold.Chemscore.Internal_Hbond>
0.0000

> <Gold.Chemscore.DEClash>
0.0307

> <Gold.Chemscore.DEInternal>
0.6747

> <Gold.Chemscore.Rot>
2.6329

> <Gold.Chemscore.Internal.Correction>
   9.000000E+99

> <Gold.Chemscore.Hbonds>
donor molecule, donor type, donor heavy atom, donor atom, acceptor molecule, acceptor atom, score
      L1  H     4    26       P1  7948  0.54
      L1  H    14    41       P1  7948  0.60
      P1  H 10752 10765       L1     6  0.50

> <Gold.Chemscore.Hbond.Weighted>
-9.5319

> <Gold.Chemscore.Metal.Weighted>
-0.0000

> <Gold.Chemscore.Lipo.Weighted>
-5.9402

> <Gold.Chemscore.Internal_Hbond.Weighted>
0.0000

> <Gold.Chemscore.DEClash.Weighted>
0.0307

> <Gold.Chemscore.DEInternal.Weighted>
0.6747

> <Gold.Chemscore.Rot.Weighted>
6.7403

> <Gold.Chemscore.Internal.Correction.Weighted>
   9.000000E+99

> <Gold.Protein.RotatedTorsions>
[ 6907 6896 6895 6894 ] final   66.87 input  -60.11 | X-H torsion
[ 7974 7965 7964 7962 ] final  160.20 input  175.53 | X-H torsion
[ 8008 7997 7996 7995 ] final   16.42 input   59.86 | X-H torsion
[ 10167 10162 10161 10158 ] final  -69.62 input  -65.29 | X-H torsion
[ 10718 10713 10712 10709 ] final  -24.80 input   66.30 | X-H torsion
[ 10763 10752 10751 10750 ] final  179.70 input  -60.55 | X-H torsion
[ 11005 11000 10999 10996 ] final   -3.85 input  -57.11 | X-H torsion

> <Gold.Protein.ActiveResidues>
 VAL166  LYS551  ARG553  GLY616  TRP617  ASP618  TYR619  PRO620  LYS621  CYS622 
 ASP623  PHE694  ASN695  SER759  ASP760  ASP761  ALA762  ILE779  LEU786  VAL792 
 PHE793  MET794  SER795  GLU796  ALA797  LYS798  CYS799  TRP800  GLU811  SER814 

> <Gold.Protein.RotatedAtoms>
  152.4512  134.5390  159.9833 H   0  0  0  0  0  0  0  0  0  0  0  0  # atno 6907 bound_to 6896
  151.5462  133.3419  159.2952 H   0  0  0  0  0  0  0  0  0  0  0  0  # atno 6908 bound_to 6896
  150.8441  134.7776  159.7019 H   0  0  0  0  0  0  0  0  0  0  0  0  # atno 6909 bound_to 6896
  144.7749  139.7724  143.6282 H   0  0  0  0  0  0  0  0  0  0  0  0  # atno 7974 bound_to 7965
  154.8767  140.2967  155.5449 H   0  0  0  0  0  0  0  0  0  0  0  0  # atno 8008 bound_to 7997
  156.3022  140.2450  156.3697 H   0  0  0  0  0  0  0  0  0  0  0  0  # atno 8009 bound_to 7997
  154.8760  140.0399  157.1742 H   0  0  0  0  0  0  0  0  0  0  0  0  # atno 8010 bound_to 7997
  140.5416  143.2315  151.7078 H   0  0  0  0  0  0  0  0  0  0  0  0  # atno 10167 bound_to 10162
  156.4728  130.4528  149.6859 H   0  0  0  0  0  0  0  0  0  0  0  0  # atno 10718 bound_to 10713
  154.5240  135.2795  155.1237 H   0  0  0  0  0  0  0  0  0  0  0  0  # atno 10763 bound_to 10752
  154.2784  135.6290  153.5341 H   0  0  0  0  0  0  0  0  0  0  0  0  # atno 10764 bound_to 10752
  152.9943  135.5645  154.5737 H   0  0  0  0  0  0  0  0  0  0  0  0  # atno 10765 bound_to 10752
  140.6738  133.9213  155.8511 H   0  0  0  0  0  0  0  0  0  0  0  0  # atno 11005 bound_to 11000
  146.1922  139.5168  142.9798 LP  0  0  0  0  0  0  0  0  0  0  0  0  # atno 17320 bound_to 7965
  145.6215  141.0321  143.1912 LP  0  0  0  0  0  0  0  0  0  0  0  0  # atno 17321 bound_to 7965
  139.4991  144.3960  152.0231 LP  0  0  0  0  0  0  0  0  0  0  0  0  # atno 17342 bound_to 10162
  140.3069  144.3583  150.6044 LP  0  0  0  0  0  0  0  0  0  0  0  0  # atno 17343 bound_to 10162
  156.3601  130.7477  151.2448 LP  0  0  0  0  0  0  0  0  0  0  0  0  # atno 17370 bound_to 10713
  157.7490  131.0352  150.4355 LP  0  0  0  0  0  0  0  0  0  0  0  0  # atno 17371 bound_to 10713
  141.0371  134.0674  157.3946 LP  0  0  0  0  0  0  0  0  0  0  0  0  # atno 17394 bound_to 11000
  139.8973  135.0149  156.7093 LP  0  0  0  0  0  0  0  0  0  0  0  0  # atno 17395 bound_to 11000

$$$$
