AV-unprocessed.smi:472|AV-procd|sdf|2660|dock4
  -GOLD-   2262023 73D 1   1.00000     0.00000
 Structure written by MMmdl.
 35 36  0  0  0  0  0  0  0  0  1 V2000
  153.7706  136.0487  157.7286 C   0  0  0  0  0  0  0  0  0  0  0  0
  152.9969  136.6720  156.7193 O   0  0  0  0  0  0  0  0  0  0  0  0
  152.3587  137.8545  157.1724 C   0  0  0  0  0  0  0  0  0  0  0  0
  152.3480  138.9078  156.0548 C   0  0  0  0  0  0  0  0  0  0  0  0
  151.7592  140.1699  156.4945 N   0  0  0  0  0  0  0  0  0  0  0  0
  150.7994  140.8906  155.8637 C   0  0  0  0  0  0  0  0  0  0  0  0
  150.2655  140.4465  154.6587 N   0  0  0  0  0  0  0  0  0  0  0  0
  149.2764  141.0921  153.9104 N   0  0  0  0  0  0  0  0  0  0  0  0
  150.4434  142.0170  156.4861 N   0  0  0  0  0  0  0  0  0  0  0  0
  151.2557  142.0147  157.6118 C   0  0  0  0  0  0  0  0  0  0  0  0
  152.0538  140.9206  157.6352 C   0  0  0  0  0  0  0  0  0  0  0  0
  153.0257  140.6711  158.7068 C   0  0  0  0  0  0  0  0  0  0  0  0
  153.7487  139.6735  158.7046 O   0  0  0  0  0  0  0  0  0  0  0  0
  153.0480  141.6363  159.6780 N   0  0  0  0  0  0  0  0  0  0  0  0
  154.0123  141.4206  160.7735 C   0  0  0  0  0  0  0  0  0  0  0  0
  152.2574  142.7732  159.6911 C   0  0  0  0  0  0  0  0  0  0  0  0
  152.3470  143.6121  160.5914 O   0  0  0  0  0  0  0  0  0  0  0  0
  151.3593  142.9553  158.6691 N   0  0  0  0  0  0  0  0  0  0  0  0
  150.4988  144.1418  158.6539 C   0  0  0  0  0  0  0  0  0  0  0  0
  154.2338  135.1466  157.3290 H   0  0  0  0  0  0  0  0  0  0  0  0
  153.1513  135.7611  158.5790 H   0  0  0  0  0  0  0  0  0  0  0  0
  154.5650  136.7085  158.0798 H   0  0  0  0  0  0  0  0  0  0  0  0
  151.3364  137.6285  157.4794 H   0  0  0  0  0  0  0  0  0  0  0  0
  152.8806  138.2501  158.0449 H   0  0  0  0  0  0  0  0  0  0  0  0
  153.3654  139.0915  155.7081 H   0  0  0  0  0  0  0  0  0  0  0  0
  151.8109  138.5373  155.1836 H   0  0  0  0  0  0  0  0  0  0  0  0
  150.6370  139.5890  154.2756 H   0  0  0  0  0  0  0  0  0  0  0  0
  149.4121  142.0989  153.9793 H   0  0  0  0  0  0  0  0  0  0  0  0
  149.3730  140.8209  152.9334 H   0  0  0  0  0  0  0  0  0  0  0  0
  153.9461  142.1355  161.5939 H   0  0  0  0  0  0  0  0  0  0  0  0
  155.0331  141.4721  160.3913 H   0  0  0  0  0  0  0  0  0  0  0  0
  153.8726  140.4354  161.2225 H   0  0  0  0  0  0  0  0  0  0  0  0
  149.9178  144.2085  159.5752 H   0  0  0  0  0  0  0  0  0  0  0  0
  149.7885  144.1384  157.8270 H   0  0  0  0  0  0  0  0  0  0  0  0
  151.1004  145.0474  158.5640 H   0  0  0  0  0  0  0  0  0  0  0  0
  1  2  1  0  0  0  0
  1 20  1  0  0  0  0
  1 21  1  0  0  0  0
  1 22  1  0  0  0  0
  2  3  1  0  0  0  0
  3  4  1  0  0  0  0
  3 23  1  0  0  0  0
  3 24  1  0  0  0  0
  4  5  1  0  0  0  0
  4 25  1  0  0  0  0
  4 26  1  0  0  0  0
  5 11  1  0  0  0  0
  5  6  1  0  0  0  0
  6  7  1  0  0  0  0
  6  9  2  0  0  0  0
  7  8  1  0  0  0  0
  7 27  1  0  0  0  0
  8 28  1  0  0  0  0
  8 29  1  0  0  0  0
  9 10  1  0  0  0  0
 10 18  1  0  0  0  0
 10 11  2  0  0  0  0
 11 12  1  0  0  0  0
 12 13  2  0  0  0  0
 12 14  1  0  0  0  0
 14 15  1  0  0  0  0
 14 16  1  0  0  0  0
 15 30  1  0  0  0  0
 15 31  1  0  0  0  0
 15 32  1  0  0  0  0
 16 17  2  0  0  0  0
 16 18  1  0  0  0  0
 18 19  1  0  0  0  0
 19 33  1  0  0  0  0
 19 34  1  0  0  0  0
 19 35  1  0  0  0  0
M  END
> <s_m_source_file>
AV-unprocessed.smi

> <i_m_source_file_index>
472

> <i_lp_mmshare_version>
43012

> <i_f3d_flags>
0

> <s_epik_input>
W0NIM11PW0NIMl1bQ0gyXW4oYyhuMSlbTkhdW05IMl0pYyhjMTIpYyg9TyluKFtDSDNdKWMoPU8pbjJbQ0gzXQ==

> <s_epik_cmdline>
J2VwaWtfcHl0aG9uJywgJy1waCcsICc3LjAnLCAnLXRuJywgJzgnLCAnLW1hJywgJzIwMCcsICctbWV0YWxfYmluZGluZycsICctaW1hZScsICc8aW5maWxlLm1hZT4nLCAnLW9tYWUnLCAnPG91dGZpbGUubWFlPic=

> <r_lp_tautomer_probability>
1

> <r_epik_Ionization_Penalty>
0.000822794

> <r_epik_Ionization_Penalty_Charging>
3.05595e-09

> <r_epik_Ionization_Penalty_Neutral>
0.000822791

> <r_epik_State_Penalty>
-0

> <r_epik_Charging_Adjusted_Penalty>
3.05595e-09

> <i_epik_Tot_Q>
0

> <i_epik_Tot_abs_Q>
0

> <r_epik_Metal_State_Penalty>
-0

> <b_epik_Metal_Only>
0

> <s_lp_Force_Field>
OPLS_2005

> <r_lp_Energy>
30.834

> <b_lp_Chiralities_Consistent>
1

> <s_lp_Variant>
AV-unprocessed.smi:472-1

> <Gold.Version>
5.8.1

> <Gold.Id.Protein>
6NUR|6NUR_protein|mol2

> <Gold.PLP.Fitness>
41.2113

> <Gold.PLP.PLP>
-32.9146

> <Gold.PLP.part.hbond>
-4.9633

> <Gold.PLP.part.metal>
0.0000

> <Gold.PLP.part.buried>
-6.2467

> <Gold.PLP.part.nonpolar>
-24.9375

> <Gold.PLP.part.repulsive>
2.3858

> <Gold.PLP.ligand.clash>
0.0000

> <Gold.PLP.ligand.torsion>
0.3528

> <Gold.PLP.Chemscore.Hbond>
3.0000

> <Gold.PLP.Chemscore.CHOScore>
0.0000

> <Gold.PLP.Chemscore.Metal>
0.0000

> <Gold.Chemscore.Hbonds>
donor molecule, donor type, donor heavy atom, donor atom, acceptor molecule, acceptor atom, score
      L1  H     8    29       P1  7957  1.00
      P1  H  7997  8010       L1    13  1.00
      P1  H 10752 10763       L1     2  0.94

> <Gold.PLP.Chemscore.Internal.Correction>
0.0023

> <Gold.Rescore>
     Score         DG    S(hbond)    S(metal)    S(lipo)     H(rot)  DE(clash)    DE(int)     intcor
     13.53     -14.10       2.63        0.00      35.89       1.70       0.13       0.44       ----

> <Gold.Chemscore.Fitness>
13.5290

> <Gold.Chemscore.DG>
-14.1002

> <Gold.Chemscore.ZeroCoef>
-5.4800

> <Gold.Chemscore.Hbond>
2.6259

> <Gold.Chemscore.Metal>
0.0000

> <Gold.Chemscore.Lipo>
35.8860

> <Gold.Chemscore.Internal_Hbond>
0.0000

> <Gold.Chemscore.DEClash>
0.1333

> <Gold.Chemscore.DEInternal>
0.4378

> <Gold.Chemscore.Rot>
1.6988

> <Gold.Chemscore.Internal.Correction>
   9.000000E+99

> <Gold.Chemscore.Hbonds>
donor molecule, donor type, donor heavy atom, donor atom, acceptor molecule, acceptor atom, score
      L1  H     8    29       P1  7957  0.99
      P1  H  7997  8010       L1    13  0.26
      P1  H 10752 10763       L1     2  0.20

> <Gold.Chemscore.Hbond.Weighted>
-8.7705

> <Gold.Chemscore.Metal.Weighted>
-0.0000

> <Gold.Chemscore.Lipo.Weighted>
-4.1987

> <Gold.Chemscore.Internal_Hbond.Weighted>
0.0000

> <Gold.Chemscore.DEClash.Weighted>
0.1333

> <Gold.Chemscore.DEInternal.Weighted>
0.4378

> <Gold.Chemscore.Rot.Weighted>
4.3490

> <Gold.Chemscore.Internal.Correction.Weighted>
   9.000000E+99

> <Gold.Protein.RotatedTorsions>
[ 6907 6896 6895 6894 ] final -101.66 input  -60.11 | X-H torsion
[ 7974 7965 7964 7962 ] final  -93.02 input  175.53 | X-H torsion
[ 8008 7997 7996 7995 ] final   19.69 input   59.86 | X-H torsion
[ 10167 10162 10161 10158 ] final  133.76 input  -65.29 | X-H torsion
[ 10718 10713 10712 10709 ] final   50.97 input   66.30 | X-H torsion
[ 10763 10752 10751 10750 ] final  104.63 input  -60.55 | X-H torsion
[ 11005 11000 10999 10996 ] final  -47.15 input  -57.11 | X-H torsion

> <Gold.Protein.ActiveResidues>
 VAL166  LYS551  ARG553  GLY616  TRP617  ASP618  TYR619  PRO620  LYS621  CYS622 
 ASP623  PHE694  ASN695  SER759  ASP760  ASP761  ALA762  ILE779  LEU786  VAL792 
 PHE793  MET794  SER795  GLU796  ALA797  LYS798  CYS799  TRP800  GLU811  SER814 

> <Gold.Protein.RotatedAtoms>
  150.7163  134.0701  159.3861 H   0  0  0  0  0  0  0  0  0  0  0  0  # atno 6907 bound_to 6896
  151.8683  135.0497  160.0486 H   0  0  0  0  0  0  0  0  0  0  0  0  # atno 6908 bound_to 6896
  152.2663  133.5307  159.5449 H   0  0  0  0  0  0  0  0  0  0  0  0  # atno 6909 bound_to 6896
  145.3921  140.9529  143.2334 H   0  0  0  0  0  0  0  0  0  0  0  0  # atno 7974 bound_to 7965
  154.9245  140.3032  155.5199 H   0  0  0  0  0  0  0  0  0  0  0  0  # atno 8008 bound_to 7997
  156.3008  140.2365  156.4234 H   0  0  0  0  0  0  0  0  0  0  0  0  # atno 8009 bound_to 7997
  154.8298  140.0419  157.1458 H   0  0  0  0  0  0  0  0  0  0  0  0  # atno 8010 bound_to 7997
  139.5283  144.6600  151.5043 H   0  0  0  0  0  0  0  0  0  0  0  0  # atno 10167 bound_to 10162
  157.4935  130.8391  149.8231 H   0  0  0  0  0  0  0  0  0  0  0  0  # atno 10718 bound_to 10713
  153.3685  135.3937  155.1771 H   0  0  0  0  0  0  0  0  0  0  0  0  # atno 10763 bound_to 10752
  154.8690  135.3697  154.5008 H   0  0  0  0  0  0  0  0  0  0  0  0  # atno 10764 bound_to 10752
  153.5474  135.7083  153.5668 H   0  0  0  0  0  0  0  0  0  0  0  0  # atno 10765 bound_to 10752
  141.0623  133.6705  156.3256 H   0  0  0  0  0  0  0  0  0  0  0  0  # atno 11005 bound_to 11000
  144.8433  139.5437  143.6890 LP  0  0  0  0  0  0  0  0  0  0  0  0  # atno 17320 bound_to 7965
  146.2792  139.6834  142.9241 LP  0  0  0  0  0  0  0  0  0  0  0  0  # atno 17321 bound_to 7965
  140.6444  143.8825  150.6722 LP  0  0  0  0  0  0  0  0  0  0  0  0  # atno 17342 bound_to 10162
  140.2169  143.3839  152.1673 LP  0  0  0  0  0  0  0  0  0  0  0  0  # atno 17343 bound_to 10162
  156.0187  130.3803  150.2029 LP  0  0  0  0  0  0  0  0  0  0  0  0  # atno 17370 bound_to 10713
  157.0218  130.9981  151.3337 LP  0  0  0  0  0  0  0  0  0  0  0  0  # atno 17371 bound_to 10713
  140.5844  134.5713  157.5486 LP  0  0  0  0  0  0  0  0  0  0  0  0  # atno 17394 bound_to 11000
  139.9444  134.7729  156.0599 LP  0  0  0  0  0  0  0  0  0  0  0  0  # atno 17395 bound_to 11000

$$$$
