#       Name:                AV-unprocessed.smi:2814
#       Creating user name   scv26
#       Creation time:       Fri Mar 27 15:28:15 2020


#       File generated by GOLD software.
#

@<TRIPOS>MOLECULE
AV-unprocessed.smi:2814
    42    43     1
SMALL
NO_CHARGES


@<TRIPOS>ATOM
      1 ****        -3.6304   3.9499   0.3945 C.3            1 S1                 0.0000
      2 ****        -3.6788   2.4715   0.7181 C.ar           1 S1                 0.0000
      3 ****        -2.5358   1.6463   0.6458 C.ar           1 S1                 0.0000
      4 ****        -2.6499   0.2694   0.9658 C.ar           1 S1                 0.0000
      5 ****        -1.5655  -0.6471   0.9067 N.am           1 S1                 0.0000
      6 ****        -0.2511  -0.3916   1.0220 C.2            1 S1                 0.0000
      7 ****         0.2398   0.7170   1.2342 O.2            1 S1                 0.0000
      8 ****         0.4727  -1.5122   0.8906 N.am           1 S1                 0.0000
      9 ****         1.9300  -1.6023   0.9607 C.3            1 S1                 0.0000
     10 ****         2.5881  -1.6256  -0.4374 C.3            1 S1                 0.0000
     11 ****         2.2686  -2.8602  -1.0549 O.3            1 S1                 0.0000
     12 ****         2.1996  -0.4693  -1.3704 C.3            1 S1                 0.0000
     13 ****         3.3317  -0.3650  -2.4000 C.3            1 S1                 0.0000
     14 ****         4.5571  -1.0422  -1.7678 C.3            1 S1                 0.0000
     15 ****         4.1179  -1.5213  -0.3778 C.3            1 S1                 0.0000
     16 ****        -3.9185  -0.2387   1.3218 C.ar           1 S1                 0.0000
     17 ****        -5.0248   0.6326   1.3783 C.ar           1 S1                 0.0000
     18 ****        -4.8669   1.9400   1.0812 N.pl3          1 S1                 1.0000
     19 ****        -2.6223   4.2590   0.1164 H              1 S1                 0.0000
     20 ****        -3.9404   4.5386   1.2584 H              1 S1                 0.0000
     21 ****        -4.2978   4.1793  -0.4367 H              1 S1                 0.0000
     22 ****        -1.5964   2.0778   0.3349 H              1 S1                 0.0000
     23 ****        -1.8216  -1.6203   0.8261 H              1 S1                 0.0000
     24 ****        -0.0181  -2.3767   0.7152 H              1 S1                 0.0000
     25 ****         2.3250  -0.7701   1.5459 H              1 S1                 0.0000
     26 ****         2.1935  -2.5040   1.5148 H              1 S1                 0.0000
     27 ****         2.6970  -2.8923  -1.8967 H              1 S1                 0.0000
     28 ****         1.2218  -0.6031  -1.8349 H              1 S1                 0.0000
     29 ****         2.1624   0.4596  -0.7999 H              1 S1                 0.0000
     30 ****         3.0544  -0.8864  -3.3169 H              1 S1                 0.0000
     31 ****         3.5317   0.6736  -2.6650 H              1 S1                 0.0000
     32 ****         4.8638  -1.8924  -2.3785 H              1 S1                 0.0000
     33 ****         5.4093  -0.3648  -1.7034 H              1 S1                 0.0000
     34 ****         4.4049  -0.7676   0.3571 H              1 S1                 0.0000
     35 ****         4.6006  -2.4544  -0.0832 H              1 S1                 0.0000
     36 ****        -4.0454  -1.2856   1.5574 H              1 S1                 0.0000
     37 ****        -6.0242   0.3245   1.6486 H              1 S1                 0.0000
     38 ****        -5.6815   2.5527   1.1275 H              1 S1                 0.0000
     39 ****        -0.3536   1.5157   1.3348 LP             1 S1                 0.0000
     40 ****         1.2320   0.8191   1.3061 LP             1 S1                 0.0000
     41 ****         1.2786  -2.9306  -1.1768 LP             1 S1                 0.0000
     42 ****         2.5887  -3.6162  -0.4839 LP             1 S1                 0.0000
@<TRIPOS>BOND
    1    1    2 1     
    2    1   19 1     
    3    1   20 1     
    4    1   21 1     
    5    2   18 ar    
    6    2    3 ar    
    7    3    4 ar    
    8    3   22 1     
    9    4    5 1     
   10    4   16 ar    
   11    5    6 am    
   12    5   23 1     
   13    6    7 2     
   14    6    8 am    
   15    8    9 1     
   16    8   24 1     
   17    9   10 1     
   18    9   25 1     
   19    9   26 1     
   20   10   15 1     
   21   10   11 1     
   22   10   12 1     
   23   11   27 1     
   24   12   13 1     
   25   12   28 1     
   26   12   29 1     
   27   13   14 1     
   28   13   30 1     
   29   13   31 1     
   30   14   15 1     
   31   14   32 1     
   32   14   33 1     
   33   15   34 1     
   34   15   35 1     
   35   16   17 ar    
   36   16   36 1     
   37   17   18 ar    
   38   17   37 1     
   39   18   38 1     
   40    7   39 1     
   41    7   40 1     
   42   11   41 1     
   43   11   42 1     
@<TRIPOS>SUBSTRUCTURE
      1 S1             1
@<TRIPOS>SET
LONE_PAIRS      STATIC     ATOMS    <user>   **** ""
4 39 40 41 42
DONOR_HYDROGENS      STATIC     ATOMS    <user>   **** ""
4 23 24 27 38
ATOM$BLUE        STATIC     ATOMS    COLORGROUP SYSTEM
4 39 40 41 42
ATOM$RED        STATIC     ATOMS    COLORGROUP SYSTEM
4 23 24 27 38
