AV-unprocessed.smi:1726|AV-procd|sdf|6960|dock7
  -GOLD-   22720 8173D 1   1.00000     0.00000
 Structure written by MMmdl.
 43 44  0  0  0  0  0  0  0  0  2 V2000
  145.9543  131.7330  149.4448 C   0  0  0  0  0  0  0  0  0  0  0  0
  145.5374  131.3729  150.8780 C   0  0  0  0  0  0  0  0  0  0  0  0
  145.0691  132.5519  151.6501 N   0  3  2  0  0  0  0  0  0  0  0  0
  143.7791  133.0799  151.1344 C   0  0  0  0  0  0  0  0  0  0  0  0
  143.2439  134.2137  152.0243 C   0  0  0  0  0  0  0  0  0  0  0  0
  144.2764  135.3393  152.1643 C   0  0  0  0  0  0  0  0  0  0  0  0
  145.6081  134.7695  152.6768 C   0  0  2  0  0  0  0  0  0  0  0  0
  146.6061  135.8326  152.7556 N   0  0  0  0  0  0  0  0  0  0  0  0
  146.4584  136.9799  153.4342 C   0  0  0  0  0  0  0  0  0  0  0  0
  145.4475  137.2514  154.0820 O   0  0  0  0  0  0  0  0  0  0  0  0
  147.5550  137.7518  153.3217 N   0  0  0  0  0  0  0  0  0  0  0  0
  147.8019  139.0280  153.8562 C   0  0  0  0  0  0  0  0  0  0  0  0
  146.8420  139.9312  154.1868 C   0  0  0  0  0  0  0  0  0  0  0  0
  147.1679  141.2399  154.7293 C   0  0  0  0  0  0  0  0  0  0  0  0
  146.0894  142.2647  155.0455 C   0  0  0  0  0  0  0  0  0  0  0  0
  146.0812  143.2496  154.1463 F   0  0  0  0  0  0  0  0  0  0  0  0
  144.8809  141.7018  155.0605 F   0  0  0  0  0  0  0  0  0  0  0  0
  146.3122  142.8003  156.2450 F   0  0  0  0  0  0  0  0  0  0  0  0
  148.4763  141.5266  154.8594 C   0  0  0  0  0  0  0  0  0  0  0  0
  149.4691  140.6042  154.5219 N   0  0  0  0  0  0  0  0  0  0  0  0
  149.2237  139.3710  154.0253 C   0  0  0  0  0  0  0  0  0  0  0  0
  150.1550  138.6165  153.7469 O   0  0  0  0  0  0  0  0  0  0  0  0
  146.0929  133.6254  151.7604 C   0  0  0  0  0  0  0  0  0  0  0  0
  150.4278  140.8916  154.6579 H   0  0  0  0  0  0  0  0  0  0  0  0
  146.3887  130.8672  148.9445 H   0  0  0  0  0  0  0  0  0  0  0  0
  146.7028  132.5258  149.4393 H   0  0  0  0  0  0  0  0  0  0  0  0
  145.1092  132.0620  148.8408 H   0  0  0  0  0  0  0  0  0  0  0  0
  144.7694  130.5980  150.8731 H   0  0  0  0  0  0  0  0  0  0  0  0
  146.4071  130.9413  151.3756 H   0  0  0  0  0  0  0  0  0  0  0  0
  143.9130  133.4347  150.1112 H   0  0  0  0  0  0  0  0  0  0  0  0
  143.0400  132.2786  151.0977 H   0  0  0  0  0  0  0  0  0  0  0  0
  142.3174  134.6088  151.6066 H   0  0  0  0  0  0  0  0  0  0  0  0
  142.9950  133.8192  153.0104 H   0  0  0  0  0  0  0  0  0  0  0  0
  144.4227  135.8240  151.1979 H   0  0  0  0  0  0  0  0  0  0  0  0
  143.9026  136.1045  152.8457 H   0  0  0  0  0  0  0  0  0  0  0  0
  145.4423  134.3720  153.6804 H   0  0  0  0  0  0  0  0  0  0  0  0
  147.4699  135.6861  152.2531 H   0  0  0  0  0  0  0  0  0  0  0  0
  148.3324  137.3565  152.8124 H   0  0  0  0  0  0  0  0  0  0  0  0
  145.7977  139.7087  154.0428 H   0  0  0  0  0  0  0  0  0  0  0  0
  148.8589  142.4693  155.2221 H   0  0  0  0  0  0  0  0  0  0  0  0
  147.0180  133.2128  152.1614 H   0  0  0  0  0  0  0  0  0  0  0  0
  146.3252  134.0093  150.7654 H   0  0  0  0  0  0  0  0  0  0  0  0
  144.8845  132.2244  152.5876 H   0  0  0  0  0  0  0  0  0  0  0  0
  1  2  1  0  0  0  0
  1 25  1  0  0  0  0
  1 26  1  0  0  0  0
  1 27  1  0  0  0  0
  2  3  1  0  0  0  0
  2 28  1  0  0  0  0
  2 29  1  0  0  0  0
  3 23  1  0  0  0  0
  3  4  1  0  0  0  0
  3 43  1  0  0  0  0
  4  5  1  0  0  0  0
  4 30  1  0  0  0  0
  4 31  1  0  0  0  0
  5  6  1  0  0  0  0
  5 32  1  0  0  0  0
  5 33  1  0  0  0  0
  6  7  1  0  0  0  0
  6 34  1  0  0  0  0
  6 35  1  0  0  0  0
  7  8  1  0  0  0  0
  7 23  1  0  0  0  0
  7 36  1  0  0  0  0
  8  9  1  0  0  0  0
  8 37  1  0  0  0  0
  9 10  2  0  0  0  0
  9 11  1  0  0  0  0
 11 12  1  0  0  0  0
 11 38  1  0  0  0  0
 12 21  1  0  0  0  0
 12 13  2  0  0  0  0
 13 14  1  0  0  0  0
 13 39  1  0  0  0  0
 14 15  1  0  0  0  0
 14 19  2  0  0  0  0
 15 16  1  0  0  0  0
 15 17  1  0  0  0  0
 15 18  1  0  0  0  0
 19 20  1  0  0  0  0
 19 40  1  0  0  0  0
 20 24  1  0  0  0  0
 20 21  1  0  0  0  0
 21 22  2  0  0  0  0
 23 41  1  0  0  0  0
 23 42  1  0  0  0  0
M  CHG  1   3   1
M  END
> <s_m_source_file>
AV-unprocessed.smi

> <i_m_source_file_index>
1726

> <i_lp_mmshare_version>
43012

> <i_f3d_flags>
0

> <s_epik_input>
W0NIM11bQ0gyXU4xW0NIMl1bQ0gyXVtDSDJdW0NASF0oW0NIMl0xKVtOSF1DKD1PKVtOSF1jMltjSF1jKEMoRikoRilGKVtjSF1bbkhdYzI9Tw==

> <s_epik_cmdline>
J2VwaWtfcHl0aG9uJywgJy1waCcsICc3LjAnLCAnLXRuJywgJzgnLCAnLW1hJywgJzIwMCcsICctbWV0YWxfYmluZGluZycsICctaW1hZScsICc8aW5maWxlLm1hZT4nLCAnLW9tYWUnLCAnPG91dGZpbGUubWFlPic=

> <r_lp_tautomer_probability>
1

> <r_epik_Ionization_Penalty>
0.00745721

> <r_epik_Ionization_Penalty_Charging>
0.00743804

> <r_epik_Ionization_Penalty_Neutral>
1.91703e-05

> <r_epik_State_Penalty>
-0

> <r_epik_Charging_Adjusted_Penalty>
0.00743804

> <i_epik_Tot_Q>
1

> <i_epik_Tot_abs_Q>
1

> <r_epik_Metal_State_Penalty>
0.37929

> <b_epik_Metal_Only>
0

> <s_lp_Force_Field>
OPLS_2005

> <r_lp_Energy>
26.6941

> <b_lp_Chiralities_Consistent>
1

> <s_lp_Variant>
AV-unprocessed.smi:1726-4

> <Gold.Version>
5.8.1

> <Gold.Id.Protein>
6NUR|6NUR_protein|mol2

> <Gold.PLP.Fitness>
41.3999

> <Gold.PLP.PLP>
-33.4501

> <Gold.PLP.part.hbond>
-2.0000

> <Gold.PLP.part.metal>
0.0000

> <Gold.PLP.part.buried>
-5.0649

> <Gold.PLP.part.nonpolar>
-28.3011

> <Gold.PLP.part.repulsive>
1.0155

> <Gold.PLP.ligand.clash>
0.0000

> <Gold.PLP.ligand.torsion>
0.5529

> <Gold.PLP.Chemscore.Hbond>
2.0000

> <Gold.PLP.Chemscore.CHOScore>
1.0000

> <Gold.PLP.Chemscore.Metal>
0.0000

> <Gold.Chemscore.Hbonds>
donor molecule, donor type, donor heavy atom, donor atom, acceptor molecule, acceptor atom, score
      L1  H     8    37       P1  7948  0.99
      L1  H    11    38       P1  7948  1.00
      L1  C    19    40       P1  8028  1.00

> <Gold.PLP.Chemscore.Internal.Correction>
0.0556

> <Gold.Rescore>
     Score         DG    S(hbond)    S(metal)    S(lipo)     H(rot)  DE(clash)    DE(int)     intcor
     14.88     -17.11       1.94        0.00      72.35       1.29       0.08       2.15       ----

> <Gold.Chemscore.Fitness>
14.8815

> <Gold.Chemscore.DG>
-17.1141

> <Gold.Chemscore.ZeroCoef>
-5.4800

> <Gold.Chemscore.Hbond>
1.9363

> <Gold.Chemscore.Metal>
0.0000

> <Gold.Chemscore.Lipo>
72.3513

> <Gold.Chemscore.Internal_Hbond>
0.0000

> <Gold.Chemscore.DEClash>
0.0821

> <Gold.Chemscore.DEInternal>
2.1505

> <Gold.Chemscore.Rot>
1.2884

> <Gold.Chemscore.Internal.Correction>
   9.000000E+99

> <Gold.Chemscore.Hbonds>
donor molecule, donor type, donor heavy atom, donor atom, acceptor molecule, acceptor atom, score
      L1  H     8    37       P1  7948  0.93
      L1  H    11    38       P1  7948  0.94

> <Gold.Chemscore.Hbond.Weighted>
-6.4673

> <Gold.Chemscore.Metal.Weighted>
-0.0000

> <Gold.Chemscore.Lipo.Weighted>
-8.4651

> <Gold.Chemscore.Internal_Hbond.Weighted>
0.0000

> <Gold.Chemscore.DEClash.Weighted>
0.0821

> <Gold.Chemscore.DEInternal.Weighted>
2.1505

> <Gold.Chemscore.Rot.Weighted>
3.2983

> <Gold.Chemscore.Internal.Correction.Weighted>
   9.000000E+99

> <Gold.Protein.RotatedTorsions>
[ 6907 6896 6895 6894 ] final   58.11 input  -60.11 | X-H torsion
[ 7974 7965 7964 7962 ] final  -65.82 input  175.53 | X-H torsion
[ 8008 7997 7996 7995 ] final -109.99 input   59.86 | X-H torsion
[ 10167 10162 10161 10158 ] final   83.55 input  -65.29 | X-H torsion
[ 10718 10713 10712 10709 ] final -126.55 input   66.30 | X-H torsion
[ 10763 10752 10751 10750 ] final   -8.86 input  -60.55 | X-H torsion
[ 11005 11000 10999 10996 ] final  -82.62 input  -57.11 | X-H torsion

> <Gold.Protein.ActiveResidues>
 VAL166  LYS551  ARG553  GLY616  TRP617  ASP618  TYR619  PRO620  LYS621  CYS622 
 ASP623  PHE694  ASN695  SER759  ASP760  ASP761  ALA762  ILE779  LEU786  VAL792 
 PHE793  MET794  SER795  GLU796  ALA797  LYS798  CYS799  TRP800  GLU811  SER814 

> <Gold.Protein.RotatedAtoms>
  152.3794  134.6614  160.0148 H   0  0  0  0  0  0  0  0  0  0  0  0  # atno 6907 bound_to 6896
  151.6882  133.3306  159.3244 H   0  0  0  0  0  0  0  0  0  0  0  0  # atno 6908 bound_to 6896
  150.7735  134.6657  159.6409 H   0  0  0  0  0  0  0  0  0  0  0  0  # atno 6909 bound_to 6896
  145.7495  140.8915  143.0487 H   0  0  0  0  0  0  0  0  0  0  0  0  # atno 7974 bound_to 7965
  154.9676  140.0398  157.2219 H   0  0  0  0  0  0  0  0  0  0  0  0  # atno 8008 bound_to 7997
  154.7830  140.2822  155.6026 H   0  0  0  0  0  0  0  0  0  0  0  0  # atno 8009 bound_to 7997
  156.2939  140.2588  156.2660 H   0  0  0  0  0  0  0  0  0  0  0  0  # atno 8010 bound_to 7997
  139.9172  144.6235  150.8476 H   0  0  0  0  0  0  0  0  0  0  0  0  # atno 10167 bound_to 10162
  156.1776  130.6710  151.0262 H   0  0  0  0  0  0  0  0  0  0  0  0  # atno 10718 bound_to 10713
  153.4465  135.7014  153.6136 H   0  0  0  0  0  0  0  0  0  0  0  0  # atno 10763 bound_to 10752
  153.4488  135.3763  155.2272 H   0  0  0  0  0  0  0  0  0  0  0  0  # atno 10764 bound_to 10752
  154.8728  135.3992  154.3871 H   0  0  0  0  0  0  0  0  0  0  0  0  # atno 10765 bound_to 10752
  141.1662  133.7253  156.8599 H   0  0  0  0  0  0  0  0  0  0  0  0  # atno 11005 bound_to 11000
  144.6853  139.9571  143.7479 LP  0  0  0  0  0  0  0  0  0  0  0  0  # atno 17320 bound_to 7965
  146.0371  139.3387  143.0720 LP  0  0  0  0  0  0  0  0  0  0  0  0  # atno 17321 bound_to 7965
  140.7671  143.3322  151.2385 LP  0  0  0  0  0  0  0  0  0  0  0  0  # atno 17342 bound_to 10162
  139.6892  143.9721  152.2850 LP  0  0  0  0  0  0  0  0  0  0  0  0  # atno 17343 bound_to 10162
  157.6846  131.0828  150.7278 LP  0  0  0  0  0  0  0  0  0  0  0  0  # atno 17370 bound_to 10713
  156.7335  130.4717  149.5494 LP  0  0  0  0  0  0  0  0  0  0  0  0  # atno 17371 bound_to 10713
  140.1856  134.9002  157.3000 LP  0  0  0  0  0  0  0  0  0  0  0  0  # atno 17394 bound_to 11000
  140.2347  134.3867  155.7506 LP  0  0  0  0  0  0  0  0  0  0  0  0  # atno 17395 bound_to 11000

$$$$
