AV-unprocessed.smi:1688|AV-procd|sdf|6770|dock3
  -GOLD-   22720 7533D 1   1.00000     0.00000
 Structure written by MMmdl.
 35 37  0  0  0  0  0  0  0  0  1 V2000
  149.5344  140.8606  153.5964 O   0  0  0  0  0  0  0  0  0  0  0  0
  149.9252  140.5342  154.9183 C   0  0  0  0  0  0  0  0  0  0  0  0
  150.2472  141.8589  155.6565 C   0  0  0  0  0  0  0  0  0  0  0  0
  150.7677  141.6830  157.0043 N   0  0  0  0  0  0  0  0  0  0  0  0
  150.8701  140.5272  157.6893 C   0  0  0  0  0  0  0  0  0  0  0  0
  151.3737  140.5873  158.9184 N   0  0  0  0  0  0  0  0  0  0  0  0
  151.6214  141.9424  159.0519 C   0  0  0  0  0  0  0  0  0  0  0  0
  152.1602  142.6727  160.1354 C   0  0  0  0  0  0  0  0  0  0  0  0
  152.3196  144.0710  160.0456 C   0  0  0  0  0  0  0  0  0  0  0  0
  151.9428  144.7597  158.8743 C   0  0  0  0  0  0  0  0  0  0  0  0
  151.4036  144.0536  157.7819 C   0  0  0  0  0  0  0  0  0  0  0  0
  151.2487  142.6576  157.8736 C   0  0  0  0  0  0  0  0  0  0  0  0
  148.7368  139.8233  155.6084 C   0  0  0  0  0  0  0  0  0  0  0  0
  148.4181  138.4469  154.9975 C   0  0  0  0  0  0  0  0  0  0  0  0
  149.6575  137.5422  154.9888 C   0  0  0  0  0  0  0  0  0  0  0  0
  150.8183  138.2130  154.2416 C   0  0  0  0  0  0  0  0  0  0  0  0
  151.1530  139.5915  154.8397 C   0  0  0  0  0  0  0  0  0  0  0  0
  149.7656  140.1415  153.0287 H   0  0  0  0  0  0  0  0  0  0  0  0
  150.9692  142.4458  155.0869 H   0  0  0  0  0  0  0  0  0  0  0  0
  149.3473  142.4721  155.7233 H   0  0  0  0  0  0  0  0  0  0  0  0
  150.5615  139.5862  157.2577 H   0  0  0  0  0  0  0  0  0  0  0  0
  152.4510  142.1555  161.0377 H   0  0  0  0  0  0  0  0  0  0  0  0
  152.7329  144.6183  160.8799 H   0  0  0  0  0  0  0  0  0  0  0  0
  152.0697  145.8307  158.8146 H   0  0  0  0  0  0  0  0  0  0  0  0
  151.1163  144.5784  156.8830 H   0  0  0  0  0  0  0  0  0  0  0  0
  148.9670  139.6860  156.6658 H   0  0  0  0  0  0  0  0  0  0  0  0
  147.8473  140.4536  155.5744 H   0  0  0  0  0  0  0  0  0  0  0  0
  147.6153  137.9695  155.5602 H   0  0  0  0  0  0  0  0  0  0  0  0
  148.0471  138.5701  153.9796 H   0  0  0  0  0  0  0  0  0  0  0  0
  149.9585  137.3208  156.0136 H   0  0  0  0  0  0  0  0  0  0  0  0
  149.4177  136.5865  154.5220 H   0  0  0  0  0  0  0  0  0  0  0  0
  151.6998  137.5721  154.2754 H   0  0  0  0  0  0  0  0  0  0  0  0
  150.5598  138.3221  153.1877 H   0  0  0  0  0  0  0  0  0  0  0  0
  151.9514  140.0472  154.2531 H   0  0  0  0  0  0  0  0  0  0  0  0
  151.5577  139.4480  155.8423 H   0  0  0  0  0  0  0  0  0  0  0  0
  1  2  1  0  0  0  0
  1 18  1  0  0  0  0
  2 17  1  0  0  0  0
  2  3  1  0  0  0  0
  2 13  1  0  0  0  0
  3  4  1  0  0  0  0
  3 19  1  0  0  0  0
  3 20  1  0  0  0  0
  4 12  1  0  0  0  0
  4  5  1  0  0  0  0
  5  6  2  0  0  0  0
  5 21  1  0  0  0  0
  6  7  1  0  0  0  0
  7 12  2  0  0  0  0
  7  8  1  0  0  0  0
  8  9  2  0  0  0  0
  8 22  1  0  0  0  0
  9 10  1  0  0  0  0
  9 23  1  0  0  0  0
 10 11  2  0  0  0  0
 10 24  1  0  0  0  0
 11 12  1  0  0  0  0
 11 25  1  0  0  0  0
 13 14  1  0  0  0  0
 13 26  1  0  0  0  0
 13 27  1  0  0  0  0
 14 15  1  0  0  0  0
 14 28  1  0  0  0  0
 14 29  1  0  0  0  0
 15 16  1  0  0  0  0
 15 30  1  0  0  0  0
 15 31  1  0  0  0  0
 16 17  1  0  0  0  0
 16 32  1  0  0  0  0
 16 33  1  0  0  0  0
 17 34  1  0  0  0  0
 17 35  1  0  0  0  0
M  END
> <s_m_source_file>
AV-unprocessed.smi

> <i_m_source_file_index>
1688

> <i_lp_mmshare_version>
43012

> <i_f3d_flags>
0

> <s_epik_input>
W0NIMl0xW0NIMl1bQ0gyXVtDSDJdW0NIMl1DMShbT0hdKVtDSDJdbihbY0hdbjIpYyhjMjMpW2NIXVtjSF1bY0hdW2NIXTM=

> <s_epik_cmdline>
J2VwaWtfcHl0aG9uJywgJy1waCcsICc3LjAnLCAnLXRuJywgJzgnLCAnLW1hJywgJzIwMCcsICctbWV0YWxfYmluZGluZycsICctaW1hZScsICc8aW5maWxlLm1hZT4nLCAnLW9tYWUnLCAnPG91dGZpbGUubWFlPic=

> <r_epik_Ionization_Penalty>
0.118875

> <r_epik_Ionization_Penalty_Charging>
0

> <r_epik_Ionization_Penalty_Neutral>
0.118875

> <r_epik_State_Penalty>
0.108446

> <r_epik_Charging_Adjusted_Penalty>
0.108446

> <i_epik_Tot_Q>
0

> <i_epik_Tot_abs_Q>
0

> <r_epik_Metal_State_Penalty>
0.000118993

> <b_epik_Metal_Only>
0

> <s_lp_Force_Field>
OPLS_2005

> <r_lp_Energy>
14.7103

> <b_lp_Chiralities_Consistent>
1

> <s_lp_Variant>
AV-unprocessed.smi:1688-1

> <Gold.Version>
5.8.1

> <Gold.Id.Protein>
6NUR|6NUR_protein|mol2

> <Gold.PLP.Fitness>
44.3614

> <Gold.PLP.PLP>
-39.7488

> <Gold.PLP.part.hbond>
-3.0000

> <Gold.PLP.part.metal>
0.0000

> <Gold.PLP.part.buried>
-1.6811

> <Gold.PLP.part.nonpolar>
-34.8368

> <Gold.PLP.part.repulsive>
0.0000

> <Gold.PLP.ligand.clash>
0.0000

> <Gold.PLP.ligand.torsion>
0.0597

> <Gold.PLP.Chemscore.Hbond>
1.5760

> <Gold.PLP.Chemscore.CHOScore>
0.0000

> <Gold.PLP.Chemscore.Metal>
0.0000

> <Gold.Chemscore.Hbonds>
donor molecule, donor type, donor heavy atom, donor atom, acceptor molecule, acceptor atom, score
      L1  H     1    18       P1  7957  0.56
      P1  H  8011  8017       L1     1  1.00

> <Gold.PLP.Chemscore.Internal.Correction>
0.0040

> <Gold.Rescore>
     Score         DG    S(hbond)    S(metal)    S(lipo)     H(rot)  DE(clash)    DE(int)     intcor
     16.38     -17.92       1.23        0.00     106.68       1.62       0.33       1.21       ----

> <Gold.Chemscore.Fitness>
16.3789

> <Gold.Chemscore.DG>
-17.9195

> <Gold.Chemscore.ZeroCoef>
-5.4800

> <Gold.Chemscore.Hbond>
1.2260

> <Gold.Chemscore.Metal>
0.0000

> <Gold.Chemscore.Lipo>
106.6850

> <Gold.Chemscore.Internal_Hbond>
0.0000

> <Gold.Chemscore.DEClash>
0.3342

> <Gold.Chemscore.DEInternal>
1.2063

> <Gold.Chemscore.Rot>
1.6162

> <Gold.Chemscore.Internal.Correction>
   9.000000E+99

> <Gold.Chemscore.Hbonds>
donor molecule, donor type, donor heavy atom, donor atom, acceptor molecule, acceptor atom, score
      L1  H     1    18       P1  7957  0.56
      P1  H  8011  8017       L1     1  0.24

> <Gold.Chemscore.Hbond.Weighted>
-4.0948

> <Gold.Chemscore.Metal.Weighted>
-0.0000

> <Gold.Chemscore.Lipo.Weighted>
-12.4821

> <Gold.Chemscore.Internal_Hbond.Weighted>
0.0000

> <Gold.Chemscore.DEClash.Weighted>
0.3342

> <Gold.Chemscore.DEInternal.Weighted>
1.2063

> <Gold.Chemscore.Rot.Weighted>
4.1374

> <Gold.Chemscore.Internal.Correction.Weighted>
   9.000000E+99

> <Gold.Protein.RotatedTorsions>
[ 6907 6896 6895 6894 ] final  104.10 input  -60.11 | X-H torsion
[ 7974 7965 7964 7962 ] final -148.97 input  175.53 | X-H torsion
[ 8008 7997 7996 7995 ] final  -98.08 input   59.86 | X-H torsion
[ 10167 10162 10161 10158 ] final  172.44 input  -65.29 | X-H torsion
[ 10718 10713 10712 10709 ] final  -71.63 input   66.30 | X-H torsion
[ 10763 10752 10751 10750 ] final  -29.01 input  -60.55 | X-H torsion
[ 11005 11000 10999 10996 ] final  -18.74 input  -57.11 | X-H torsion

> <Gold.Protein.ActiveResidues>
 VAL166  LYS551  ARG553  GLY616  TRP617  ASP618  TYR619  PRO620  LYS621  CYS622 
 ASP623  PHE694  ASN695  SER759  ASP760  ASP761  ALA762  ILE779  LEU786  VAL792 
 PHE793  MET794  SER795  GLU796  ALA797  LYS798  CYS799  TRP800  GLU811  SER814 

> <Gold.Protein.RotatedAtoms>
  152.5275  133.9726  159.7769 H   0  0  0  0  0  0  0  0  0  0  0  0  # atno 6907 bound_to 6896
  150.9995  133.6062  159.2704 H   0  0  0  0  0  0  0  0  0  0  0  0  # atno 6908 bound_to 6896
  151.3176  135.0816  159.9347 H   0  0  0  0  0  0  0  0  0  0  0  0  # atno 6909 bound_to 6896
  144.7996  140.5126  143.5716 H   0  0  0  0  0  0  0  0  0  0  0  0  # atno 7974 bound_to 7965
  154.7964  140.0458  157.1240 H   0  0  0  0  0  0  0  0  0  0  0  0  # atno 8008 bound_to 7997
  154.9530  140.3067  155.5046 H   0  0  0  0  0  0  0  0  0  0  0  0  # atno 8009 bound_to 7997
  156.2956  140.2284  156.4609 H   0  0  0  0  0  0  0  0  0  0  0  0  # atno 8010 bound_to 7997
  139.5077  144.3373  152.0052 H   0  0  0  0  0  0  0  0  0  0  0  0  # atno 10167 bound_to 10162
  156.0355  130.4355  150.2472 H   0  0  0  0  0  0  0  0  0  0  0  0  # atno 10718 bound_to 10713
  153.7577  135.6921  153.4932 H   0  0  0  0  0  0  0  0  0  0  0  0  # atno 10763 bound_to 10752
  153.1960  135.4454  155.0206 H   0  0  0  0  0  0  0  0  0  0  0  0  # atno 10764 bound_to 10752
  154.8164  135.3401  154.7094 H   0  0  0  0  0  0  0  0  0  0  0  0  # atno 10765 bound_to 10752
  140.8297  133.8006  155.9746 H   0  0  0  0  0  0  0  0  0  0  0  0  # atno 11005 bound_to 11000
  145.5586  139.1478  143.3354 LP  0  0  0  0  0  0  0  0  0  0  0  0  # atno 17320 bound_to 7965
  146.2274  140.5723  142.8990 LP  0  0  0  0  0  0  0  0  0  0  0  0  # atno 17321 bound_to 7965
  140.2812  144.3857  150.6118 LP  0  0  0  0  0  0  0  0  0  0  0  0  # atno 17342 bound_to 10162
  140.6017  143.2167  151.7060 LP  0  0  0  0  0  0  0  0  0  0  0  0  # atno 17343 bound_to 10162
  157.0571  131.0079  151.3234 LP  0  0  0  0  0  0  0  0  0  0  0  0  # atno 17370 bound_to 10713
  157.5097  130.7931  149.7692 LP  0  0  0  0  0  0  0  0  0  0  0  0  # atno 17371 bound_to 10713
  140.9011  134.2377  157.5041 LP  0  0  0  0  0  0  0  0  0  0  0  0  # atno 17394 bound_to 11000
  139.8705  134.9707  156.4710 LP  0  0  0  0  0  0  0  0  0  0  0  0  # atno 17395 bound_to 11000

$$$$
