AV-unprocessed.smi:108|AV-procd|sdf|1030|dock9
  -GOLD-   2262018 33D 1   1.00000     0.00000
 Structure written by MMmdl.
 59 62  0  0  0  0  0  0  0  0  1 V2000
  150.1238  139.1185  158.8842 O   0  0  0  0  0  0  0  0  0  0  0  0
  150.0936  138.9731  157.6602 C   0  0  0  0  0  0  0  0  0  0  0  0
  149.1590  137.9050  157.0518 C   0  0  0  0  0  0  0  0  0  0  0  0
  148.1566  137.3848  158.0076 N   0  0  0  0  0  0  0  0  0  0  0  0
  146.7861  137.6364  157.7544 C   0  0  0  0  0  0  0  0  0  0  0  0
  146.4253  138.2843  156.7705 O   0  0  0  0  0  0  0  0  0  0  0  0
  145.8561  137.0782  158.7278 C   0  0  0  0  0  0  0  0  0  0  0  0
  144.5329  137.2164  158.5388 F   0  0  0  0  0  0  0  0  0  0  0  0
  146.3017  136.4076  159.8099 C   0  0  0  0  0  0  0  0  0  0  0  0
  147.6474  136.2220  160.0819 N   0  0  0  0  0  0  0  0  0  0  0  0
  148.1413  135.4102  161.2707 C   0  0  1  0  0  0  0  0  0  0  0  0
  147.5142  135.8099  162.6132 C   0  0  0  0  0  0  0  0  0  0  0  0
  146.3823  134.8007  162.7865 C   0  0  0  0  0  0  0  0  0  0  0  0
  146.4645  133.9032  161.5470 C   0  0  0  0  0  0  0  0  0  0  0  0
  147.7920  134.0777  161.0709 O   0  0  0  0  0  0  0  0  0  0  0  0
  148.6063  136.6784  159.1491 C   0  0  0  0  0  0  0  0  0  0  0  0
  149.8090  136.4745  159.3308 O   0  0  0  0  0  0  0  0  0  0  0  0
  150.8673  139.7173  156.8311 N   0  0  0  0  0  0  0  0  0  0  0  0
  151.8116  140.7120  157.3680 C   0  0  0  0  0  0  0  0  0  0  0  0
  151.3475  142.1667  157.1392 C   0  0  0  0  0  0  0  0  0  0  0  0
  151.6350  143.0875  158.3132 C   0  0  0  0  0  0  0  0  0  0  0  0
  151.2690  144.4494  158.2544 C   0  0  0  0  0  0  0  0  0  0  0  0
  151.5183  145.2970  159.3508 C   0  0  0  0  0  0  0  0  0  0  0  0
  152.1364  144.7870  160.5089 C   0  0  0  0  0  0  0  0  0  0  0  0
  152.5046  143.4289  160.5703 C   0  0  0  0  0  0  0  0  0  0  0  0
  152.2546  142.5803  159.4743 C   0  0  0  0  0  0  0  0  0  0  0  0
  150.8324  139.6055  155.3624 C   0  0  0  0  0  0  0  0  0  0  0  0
  149.5257  140.0493  154.7129 C   0  0  0  0  0  0  0  0  0  0  0  0
  148.6421  139.1229  154.1122 C   0  0  0  0  0  0  0  0  0  0  0  0
  147.4439  139.5655  153.5194 C   0  0  0  0  0  0  0  0  0  0  0  0
  147.1163  140.9345  153.5270 C   0  0  0  0  0  0  0  0  0  0  0  0
  147.9871  141.8611  154.1309 C   0  0  0  0  0  0  0  0  0  0  0  0
  149.1863  141.4189  154.7227 C   0  0  0  0  0  0  0  0  0  0  0  0
  148.6640  138.3161  156.1718 H   0  0  0  0  0  0  0  0  0  0  0  0
  149.7663  137.0876  156.6611 H   0  0  0  0  0  0  0  0  0  0  0  0
  145.5549  135.9988  160.4720 H   0  0  0  0  0  0  0  0  0  0  0  0
  149.2242  135.5441  161.2841 H   0  0  0  0  0  0  0  0  0  0  0  0
  148.2601  135.6605  163.3948 H   0  0  0  0  0  0  0  0  0  0  0  0
  147.2121  136.8566  162.6444 H   0  0  0  0  0  0  0  0  0  0  0  0
  146.5401  134.2162  163.6934 H   0  0  0  0  0  0  0  0  0  0  0  0
  145.4073  135.2819  162.8671 H   0  0  0  0  0  0  0  0  0  0  0  0
  146.2587  132.8570  161.7742 H   0  0  0  0  0  0  0  0  0  0  0  0
  145.7552  134.2259  160.7839 H   0  0  0  0  0  0  0  0  0  0  0  0
  151.9579  140.5491  158.4365 H   0  0  0  0  0  0  0  0  0  0  0  0
  152.7991  140.5656  156.9270 H   0  0  0  0  0  0  0  0  0  0  0  0
  151.8311  142.5683  156.2480 H   0  0  0  0  0  0  0  0  0  0  0  0
  150.2774  142.1873  156.9295 H   0  0  0  0  0  0  0  0  0  0  0  0
  150.7877  144.8454  157.3717 H   0  0  0  0  0  0  0  0  0  0  0  0
  151.2341  146.3378  159.3040 H   0  0  0  0  0  0  0  0  0  0  0  0
  152.3273  145.4373  161.3499 H   0  0  0  0  0  0  0  0  0  0  0  0
  152.9775  143.0375  161.4589 H   0  0  0  0  0  0  0  0  0  0  0  0
  152.5342  141.5383  159.5287 H   0  0  0  0  0  0  0  0  0  0  0  0
  151.6337  140.1957  154.9169 H   0  0  0  0  0  0  0  0  0  0  0  0
  151.0595  138.5822  155.0621 H   0  0  0  0  0  0  0  0  0  0  0  0
  148.8726  138.0679  154.0985 H   0  0  0  0  0  0  0  0  0  0  0  0
  146.7756  138.8530  153.0586 H   0  0  0  0  0  0  0  0  0  0  0  0
  146.1969  141.2731  153.0723 H   0  0  0  0  0  0  0  0  0  0  0  0
  147.7355  142.9115  154.1403 H   0  0  0  0  0  0  0  0  0  0  0  0
  149.8482  142.1379  155.1828 H   0  0  0  0  0  0  0  0  0  0  0  0
  1  2  2  0  0  0  0
  2  3  1  0  0  0  0
  2 18  1  0  0  0  0
  3  4  1  0  0  0  0
  3 34  1  0  0  0  0
  3 35  1  0  0  0  0
  4 16  1  0  0  0  0
  4  5  1  0  0  0  0
  5  6  2  0  0  0  0
  5  7  1  0  0  0  0
  7  8  1  0  0  0  0
  7  9  2  0  0  0  0
  9 10  1  0  0  0  0
  9 36  1  0  0  0  0
 10 11  1  0  0  0  0
 10 16  1  0  0  0  0
 11 15  1  0  0  0  0
 11 12  1  0  0  0  0
 11 37  1  0  0  0  0
 12 13  1  0  0  0  0
 12 38  1  0  0  0  0
 12 39  1  0  0  0  0
 13 14  1  0  0  0  0
 13 40  1  0  0  0  0
 13 41  1  0  0  0  0
 14 15  1  0  0  0  0
 14 42  1  0  0  0  0
 14 43  1  0  0  0  0
 16 17  2  0  0  0  0
 18 19  1  0  0  0  0
 18 27  1  0  0  0  0
 19 20  1  0  0  0  0
 19 44  1  0  0  0  0
 19 45  1  0  0  0  0
 20 21  1  0  0  0  0
 20 46  1  0  0  0  0
 20 47  1  0  0  0  0
 21 26  1  0  0  0  0
 21 22  2  0  0  0  0
 22 23  1  0  0  0  0
 22 48  1  0  0  0  0
 23 24  2  0  0  0  0
 23 49  1  0  0  0  0
 24 25  1  0  0  0  0
 24 50  1  0  0  0  0
 25 26  2  0  0  0  0
 25 51  1  0  0  0  0
 26 52  1  0  0  0  0
 27 28  1  0  0  0  0
 27 53  1  0  0  0  0
 27 54  1  0  0  0  0
 28 33  1  0  0  0  0
 28 29  2  0  0  0  0
 29 30  1  0  0  0  0
 29 55  1  0  0  0  0
 30 31  2  0  0  0  0
 30 56  1  0  0  0  0
 31 32  1  0  0  0  0
 31 57  1  0  0  0  0
 32 33  2  0  0  0  0
 32 58  1  0  0  0  0
 33 59  1  0  0  0  0
M  END
> <s_m_source_file>
AV-unprocessed.smi

> <i_m_source_file_index>
108

> <i_lp_mmshare_version>
43012

> <i_f3d_flags>
0

> <s_epik_input>
W2NIXTFbY0hdW2NIXVtjSF1bY0hdYzFbQ0gyXVtDSDJdTihbQ0gyXWMyW2NIXVtjSF1bY0hdW2NIXVtjSF0yKUMoPU8pW0NIMl1uM2MoPU8pYyhGKVtjSF1uKGMzPU8pW0NAQEhdNFtDSDJdW0NIMl1bQ0gyXU80

> <s_epik_cmdline>
J2VwaWtfcHl0aG9uJywgJy1waCcsICc3LjAnLCAnLXRuJywgJzgnLCAnLW1hJywgJzIwMCcsICctbWV0YWxfYmluZGluZycsICctaW1hZScsICc8aW5maWxlLm1hZT4nLCAnLW9tYWUnLCAnPG91dGZpbGUubWFlPic=

> <r_lp_tautomer_probability>
1

> <r_epik_Ionization_Penalty>
5.46209e-09

> <r_epik_Ionization_Penalty_Charging>
4.22697e-09

> <r_epik_Ionization_Penalty_Neutral>
1.23512e-09

> <r_epik_State_Penalty>
-0

> <r_epik_Charging_Adjusted_Penalty>
4.22697e-09

> <i_epik_Tot_Q>
0

> <i_epik_Tot_abs_Q>
0

> <r_epik_Metal_State_Penalty>
-0

> <b_epik_Metal_Only>
0

> <s_epik_Chemistry_Notes>
This compound contains an acetal/aminal-like group ( X-CH(R)-Y where X, Y are N, S, or O) that may be acid/base labile, releasing an aldehyde.

> <s_lp_Force_Field>
OPLS_2005

> <r_lp_Energy>
38.0932

> <b_lp_Chiralities_Consistent>
1

> <s_lp_Variant>
AV-unprocessed.smi:108-2

> <Gold.Version>
5.8.1

> <Gold.Id.Protein>
6NUR|6NUR_protein|mol2

> <Gold.PLP.Fitness>
64.2789

> <Gold.PLP.PLP>
-62.9454

> <Gold.PLP.part.hbond>
-1.6294

> <Gold.PLP.part.metal>
0.0000

> <Gold.PLP.part.buried>
-7.7018

> <Gold.PLP.part.nonpolar>
-54.0680

> <Gold.PLP.part.repulsive>
0.0000

> <Gold.PLP.ligand.clash>
0.0000

> <Gold.PLP.ligand.torsion>
0.9547

> <Gold.PLP.Chemscore.Hbond>
1.0000

> <Gold.PLP.Chemscore.CHOScore>
0.0000

> <Gold.PLP.Chemscore.Metal>
0.0000

> <Gold.Chemscore.Hbonds>
donor molecule, donor type, donor heavy atom, donor atom, acceptor molecule, acceptor atom, score
      P1  H  6896  6907       L1    17  1.00

> <Gold.PLP.Chemscore.Internal.Correction>
0.2430

> <Gold.Rescore>
     Score         DG    S(hbond)    S(metal)    S(lipo)     H(rot)  DE(clash)    DE(int)     intcor
     20.56     -22.01       1.00        0.00     162.54       2.28       0.07       1.38       ----

> <Gold.Chemscore.Fitness>
20.5569

> <Gold.Chemscore.DG>
-22.0110

> <Gold.Chemscore.ZeroCoef>
-5.4800

> <Gold.Chemscore.Hbond>
0.9997

> <Gold.Chemscore.Metal>
0.0000

> <Gold.Chemscore.Lipo>
162.5425

> <Gold.Chemscore.Internal_Hbond>
0.0000

> <Gold.Chemscore.DEClash>
0.0729

> <Gold.Chemscore.DEInternal>
1.3811

> <Gold.Chemscore.Rot>
2.2756

> <Gold.Chemscore.Internal.Correction>
   9.000000E+99

> <Gold.Chemscore.Hbonds>
donor molecule, donor type, donor heavy atom, donor atom, acceptor molecule, acceptor atom, score
      P1  H  6896  6907       L1    17  0.97

> <Gold.Chemscore.Hbond.Weighted>
-3.3390

> <Gold.Chemscore.Metal.Weighted>
-0.0000

> <Gold.Chemscore.Lipo.Weighted>
-19.0175

> <Gold.Chemscore.Internal_Hbond.Weighted>
0.0000

> <Gold.Chemscore.DEClash.Weighted>
0.0729

> <Gold.Chemscore.DEInternal.Weighted>
1.3811

> <Gold.Chemscore.Rot.Weighted>
5.8255

> <Gold.Chemscore.Internal.Correction.Weighted>
   9.000000E+99

> <Gold.Protein.RotatedTorsions>
[ 6907 6896 6895 6894 ] final  -57.32 input  -60.11 | X-H torsion
[ 7974 7965 7964 7962 ] final  -29.78 input  175.53 | X-H torsion
[ 8008 7997 7996 7995 ] final  -45.15 input   59.86 | X-H torsion
[ 10167 10162 10161 10158 ] final  136.30 input  -65.29 | X-H torsion
[ 10718 10713 10712 10709 ] final   43.43 input   66.30 | X-H torsion
[ 10763 10752 10751 10750 ] final   13.24 input  -60.55 | X-H torsion
[ 11005 11000 10999 10996 ] final -102.02 input  -57.11 | X-H torsion

> <Gold.Protein.ActiveResidues>
 VAL166  LYS551  ARG553  GLY616  TRP617  ASP618  TYR619  PRO620  LYS621  CYS622 
 ASP623  PHE694  ASN695  SER759  ASP760  ASP761  ALA762  ILE779  LEU786  VAL792 
 PHE793  MET794  SER795  GLU796  ALA797  LYS798  CYS799  TRP800  GLU811  SER814 

> <Gold.Protein.RotatedAtoms>
  150.8095  134.7241  159.6674 H   0  0  0  0  0  0  0  0  0  0  0  0  # atno 6907 bound_to 6896
  152.4215  134.5943  159.9992 H   0  0  0  0  0  0  0  0  0  0  0  0  # atno 6908 bound_to 6896
  151.6157  133.3306  159.3113 H   0  0  0  0  0  0  0  0  0  0  0  0  # atno 6909 bound_to 6896
  146.1191  140.5457  142.8743 H   0  0  0  0  0  0  0  0  0  0  0  0  # atno 7974 bound_to 7965
  154.4000  140.1404  156.3799 H   0  0  0  0  0  0  0  0  0  0  0  0  # atno 8008 bound_to 7997
  155.8013  140.3476  155.5384 H   0  0  0  0  0  0  0  0  0  0  0  0  # atno 8009 bound_to 7997
  155.8480  140.0937  157.1683 H   0  0  0  0  0  0  0  0  0  0  0  0  # atno 8010 bound_to 7997
  139.5185  144.6472  151.5406 H   0  0  0  0  0  0  0  0  0  0  0  0  # atno 10167 bound_to 10162
  157.4158  130.7941  149.7471 H   0  0  0  0  0  0  0  0  0  0  0  0  # atno 10718 bound_to 10713
  153.1741  135.6817  153.8567 H   0  0  0  0  0  0  0  0  0  0  0  0  # atno 10763 bound_to 10752
  153.7921  135.3167  155.3381 H   0  0  0  0  0  0  0  0  0  0  0  0  # atno 10764 bound_to 10752
  154.8017  135.4773  154.0385 H   0  0  0  0  0  0  0  0  0  0  0  0  # atno 10765 bound_to 10752
  141.1206  133.8525  157.1307 H   0  0  0  0  0  0  0  0  0  0  0  0  # atno 11005 bound_to 11000
  144.7580  140.5355  143.6755 LP  0  0  0  0  0  0  0  0  0  0  0  0  # atno 17320 bound_to 7965
  145.5504  139.1476  143.3397 LP  0  0  0  0  0  0  0  0  0  0  0  0  # atno 17321 bound_to 7965
  140.6261  143.9165  150.6566 LP  0  0  0  0  0  0  0  0  0  0  0  0  # atno 17342 bound_to 10162
  140.2454  143.3632  152.1451 LP  0  0  0  0  0  0  0  0  0  0  0  0  # atno 17343 bound_to 10162
  155.9865  130.3974  150.3211 LP  0  0  0  0  0  0  0  0  0  0  0  0  # atno 17370 bound_to 10713
  157.1354  131.0282  151.2951 LP  0  0  0  0  0  0  0  0  0  0  0  0  # atno 17371 bound_to 10713
  140.0161  134.9966  157.0497 LP  0  0  0  0  0  0  0  0  0  0  0  0  # atno 17394 bound_to 11000
  140.4517  134.1575  155.7182 LP  0  0  0  0  0  0  0  0  0  0  0  0  # atno 17395 bound_to 11000

$$$$
