AV-unprocessed.smi:1019|AV-procd|sdf|4450|dock1
  -GOLD-   22720 2413D 1   1.00000     0.00000
 Structure written by MMmdl.
 45 47  0  0  0  0  0  0  0  0  3 V2000
  145.9711  136.8706  150.3762 C   0  0  0  0  0  0  0  0  0  0  0  0
  146.0125  136.5218  151.8163 N   0  3  2  0  0  0  0  0  0  0  0  0
  145.1009  135.3998  152.1610 C   0  0  0  0  0  0  0  0  0  0  0  0
  145.2898  134.2080  151.2392 C   0  0  0  0  0  0  0  0  0  0  0  0
  144.2414  133.7857  150.3937 C   0  0  0  0  0  0  0  0  0  0  0  0
  144.4242  132.6828  149.5372 C   0  0  0  0  0  0  0  0  0  0  0  0
  145.6540  131.9968  149.5242 C   0  0  0  0  0  0  0  0  0  0  0  0
  146.7010  132.4131  150.3689 C   0  0  0  0  0  0  0  0  0  0  0  0
  146.5192  133.5160  151.2258 C   0  0  0  0  0  0  0  0  0  0  0  0
  145.8192  137.7155  152.6798 C   0  0  0  0  0  0  0  0  0  0  0  0
  146.9944  138.7098  152.5879 C   0  0  1  0  0  0  0  0  0  0  0  0
  146.7925  139.5543  151.4707 O   0  0  0  0  0  0  0  0  0  0  0  0
  147.1107  139.5714  153.8611 C   0  0  0  0  0  0  0  0  0  0  0  0
  148.4877  139.6744  154.3626 N   0  0  0  0  0  0  0  0  0  0  0  0
  149.6284  139.0795  153.9174 C   0  0  0  0  0  0  0  0  0  0  0  0
  150.6495  139.4989  154.7150 N   0  3  0  0  0  0  0  0  0  0  0  0
  150.1556  140.3757  155.6831 C   0  0  0  0  0  0  0  0  0  0  0  0
  150.8014  141.0589  156.7088 C   0  0  0  0  0  0  0  0  0  0  0  0
  149.9976  141.8824  157.5245 C   0  0  0  0  0  0  0  0  0  0  0  0
  148.6094  142.0020  157.3065 C   0  0  0  0  0  0  0  0  0  0  0  0
  147.9646  141.3039  156.2641 C   0  0  0  0  0  0  0  0  0  0  0  0
  148.7668  140.4931  155.4620 C   0  0  0  0  0  0  0  0  0  0  0  0
  144.9857  137.2429  150.0932 H   0  0  0  0  0  0  0  0  0  0  0  0
  146.2041  136.0098  149.7499 H   0  0  0  0  0  0  0  0  0  0  0  0
  146.7066  137.6417  150.1446 H   0  0  0  0  0  0  0  0  0  0  0  0
  145.2817  135.0566  153.1792 H   0  0  0  0  0  0  0  0  0  0  0  0
  144.0643  135.7399  152.1350 H   0  0  0  0  0  0  0  0  0  0  0  0
  143.2957  134.3076  150.3958 H   0  0  0  0  0  0  0  0  0  0  0  0
  143.6211  132.3630  148.8895 H   0  0  0  0  0  0  0  0  0  0  0  0
  145.7936  131.1511  148.8669 H   0  0  0  0  0  0  0  0  0  0  0  0
  147.6436  131.8856  150.3594 H   0  0  0  0  0  0  0  0  0  0  0  0
  147.3270  133.8305  151.8707 H   0  0  0  0  0  0  0  0  0  0  0  0
  144.9051  138.2385  152.3934 H   0  0  0  0  0  0  0  0  0  0  0  0
  145.6690  137.3906  153.7106 H   0  0  0  0  0  0  0  0  0  0  0  0
  147.9329  138.1769  152.4384 H   0  0  0  0  0  0  0  0  0  0  0  0
  147.6344  139.8393  151.1487 H   0  0  0  0  0  0  0  0  0  0  0  0
  146.7589  140.5857  153.6664 H   0  0  0  0  0  0  0  0  0  0  0  0
  146.4821  139.1756  154.6598 H   0  0  0  0  0  0  0  0  0  0  0  0
  149.7100  138.3977  153.0831 H   0  0  0  0  0  0  0  0  0  0  0  0
  151.8647  140.9700  156.8776 H   0  0  0  0  0  0  0  0  0  0  0  0
  150.4553  142.4340  158.3330 H   0  0  0  0  0  0  0  0  0  0  0  0
  148.0274  142.6438  157.9522 H   0  0  0  0  0  0  0  0  0  0  0  0
  146.9013  141.4029  156.1052 H   0  0  0  0  0  0  0  0  0  0  0  0
  146.9522  136.1987  151.9997 H   0  0  0  0  0  0  0  0  0  0  0  0
  151.6125  139.2079  154.6034 H   0  0  0  0  0  0  0  0  0  0  0  0
  1  2  1  0  0  0  0
  1 23  1  0  0  0  0
  1 24  1  0  0  0  0
  1 25  1  0  0  0  0
  2  3  1  0  0  0  0
  2 10  1  0  0  0  0
  2 44  1  0  0  0  0
  3  4  1  0  0  0  0
  3 26  1  0  0  0  0
  3 27  1  0  0  0  0
  4  9  1  0  0  0  0
  4  5  2  0  0  0  0
  5  6  1  0  0  0  0
  5 28  1  0  0  0  0
  6  7  2  0  0  0  0
  6 29  1  0  0  0  0
  7  8  1  0  0  0  0
  7 30  1  0  0  0  0
  8  9  2  0  0  0  0
  8 31  1  0  0  0  0
  9 32  1  0  0  0  0
 10 11  1  0  0  0  0
 10 33  1  0  0  0  0
 10 34  1  0  0  0  0
 11 12  1  0  0  0  0
 11 13  1  0  0  0  0
 11 35  1  0  0  0  0
 12 36  1  0  0  0  0
 13 14  1  0  0  0  0
 13 37  1  0  0  0  0
 13 38  1  0  0  0  0
 14 22  1  0  0  0  0
 14 15  1  0  0  0  0
 15 16  2  0  0  0  0
 15 39  1  0  0  0  0
 16 17  1  0  0  0  0
 16 45  1  0  0  0  0
 17 22  2  0  0  0  0
 17 18  1  0  0  0  0
 18 19  2  0  0  0  0
 18 40  1  0  0  0  0
 19 20  1  0  0  0  0
 19 41  1  0  0  0  0
 20 21  2  0  0  0  0
 20 42  1  0  0  0  0
 21 22  1  0  0  0  0
 21 43  1  0  0  0  0
M  CHG  1   2   1
M  CHG  1  16   1
M  END
> <s_m_source_file>
AV-unprocessed.smi

> <i_m_source_file_index>
1019

> <i_lp_mmshare_version>
43012

> <i_f3d_flags>
0

> <s_epik_input>
W2NIXTFbY0hdW2NIXVtjSF1bY0hdYzFbQ0gyXU4oW0NIM10pW0NIMl1bQ0BIXShbT0hdKVtDSDJdbihbY0hdbjIpYyhjMjMpW2NIXVtjSF1bY0hdW2NIXTM=

> <s_epik_cmdline>
J2VwaWtfcHl0aG9uJywgJy1waCcsICc3LjAnLCAnLXRuJywgJzgnLCAnLW1hJywgJzIwMCcsICctbWV0YWxfYmluZGluZycsICctaW1hZScsICc8aW5maWxlLm1hZT4nLCAnLW9tYWUnLCAnPG91dGZpbGUubWFlPic=

> <r_epik_Ionization_Penalty>
1.5198

> <r_epik_Ionization_Penalty_Charging>
1.5198

> <r_epik_Ionization_Penalty_Neutral>
3.13312e-06

> <r_epik_State_Penalty>
1.624

> <r_epik_Charging_Adjusted_Penalty>
3.1438

> <i_epik_Tot_Q>
2

> <i_epik_Tot_abs_Q>
2

> <r_epik_Metal_State_Penalty>
5.67392

> <b_epik_Metal_Only>
0

> <s_lp_Force_Field>
OPLS_2005

> <r_lp_Energy>
24.6792

> <b_lp_Chiralities_Consistent>
1

> <s_lp_Variant>
AV-unprocessed.smi:1019-8

> <Gold.Version>
5.8.1

> <Gold.Id.Protein>
6NUR|6NUR_protein|mol2

> <Gold.PLP.Fitness>
49.0398

> <Gold.PLP.PLP>
-37.5972

> <Gold.PLP.part.hbond>
-2.0480

> <Gold.PLP.part.metal>
0.0000

> <Gold.PLP.part.buried>
3.7386

> <Gold.PLP.part.nonpolar>
-39.7771

> <Gold.PLP.part.repulsive>
1.0713

> <Gold.PLP.ligand.clash>
0.0000

> <Gold.PLP.ligand.torsion>
1.0541

> <Gold.PLP.Chemscore.Hbond>
3.0000

> <Gold.PLP.Chemscore.CHOScore>
1.4189

> <Gold.PLP.Chemscore.Metal>
0.0000

> <Gold.Chemscore.Hbonds>
donor molecule, donor type, donor heavy atom, donor atom, acceptor molecule, acceptor atom, score
      L1  H     2    44       P1  7948  2.00
      L1  H    12    36       P1  7957  1.00
      L1  C    15    39       P1  7948  0.94
      L1  C    15    39       P1  7957  0.42

> <Gold.PLP.Chemscore.Internal.Correction>
0.2942

> <Gold.Rescore>
     Score         DG    S(hbond)    S(metal)    S(lipo)     H(rot)  DE(clash)    DE(int)     intcor
     14.35     -18.56       1.91        0.00     110.95       2.46       2.19       2.03       ----

> <Gold.Chemscore.Fitness>
14.3457

> <Gold.Chemscore.DG>
-18.5624

> <Gold.Chemscore.ZeroCoef>
-5.4800

> <Gold.Chemscore.Hbond>
1.9121

> <Gold.Chemscore.Metal>
0.0000

> <Gold.Chemscore.Lipo>
110.9508

> <Gold.Chemscore.Internal_Hbond>
0.0000

> <Gold.Chemscore.DEClash>
2.1914

> <Gold.Chemscore.DEInternal>
2.0253

> <Gold.Chemscore.Rot>
2.4552

> <Gold.Chemscore.Internal.Correction>
   9.000000E+99

> <Gold.Chemscore.Hbonds>
donor molecule, donor type, donor heavy atom, donor atom, acceptor molecule, acceptor atom, score
      L1  H     2    44       P1  7948  0.95
      L1  H    12    36       P1  7957  0.94

> <Gold.Chemscore.Hbond.Weighted>
-6.3865

> <Gold.Chemscore.Metal.Weighted>
-0.0000

> <Gold.Chemscore.Lipo.Weighted>
-12.9812

> <Gold.Chemscore.Internal_Hbond.Weighted>
0.0000

> <Gold.Chemscore.DEClash.Weighted>
2.1914

> <Gold.Chemscore.DEInternal.Weighted>
2.0253

> <Gold.Chemscore.Rot.Weighted>
6.2854

> <Gold.Chemscore.Internal.Correction.Weighted>
   9.000000E+99

> <Gold.Protein.RotatedTorsions>
[ 6907 6896 6895 6894 ] final   24.49 input  -60.11 | X-H torsion
[ 7974 7965 7964 7962 ] final  167.98 input  175.53 | X-H torsion
[ 8008 7997 7996 7995 ] final  -11.13 input   59.86 | X-H torsion
[ 10167 10162 10161 10158 ] final  176.53 input  -65.29 | X-H torsion
[ 10718 10713 10712 10709 ] final   97.79 input   66.30 | X-H torsion
[ 10763 10752 10751 10750 ] final  -93.05 input  -60.55 | X-H torsion
[ 11005 11000 10999 10996 ] final -166.68 input  -57.11 | X-H torsion

> <Gold.Protein.ActiveResidues>
 VAL166  LYS551  ARG553  GLY616  TRP617  ASP618  TYR619  PRO620  LYS621  CYS622 
 ASP623  PHE694  ASN695  SER759  ASP760  ASP761  ALA762  ILE779  LEU786  VAL792 
 PHE793  MET794  SER795  GLU796  ALA797  LYS798  CYS799  TRP800  GLU811  SER814 

> <Gold.Protein.RotatedAtoms>
  151.9583  135.0136  160.0545 H   0  0  0  0  0  0  0  0  0  0  0  0  # atno 6907 bound_to 6896
  152.1892  133.4756  159.5007 H   0  0  0  0  0  0  0  0  0  0  0  0  # atno 6908 bound_to 6896
  150.6932  134.1652  159.4234 H   0  0  0  0  0  0  0  0  0  0  0  0  # atno 6909 bound_to 6896
  144.7405  139.8840  143.6398 H   0  0  0  0  0  0  0  0  0  0  0  0  # atno 7974 bound_to 7965
  154.5492  140.2311  155.8512 H   0  0  0  0  0  0  0  0  0  0  0  0  # atno 8008 bound_to 7997
  156.1931  140.3072  155.9334 H   0  0  0  0  0  0  0  0  0  0  0  0  # atno 8009 bound_to 7997
  155.3103  140.0435  157.3025 H   0  0  0  0  0  0  0  0  0  0  0  0  # atno 8010 bound_to 7997
  139.5218  144.2905  152.0468 H   0  0  0  0  0  0  0  0  0  0  0  0  # atno 10167 bound_to 10162
  157.6907  131.0620  150.4697 H   0  0  0  0  0  0  0  0  0  0  0  0  # atno 10718 bound_to 10713
  154.6921  135.5208  153.8407 H   0  0  0  0  0  0  0  0  0  0  0  0  # atno 10763 bound_to 10752
  153.0640  135.6578  154.0406 H   0  0  0  0  0  0  0  0  0  0  0  0  # atno 10764 bound_to 10752
  154.0279  135.2988  155.3352 H   0  0  0  0  0  0  0  0  0  0  0  0  # atno 10765 bound_to 10752
  140.5617  134.5326  157.5144 H   0  0  0  0  0  0  0  0  0  0  0  0  # atno 11005 bound_to 11000
  146.1191  139.4206  143.0240 LP  0  0  0  0  0  0  0  0  0  0  0  0  # atno 17320 bound_to 7965
  145.7331  141.0035  143.1341 LP  0  0  0  0  0  0  0  0  0  0  0  0  # atno 17321 bound_to 7965
  140.2356  144.4323  150.6281 LP  0  0  0  0  0  0  0  0  0  0  0  0  # atno 17342 bound_to 10162
  140.6325  143.2190  151.6464 LP  0  0  0  0  0  0  0  0  0  0  0  0  # atno 17343 bound_to 10162
  156.5035  130.4123  149.6340 LP  0  0  0  0  0  0  0  0  0  0  0  0  # atno 17370 bound_to 10713
  156.3306  130.7329  151.2258 LP  0  0  0  0  0  0  0  0  0  0  0  0  # atno 17371 bound_to 10713
  139.9404  134.7797  156.0692 LP  0  0  0  0  0  0  0  0  0  0  0  0  # atno 17394 bound_to 11000
  141.1110  133.6643  156.2979 LP  0  0  0  0  0  0  0  0  0  0  0  0  # atno 17395 bound_to 11000

$$$$
