AV-unprocessed.smi:334|AV-procd|sdf|2363|dock3
  -GOLD-   2262022273D 1   1.00000     0.00000
 Structure written by MMmdl.
 44 46  0  0  0  0  0  0  0  0  3 V2000
  148.2140  132.8469  160.0190 C   0  0  0  0  0  0  0  0  0  0  0  0
  148.1835  134.3684  159.7978 C   0  0  1  0  0  0  0  0  0  0  0  0
  148.1128  134.6218  158.3595 N   0  0  0  0  0  0  0  0  0  0  0  0
  149.0423  135.2486  157.6217 C   0  0  0  0  0  0  0  0  0  0  0  0
  150.1150  135.6494  158.0746 O   0  0  0  0  0  0  0  0  0  0  0  0
  148.7042  135.4434  156.1380 C   0  0  0  0  0  0  0  0  0  0  0  0
  149.0988  136.7700  155.6360 N   0  0  0  0  0  0  0  0  0  0  0  0
  150.4554  137.1289  155.7637 C   0  0  0  0  0  0  0  0  0  0  0  0
  150.9227  138.3214  155.3453 C   0  0  0  0  0  0  0  0  0  0  0  0
  152.3176  138.6759  155.4900 N   0  3  0  0  0  0  0  0  0  0  0  0
  152.6984  139.7565  155.0514 O   0  0  0  0  0  0  0  0  0  0  0  0
  153.0783  137.8880  156.0444 O   0  5  0  0  0  0  0  0  0  0  0  0
  149.9772  139.2439  154.7470 C   0  0  0  0  0  0  0  0  0  0  0  0
  148.6780  138.9081  154.6250 C   0  0  0  0  0  0  0  0  0  0  0  0
  148.1708  137.6110  155.0839 C   0  0  0  0  0  0  0  0  0  0  0  0
  146.9842  137.2994  154.9788 O   0  0  0  0  0  0  0  0  0  0  0  0
  146.9903  135.0596  160.5045 C   0  0  2  0  0  0  0  0  0  0  0  0
  147.1448  136.5970  160.6369 C   0  0  0  0  0  0  0  0  0  0  0  0
  146.9244  136.8494  162.1380 C   0  0  1  0  0  0  0  0  0  0  0  0
  145.4516  136.5828  162.4981 C   0  0  0  0  0  0  0  0  0  0  0  0
  145.3578  135.0479  162.4186 C   0  0  0  0  0  0  0  0  0  0  0  0
  146.7784  134.6416  161.9819 C   0  0  2  0  0  0  0  0  0  0  0  0
  147.6276  135.6477  162.7527 C   0  0  0  0  0  0  0  0  0  0  0  0
  148.3531  132.5914  161.0686 H   0  0  0  0  0  0  0  0  0  0  0  0
  149.0377  132.3903  159.4689 H   0  0  0  0  0  0  0  0  0  0  0  0
  147.2897  132.3768  159.6817 H   0  0  0  0  0  0  0  0  0  0  0  0
  149.1089  134.7798  160.2037 H   0  0  0  0  0  0  0  0  0  0  0  0
  147.2684  134.3239  157.8928 H   0  0  0  0  0  0  0  0  0  0  0  0
  149.1957  134.6508  155.5727 H   0  0  0  0  0  0  0  0  0  0  0  0
  147.6353  135.2888  155.9765 H   0  0  0  0  0  0  0  0  0  0  0  0
  151.0770  136.3769  156.2275 H   0  0  0  0  0  0  0  0  0  0  0  0
  150.3035  140.2109  154.3937 H   0  0  0  0  0  0  0  0  0  0  0  0
  147.9906  139.6112  154.1777 H   0  0  0  0  0  0  0  0  0  0  0  0
  146.0887  134.8369  159.9312 H   0  0  0  0  0  0  0  0  0  0  0  0
  148.1458  136.9281  160.3573 H   0  0  0  0  0  0  0  0  0  0  0  0
  146.4342  137.1409  160.0137 H   0  0  0  0  0  0  0  0  0  0  0  0
  147.2894  137.8197  162.4755 H   0  0  0  0  0  0  0  0  0  0  0  0
  145.2284  136.9288  163.5082 H   0  0  0  0  0  0  0  0  0  0  0  0
  144.7629  137.0789  161.8133 H   0  0  0  0  0  0  0  0  0  0  0  0
  145.1218  134.6294  163.3979 H   0  0  0  0  0  0  0  0  0  0  0  0
  144.5910  134.7104  161.7204 H   0  0  0  0  0  0  0  0  0  0  0  0
  147.0024  133.5982  162.1997 H   0  0  0  0  0  0  0  0  0  0  0  0
  148.6911  135.5979  162.5137 H   0  0  0  0  0  0  0  0  0  0  0  0
  147.5022  135.5811  163.8349 H   0  0  0  0  0  0  0  0  0  0  0  0
  1  2  1  0  0  0  0
  1 24  1  0  0  0  0
  1 25  1  0  0  0  0
  1 26  1  0  0  0  0
  2  3  1  0  0  0  0
  2 17  1  0  0  0  0
  2 27  1  0  0  0  0
  3  4  1  0  0  0  0
  3 28  1  0  0  0  0
  4  5  2  0  0  0  0
  4  6  1  0  0  0  0
  6  7  1  0  0  0  0
  6 29  1  0  0  0  0
  6 30  1  0  0  0  0
  7 15  1  0  0  0  0
  7  8  1  0  0  0  0
  8  9  2  0  0  0  0
  8 31  1  0  0  0  0
  9 10  1  0  0  0  0
  9 13  1  0  0  0  0
 10 11  2  0  0  0  0
 10 12  1  0  0  0  0
 13 14  2  0  0  0  0
 13 32  1  0  0  0  0
 14 15  1  0  0  0  0
 14 33  1  0  0  0  0
 15 16  2  0  0  0  0
 17 22  1  0  0  0  0
 17 18  1  0  0  0  0
 17 34  1  0  0  0  0
 18 19  1  0  0  0  0
 18 35  1  0  0  0  0
 18 36  1  0  0  0  0
 19 23  1  0  0  0  0
 19 20  1  0  0  0  0
 19 37  1  0  0  0  0
 20 21  1  0  0  0  0
 20 38  1  0  0  0  0
 20 39  1  0  0  0  0
 21 22  1  0  0  0  0
 21 40  1  0  0  0  0
 21 41  1  0  0  0  0
 22 23  1  0  0  0  0
 22 42  1  0  0  0  0
 23 43  1  0  0  0  0
 23 44  1  0  0  0  0
M  CHG  1  10   1
M  CHG  1  12  -1
M  END
> <s_m_source_file>
AV-unprocessed.smi

> <i_m_source_file_index>
334

> <i_lp_mmshare_version>
43012

> <i_f3d_flags>
0

> <s_epik_input>
W0NIMl0xW0NIMl1bQ0BIXShbQ0gyXTIpW0NAQEhdKFtDSDJdW0NAQEhdMTIpW0NASF0oW0NIM10pW05IXUMoPU8pW0NIMl1uM1tjSF1jKFtOK10oPU8pW08tXSlbY0hdW2NIXWMzPU8=

> <s_epik_cmdline>
J2VwaWtfcHl0aG9uJywgJy1waCcsICc3LjAnLCAnLXRuJywgJzgnLCAnLW1hJywgJzIwMCcsICctbWV0YWxfYmluZGluZycsICctaW1hZScsICc8aW5maWxlLm1hZT4nLCAnLW9tYWUnLCAnPG91dGZpbGUubWFlPic=

> <r_lp_tautomer_probability>
1

> <r_epik_Ionization_Penalty>
2.17081e-08

> <r_epik_Ionization_Penalty_Charging>
8.1195e-11

> <r_epik_Ionization_Penalty_Neutral>
2.16269e-08

> <r_epik_State_Penalty>
-0

> <r_epik_Charging_Adjusted_Penalty>
8.1195e-11

> <i_epik_Tot_Q>
0

> <i_epik_Tot_abs_Q>
2

> <r_epik_Metal_State_Penalty>
-0

> <b_epik_Metal_Only>
0

> <s_lp_Force_Field>
OPLS_2005

> <r_lp_Energy>
62.172

> <b_lp_Chiralities_Consistent>
1

> <s_lp_Variant>
AV-unprocessed.smi:334-2

> <Gold.Version>
5.8.1

> <Gold.Id.Protein>
6NUR|6NUR_protein|mol2

> <Gold.PLP.Fitness>
41.1937

> <Gold.PLP.PLP>
-35.3020

> <Gold.PLP.part.hbond>
-3.2994

> <Gold.PLP.part.metal>
0.0000

> <Gold.PLP.part.buried>
-5.6318

> <Gold.PLP.part.nonpolar>
-27.4598

> <Gold.PLP.part.repulsive>
0.1361

> <Gold.PLP.ligand.clash>
0.0000

> <Gold.PLP.ligand.torsion>
0.4675

> <Gold.PLP.Chemscore.Hbond>
2.2640

> <Gold.PLP.Chemscore.CHOScore>
0.0000

> <Gold.PLP.Chemscore.Metal>
0.0000

> <Gold.Chemscore.Hbonds>
donor molecule, donor type, donor heavy atom, donor atom, acceptor molecule, acceptor atom, score
      P1  H  6896  6909       L1     5  0.82
      P1  H  7989  7998       L1    11  0.37
      P1  H  7997  8008       L1    11  1.00

> <Gold.PLP.Chemscore.Internal.Correction>
0.0347

> <Gold.Rescore>
     Score         DG    S(hbond)    S(metal)    S(lipo)     H(rot)  DE(clash)    DE(int)     intcor
     16.66     -18.53       2.33        0.00      83.15       1.75       0.00       1.87       ----

> <Gold.Chemscore.Fitness>
16.6567

> <Gold.Chemscore.DG>
-18.5284

> <Gold.Chemscore.ZeroCoef>
-5.4800

> <Gold.Chemscore.Hbond>
2.3332

> <Gold.Chemscore.Metal>
0.0000

> <Gold.Chemscore.Lipo>
83.1532

> <Gold.Chemscore.Internal_Hbond>
0.0000

> <Gold.Chemscore.DEClash>
0.0000

> <Gold.Chemscore.DEInternal>
1.8716

> <Gold.Chemscore.Rot>
1.7474

> <Gold.Chemscore.Internal.Correction>
   9.000000E+99

> <Gold.Chemscore.Hbonds>
donor molecule, donor type, donor heavy atom, donor atom, acceptor molecule, acceptor atom, score
      P1  H  6896  6909       L1     5  0.60
      P1  H  7989  7998       L1    11  0.37
      P1  H  7997  8008       L1    11  0.68

> <Gold.Chemscore.Hbond.Weighted>
-7.7928

> <Gold.Chemscore.Metal.Weighted>
-0.0000

> <Gold.Chemscore.Lipo.Weighted>
-9.7289

> <Gold.Chemscore.Internal_Hbond.Weighted>
0.0000

> <Gold.Chemscore.DEClash.Weighted>
0.0000

> <Gold.Chemscore.DEInternal.Weighted>
1.8716

> <Gold.Chemscore.Rot.Weighted>
4.4733

> <Gold.Chemscore.Internal.Correction.Weighted>
   9.000000E+99

> <Gold.Protein.RotatedTorsions>
[ 6907 6896 6895 6894 ] final   43.84 input  -60.11 | X-H torsion
[ 7974 7965 7964 7962 ] final -159.31 input  175.53 | X-H torsion
[ 8008 7997 7996 7995 ] final  -13.91 input   59.86 | X-H torsion
[ 10167 10162 10161 10158 ] final  145.32 input  -65.29 | X-H torsion
[ 10718 10713 10712 10709 ] final   -1.80 input   66.30 | X-H torsion
[ 10763 10752 10751 10750 ] final  108.82 input  -60.55 | X-H torsion
[ 11005 11000 10999 10996 ] final -119.68 input  -57.11 | X-H torsion

> <Gold.Protein.ActiveResidues>
 VAL166  LYS551  ARG553  GLY616  TRP617  ASP618  TYR619  PRO620  LYS621  CYS622 
 ASP623  PHE694  ASN695  SER759  ASP760  ASP761  ALA762  ILE779  LEU786  VAL792 
 PHE793  MET794  SER795  GLU796  ALA797  LYS798  CYS799  TRP800  GLU811  SER814 

> <Gold.Protein.RotatedAtoms>
  152.2252  134.8375  160.0480 H   0  0  0  0  0  0  0  0  0  0  0  0  # atno 6907 bound_to 6896
  151.9144  133.3564  159.3883 H   0  0  0  0  0  0  0  0  0  0  0  0  # atno 6908 bound_to 6896
  150.7010  134.4625  159.5431 H   0  0  0  0  0  0  0  0  0  0  0  0  # atno 6909 bound_to 6896
  144.7470  140.3703  143.6077 H   0  0  0  0  0  0  0  0  0  0  0  0  # atno 7974 bound_to 7965
  154.5253  140.2237  155.8901 H   0  0  0  0  0  0  0  0  0  0  0  0  # atno 8008 bound_to 7997
  156.1707  140.3122  155.8932 H   0  0  0  0  0  0  0  0  0  0  0  0  # atno 8009 bound_to 7997
  155.3564  140.0458  157.3037 H   0  0  0  0  0  0  0  0  0  0  0  0  # atno 8010 bound_to 7997
  139.4928  144.5910  151.6680 H   0  0  0  0  0  0  0  0  0  0  0  0  # atno 10167 bound_to 10162
  156.8003  130.5391  149.5722 H   0  0  0  0  0  0  0  0  0  0  0  0  # atno 10718 bound_to 10713
  153.4260  135.3800  155.2141 H   0  0  0  0  0  0  0  0  0  0  0  0  # atno 10763 bound_to 10752
  154.8747  135.3828  154.4326 H   0  0  0  0  0  0  0  0  0  0  0  0  # atno 10764 bound_to 10752
  153.4853  135.7088  153.5978 H   0  0  0  0  0  0  0  0  0  0  0  0  # atno 10765 bound_to 10752
  141.0198  134.0141  157.3298 H   0  0  0  0  0  0  0  0  0  0  0  0  # atno 11005 bound_to 11000
  145.7085  139.1678  143.2552 LP  0  0  0  0  0  0  0  0  0  0  0  0  # atno 17320 bound_to 7965
  146.1364  140.7116  142.9387 LP  0  0  0  0  0  0  0  0  0  0  0  0  # atno 17321 bound_to 7965
  140.5537  144.0383  150.6138 LP  0  0  0  0  0  0  0  0  0  0  0  0  # atno 17342 bound_to 10162
  140.3446  143.2999  152.0552 LP  0  0  0  0  0  0  0  0  0  0  0  0  # atno 17343 bound_to 10162
  156.1105  130.6037  151.0040 LP  0  0  0  0  0  0  0  0  0  0  0  0  # atno 17370 bound_to 10713
  157.6557  131.0890  150.7952 LP  0  0  0  0  0  0  0  0  0  0  0  0  # atno 17371 bound_to 10713
  139.9139  135.0194  156.7804 LP  0  0  0  0  0  0  0  0  0  0  0  0  # atno 17394 bound_to 11000
  140.6592  133.9661  155.7796 LP  0  0  0  0  0  0  0  0  0  0  0  0  # atno 17395 bound_to 11000

$$$$
