#       Name:                AV-unprocessed.smi:1601
#       Creating user name   scv26
#       Creation time:       Fri Mar 27 07:07:54 2020


#       File generated by GOLD software.
#

@<TRIPOS>MOLECULE
AV-unprocessed.smi:1601
    47    48     1
SMALL
NO_CHARGES


@<TRIPOS>ATOM
      1 ****        -0.5739   1.8930   1.5265 C.3            1 S1                 0.0000
      2 ****        -1.1413   1.1166   0.3105 C.3            1 S1                 0.0000
      3 ****        -0.5542  -0.3216   0.3219 C.3            1 S1                 0.0000
      4 ****         0.9045  -0.3210   0.2758 N.am           1 S1                 0.0000
      5 ****         1.7003  -1.2381   0.8463 C.2            1 S1                 0.0000
      6 ****         1.2724  -2.2053   1.4775 O.2            1 S1                 0.0000
      7 ****         3.2113  -1.0270   0.6665 C.3            1 S1                 0.0000
      8 ****         4.0291  -1.5577   1.8582 C.3            1 S1                 0.0000
      9 ****         3.6588  -1.6240  -0.5849 N.pl3          1 S1                 0.0000
     10 ****         3.6425  -2.9518  -0.9672 C.2            1 S1                 0.0000
     11 ****         4.1599  -3.0209  -2.2288 C.2            1 S1                 0.0000
     12 ****         4.4694  -1.6680  -2.5411 C.2            1 S1                 0.0000
     13 ****         4.1690  -0.8358  -1.5573 N.2            1 S1                 0.0000
     14 ****        -2.6214   1.1471   0.2538 N.3            1 S1                 0.0000
     15 ****        -3.1609   0.4472  -0.9182 C.3            1 S1                 0.0000
     16 ****        -4.6967   0.5054  -0.9944 C.3            1 S1                 0.0000
     17 ****        -5.1273   1.8593  -0.9911 O.3            1 S1                 0.0000
     18 ****        -4.6920   2.5537   0.1692 C.3            1 S1                 0.0000
     19 ****        -3.1565   2.5136   0.2492 C.3            1 S1                 0.0000
     20 ****         0.5099   1.8157   1.6048 H              1 S1                 0.0000
     21 ****        -0.9952   1.5211   2.4611 H              1 S1                 0.0000
     22 ****        -0.7773   2.9611   1.4659 H              1 S1                 0.0000
     23 ****        -0.7616   1.6077  -0.5870 H              1 S1                 0.0000
     24 ****        -0.9179  -0.8573   1.2006 H              1 S1                 0.0000
     25 ****        -0.8661  -0.8941  -0.5497 H              1 S1                 0.0000
     26 ****         1.3428   0.4364  -0.2282 H              1 S1                 0.0000
     27 ****         3.3860   0.0496   0.6101 H              1 S1                 0.0000
     28 ****         3.7040  -1.1012   2.7939 H              1 S1                 0.0000
     29 ****         5.0878  -1.3288   1.7336 H              1 S1                 0.0000
     30 ****         3.9372  -2.6391   1.9658 H              1 S1                 0.0000
     31 ****         3.2662  -3.7273  -0.3160 H              1 S1                 0.0000
     32 ****         4.2961  -3.9035  -2.8358 H              1 S1                 0.0000
     33 ****         4.8997  -1.2688  -3.4478 H              1 S1                 0.0000
     34 ****        -2.7370   0.8707  -1.8302 H              1 S1                 0.0000
     35 ****        -2.8871  -0.6056  -0.8998 H              1 S1                 0.0000
     36 ****        -5.0489   0.0230  -1.9062 H              1 S1                 0.0000
     37 ****        -5.1453  -0.0293  -0.1557 H              1 S1                 0.0000
     38 ****        -5.0419   3.5850   0.1191 H              1 S1                 0.0000
     39 ****        -5.1373   2.1075   1.0599 H              1 S1                 0.0000
     40 ****        -2.8719   3.0407   1.1580 H              1 S1                 0.0000
     41 ****        -2.7357   3.0733  -0.5876 H              1 S1                 0.0000
     42 ****         0.2868  -2.3362   1.5845 LP             1 S1                 0.0000
     43 ****         1.9106  -2.8598   1.8829 LP             1 S1                 0.0000
     44 ****         4.2921   0.1564  -1.5376 LP             1 S1                 0.0000
     45 ****        -2.9122   0.6744   1.0856 LP             1 S1                 0.0000
     46 ****        -6.1265   1.8803  -1.0240 LP             1 S1                 0.0000
     47 ****        -4.7575   2.3176  -1.7993 LP             1 S1                 0.0000
@<TRIPOS>BOND
    1    1    2 1     
    2    1   20 1     
    3    1   21 1     
    4    1   22 1     
    5    2    3 1     
    6    2   14 1     
    7    2   23 1     
    8    3    4 1     
    9    3   24 1     
   10    3   25 1     
   11    4    5 am    
   12    4   26 1     
   13    5    6 2     
   14    5    7 1     
   15    7    8 1     
   16    7    9 1     
   17    7   27 1     
   18    8   28 1     
   19    8   29 1     
   20    8   30 1     
   21    9   13 1     
   22    9   10 1     
   23   10   11 2     
   24   10   31 1     
   25   11   12 1     
   26   11   32 1     
   27   12   13 2     
   28   12   33 1     
   29   14   19 1     
   30   14   15 1     
   31   15   16 1     
   32   15   34 1     
   33   15   35 1     
   34   16   17 1     
   35   16   36 1     
   36   16   37 1     
   37   17   18 1     
   38   18   19 1     
   39   18   38 1     
   40   18   39 1     
   41   19   40 1     
   42   19   41 1     
   43    6   42 1     
   44    6   43 1     
   45   13   44 1     
   46   14   45 1     
   47   17   46 1     
   48   17   47 1     
@<TRIPOS>SUBSTRUCTURE
      1 S1             1
@<TRIPOS>SET
LONE_PAIRS      STATIC     ATOMS    <user>   **** ""
6 42 43 44 45 46 47
DONOR_HYDROGENS      STATIC     ATOMS    <user>   **** ""
1 26
ATOM$BLUE        STATIC     ATOMS    COLORGROUP SYSTEM
6 42 43 44 45 46 47
ATOM$RED        STATIC     ATOMS    COLORGROUP SYSTEM
1 26
