AV-unprocessed.smi:2999|AV-procd|sdf|11428|dock5
  -GOLD-   2272016353D 1   1.00000     0.00000
 Structure written by MMmdl.
 37 39  0  0  0  0  0  0  0  0  3 V2000
  149.0221  135.8595  155.3035 O   0  0  0  0  0  0  0  0  0  0  0  0
  150.0492  135.3641  154.8347 C   0  0  0  0  0  0  0  0  0  0  0  0
  150.0786  134.0633  154.5212 N   0  0  0  0  0  0  0  0  0  0  0  0
  148.9723  133.1307  154.6944 C   0  0  0  0  0  0  0  0  0  0  0  0
  148.4017  132.6917  153.3377 C   0  0  1  0  0  0  0  0  0  0  0  0
  147.5793  131.3879  153.4237 C   0  0  0  0  0  0  0  0  0  0  0  0
  146.9955  131.0589  152.1041 N   0  3  1  0  0  0  0  0  0  0  0  0
  146.2328  129.7923  152.1237 C   0  0  0  0  0  0  0  0  0  0  0  0
  146.7670  128.7786  153.1085 C   0  0  0  0  0  0  0  0  0  0  0  0
  147.0195  128.6017  151.6275 C   0  0  0  0  0  0  0  0  0  0  0  0
  146.1962  132.1935  151.5899 C   0  0  0  0  0  0  0  0  0  0  0  0
  147.0488  133.4717  151.5581 C   0  0  0  0  0  0  0  0  0  0  0  0
  147.5588  133.7358  152.8596 O   0  0  0  0  0  0  0  0  0  0  0  0
  151.2120  136.0071  154.5864 N   0  5  0  0  0  0  0  0  0  0  0  0
  151.2932  137.3369  154.7571 C   0  0  0  0  0  0  0  0  0  0  0  0
  152.4504  137.9763  154.9628 N   0  0  0  0  0  0  0  0  0  0  0  0
  152.3025  139.3560  155.1171 C   0  0  0  0  0  0  0  0  0  0  0  0
  151.0012  139.7756  155.0369 C   0  0  0  0  0  0  0  0  0  0  0  0
  149.9160  138.4425  154.7636 S   0  0  0  0  0  0  0  0  0  0  0  0
  150.9362  133.6993  154.1326 H   0  0  0  0  0  0  0  0  0  0  0  0
  149.3050  132.2572  155.2580 H   0  0  0  0  0  0  0  0  0  0  0  0
  148.1952  133.6167  155.2859 H   0  0  0  0  0  0  0  0  0  0  0  0
  149.2289  132.5580  152.6377 H   0  0  0  0  0  0  0  0  0  0  0  0
  148.2107  130.5617  153.7524 H   0  0  0  0  0  0  0  0  0  0  0  0
  146.7813  131.4926  154.1610 H   0  0  0  0  0  0  0  0  0  0  0  0
  145.1637  129.8669  151.9318 H   0  0  0  0  0  0  0  0  0  0  0  0
  147.6136  129.0610  153.7321 H   0  0  0  0  0  0  0  0  0  0  0  0
  146.0501  128.1059  153.5751 H   0  0  0  0  0  0  0  0  0  0  0  0
  146.4690  127.8123  151.1198 H   0  0  0  0  0  0  0  0  0  0  0  0
  148.0335  128.7670  151.2678 H   0  0  0  0  0  0  0  0  0  0  0  0
  145.8312  131.9652  150.5881 H   0  0  0  0  0  0  0  0  0  0  0  0
  145.3212  132.3431  152.2246 H   0  0  0  0  0  0  0  0  0  0  0  0
  147.8689  133.3769  150.8442 H   0  0  0  0  0  0  0  0  0  0  0  0
  146.4434  134.3193  151.2368 H   0  0  0  0  0  0  0  0  0  0  0  0
  153.1795  139.9643  155.2814 H   0  0  0  0  0  0  0  0  0  0  0  0
  150.6164  140.7803  155.1218 H   0  0  0  0  0  0  0  0  0  0  0  0
  147.7678  130.9284  151.4664 H   0  0  0  0  0  0  0  0  0  0  0  0
  1  2  2  0  0  0  0
  2  3  1  0  0  0  0
  2 14  1  0  0  0  0
  3  4  1  0  0  0  0
  3 20  1  0  0  0  0
  4  5  1  0  0  0  0
  4 21  1  0  0  0  0
  4 22  1  0  0  0  0
  5 13  1  0  0  0  0
  5  6  1  0  0  0  0
  5 23  1  0  0  0  0
  6  7  1  0  0  0  0
  6 24  1  0  0  0  0
  6 25  1  0  0  0  0
  7  8  1  0  0  0  0
  7 11  1  0  0  0  0
  7 37  1  0  0  0  0
  8 10  1  0  0  0  0
  8  9  1  0  0  0  0
  8 26  1  0  0  0  0
  9 10  1  0  0  0  0
  9 27  1  0  0  0  0
  9 28  1  0  0  0  0
 10 29  1  0  0  0  0
 10 30  1  0  0  0  0
 11 12  1  0  0  0  0
 11 31  1  0  0  0  0
 11 32  1  0  0  0  0
 12 13  1  0  0  0  0
 12 33  1  0  0  0  0
 12 34  1  0  0  0  0
 14 15  1  0  0  0  0
 15 19  1  0  0  0  0
 15 16  2  0  0  0  0
 16 17  1  0  0  0  0
 17 18  2  0  0  0  0
 17 35  1  0  0  0  0
 18 19  1  0  0  0  0
 18 36  1  0  0  0  0
M  CHG  1   7   1
M  CHG  1  14  -1
M  END
> <s_m_source_file>
AV-unprocessed.smi

> <i_m_source_file_index>
2999

> <i_lp_mmshare_version>
43012

> <i_f3d_flags>
0

> <s_epik_input>
czFbY0hdW2NIXW5jMVtOSF1DKD1PKVtOSF1bQ0gyXVtDQEBIXTJbQ0gyXU4oW0NIMl1bQ0gyXU8yKVtDSF0zW0NIMl1bQ0gyXTM=

> <s_epik_cmdline>
J2VwaWtfcHl0aG9uJywgJy1waCcsICc3LjAnLCAnLXRuJywgJzgnLCAnLW1hJywgJzIwMCcsICctbWV0YWxfYmluZGluZycsICctaW1hZScsICc8aW5maWxlLm1hZT4nLCAnLW9tYWUnLCAnPG91dGZpbGUubWFlPic=

> <r_lp_tautomer_probability>
0.999

> <r_epik_Ionization_Penalty>
7.79196

> <r_epik_Ionization_Penalty_Charging>
6.93299

> <r_epik_Ionization_Penalty_Neutral>
0.858963

> <r_epik_State_Penalty>
7.05108

> <r_epik_Charging_Adjusted_Penalty>
13.9841

> <i_epik_Tot_Q>
0

> <i_epik_Tot_abs_Q>
2

> <r_epik_Metal_State_Penalty>
3.05936

> <b_epik_Metal_Only>
1

> <s_lp_Force_Field>
OPLS_2005

> <r_lp_Energy>
14.293

> <b_lp_Chiralities_Consistent>
1

> <s_lp_Variant>
AV-unprocessed.smi:2999-12

> <Gold.Version>
5.8.1

> <Gold.Id.Protein>
6NUR|6NUR_protein|mol2

> <Gold.PLP.Fitness>
42.9085

> <Gold.PLP.PLP>
-34.9886

> <Gold.PLP.part.hbond>
-2.5997

> <Gold.PLP.part.metal>
0.0000

> <Gold.PLP.part.buried>
-3.7204

> <Gold.PLP.part.nonpolar>
-29.9059

> <Gold.PLP.part.repulsive>
1.2702

> <Gold.PLP.ligand.clash>
0.0000

> <Gold.PLP.ligand.torsion>
1.1873

> <Gold.PLP.Chemscore.Hbond>
3.0000

> <Gold.PLP.Chemscore.CHOScore>
0.0000

> <Gold.PLP.Chemscore.Metal>
0.0000

> <Gold.Chemscore.Hbonds>
donor molecule, donor type, donor heavy atom, donor atom, acceptor molecule, acceptor atom, score
      L1  H     7    37       P1 10747  1.00
      P1  H 10752 10763       L1    14  2.00

> <Gold.PLP.Chemscore.Internal.Correction>
1.2945

> <Gold.Rescore>
     Score         DG    S(hbond)    S(metal)    S(lipo)     H(rot)  DE(clash)    DE(int)     intcor
     13.40     -15.98       1.90        0.00      69.40       1.55       0.02       2.56       ----

> <Gold.Chemscore.Fitness>
13.4008

> <Gold.Chemscore.DG>
-15.9812

> <Gold.Chemscore.ZeroCoef>
-5.4800

> <Gold.Chemscore.Hbond>
1.9013

> <Gold.Chemscore.Metal>
0.0000

> <Gold.Chemscore.Lipo>
69.3990

> <Gold.Chemscore.Internal_Hbond>
0.0000

> <Gold.Chemscore.DEClash>
0.0203

> <Gold.Chemscore.DEInternal>
2.5600

> <Gold.Chemscore.Rot>
1.5504

> <Gold.Chemscore.Internal.Correction>
   9.000000E+99

> <Gold.Chemscore.Hbonds>
donor molecule, donor type, donor heavy atom, donor atom, acceptor molecule, acceptor atom, score
      L1  H     7    37       P1 10747  1.00
      P1  H 10752 10763       L1    14  0.30

> <Gold.Chemscore.Hbond.Weighted>
-6.3505

> <Gold.Chemscore.Metal.Weighted>
-0.0000

> <Gold.Chemscore.Lipo.Weighted>
-8.1197

> <Gold.Chemscore.Internal_Hbond.Weighted>
0.0000

> <Gold.Chemscore.DEClash.Weighted>
0.0203

> <Gold.Chemscore.DEInternal.Weighted>
2.5600

> <Gold.Chemscore.Rot.Weighted>
3.9690

> <Gold.Chemscore.Internal.Correction.Weighted>
   9.000000E+99

> <Gold.Protein.RotatedTorsions>
[ 6907 6896 6895 6894 ] final -160.28 input  -60.11 | X-H torsion
[ 7974 7965 7964 7962 ] final -177.11 input  175.53 | X-H torsion
[ 8008 7997 7996 7995 ] final  127.69 input   59.86 | X-H torsion
[ 10167 10162 10161 10158 ] final  175.51 input  -65.29 | X-H torsion
[ 10718 10713 10712 10709 ] final   74.84 input   66.30 | X-H torsion
[ 10763 10752 10751 10750 ] final   56.14 input  -60.55 | X-H torsion
[ 11005 11000 10999 10996 ] final   51.58 input  -57.11 | X-H torsion

> <Gold.Protein.ActiveResidues>
 VAL166  LYS551  ARG553  GLY616  TRP617  ASP618  TYR619  PRO620  LYS621  CYS622 
 ASP623  PHE694  ASN695  SER759  ASP760  ASP761  ALA762  ILE779  LEU786  VAL792 
 PHE793  MET794  SER795  GLU796  ALA797  LYS798  CYS799  TRP800  GLU811  SER814 

> <Gold.Protein.RotatedAtoms>
  151.3467  133.3941  159.2675 H   0  0  0  0  0  0  0  0  0  0  0  0  # atno 6907 bound_to 6896
  150.9834  134.9185  159.7868 H   0  0  0  0  0  0  0  0  0  0  0  0  # atno 6908 bound_to 6896
  152.5224  134.3431  159.9276 H   0  0  0  0  0  0  0  0  0  0  0  0  # atno 6909 bound_to 6896
  144.7127  140.1068  143.6413 H   0  0  0  0  0  0  0  0  0  0  0  0  # atno 7974 bound_to 7965
  156.2897  140.2663  156.2314 H   0  0  0  0  0  0  0  0  0  0  0  0  # atno 8008 bound_to 7997
  155.0068  140.0387  157.2401 H   0  0  0  0  0  0  0  0  0  0  0  0  # atno 8009 bound_to 7997
  154.7553  140.2750  155.6264 H   0  0  0  0  0  0  0  0  0  0  0  0  # atno 8010 bound_to 7997
  139.5180  144.3023  152.0367 H   0  0  0  0  0  0  0  0  0  0  0  0  # atno 10167 bound_to 10162
  157.6609  130.9697  150.1269 H   0  0  0  0  0  0  0  0  0  0  0  0  # atno 10718 bound_to 10713
  152.9827  135.5687  154.5180 H   0  0  0  0  0  0  0  0  0  0  0  0  # atno 10763 bound_to 10752
  154.4673  135.2783  155.1671 H   0  0  0  0  0  0  0  0  0  0  0  0  # atno 10764 bound_to 10752
  154.3234  135.6264  153.5571 H   0  0  0  0  0  0  0  0  0  0  0  0  # atno 10765 bound_to 10752
  140.0921  134.5195  155.8842 H   0  0  0  0  0  0  0  0  0  0  0  0  # atno 11005 bound_to 11000
  145.9489  139.2720  143.1224 LP  0  0  0  0  0  0  0  0  0  0  0  0  # atno 17320 bound_to 7965
  145.9344  140.9025  143.0340 LP  0  0  0  0  0  0  0  0  0  0  0  0  # atno 17321 bound_to 7965
  140.2471  144.4209  150.6237 LP  0  0  0  0  0  0  0  0  0  0  0  0  # atno 17342 bound_to 10162
  140.6251  143.2180  151.6614 LP  0  0  0  0  0  0  0  0  0  0  0  0  # atno 17343 bound_to 10162
  156.2125  130.3668  149.8652 LP  0  0  0  0  0  0  0  0  0  0  0  0  # atno 17370 bound_to 10713
  156.6527  130.8750  151.3534 LP  0  0  0  0  0  0  0  0  0  0  0  0  # atno 17371 bound_to 10713
  141.2081  133.6670  156.6348 LP  0  0  0  0  0  0  0  0  0  0  0  0  # atno 17394 bound_to 11000
  140.3338  134.7906  157.4346 LP  0  0  0  0  0  0  0  0  0  0  0  0  # atno 17395 bound_to 11000

$$$$
