AV-unprocessed.smi:673|AV-procd|sdf|3297|dock3
  -GOLD-   22720 0253D 1   1.00000     0.00000
 Structure written by MMmdl.
 45 46  0  0  0  0  0  0  0  0  1 V2000
  148.0801  136.5727  156.5501 C   0  0  0  0  0  0  0  0  0  0  0  0
  148.5987  137.0385  157.9200 C   0  0  2  0  0  0  0  0  0  0  0  0
  150.0888  137.4246  157.8554 C   0  0  0  0  0  0  0  0  0  0  0  0
  150.4375  138.0707  156.6023 N   0  0  0  0  0  0  0  0  0  0  0  0
  150.7805  139.3333  156.3432 C   0  0  0  0  0  0  0  0  0  0  0  0
  151.0471  139.5635  155.0650 N   0  0  0  0  0  0  0  0  0  0  0  0
  150.8336  138.3127  154.5580 C   0  0  0  0  0  0  0  0  0  0  0  0
  150.4658  137.3809  155.4373 N   0  0  0  0  0  0  0  0  0  0  0  0
  148.4014  135.9899  158.9171 N   0  0  0  0  0  0  0  0  0  0  0  0
  147.6837  136.1000  160.0479 C   0  0  0  0  0  0  0  0  0  0  0  0
  147.0516  137.1189  160.3306 O   0  0  0  0  0  0  0  0  0  0  0  0
  147.6893  134.9871  160.8246 N   0  0  0  0  0  0  0  0  0  0  0  0
  148.0916  133.6462  160.3785 C   0  0  0  0  0  0  0  0  0  0  0  0
  146.9228  132.8742  159.7342 C   0  0  0  0  0  0  0  0  0  0  0  0
  145.4891  133.2778  160.1606 C   0  0  0  0  0  0  0  0  0  0  0  0
  145.1763  133.4075  161.6799 C   0  0  0  0  0  0  0  0  0  0  0  0
  143.6402  133.4129  161.8319 C   0  0  0  0  0  0  0  0  0  0  0  0
  145.7100  132.1992  162.4788 C   0  0  0  0  0  0  0  0  0  0  0  0
  145.6886  134.7539  162.2711 C   0  0  0  0  0  0  0  0  0  0  0  0
  147.2062  135.0129  162.2094 C   0  0  0  0  0  0  0  0  0  0  0  0
  148.2207  137.3462  155.7949 H   0  0  0  0  0  0  0  0  0  0  0  0
  147.0149  136.3421  156.5859 H   0  0  0  0  0  0  0  0  0  0  0  0
  148.6027  135.6775  156.2111 H   0  0  0  0  0  0  0  0  0  0  0  0
  148.0324  137.9227  158.2189 H   0  0  0  0  0  0  0  0  0  0  0  0
  150.3512  138.0861  158.6830 H   0  0  0  0  0  0  0  0  0  0  0  0
  150.7118  136.5353  157.9585 H   0  0  0  0  0  0  0  0  0  0  0  0
  150.8415  140.0970  157.1047 H   0  0  0  0  0  0  0  0  0  0  0  0
  150.9532  138.0816  153.5097 H   0  0  0  0  0  0  0  0  0  0  0  0
  148.8766  135.1144  158.7505 H   0  0  0  0  0  0  0  0  0  0  0  0
  148.9385  133.6896  159.6914 H   0  0  0  0  0  0  0  0  0  0  0  0
  148.4775  133.0721  161.2205 H   0  0  0  0  0  0  0  0  0  0  0  0
  146.9876  132.9948  158.6522 H   0  0  0  0  0  0  0  0  0  0  0  0
  147.0702  131.8084  159.9114 H   0  0  0  0  0  0  0  0  0  0  0  0
  145.2252  134.2146  159.6676 H   0  0  0  0  0  0  0  0  0  0  0  0
  144.8180  132.5373  159.7233 H   0  0  0  0  0  0  0  0  0  0  0  0
  143.3410  133.5251  162.8748 H   0  0  0  0  0  0  0  0  0  0  0  0
  143.1973  132.4852  161.4675 H   0  0  0  0  0  0  0  0  0  0  0  0
  143.1866  134.2318  161.2720 H   0  0  0  0  0  0  0  0  0  0  0  0
  145.4157  132.2594  163.5270 H   0  0  0  0  0  0  0  0  0  0  0  0
  146.7957  132.1286  162.4571 H   0  0  0  0  0  0  0  0  0  0  0  0
  145.3179  131.2619  162.0831 H   0  0  0  0  0  0  0  0  0  0  0  0
  145.1827  135.5790  161.7674 H   0  0  0  0  0  0  0  0  0  0  0  0
  145.3798  134.8244  163.3149 H   0  0  0  0  0  0  0  0  0  0  0  0
  147.7352  134.2888  162.8291 H   0  0  0  0  0  0  0  0  0  0  0  0
  147.4272  135.9755  162.6736 H   0  0  0  0  0  0  0  0  0  0  0  0
  1  2  1  0  0  0  0
  1 21  1  0  0  0  0
  1 22  1  0  0  0  0
  1 23  1  0  0  0  0
  2  3  1  0  0  0  0
  2  9  1  0  0  0  0
  2 24  1  0  0  0  0
  3  4  1  0  0  0  0
  3 25  1  0  0  0  0
  3 26  1  0  0  0  0
  4  8  1  0  0  0  0
  4  5  1  0  0  0  0
  5  6  2  0  0  0  0
  5 27  1  0  0  0  0
  6  7  1  0  0  0  0
  7  8  2  0  0  0  0
  7 28  1  0  0  0  0
  9 10  1  0  0  0  0
  9 29  1  0  0  0  0
 10 11  2  0  0  0  0
 10 12  1  0  0  0  0
 12 20  1  0  0  0  0
 12 13  1  0  0  0  0
 13 14  1  0  0  0  0
 13 30  1  0  0  0  0
 13 31  1  0  0  0  0
 14 15  1  0  0  0  0
 14 32  1  0  0  0  0
 14 33  1  0  0  0  0
 15 16  1  0  0  0  0
 15 34  1  0  0  0  0
 15 35  1  0  0  0  0
 16 17  1  0  0  0  0
 16 18  1  0  0  0  0
 16 19  1  0  0  0  0
 17 36  1  0  0  0  0
 17 37  1  0  0  0  0
 17 38  1  0  0  0  0
 18 39  1  0  0  0  0
 18 40  1  0  0  0  0
 18 41  1  0  0  0  0
 19 20  1  0  0  0  0
 19 42  1  0  0  0  0
 19 43  1  0  0  0  0
 20 44  1  0  0  0  0
 20 45  1  0  0  0  0
M  END
> <s_m_source_file>
AV-unprocessed.smi

> <i_m_source_file_index>
673

> <i_lp_mmshare_version>
43012

> <i_f3d_flags>
0

> <s_epik_input>
bjFbY0hdbltjSF1uMVtDSDJdW0NAQEhdKFtDSDNdKVtOSF1DKD1PKU4oW0NIMl1bQ0gyXTIpW0NIMl1bQ0gyXVtDSDJdQzIoW0NIM10pW0NIM10=

> <s_epik_cmdline>
J2VwaWtfcHl0aG9uJywgJy1waCcsICc3LjAnLCAnLXRuJywgJzgnLCAnLW1hJywgJzIwMCcsICctbWV0YWxfYmluZGluZycsICctaW1hZScsICc8aW5maWxlLm1hZT4nLCAnLW9tYWUnLCAnPG91dGZpbGUubWFlPic=

> <r_lp_tautomer_probability>
1

> <r_epik_Ionization_Penalty>
0.000118908

> <r_epik_Ionization_Penalty_Charging>
0

> <r_epik_Ionization_Penalty_Neutral>
0.000118908

> <r_epik_State_Penalty>
-0

> <r_epik_Charging_Adjusted_Penalty>
0

> <i_epik_Tot_Q>
0

> <i_epik_Tot_abs_Q>
0

> <r_epik_Metal_State_Penalty>
-0

> <b_epik_Metal_Only>
0

> <s_lp_Force_Field>
OPLS_2005

> <r_lp_Energy>
35.7371

> <b_lp_Chiralities_Consistent>
1

> <s_lp_Variant>
AV-unprocessed.smi:673-1

> <Gold.Version>
5.8.1

> <Gold.Id.Protein>
6NUR|6NUR_protein|mol2

> <Gold.PLP.Fitness>
37.0000

> <Gold.PLP.PLP>
-25.0129

> <Gold.PLP.part.hbond>
-3.0000

> <Gold.PLP.part.metal>
0.0000

> <Gold.PLP.part.buried>
-2.9617

> <Gold.PLP.part.nonpolar>
-19.9394

> <Gold.PLP.part.repulsive>
0.3806

> <Gold.PLP.ligand.clash>
0.0000

> <Gold.PLP.ligand.torsion>
0.4373

> <Gold.PLP.Chemscore.Hbond>
2.4080

> <Gold.PLP.Chemscore.CHOScore>
1.8719

> <Gold.PLP.Chemscore.Metal>
0.0000

> <Gold.Chemscore.Hbonds>
donor molecule, donor type, donor heavy atom, donor atom, acceptor molecule, acceptor atom, score
      P1  H  6934  6947       L1    11  1.00
      P1  H  7989  7998       L1     6  0.78
      L1  C     7    28       P1  7949  0.04

> <Gold.PLP.Chemscore.Internal.Correction>
0.0218

> <Gold.Rescore>
     Score         DG    S(hbond)    S(metal)    S(lipo)     H(rot)  DE(clash)    DE(int)     intcor
     13.14     -14.99       2.44        0.00      52.37       1.86       0.02       1.83       ----

> <Gold.Chemscore.Fitness>
13.1361

> <Gold.Chemscore.DG>
-14.9880

> <Gold.Chemscore.ZeroCoef>
-5.4800

> <Gold.Chemscore.Hbond>
2.4388

> <Gold.Chemscore.Metal>
0.0000

> <Gold.Chemscore.Lipo>
52.3740

> <Gold.Chemscore.Internal_Hbond>
0.0000

> <Gold.Chemscore.DEClash>
0.0174

> <Gold.Chemscore.DEInternal>
1.8345

> <Gold.Chemscore.Rot>
1.8614

> <Gold.Chemscore.Internal.Correction>
   9.000000E+99

> <Gold.Chemscore.Hbonds>
donor molecule, donor type, donor heavy atom, donor atom, acceptor molecule, acceptor atom, score
      P1  H  6934  6947       L1    11  0.97
      P1  H  7989  7998       L1     6  0.54

> <Gold.Chemscore.Hbond.Weighted>
-8.1456

> <Gold.Chemscore.Metal.Weighted>
-0.0000

> <Gold.Chemscore.Lipo.Weighted>
-6.1278

> <Gold.Chemscore.Internal_Hbond.Weighted>
0.0000

> <Gold.Chemscore.DEClash.Weighted>
0.0174

> <Gold.Chemscore.DEInternal.Weighted>
1.8345

> <Gold.Chemscore.Rot.Weighted>
4.7653

> <Gold.Chemscore.Internal.Correction.Weighted>
   9.000000E+99

> <Gold.Protein.RotatedTorsions>
[ 6907 6896 6895 6894 ] final   35.97 input  -60.11 | X-H torsion
[ 7974 7965 7964 7962 ] final -177.98 input  175.53 | X-H torsion
[ 8008 7997 7996 7995 ] final  104.65 input   59.86 | X-H torsion
[ 10167 10162 10161 10158 ] final  119.48 input  -65.29 | X-H torsion
[ 10718 10713 10712 10709 ] final    7.00 input   66.30 | X-H torsion
[ 10763 10752 10751 10750 ] final -120.91 input  -60.55 | X-H torsion
[ 11005 11000 10999 10996 ] final  126.05 input  -57.11 | X-H torsion

> <Gold.Protein.ActiveResidues>
 VAL166  LYS551  ARG553  GLY616  TRP617  ASP618  TYR619  PRO620  LYS621  CYS622 
 ASP623  PHE694  ASN695  SER759  ASP760  ASP761  ALA762  ILE779  LEU786  VAL792 
 PHE793  MET794  SER795  GLU796  ALA797  LYS798  CYS799  TRP800  GLU811  SER814 

> <Gold.Protein.RotatedAtoms>
  152.1233  134.9189  160.0561 H   0  0  0  0  0  0  0  0  0  0  0  0  # atno 6907 bound_to 6896
  152.0321  133.3937  159.4310 H   0  0  0  0  0  0  0  0  0  0  0  0  # atno 6908 bound_to 6896
  150.6850  134.3430  159.4919 H   0  0  0  0  0  0  0  0  0  0  0  0  # atno 6909 bound_to 6896
  144.7129  140.0938  143.6420 H   0  0  0  0  0  0  0  0  0  0  0  0  # atno 7974 bound_to 7965
  156.1591  140.3144  155.8777 H   0  0  0  0  0  0  0  0  0  0  0  0  # atno 8008 bound_to 7997
  155.3818  140.0488  157.3060 H   0  0  0  0  0  0  0  0  0  0  0  0  # atno 8009 bound_to 7997
  154.5129  140.2171  155.9132 H   0  0  0  0  0  0  0  0  0  0  0  0  # atno 8010 bound_to 7997
  139.6044  144.7066  151.2988 H   0  0  0  0  0  0  0  0  0  0  0  0  # atno 10167 bound_to 10162
  156.9304  130.5824  149.5649 H   0  0  0  0  0  0  0  0  0  0  0  0  # atno 10718 bound_to 10713
  154.8656  135.4186  154.2535 H   0  0  0  0  0  0  0  0  0  0  0  0  # atno 10763 bound_to 10752
  153.3477  135.6997  153.6820 H   0  0  0  0  0  0  0  0  0  0  0  0  # atno 10764 bound_to 10752
  153.5773  135.3580  155.2834 H   0  0  0  0  0  0  0  0  0  0  0  0  # atno 10765 bound_to 10752
  139.9437  134.9632  156.8650 H   0  0  0  0  0  0  0  0  0  0  0  0  # atno 11005 bound_to 11000
  145.9597  139.2792  143.1163 LP  0  0  0  0  0  0  0  0  0  0  0  0  # atno 17320 bound_to 7965
  145.9234  140.9099  143.0393 LP  0  0  0  0  0  0  0  0  0  0  0  0  # atno 17321 bound_to 7965
  140.7273  143.6965  150.7879 LP  0  0  0  0  0  0  0  0  0  0  0  0  # atno 17342 bound_to 10162
  140.0548  143.5213  152.2656 LP  0  0  0  0  0  0  0  0  0  0  0  0  # atno 17343 bound_to 10162
  156.0450  130.5527  150.8859 LP  0  0  0  0  0  0  0  0  0  0  0  0  # atno 17370 bound_to 10713
  157.5850  131.0945  150.9210 LP  0  0  0  0  0  0  0  0  0  0  0  0  # atno 17371 bound_to 10713
  140.5888  134.0281  155.7492 LP  0  0  0  0  0  0  0  0  0  0  0  0  # atno 17394 bound_to 11000
  141.1080  133.9662  157.2962 LP  0  0  0  0  0  0  0  0  0  0  0  0  # atno 17395 bound_to 11000

$$$$
