AV-unprocessed.smi:2198|AV-procd|sdf|8922|dock8
  -GOLD-   2272012143D 1   1.00000     0.00000
 Structure written by MMmdl.
 42 43  0  0  0  0  0  0  0  0  2 V2000
  148.0963  141.3365  153.6964 C   0  0  0  0  0  0  0  0  0  0  0  0
  148.9200  140.8218  154.8576 C   0  0  0  0  0  0  0  0  0  0  0  0
  150.1107  140.4082  154.6445 N   0  0  0  0  0  0  0  0  0  0  0  0
  150.8782  139.9258  155.7182 C   0  0  0  0  0  0  0  0  0  0  0  0
  152.2778  139.4505  155.3686 C   0  0  0  0  0  0  0  0  0  0  0  0
  150.3771  139.8945  156.9867 C   0  0  0  0  0  0  0  0  0  0  0  0
  151.1673  139.3726  158.1862 C   0  0  0  0  0  0  0  0  0  0  0  0
  152.4481  140.1425  158.5116 C   0  0  0  0  0  0  0  0  0  0  0  0
  153.5467  139.6256  158.3101 O   0  0  0  0  0  0  0  0  0  0  0  0
  152.2930  141.3765  159.0155 N   0  0  0  0  0  0  0  0  0  0  0  0
  153.3751  142.2799  159.4016 C   0  0  1  0  0  0  0  0  0  0  0  0
  152.8341  143.5246  160.1364 C   0  0  0  0  0  0  0  0  0  0  0  0
  152.2936  143.1804  161.5344 C   0  0  0  0  0  0  0  0  0  0  0  0
  153.3531  142.4564  162.3794 C   0  0  0  0  0  0  0  0  0  0  0  0
  153.8730  141.1895  161.6735 C   0  0  2  0  0  0  0  0  0  0  0  0
  154.9355  140.4736  162.5195 C   0  0  0  0  0  0  0  0  0  0  0  0
  154.4099  141.5337  160.2676 C   0  0  0  0  0  0  0  0  0  0  0  0
  149.0028  140.3881  157.1909 C   0  0  0  0  0  0  0  0  0  0  0  0
  148.5060  140.3974  158.3165 O   0  0  0  0  0  0  0  0  0  0  0  0
  148.3196  140.8293  156.0963 N   0  5  0  0  0  0  0  0  0  0  0  0
  148.7112  141.4641  152.8046 H   0  0  0  0  0  0  0  0  0  0  0  0
  147.6507  142.3010  153.9428 H   0  0  0  0  0  0  0  0  0  0  0  0
  147.2951  140.6347  153.4636 H   0  0  0  0  0  0  0  0  0  0  0  0
  152.4127  138.4065  155.6516 H   0  0  0  0  0  0  0  0  0  0  0  0
  153.0264  140.0525  155.8833 H   0  0  0  0  0  0  0  0  0  0  0  0
  152.4655  139.5312  154.2973 H   0  0  0  0  0  0  0  0  0  0  0  0
  150.5457  139.3553  159.0818 H   0  0  0  0  0  0  0  0  0  0  0  0
  151.4120  138.3249  158.0094 H   0  0  0  0  0  0  0  0  0  0  0  0
  151.3513  141.7160  159.1464 H   0  0  0  0  0  0  0  0  0  0  0  0
  153.8806  142.6074  158.4913 H   0  0  0  0  0  0  0  0  0  0  0  0
  153.6377  144.2552  160.2369 H   0  0  0  0  0  0  0  0  0  0  0  0
  152.0578  144.0116  159.5449 H   0  0  0  0  0  0  0  0  0  0  0  0
  151.9741  144.0911  162.0415 H   0  0  0  0  0  0  0  0  0  0  0  0
  151.4063  142.5529  161.4426 H   0  0  0  0  0  0  0  0  0  0  0  0
  154.1838  143.1352  162.5781 H   0  0  0  0  0  0  0  0  0  0  0  0
  152.9291  142.1955  163.3497 H   0  0  0  0  0  0  0  0  0  0  0  0
  153.0337  140.5020  161.5582 H   0  0  0  0  0  0  0  0  0  0  0  0
  155.8076  141.1080  162.6814 H   0  0  0  0  0  0  0  0  0  0  0  0
  155.2748  139.5590  162.0327 H   0  0  0  0  0  0  0  0  0  0  0  0
  154.5385  140.1977  163.4968 H   0  0  0  0  0  0  0  0  0  0  0  0
  154.7339  140.6259  159.7566 H   0  0  0  0  0  0  0  0  0  0  0  0
  155.3000  142.1566  160.3675 H   0  0  0  0  0  0  0  0  0  0  0  0
  1  2  1  0  0  0  0
  1 21  1  0  0  0  0
  1 22  1  0  0  0  0
  1 23  1  0  0  0  0
  2 20  1  0  0  0  0
  2  3  2  0  0  0  0
  3  4  1  0  0  0  0
  4  5  1  0  0  0  0
  4  6  2  0  0  0  0
  5 24  1  0  0  0  0
  5 25  1  0  0  0  0
  5 26  1  0  0  0  0
  6  7  1  0  0  0  0
  6 18  1  0  0  0  0
  7  8  1  0  0  0  0
  7 27  1  0  0  0  0
  7 28  1  0  0  0  0
  8  9  2  0  0  0  0
  8 10  1  0  0  0  0
 10 11  1  0  0  0  0
 10 29  1  0  0  0  0
 11 17  1  0  0  0  0
 11 12  1  0  0  0  0
 11 30  1  0  0  0  0
 12 13  1  0  0  0  0
 12 31  1  0  0  0  0
 12 32  1  0  0  0  0
 13 14  1  0  0  0  0
 13 33  1  0  0  0  0
 13 34  1  0  0  0  0
 14 15  1  0  0  0  0
 14 35  1  0  0  0  0
 14 36  1  0  0  0  0
 15 16  1  0  0  0  0
 15 17  1  0  0  0  0
 15 37  1  0  0  0  0
 16 38  1  0  0  0  0
 16 39  1  0  0  0  0
 16 40  1  0  0  0  0
 17 41  1  0  0  0  0
 17 42  1  0  0  0  0
 18 19  2  0  0  0  0
 18 20  1  0  0  0  0
M  CHG  1  20  -1
M  END
> <s_m_source_file>
AV-unprocessed.smi

> <i_m_source_file_index>
2198

> <i_lp_mmshare_version>
43012

> <i_f3d_flags>
0

> <s_epik_input>
W0NIM11jMW5jKFtDSDNdKWMoYyg9TylbbkhdMSlbQ0gyXUMoPU8pW05IXVtDQEBIXTJbQ0gyXVtDSDJdW0NIMl1bQ0BASF0oW0NIM10pW0NIMl0y

> <s_epik_cmdline>
J2VwaWtfcHl0aG9uJywgJy1waCcsICc3LjAnLCAnLXRuJywgJzgnLCAnLW1hJywgJzIwMCcsICctbWV0YWxfYmluZGluZycsICctaW1hZScsICc8aW5maWxlLm1hZT4nLCAnLW9tYWUnLCAnPG91dGZpbGUubWFlPic=

> <r_lp_tautomer_probability>
0.839158

> <r_epik_Ionization_Penalty>
6.67193

> <r_epik_Ionization_Penalty_Charging>
7.66837e-08

> <r_epik_Ionization_Penalty_Neutral>
6.67193

> <r_epik_State_Penalty>
4.51643

> <r_epik_Charging_Adjusted_Penalty>
4.51643

> <i_epik_Tot_Q>
-1

> <i_epik_Tot_abs_Q>
1

> <r_epik_Metal_State_Penalty>
0.851582

> <b_epik_Metal_Only>
1

> <s_lp_Force_Field>
OPLS_2005

> <r_lp_Energy>
13.9181

> <b_lp_Chiralities_Consistent>
1

> <s_lp_Variant>
AV-unprocessed.smi:2198-12

> <Gold.Version>
5.8.1

> <Gold.Id.Protein>
6NUR|6NUR_protein|mol2

> <Gold.PLP.Fitness>
47.1793

> <Gold.PLP.PLP>
-41.9082

> <Gold.PLP.part.hbond>
-3.0000

> <Gold.PLP.part.metal>
0.0000

> <Gold.PLP.part.buried>
-2.4657

> <Gold.PLP.part.nonpolar>
-36.6164

> <Gold.PLP.part.repulsive>
0.2590

> <Gold.PLP.ligand.clash>
0.0000

> <Gold.PLP.ligand.torsion>
0.2073

> <Gold.PLP.Chemscore.Hbond>
1.8928

> <Gold.PLP.Chemscore.CHOScore>
0.0000

> <Gold.PLP.Chemscore.Metal>
0.0000

> <Gold.Chemscore.Hbonds>
donor molecule, donor type, donor heavy atom, donor atom, acceptor molecule, acceptor atom, score
      P1  H  7989  7998       L1     3  0.82
      P1  H  7997  8009       L1     9  1.00

> <Gold.PLP.Chemscore.Internal.Correction>
0.0073

> <Gold.Rescore>
     Score         DG    S(hbond)    S(metal)    S(lipo)     H(rot)  DE(clash)    DE(int)     intcor
     17.56     -19.04       1.47        0.00     105.68       1.45       0.12       1.36       ----

> <Gold.Chemscore.Fitness>
17.5627

> <Gold.Chemscore.DG>
-19.0388

> <Gold.Chemscore.ZeroCoef>
-5.4800

> <Gold.Chemscore.Hbond>
1.4652

> <Gold.Chemscore.Metal>
0.0000

> <Gold.Chemscore.Lipo>
105.6777

> <Gold.Chemscore.Internal_Hbond>
0.0000

> <Gold.Chemscore.DEClash>
0.1202

> <Gold.Chemscore.DEInternal>
1.3559

> <Gold.Chemscore.Rot>
1.4450

> <Gold.Chemscore.Internal.Correction>
   9.000000E+99

> <Gold.Chemscore.Hbonds>
donor molecule, donor type, donor heavy atom, donor atom, acceptor molecule, acceptor atom, score
      P1  H  7989  7998       L1     3  0.13
      P1  H  7997  8009       L1     9  0.95

> <Gold.Chemscore.Hbond.Weighted>
-4.8938

> <Gold.Chemscore.Metal.Weighted>
-0.0000

> <Gold.Chemscore.Lipo.Weighted>
-12.3643

> <Gold.Chemscore.Internal_Hbond.Weighted>
0.0000

> <Gold.Chemscore.DEClash.Weighted>
0.1202

> <Gold.Chemscore.DEInternal.Weighted>
1.3559

> <Gold.Chemscore.Rot.Weighted>
3.6992

> <Gold.Chemscore.Internal.Correction.Weighted>
   9.000000E+99

> <Gold.Protein.RotatedTorsions>
[ 6907 6896 6895 6894 ] final  104.90 input  -60.11 | X-H torsion
[ 7974 7965 7964 7962 ] final  165.71 input  175.53 | X-H torsion
[ 8008 7997 7996 7995 ] final  164.04 input   59.86 | X-H torsion
[ 10167 10162 10161 10158 ] final   55.85 input  -65.29 | X-H torsion
[ 10718 10713 10712 10709 ] final -169.45 input   66.30 | X-H torsion
[ 10763 10752 10751 10750 ] final  114.79 input  -60.55 | X-H torsion
[ 11005 11000 10999 10996 ] final -159.25 input  -57.11 | X-H torsion

> <Gold.Protein.ActiveResidues>
 VAL166  LYS551  ARG553  GLY616  TRP617  ASP618  TYR619  PRO620  LYS621  CYS622 
 ASP623  PHE694  ASN695  SER759  ASP760  ASP761  ALA762  ILE779  LEU786  VAL792 
 PHE793  MET794  SER795  GLU796  ALA797  LYS798  CYS799  TRP800  GLU811  SER814 

> <Gold.Protein.RotatedAtoms>
  152.5249  133.9608  159.7715 H   0  0  0  0  0  0  0  0  0  0  0  0  # atno 6907 bound_to 6896
  150.9899  133.6152  159.2717 H   0  0  0  0  0  0  0  0  0  0  0  0  # atno 6908 bound_to 6896
  151.3299  135.0845  159.9388 H   0  0  0  0  0  0  0  0  0  0  0  0  # atno 6909 bound_to 6896
  144.7491  139.8509  143.6372 H   0  0  0  0  0  0  0  0  0  0  0  0  # atno 7974 bound_to 7965
  156.1911  140.1707  156.8091 H   0  0  0  0  0  0  0  0  0  0  0  0  # atno 8008 bound_to 7997
  154.5472  140.0725  156.8640 H   0  0  0  0  0  0  0  0  0  0  0  0  # atno 8009 bound_to 7997
  155.3099  140.3367  155.4246 H   0  0  0  0  0  0  0  0  0  0  0  0  # atno 8010 bound_to 7997
  140.2150  144.3849  150.6473 H   0  0  0  0  0  0  0  0  0  0  0  0  # atno 10167 bound_to 10162
  156.7117  130.9236  151.3090 H   0  0  0  0  0  0  0  0  0  0  0  0  # atno 10718 bound_to 10713
  153.5126  135.3614  155.2594 H   0  0  0  0  0  0  0  0  0  0  0  0  # atno 10763 bound_to 10752
  154.8741  135.4026  154.3351 H   0  0  0  0  0  0  0  0  0  0  0  0  # atno 10764 bound_to 10752
  153.4007  135.7075  153.6495 H   0  0  0  0  0  0  0  0  0  0  0  0  # atno 10765 bound_to 10752
  140.6446  134.4515  157.5234 H   0  0  0  0  0  0  0  0  0  0  0  0  # atno 11005 bound_to 11000
  146.1416  139.4475  143.0105 LP  0  0  0  0  0  0  0  0  0  0  0  0  # atno 17320 bound_to 7965
  145.7009  141.0136  143.1505 LP  0  0  0  0  0  0  0  0  0  0  0  0  # atno 17321 bound_to 7965
  140.6296  143.2186  151.6523 LP  0  0  0  0  0  0  0  0  0  0  0  0  # atno 17342 bound_to 10162
  139.5165  144.3344  152.0797 LP  0  0  0  0  0  0  0  0  0  0  0  0  # atno 17343 bound_to 10162
  157.6933  130.9256  150.0575 LP  0  0  0  0  0  0  0  0  0  0  0  0  # atno 17370 bound_to 10713
  156.1657  130.3645  149.9236 LP  0  0  0  0  0  0  0  0  0  0  0  0  # atno 17371 bound_to 10713
  139.9068  134.8432  156.1677 LP  0  0  0  0  0  0  0  0  0  0  0  0  # atno 17394 bound_to 11000
  141.0582  133.6855  156.1900 LP  0  0  0  0  0  0  0  0  0  0  0  0  # atno 17395 bound_to 11000

$$$$
