AV-unprocessed.smi:1645|AV-procd|sdf|6622|dock9
  -GOLD-   22720 7323D 1   1.00000     0.00000
 Structure written by MMmdl.
 55 58  0  0  0  0  0  0  0  0  4 V2000
  151.5800  136.0364  156.2664 O   0  0  0  0  0  0  0  0  0  0  0  0
  150.6535  136.2885  155.4885 C   0  0  0  0  0  0  0  0  0  0  0  0
  150.2188  137.5514  155.3321 N   0  0  0  0  0  0  0  0  0  0  0  0
  150.6218  138.7322  156.0124 C   0  0  0  0  0  0  0  0  0  0  0  0
  150.9524  138.6202  157.3797 C   0  0  0  0  0  0  0  0  0  0  0  0
  151.3837  139.7583  158.0910 C   0  0  0  0  0  0  0  0  0  0  0  0
  151.4898  140.9961  157.4165 C   0  0  0  0  0  0  0  0  0  0  0  0
  151.9159  142.1779  158.0365 N   0  0  0  0  0  0  0  0  0  0  0  0
  150.9767  143.2828  157.8620 C   0  0  0  0  0  0  0  0  0  0  0  0
  151.5722  144.5970  158.3964 C   0  0  0  0  0  0  0  0  0  0  0  0
  152.0269  144.4396  159.8564 C   0  0  0  0  0  0  0  0  0  0  0  0
  152.9880  143.2470  159.9886 C   0  0  0  0  0  0  0  0  0  0  0  0
  152.3583  141.9668  159.4124 C   0  0  0  0  0  0  0  0  0  0  0  0
  151.1781  141.0611  156.1039 N   0  3  0  0  0  0  0  0  0  0  0  0
  150.7590  139.9957  155.3873 C   0  0  0  0  0  0  0  0  0  0  0  0
  149.9704  135.4126  154.7030 N   0  5  0  0  0  0  0  0  0  0  0  0
  149.0613  134.3700  155.2007 C   0  0  2  0  0  0  0  0  0  0  0  0
  149.4052  133.0319  154.5189 C   0  0  0  0  0  0  0  0  0  0  0  0
  148.5145  132.9507  153.2611 C   0  0  0  0  0  0  0  0  0  0  0  0
  147.6565  134.1519  153.2996 N   0  3  1  0  0  0  0  0  0  0  0  0
  146.3117  134.0395  152.6917 C   0  0  0  0  0  0  0  0  0  0  0  0
  145.5928  135.4017  152.7707 C   0  0  0  0  0  0  0  0  0  0  0  0
  145.5579  135.9487  154.2122 C   0  0  0  0  0  0  0  0  0  0  0  0
  146.9725  135.9927  154.8202 C   0  0  0  0  0  0  0  0  0  0  0  0
  147.6215  134.5952  154.7031 C   0  0  2  0  0  0  0  0  0  0  0  0
  149.5342  137.6829  154.6019 H   0  0  0  0  0  0  0  0  0  0  0  0
  150.8735  137.6681  157.8841 H   0  0  0  0  0  0  0  0  0  0  0  0
  151.6322  139.6756  159.1388 H   0  0  0  0  0  0  0  0  0  0  0  0
  150.7290  143.3909  156.8050 H   0  0  0  0  0  0  0  0  0  0  0  0
  150.0472  143.0592  158.3875 H   0  0  0  0  0  0  0  0  0  0  0  0
  152.4220  144.8912  157.7788 H   0  0  0  0  0  0  0  0  0  0  0  0
  150.8387  145.3996  158.3161 H   0  0  0  0  0  0  0  0  0  0  0  0
  152.5100  145.3540  160.2023 H   0  0  0  0  0  0  0  0  0  0  0  0
  151.1578  144.2836  160.4967 H   0  0  0  0  0  0  0  0  0  0  0  0
  153.9172  143.4665  159.4611 H   0  0  0  0  0  0  0  0  0  0  0  0
  153.2544  143.0945  161.0348 H   0  0  0  0  0  0  0  0  0  0  0  0
  151.5088  141.6644  160.0266 H   0  0  0  0  0  0  0  0  0  0  0  0
  153.0824  141.1516  159.4448 H   0  0  0  0  0  0  0  0  0  0  0  0
  150.5674  140.1969  154.3440 H   0  0  0  0  0  0  0  0  0  0  0  0
  149.0886  134.2670  156.2863 H   0  0  0  0  0  0  0  0  0  0  0  0
  150.4660  132.9331  154.2831 H   0  0  0  0  0  0  0  0  0  0  0  0
  149.1533  132.2092  155.1893 H   0  0  0  0  0  0  0  0  0  0  0  0
  149.1011  132.9440  152.3416 H   0  0  0  0  0  0  0  0  0  0  0  0
  147.9118  132.0409  153.2823 H   0  0  0  0  0  0  0  0  0  0  0  0
  146.4061  133.7230  151.6524 H   0  0  0  0  0  0  0  0  0  0  0  0
  145.7339  133.2741  153.2120 H   0  0  0  0  0  0  0  0  0  0  0  0
  146.1058  136.1183  152.1278 H   0  0  0  0  0  0  0  0  0  0  0  0
  144.5784  135.3106  152.3818 H   0  0  0  0  0  0  0  0  0  0  0  0
  145.1133  136.9441  154.2257 H   0  0  0  0  0  0  0  0  0  0  0  0
  144.9173  135.3146  154.8265 H   0  0  0  0  0  0  0  0  0  0  0  0
  147.5590  136.7464  154.2917 H   0  0  0  0  0  0  0  0  0  0  0  0
  146.9189  136.3103  155.8628 H   0  0  0  0  0  0  0  0  0  0  0  0
  146.9872  133.8944  155.2505 H   0  0  0  0  0  0  0  0  0  0  0  0
  148.1607  134.8730  152.8030 H   0  0  0  0  0  0  0  0  0  0  0  0
  151.2668  141.9589  155.6275 H   0  0  0  0  0  0  0  0  0  0  0  0
  1  2  2  0  0  0  0
  2  3  1  0  0  0  0
  2 16  1  0  0  0  0
  3  4  1  0  0  0  0
  3 26  1  0  0  0  0
  4 15  1  0  0  0  0
  4  5  2  0  0  0  0
  5  6  1  0  0  0  0
  5 27  1  0  0  0  0
  6  7  2  0  0  0  0
  6 28  1  0  0  0  0
  7  8  1  0  0  0  0
  7 14  1  0  0  0  0
  8 13  1  0  0  0  0
  8  9  1  0  0  0  0
  9 10  1  0  0  0  0
  9 29  1  0  0  0  0
  9 30  1  0  0  0  0
 10 11  1  0  0  0  0
 10 31  1  0  0  0  0
 10 32  1  0  0  0  0
 11 12  1  0  0  0  0
 11 33  1  0  0  0  0
 11 34  1  0  0  0  0
 12 13  1  0  0  0  0
 12 35  1  0  0  0  0
 12 36  1  0  0  0  0
 13 37  1  0  0  0  0
 13 38  1  0  0  0  0
 14 15  2  0  0  0  0
 14 55  1  0  0  0  0
 15 39  1  0  0  0  0
 16 17  1  0  0  0  0
 17 25  1  0  0  0  0
 17 18  1  0  0  0  0
 17 40  1  0  0  0  0
 18 19  1  0  0  0  0
 18 41  1  0  0  0  0
 18 42  1  0  0  0  0
 19 20  1  0  0  0  0
 19 43  1  0  0  0  0
 19 44  1  0  0  0  0
 20 25  1  0  0  0  0
 20 21  1  0  0  0  0
 20 54  1  0  0  0  0
 21 22  1  0  0  0  0
 21 45  1  0  0  0  0
 21 46  1  0  0  0  0
 22 23  1  0  0  0  0
 22 47  1  0  0  0  0
 22 48  1  0  0  0  0
 23 24  1  0  0  0  0
 23 49  1  0  0  0  0
 23 50  1  0  0  0  0
 24 25  1  0  0  0  0
 24 51  1  0  0  0  0
 24 52  1  0  0  0  0
 25 53  1  0  0  0  0
M  CHG  1  14   1
M  CHG  1  16  -1
M  CHG  1  20   1
M  END
> <s_m_source_file>
AV-unprocessed.smi

> <i_m_source_file_index>
1645

> <i_lp_mmshare_version>
43012

> <i_f3d_flags>
0

> <s_epik_input>
W0NIMl0xW0NIMl1bQ0gyXVtDSDJdW0NASF0oTjEyKVtDQEBIXShbQ0gyXVtDSDJdMilbTkhdQyg9TylbTkhdYzNbY0hdW2NIXWMobltjSF0zKU40W0NIMl1bQ0gyXVtDSDJdW0NIMl1bQ0gyXTQ=

> <s_epik_cmdline>
J2VwaWtfcHl0aG9uJywgJy1waCcsICc3LjAnLCAnLXRuJywgJzgnLCAnLW1hJywgJzIwMCcsICctbWV0YWxfYmluZGluZycsICctaW1hZScsICc8aW5maWxlLm1hZT4nLCAnLW9tYWUnLCAnPG91dGZpbGUubWFlPic=

> <r_lp_tautomer_probability>
0.999994

> <r_epik_Ionization_Penalty>
8.55589

> <r_epik_Ionization_Penalty_Charging>
8.55589

> <r_epik_Ionization_Penalty_Neutral>
3.8092e-06

> <r_epik_State_Penalty>
8.15703

> <r_epik_Charging_Adjusted_Penalty>
16.7129

> <i_epik_Tot_Q>
1

> <i_epik_Tot_abs_Q>
3

> <r_epik_Metal_State_Penalty>
4.13781

> <b_epik_Metal_Only>
1

> <s_lp_Force_Field>
OPLS_2005

> <r_lp_Energy>
55.4093

> <b_lp_Chiralities_Consistent>
1

> <s_lp_Variant>
AV-unprocessed.smi:1645-23

> <Gold.Version>
5.8.1

> <Gold.Id.Protein>
6NUR|6NUR_protein|mol2

> <Gold.PLP.Fitness>
48.5452

> <Gold.PLP.PLP>
-41.4479

> <Gold.PLP.part.hbond>
-2.0000

> <Gold.PLP.part.metal>
0.0000

> <Gold.PLP.part.buried>
-4.2631

> <Gold.PLP.part.nonpolar>
-35.4982

> <Gold.PLP.part.repulsive>
0.3950

> <Gold.PLP.ligand.clash>
0.0000

> <Gold.PLP.ligand.torsion>
1.0502

> <Gold.PLP.Chemscore.Hbond>
3.0000

> <Gold.PLP.Chemscore.CHOScore>
0.0000

> <Gold.PLP.Chemscore.Metal>
0.0000

> <Gold.Chemscore.Hbonds>
donor molecule, donor type, donor heavy atom, donor atom, acceptor molecule, acceptor atom, score
      L1  H    20    54       P1  7948  2.00
      P1  H 10752 10763       L1     1  0.81

> <Gold.PLP.Chemscore.Internal.Correction>
0.1977

> <Gold.Rescore>
     Score         DG    S(hbond)    S(metal)    S(lipo)     H(rot)  DE(clash)    DE(int)     intcor
     18.38     -21.10       1.95        0.00     103.50       1.17       0.28       2.44       ----

> <Gold.Chemscore.Fitness>
18.3833

> <Gold.Chemscore.DG>
-21.0986

> <Gold.Chemscore.ZeroCoef>
-5.4800

> <Gold.Chemscore.Hbond>
1.9499

> <Gold.Chemscore.Metal>
0.0000

> <Gold.Chemscore.Lipo>
103.4968

> <Gold.Chemscore.Internal_Hbond>
0.0000

> <Gold.Chemscore.DEClash>
0.2759

> <Gold.Chemscore.DEInternal>
2.4394

> <Gold.Chemscore.Rot>
1.1731

> <Gold.Chemscore.Internal.Correction>
   9.000000E+99

> <Gold.Chemscore.Hbonds>
donor molecule, donor type, donor heavy atom, donor atom, acceptor molecule, acceptor atom, score
      L1  H    20    54       P1  7948  0.78
      P1  H 10752 10763       L1     1  0.59

> <Gold.Chemscore.Hbond.Weighted>
-6.5127

> <Gold.Chemscore.Metal.Weighted>
-0.0000

> <Gold.Chemscore.Lipo.Weighted>
-12.1091

> <Gold.Chemscore.Internal_Hbond.Weighted>
0.0000

> <Gold.Chemscore.DEClash.Weighted>
0.2759

> <Gold.Chemscore.DEInternal.Weighted>
2.4394

> <Gold.Chemscore.Rot.Weighted>
3.0032

> <Gold.Chemscore.Internal.Correction.Weighted>
   9.000000E+99

> <Gold.Protein.RotatedTorsions>
[ 6907 6896 6895 6894 ] final  -53.82 input  -60.11 | X-H torsion
[ 7974 7965 7964 7962 ] final   -0.59 input  175.53 | X-H torsion
[ 8008 7997 7996 7995 ] final -157.47 input   59.86 | X-H torsion
[ 10167 10162 10161 10158 ] final    9.50 input  -65.29 | X-H torsion
[ 10718 10713 10712 10709 ] final  179.80 input   66.30 | X-H torsion
[ 10763 10752 10751 10750 ] final  102.39 input  -60.55 | X-H torsion
[ 11005 11000 10999 10996 ] final -116.22 input  -57.11 | X-H torsion

> <Gold.Protein.ActiveResidues>
 VAL166  LYS551  ARG553  GLY616  TRP617  ASP618  TYR619  PRO620  LYS621  CYS622 
 ASP623  PHE694  ASN695  SER759  ASP760  ASP761  ALA762  ILE779  LEU786  VAL792 
 PHE793  MET794  SER795  GLU796  ALA797  LYS798  CYS799  TRP800  GLU811  SER814 

> <Gold.Protein.RotatedAtoms>
  150.8392  134.7678  159.6918 H   0  0  0  0  0  0  0  0  0  0  0  0  # atno 6907 bound_to 6896
  152.4483  134.5444  159.9858 H   0  0  0  0  0  0  0  0  0  0  0  0  # atno 6908 bound_to 6896
  151.5588  133.3368  159.3003 H   0  0  0  0  0  0  0  0  0  0  0  0  # atno 6909 bound_to 6896
  146.2426  140.1293  142.8338 H   0  0  0  0  0  0  0  0  0  0  0  0  # atno 7974 bound_to 7965
  155.7329  140.0804  157.2281 H   0  0  0  0  0  0  0  0  0  0  0  0  # atno 8008 bound_to 7997
  154.4031  140.1592  156.2583 H   0  0  0  0  0  0  0  0  0  0  0  0  # atno 8009 bound_to 7997
  155.9092  140.3405  155.6089 H   0  0  0  0  0  0  0  0  0  0  0  0  # atno 8010 bound_to 7997
  140.6251  143.8119  150.7223 H   0  0  0  0  0  0  0  0  0  0  0  0  # atno 10167 bound_to 10162
  156.8705  130.9782  151.3074 H   0  0  0  0  0  0  0  0  0  0  0  0  # atno 10718 bound_to 10713
  153.3390  135.4012  155.1556 H   0  0  0  0  0  0  0  0  0  0  0  0  # atno 10763 bound_to 10752
  154.8639  135.3629  154.5371 H   0  0  0  0  0  0  0  0  0  0  0  0  # atno 10764 bound_to 10752
  153.5815  135.7076  153.5521 H   0  0  0  0  0  0  0  0  0  0  0  0  # atno 10765 bound_to 10752
  141.0436  133.9797  157.2954 H   0  0  0  0  0  0  0  0  0  0  0  0  # atno 11005 bound_to 11000
  145.0340  140.8893  143.5092 LP  0  0  0  0  0  0  0  0  0  0  0  0  # atno 17320 bound_to 7965
  145.1362  139.2601  143.5514 LP  0  0  0  0  0  0  0  0  0  0  0  0  # atno 17321 bound_to 7965
  140.1718  143.4188  152.1996 LP  0  0  0  0  0  0  0  0  0  0  0  0  # atno 17342 bound_to 10162
  139.5473  144.7309  151.4545 LP  0  0  0  0  0  0  0  0  0  0  0  0  # atno 17343 bound_to 10162
  157.6198  130.8647  149.9090 LP  0  0  0  0  0  0  0  0  0  0  0  0  # atno 17370 bound_to 10713
  156.0729  130.3682  150.0738 LP  0  0  0  0  0  0  0  0  0  0  0  0  # atno 17371 bound_to 10713
  139.9295  135.0200  156.8350 LP  0  0  0  0  0  0  0  0  0  0  0  0  # atno 17394 bound_to 11000
  140.6188  134.0013  155.7609 LP  0  0  0  0  0  0  0  0  0  0  0  0  # atno 17395 bound_to 11000

$$$$
