AV-unprocessed.smi:3156|AV-procd|sdf|12031|dock5
  -GOLD-   2272017453D 1   1.00000     0.00000
 Structure written by MMmdl.
 41 42  0  0  0  0  0  0  0  0  2 V2000
  147.1495  142.0656  155.4371 C   0  0  0  0  0  0  0  0  0  0  0  0
  148.3662  141.1393  155.6282 C   0  0  2  0  0  0  0  0  0  0  0  0
  149.5100  141.9141  156.1657 N   0  3  0  0  0  0  0  0  0  0  0  0
  149.6054  141.9651  157.6402 C   0  0  0  0  0  0  0  0  0  0  0  0
  150.9485  142.5574  158.0936 C   0  0  1  0  0  0  0  0  0  0  0  0
  151.1602  144.0017  157.5930 C   0  0  0  0  0  0  0  0  0  0  0  0
  152.4620  144.5835  158.1555 C   0  0  0  0  0  0  0  0  0  0  0  0
  152.4758  144.4392  159.6805 C   0  0  0  0  0  0  0  0  0  0  0  0
  152.1960  142.9822  160.0810 C   0  0  0  0  0  0  0  0  0  0  0  0
  150.9586  142.5541  159.5192 O   0  0  0  0  0  0  0  0  0  0  0  0
  148.7823  140.4304  154.3095 C   0  0  2  0  0  0  0  0  0  0  0  0
  147.6481  139.5993  153.6813 C   0  0  0  0  0  0  0  0  0  0  0  0
  149.9567  139.5837  154.4934 N   0  0  0  0  0  0  0  0  0  0  0  0
  150.0625  138.2211  154.3019 C   0  0  0  0  0  0  0  0  0  0  0  0
  151.3409  137.8612  154.6181 C   0  0  0  0  0  0  0  0  0  0  0  0
  151.9499  139.0853  155.0107 C   0  0  0  0  0  0  0  0  0  0  0  0
  151.1190  140.1125  154.9394 N   0  0  0  0  0  0  0  0  0  0  0  0
  146.2673  141.5108  155.1197 H   0  0  0  0  0  0  0  0  0  0  0  0
  147.3487  142.8328  154.6883 H   0  0  0  0  0  0  0  0  0  0  0  0
  146.8770  142.5713  156.3629 H   0  0  0  0  0  0  0  0  0  0  0  0
  148.1017  140.3726  156.3585 H   0  0  0  0  0  0  0  0  0  0  0  0
  150.3548  141.4716  155.8320 H   0  0  0  0  0  0  0  0  0  0  0  0
  148.7817  142.5415  158.0607 H   0  0  0  0  0  0  0  0  0  0  0  0
  149.5117  140.9488  158.0253 H   0  0  0  0  0  0  0  0  0  0  0  0
  151.7572  141.9160  157.7374 H   0  0  0  0  0  0  0  0  0  0  0  0
  151.1855  144.0310  156.5033 H   0  0  0  0  0  0  0  0  0  0  0  0
  150.3206  144.6254  157.9024 H   0  0  0  0  0  0  0  0  0  0  0  0
  153.3159  144.0558  157.7288 H   0  0  0  0  0  0  0  0  0  0  0  0
  152.5657  145.6311  157.8713 H   0  0  0  0  0  0  0  0  0  0  0  0
  153.4357  144.7645  160.0823 H   0  0  0  0  0  0  0  0  0  0  0  0
  151.7164  145.0889  160.1176 H   0  0  0  0  0  0  0  0  0  0  0  0
  153.0037  142.3258  159.7531 H   0  0  0  0  0  0  0  0  0  0  0  0
  152.1386  142.8968  161.1662 H   0  0  0  0  0  0  0  0  0  0  0  0
  149.0620  141.2003  153.5882 H   0  0  0  0  0  0  0  0  0  0  0  0
  146.8168  140.2249  153.3586 H   0  0  0  0  0  0  0  0  0  0  0  0
  147.2594  138.8602  154.3826 H   0  0  0  0  0  0  0  0  0  0  0  0
  148.0003  139.0632  152.7992 H   0  0  0  0  0  0  0  0  0  0  0  0
  149.2283  137.6258  153.9598 H   0  0  0  0  0  0  0  0  0  0  0  0
  151.7738  136.8724  154.5816 H   0  0  0  0  0  0  0  0  0  0  0  0
  152.9624  139.2564  155.3454 H   0  0  0  0  0  0  0  0  0  0  0  0
  149.4728  142.8532  155.7965 H   0  0  0  0  0  0  0  0  0  0  0  0
  1  2  1  0  0  0  0
  1 18  1  0  0  0  0
  1 19  1  0  0  0  0
  1 20  1  0  0  0  0
  2  3  1  0  0  0  0
  2 11  1  0  0  0  0
  2 21  1  0  0  0  0
  3  4  1  0  0  0  0
  3 22  1  0  0  0  0
  3 41  1  0  0  0  0
  4  5  1  0  0  0  0
  4 23  1  0  0  0  0
  4 24  1  0  0  0  0
  5 10  1  0  0  0  0
  5  6  1  0  0  0  0
  5 25  1  0  0  0  0
  6  7  1  0  0  0  0
  6 26  1  0  0  0  0
  6 27  1  0  0  0  0
  7  8  1  0  0  0  0
  7 28  1  0  0  0  0
  7 29  1  0  0  0  0
  8  9  1  0  0  0  0
  8 30  1  0  0  0  0
  8 31  1  0  0  0  0
  9 10  1  0  0  0  0
  9 32  1  0  0  0  0
  9 33  1  0  0  0  0
 11 12  1  0  0  0  0
 11 13  1  0  0  0  0
 11 34  1  0  0  0  0
 12 35  1  0  0  0  0
 12 36  1  0  0  0  0
 12 37  1  0  0  0  0
 13 17  1  0  0  0  0
 13 14  1  0  0  0  0
 14 15  2  0  0  0  0
 14 38  1  0  0  0  0
 15 16  1  0  0  0  0
 15 39  1  0  0  0  0
 16 17  2  0  0  0  0
 16 40  1  0  0  0  0
M  CHG  1   3   1
M  END
> <s_m_source_file>
AV-unprocessed.smi

> <i_m_source_file_index>
3156

> <i_lp_mmshare_version>
43012

> <i_f3d_flags>
0

> <s_epik_input>
bjFbY0hdW2NIXVtjSF1uMVtDQEBIXShbQ0gzXSlbQ0BIXShbQ0gzXSlbTkhdW0NIMl1bQ0BASF0yW0NIMl1bQ0gyXVtDSDJdW0NIMl1PMg==

> <s_epik_cmdline>
J2VwaWtfcHl0aG9uJywgJy1waCcsICc3LjAnLCAnLXRuJywgJzgnLCAnLW1hJywgJzIwMCcsICctbWV0YWxfYmluZGluZycsICctaW1hZScsICc8aW5maWxlLm1hZT4nLCAnLW9tYWUnLCAnPG91dGZpbGUubWFlPic=

> <r_lp_tautomer_probability>
1

> <r_epik_Ionization_Penalty>
0.00658015

> <r_epik_Ionization_Penalty_Charging>
0.00656881

> <r_epik_Ionization_Penalty_Neutral>
1.13431e-05

> <r_epik_State_Penalty>
0.0048654

> <r_epik_Charging_Adjusted_Penalty>
0.0114342

> <i_epik_Tot_Q>
1

> <i_epik_Tot_abs_Q>
1

> <r_epik_Metal_State_Penalty>
-0

> <b_epik_Metal_Only>
0

> <s_lp_Force_Field>
OPLS_2005

> <r_lp_Energy>
18.0883

> <b_lp_Chiralities_Consistent>
1

> <s_lp_Variant>
AV-unprocessed.smi:3156-3

> <Gold.Version>
5.8.1

> <Gold.Id.Protein>
6NUR|6NUR_protein|mol2

> <Gold.PLP.Fitness>
51.0599

> <Gold.PLP.PLP>
-39.9749

> <Gold.PLP.part.hbond>
-2.9304

> <Gold.PLP.part.metal>
0.0000

> <Gold.PLP.part.buried>
-0.9397

> <Gold.PLP.part.nonpolar>
-36.8842

> <Gold.PLP.part.repulsive>
0.1389

> <Gold.PLP.ligand.clash>
0.0000

> <Gold.PLP.ligand.torsion>
0.5004

> <Gold.PLP.Chemscore.Hbond>
3.0000

> <Gold.PLP.Chemscore.CHOScore>
1.0000

> <Gold.PLP.Chemscore.Metal>
0.0000

> <Gold.Chemscore.Hbonds>
donor molecule, donor type, donor heavy atom, donor atom, acceptor molecule, acceptor atom, score
      L1  H     3    41       P1  8028  2.00
      P1  H  7989  7998       L1    17  0.95
      L1  C    14    38       P1  7948  0.99

> <Gold.PLP.Chemscore.Internal.Correction>
0.0858

> <Gold.Rescore>
     Score         DG    S(hbond)    S(metal)    S(lipo)     H(rot)  DE(clash)    DE(int)     intcor
     15.97     -18.02       1.11        0.00     110.26       1.59       0.06       1.99       ----

> <Gold.Chemscore.Fitness>
15.9688

> <Gold.Chemscore.DG>
-18.0179

> <Gold.Chemscore.ZeroCoef>
-5.4800

> <Gold.Chemscore.Hbond>
1.1131

> <Gold.Chemscore.Metal>
0.0000

> <Gold.Chemscore.Lipo>
110.2602

> <Gold.Chemscore.Internal_Hbond>
0.0000

> <Gold.Chemscore.DEClash>
0.0613

> <Gold.Chemscore.DEInternal>
1.9879

> <Gold.Chemscore.Rot>
1.5938

> <Gold.Chemscore.Internal.Correction>
   9.000000E+99

> <Gold.Chemscore.Hbonds>
donor molecule, donor type, donor heavy atom, donor atom, acceptor molecule, acceptor atom, score
      L1  H     3    41       P1  8028  0.98
      P1  H  7989  7998       L1    17  0.06

> <Gold.Chemscore.Hbond.Weighted>
-3.7177

> <Gold.Chemscore.Metal.Weighted>
-0.0000

> <Gold.Chemscore.Lipo.Weighted>
-12.9004

> <Gold.Chemscore.Internal_Hbond.Weighted>
0.0000

> <Gold.Chemscore.DEClash.Weighted>
0.0613

> <Gold.Chemscore.DEInternal.Weighted>
1.9879

> <Gold.Chemscore.Rot.Weighted>
4.0802

> <Gold.Chemscore.Internal.Correction.Weighted>
   9.000000E+99

> <Gold.Protein.RotatedTorsions>
[ 6907 6896 6895 6894 ] final  174.98 input  -60.11 | X-H torsion
[ 7974 7965 7964 7962 ] final   89.33 input  175.53 | X-H torsion
[ 8008 7997 7996 7995 ] final -126.23 input   59.86 | X-H torsion
[ 10167 10162 10161 10158 ] final  -30.73 input  -65.29 | X-H torsion
[ 10718 10713 10712 10709 ] final    0.90 input   66.30 | X-H torsion
[ 10763 10752 10751 10750 ] final -175.56 input  -60.55 | X-H torsion
[ 11005 11000 10999 10996 ] final  -41.94 input  -57.11 | X-H torsion

> <Gold.Protein.ActiveResidues>
 VAL166  LYS551  ARG553  GLY616  TRP617  ASP618  TYR619  PRO620  LYS621  CYS622 
 ASP623  PHE694  ASN695  SER759  ASP760  ASP761  ALA762  ILE779  LEU786  VAL792 
 PHE793  MET794  SER795  GLU796  ALA797  LYS798  CYS799  TRP800  GLU811  SER814 

> <Gold.Protein.RotatedAtoms>
  151.7435  133.3323  159.3371 H   0  0  0  0  0  0  0  0  0  0  0  0  # atno 6907 bound_to 6896
  150.7564  134.6256  159.6168 H   0  0  0  0  0  0  0  0  0  0  0  0  # atno 6908 bound_to 6896
  152.3515  134.7001  160.0286 H   0  0  0  0  0  0  0  0  0  0  0  0  # atno 6909 bound_to 6896
  145.5337  139.2284  143.2604 H   0  0  0  0  0  0  0  0  0  0  0  0  # atno 7974 bound_to 7965
  155.2263  140.0423  157.2956 H   0  0  0  0  0  0  0  0  0  0  0  0  # atno 8008 bound_to 7997
  154.5917  140.2428  155.7882 H   0  0  0  0  0  0  0  0  0  0  0  0  # atno 8009 bound_to 7997
  156.2263  140.2953  156.0085 H   0  0  0  0  0  0  0  0  0  0  0  0  # atno 8010 bound_to 7997
  140.7245  143.3825  151.1574 H   0  0  0  0  0  0  0  0  0  0  0  0  # atno 10167 bound_to 10162
  156.8402  130.5518  149.5678 H   0  0  0  0  0  0  0  0  0  0  0  0  # atno 10718 bound_to 10713
  154.5829  135.2838  155.0714 H   0  0  0  0  0  0  0  0  0  0  0  0  # atno 10763 bound_to 10752
  154.2043  135.6419  153.5100 H   0  0  0  0  0  0  0  0  0  0  0  0  # atno 10764 bound_to 10752
  153.0094  135.5476  154.6489 H   0  0  0  0  0  0  0  0  0  0  0  0  # atno 10765 bound_to 10752
  141.0281  133.6832  156.2527 H   0  0  0  0  0  0  0  0  0  0  0  0  # atno 11005 bound_to 11000
  146.2027  140.6155  142.9095 LP  0  0  0  0  0  0  0  0  0  0  0  0  # atno 17320 bound_to 7965
  144.7612  140.5427  143.6734 LP  0  0  0  0  0  0  0  0  0  0  0  0  # atno 17321 bound_to 7965
  139.7417  143.8914  152.3052 LP  0  0  0  0  0  0  0  0  0  0  0  0  # atno 17342 bound_to 10162
  139.8738  144.7054  150.8957 LP  0  0  0  0  0  0  0  0  0  0  0  0  # atno 17343 bound_to 10162
  156.0885  130.5877  150.9690 LP  0  0  0  0  0  0  0  0  0  0  0  0  # atno 17370 bound_to 10713
  157.6359  131.0916  150.8348 LP  0  0  0  0  0  0  0  0  0  0  0  0  # atno 17371 bound_to 10713
  140.6455  134.5122  157.5573 LP  0  0  0  0  0  0  0  0  0  0  0  0  # atno 17394 bound_to 11000
  139.9189  134.8188  156.1274 LP  0  0  0  0  0  0  0  0  0  0  0  0  # atno 17395 bound_to 11000

$$$$
