AV-unprocessed.smi:2784|AV-procd|sdf|10732|dock9
  -GOLD-   2272015173D 1   1.00000     0.00000
 Structure written by MMmdl.
 32 33  0  0  0  0  0  0  0  0  2 V2000
  145.6844  143.4891  153.9749 C   0  0  0  0  0  0  0  0  0  0  0  0
  146.1710  142.1676  153.8013 O   0  0  0  0  0  0  0  0  0  0  0  0
  146.7038  141.5879  154.9898 C   0  0  2  0  0  0  0  0  0  0  0  0
  148.0881  142.1856  155.2663 C   0  0  0  0  0  0  0  0  0  0  0  0
  149.0235  141.3946  154.3571 C   0  0  0  0  0  0  0  0  0  0  0  0
  148.4659  139.9688  154.3697 C   0  0  0  0  0  0  0  0  0  0  0  0
  146.9808  140.0827  154.7658 C   0  0  2  0  0  0  0  0  0  0  0  0
  146.1162  139.4848  153.7500 N   0  0  0  0  0  0  0  0  0  0  0  0
  146.1870  138.2099  153.3415 C   0  0  0  0  0  0  0  0  0  0  0  0
  147.0124  137.4016  153.7680 O   0  0  0  0  0  0  0  0  0  0  0  0
  145.2492  137.9316  152.4236 N   0  0  0  0  0  0  0  0  0  0  0  0
  145.0523  136.6775  151.8017 C   0  0  0  0  0  0  0  0  0  0  0  0
  146.0400  135.9028  151.3556 N   0  3  0  0  0  0  0  0  0  0  0  0
  145.4966  134.7647  150.8130 C   0  0  0  0  0  0  0  0  0  0  0  0
  144.1360  134.8961  150.9557 C   0  0  0  0  0  0  0  0  0  0  0  0
  143.8411  136.0938  151.5753 O   0  0  0  0  0  0  0  0  0  0  0  0
  145.3050  143.8637  153.0243 H   0  0  0  0  0  0  0  0  0  0  0  0
  146.4655  144.1695  154.3135 H   0  0  0  0  0  0  0  0  0  0  0  0
  144.8645  143.5131  154.6938 H   0  0  0  0  0  0  0  0  0  0  0  0
  146.0178  141.7299  155.8268 H   0  0  0  0  0  0  0  0  0  0  0  0
  148.1467  143.2599  155.0937 H   0  0  0  0  0  0  0  0  0  0  0  0
  148.3597  142.0071  156.3076 H   0  0  0  0  0  0  0  0  0  0  0  0
  148.9743  141.7993  153.3453 H   0  0  0  0  0  0  0  0  0  0  0  0
  150.0630  141.4411  154.6829 H   0  0  0  0  0  0  0  0  0  0  0  0
  148.6147  139.4845  153.4035 H   0  0  0  0  0  0  0  0  0  0  0  0
  148.9960  139.3697  155.1112 H   0  0  0  0  0  0  0  0  0  0  0  0
  146.8448  139.5520  155.7103 H   0  0  0  0  0  0  0  0  0  0  0  0
  145.4054  140.0814  153.3525 H   0  0  0  0  0  0  0  0  0  0  0  0
  147.0352  136.0852  151.3903 H   0  0  0  0  0  0  0  0  0  0  0  0
  146.1191  133.9902  150.3880 H   0  0  0  0  0  0  0  0  0  0  0  0
  143.2938  134.2738  150.6899 H   0  0  0  0  0  0  0  0  0  0  0  0
  144.6236  138.6753  152.1513 H   0  0  0  0  0  0  0  0  0  0  0  0
  1  2  1  0  0  0  0
  1 17  1  0  0  0  0
  1 18  1  0  0  0  0
  1 19  1  0  0  0  0
  2  3  1  0  0  0  0
  3  7  1  0  0  0  0
  3  4  1  0  0  0  0
  3 20  1  0  0  0  0
  4  5  1  0  0  0  0
  4 21  1  0  0  0  0
  4 22  1  0  0  0  0
  5  6  1  0  0  0  0
  5 23  1  0  0  0  0
  5 24  1  0  0  0  0
  6  7  1  0  0  0  0
  6 25  1  0  0  0  0
  6 26  1  0  0  0  0
  7  8  1  0  0  0  0
  7 27  1  0  0  0  0
  8 28  1  0  0  0  0
  8  9  1  0  0  0  0
  9 11  1  0  0  0  0
  9 10  2  0  0  0  0
 11 12  1  0  0  0  0
 11 32  1  0  0  0  0
 12 16  1  0  0  0  0
 12 13  2  0  0  0  0
 13 29  1  0  0  0  0
 13 14  1  0  0  0  0
 14 30  1  0  0  0  0
 14 15  2  0  0  0  0
 15 31  1  0  0  0  0
 15 16  1  0  0  0  0
M  CHG  1  13   1
M  END
> <s_m_source_file>
AV-unprocessed.smi

> <i_m_source_file_index>
2784

> <i_lp_mmshare_version>
43012

> <i_f3d_flags>
0

> <s_epik_input>
W0NIM11PW0NAQEhdMVtDSDJdW0NIMl1bQ0gyXVtDQEhdMVtOSF1DKD1PKVtOSF1jMm5bY0hdW2NIXW8y

> <s_epik_cmdline>
J2VwaWtfcHl0aG9uJywgJy1waCcsICc3LjAnLCAnLXRuJywgJzgnLCAnLW1hJywgJzIwMCcsICctbWV0YWxfYmluZGluZycsICctaW1hZScsICc8aW5maWxlLm1hZT4nLCAnLW9tYWUnLCAnPG91dGZpbGUubWFlPic=

> <r_epik_Ionization_Penalty>
6.73843

> <r_epik_Ionization_Penalty_Charging>
6.66704

> <r_epik_Ionization_Penalty_Neutral>
0.0713889

> <r_epik_State_Penalty>
1.94951

> <r_epik_Charging_Adjusted_Penalty>
8.61656

> <i_epik_Tot_Q>
1

> <i_epik_Tot_abs_Q>
1

> <r_epik_Metal_State_Penalty>
1.97013

> <b_epik_Metal_Only>
0

> <s_lp_Force_Field>
OPLS_2005

> <r_lp_Energy>
28.2598

> <b_lp_Chiralities_Consistent>
1

> <s_lp_Variant>
AV-unprocessed.smi:2784-7

> <Gold.Version>
5.8.1

> <Gold.Id.Protein>
6NUR|6NUR_protein|mol2

> <Gold.PLP.Fitness>
35.7727

> <Gold.PLP.PLP>
-21.6322

> <Gold.PLP.part.hbond>
-4.0000

> <Gold.PLP.part.metal>
0.0000

> <Gold.PLP.part.buried>
-0.1390

> <Gold.PLP.part.nonpolar>
-20.1669

> <Gold.PLP.part.repulsive>
1.8721

> <Gold.PLP.ligand.clash>
0.0000

> <Gold.PLP.ligand.torsion>
0.4351

> <Gold.PLP.Chemscore.Hbond>
4.0000

> <Gold.PLP.Chemscore.CHOScore>
1.0000

> <Gold.PLP.Chemscore.Metal>
0.0000

> <Gold.Chemscore.Hbonds>
donor molecule, donor type, donor heavy atom, donor atom, acceptor molecule, acceptor atom, score
      L1  H     8    28       P1 10175  1.00
      L1  H    11    32       P1 10175  0.99
      L1  H    13    29       P1  7948  2.00
      L1  C    15    31       P1 10186  0.94

> <Gold.PLP.Chemscore.Internal.Correction>
0.0108

> <Gold.Rescore>
     Score         DG    S(hbond)    S(metal)    S(lipo)     H(rot)  DE(clash)    DE(int)     intcor
     14.22     -16.89       2.88        0.00      44.38       1.34       1.42       1.25       ----

> <Gold.Chemscore.Fitness>
14.2219

> <Gold.Chemscore.DG>
-16.8893

> <Gold.Chemscore.ZeroCoef>
-5.4800

> <Gold.Chemscore.Hbond>
2.8846

> <Gold.Chemscore.Metal>
0.0000

> <Gold.Chemscore.Lipo>
44.3794

> <Gold.Chemscore.Internal_Hbond>
0.0000

> <Gold.Chemscore.DEClash>
1.4169

> <Gold.Chemscore.DEInternal>
1.2505

> <Gold.Chemscore.Rot>
1.3351

> <Gold.Chemscore.Internal.Correction>
   9.000000E+99

> <Gold.Chemscore.Hbonds>
donor molecule, donor type, donor heavy atom, donor atom, acceptor molecule, acceptor atom, score
      L1  H     8    28       P1 10175  0.96
      L1  H    11    32       P1 10175  0.90
      L1  H    13    29       P1  7948  0.99

> <Gold.Chemscore.Hbond.Weighted>
-9.6346

> <Gold.Chemscore.Metal.Weighted>
-0.0000

> <Gold.Chemscore.Lipo.Weighted>
-5.1924

> <Gold.Chemscore.Internal_Hbond.Weighted>
0.0000

> <Gold.Chemscore.DEClash.Weighted>
1.4169

> <Gold.Chemscore.DEInternal.Weighted>
1.2505

> <Gold.Chemscore.Rot.Weighted>
3.4177

> <Gold.Chemscore.Internal.Correction.Weighted>
   9.000000E+99

> <Gold.Protein.RotatedTorsions>
[ 6907 6896 6895 6894 ] final   43.79 input  -60.11 | X-H torsion
[ 7974 7965 7964 7962 ] final -133.03 input  175.53 | X-H torsion
[ 8008 7997 7996 7995 ] final  -86.84 input   59.86 | X-H torsion
[ 10167 10162 10161 10158 ] final   23.63 input  -65.29 | X-H torsion
[ 10718 10713 10712 10709 ] final   83.21 input   66.30 | X-H torsion
[ 10763 10752 10751 10750 ] final   15.25 input  -60.55 | X-H torsion
[ 11005 11000 10999 10996 ] final  105.70 input  -57.11 | X-H torsion

> <Gold.Protein.ActiveResidues>
 VAL166  LYS551  ARG553  GLY616  TRP617  ASP618  TYR619  PRO620  LYS621  CYS622 
 ASP623  PHE694  ASN695  SER759  ASP760  ASP761  ALA762  ILE779  LEU786  VAL792 
 PHE793  MET794  SER795  GLU796  ALA797  LYS798  CYS799  TRP800  GLU811  SER814 

> <Gold.Protein.RotatedAtoms>
  152.2245  134.8381  160.0481 H   0  0  0  0  0  0  0  0  0  0  0  0  # atno 6907 bound_to 6896
  151.9152  133.3566  159.3885 H   0  0  0  0  0  0  0  0  0  0  0  0  # atno 6908 bound_to 6896
  150.7009  134.4617  159.5428 H   0  0  0  0  0  0  0  0  0  0  0  0  # atno 6909 bound_to 6896
  144.9231  140.7038  143.4953 H   0  0  0  0  0  0  0  0  0  0  0  0  # atno 7974 bound_to 7965
  154.6564  140.0573  157.0013 H   0  0  0  0  0  0  0  0  0  0  0  0  # atno 8008 bound_to 7997
  155.1294  140.3255  155.4459 H   0  0  0  0  0  0  0  0  0  0  0  0  # atno 8009 bound_to 7997
  156.2599  140.1983  156.6413 H   0  0  0  0  0  0  0  0  0  0  0  0  # atno 8010 bound_to 7997
  140.5253  143.9933  150.6437 H   0  0  0  0  0  0  0  0  0  0  0  0  # atno 10167 bound_to 10162
  157.6874  131.0081  150.2490 H   0  0  0  0  0  0  0  0  0  0  0  0  # atno 10718 bound_to 10713
  153.1544  135.6784  153.8834 H   0  0  0  0  0  0  0  0  0  0  0  0  # atno 10763 bound_to 10752
  153.8251  135.3125  155.3415 H   0  0  0  0  0  0  0  0  0  0  0  0  # atno 10764 bound_to 10752
  154.7886  135.4848  154.0089 H   0  0  0  0  0  0  0  0  0  0  0  0  # atno 10765 bound_to 10752
  139.8805  134.9345  156.5554 H   0  0  0  0  0  0  0  0  0  0  0  0  # atno 11005 bound_to 11000
  145.3264  139.1773  143.4560 LP  0  0  0  0  0  0  0  0  0  0  0  0  # atno 17320 bound_to 7965
  146.3213  140.3288  142.8639 LP  0  0  0  0  0  0  0  0  0  0  0  0  # atno 17321 bound_to 7965
  140.3293  143.3087  152.0704 LP  0  0  0  0  0  0  0  0  0  0  0  0  # atno 17342 bound_to 10162
  139.4936  144.6520  151.6655 LP  0  0  0  0  0  0  0  0  0  0  0  0  # atno 17343 bound_to 10162
  156.3090  130.3769  149.7679 LP  0  0  0  0  0  0  0  0  0  0  0  0  # atno 17370 bound_to 10713
  156.5285  130.8247  151.3229 LP  0  0  0  0  0  0  0  0  0  0  0  0  # atno 17371 bound_to 10713
  140.8208  133.8355  155.8894 LP  0  0  0  0  0  0  0  0  0  0  0  0  # atno 17394 bound_to 11000
  140.9419  134.1889  157.4791 LP  0  0  0  0  0  0  0  0  0  0  0  0  # atno 17395 bound_to 11000

$$$$
