#       Name:                AV-unprocessed.smi:21
#       Creating user name   scv26
#       Creation time:       Thu Mar 26 15:36:28 2020


#       File generated by GOLD software.
#

@<TRIPOS>MOLECULE
AV-unprocessed.smi:21
    71    74     1
SMALL
NO_CHARGES


@<TRIPOS>ATOM
      1 ****        -6.0377  -1.9673  -0.0382 C.3            1 S1                 0.0000
      2 ****        -5.1189  -2.8246  -0.6973 O.3            1 S1                 0.0000
      3 ****        -4.0382  -3.2499   0.1229 C.3            1 S1                 0.0000
      4 ****        -2.9286  -2.1999   0.1899 C.3            1 S1                 0.0000
      5 ****        -2.0827  -2.4231  -1.0769 C.3            1 S1                 0.0000
      6 ****        -2.3574  -1.3974  -2.1971 C.3            1 S1                 0.0000
      7 ****        -1.9212  -0.0410  -1.8572 N.pl3          1 S1                 0.0000
      8 ****        -2.9215   0.9466  -1.4689 C.3            1 S1                 0.0000
      9 ****        -0.5927   0.2693  -1.8193 C.ar           1 S1                 0.0000
     10 ****         0.2848  -0.5811  -2.4185 N.ar           1 S1                 0.0000
     11 ****         1.5970  -0.3354  -2.4073 C.ar           1 S1                 0.0000
     12 ****         2.2466   0.6880  -1.8548 N.ar           1 S1                 0.0000
     13 ****         1.3826   1.5494  -1.2476 C.ar           1 S1                 0.0000
     14 ****        -0.0368   1.4238  -1.1849 C.ar           1 S1                 0.0000
     15 ****        -0.5608   2.5001  -0.4746 N.2            1 S1                 0.0000
     16 ****         0.4790   3.2120  -0.1391 C.2            1 S1                 0.0000
     17 ****         1.6893   2.7013  -0.5445 N.pl3          1 S1                 0.0000
     18 ****         2.9987   3.2813  -0.3031 C.3            1 S1                 0.0000
     19 ****         3.4204   3.3157   1.1895 C.3            1 S1                 0.0000
     20 ****         4.7027   4.1766   1.3030 C.3            1 S1                 0.0000
     21 ****         4.8518   4.7354   2.5919 O.3            1 S1                 0.0000
     22 ****         3.6080   1.8929   1.8025 C.3            1 S1                 0.0000
     23 ****         4.1720   1.8557   3.2147 C.3            1 S1                 0.0000
     24 ****         3.8147   0.4491   3.6693 C.3            1 S1                 0.0000
     25 ****         2.5171   0.2350   3.1387 O.3            1 S1                 0.0000
     26 ****         2.3245   1.0667   1.9978 C.3            1 S1                 0.0000
     27 ****        -2.4236  -3.7837  -1.5581 N.4            1 S1                 1.0000
     28 ****        -1.2584  -4.6193  -1.9177 C.3            1 S1                 0.0000
     29 ****        -3.3393  -4.4094  -0.5818 C.3            1 S1                 0.0000
     30 ****        -4.3959  -3.5482   1.1099 H              1 S1                 0.0000
     31 ****        -1.0284  -2.3867  -0.7980 H              1 S1                 0.0000
     32 ****        -6.8411  -1.7010  -0.7249 H              1 S1                 0.0000
     33 ****        -5.5665  -1.0425   0.2945 H              1 S1                 0.0000
     34 ****        -6.4865  -2.4605   0.8248 H              1 S1                 0.0000
     35 ****        -3.2968  -1.1819   0.3021 H              1 S1                 0.0000
     36 ****        -2.3090  -2.4033   1.0645 H              1 S1                 0.0000
     37 ****        -1.8710  -1.7116  -3.1215 H              1 S1                 0.0000
     38 ****        -3.4233  -1.3891  -2.4274 H              1 S1                 0.0000
     39 ****        -2.7630   1.8855  -2.0004 H              1 S1                 0.0000
     40 ****        -2.8802   1.1380  -0.3965 H              1 S1                 0.0000
     41 ****        -3.9291   0.6037  -1.7043 H              1 S1                 0.0000
     42 ****         2.2155  -1.0646  -2.9097 H              1 S1                 0.0000
     43 ****         0.3925   4.1275   0.4279 H              1 S1                 0.0000
     44 ****         3.7423   2.7407  -0.8897 H              1 S1                 0.0000
     45 ****         2.9701   4.2932  -0.7090 H              1 S1                 0.0000
     46 ****         2.6322   3.8307   1.7410 H              1 S1                 0.0000
     47 ****         5.5883   3.5936   1.0486 H              1 S1                 0.0000
     48 ****         4.6711   5.0160   0.6080 H              1 S1                 0.0000
     49 ****         5.6376   5.2605   2.6033 H              1 S1                 0.0000
     50 ****         4.2861   1.3234   1.1644 H              1 S1                 0.0000
     51 ****         5.2454   2.0427   3.2547 H              1 S1                 0.0000
     52 ****         3.6690   2.5868   3.8491 H              1 S1                 0.0000
     53 ****         4.5021  -0.2802   3.2382 H              1 S1                 0.0000
     54 ****         3.8300   0.3372   4.7536 H              1 S1                 0.0000
     55 ****         1.4635   1.7072   2.1898 H              1 S1                 0.0000
     56 ****         2.1015   0.4476   1.1302 H              1 S1                 0.0000
     57 ****        -0.6264  -4.8095  -1.0490 H              1 S1                 0.0000
     58 ****        -0.6548  -4.1228  -2.6785 H              1 S1                 0.0000
     59 ****        -1.5875  -5.5776  -2.3202 H              1 S1                 0.0000
     60 ****        -2.7595  -4.9756   0.1491 H              1 S1                 0.0000
     61 ****        -4.0349  -5.0989  -1.0613 H              1 S1                 0.0000
     62 ****        -2.9659  -3.6479  -2.3997 H              1 S1                 0.0000
     63 ****        -4.7432  -2.3372  -1.4855 LP             1 S1                 0.0000
     64 ****        -5.6138  -3.6348  -1.0113 LP             1 S1                 0.0000
     65 ****        -0.0585  -1.4024  -2.8740 LP             1 S1                 0.0000
     66 ****         3.2390   0.8085  -1.8820 LP             1 S1                 0.0000
     67 ****        -1.5213   2.6861  -0.2675 LP             1 S1                 0.0000
     68 ****         4.9253   4.0040   3.2699 LP             1 S1                 0.0000
     69 ****         4.0604   5.3085   2.8044 LP             1 S1                 0.0000
     70 ****         1.8327   0.4582   3.8328 LP             1 S1                 0.0000
     71 ****         2.4207  -0.7239   2.8718 LP             1 S1                 0.0000
@<TRIPOS>BOND
    1    1    2 1     
    2    1   32 1     
    3    1   33 1     
    4    1   34 1     
    5    2    3 1     
    6    3   30 1     
    7    3   29 1     
    8    3    4 1     
    9    4    5 1     
   10    4   35 1     
   11    4   36 1     
   12    5   31 1     
   13    5    6 1     
   14    5   27 1     
   15    6    7 1     
   16    6   37 1     
   17    6   38 1     
   18    7    8 1     
   19    7    9 1     
   20    8   39 1     
   21    8   40 1     
   22    8   41 1     
   23    9   14 ar    
   24    9   10 ar    
   25   10   11 ar    
   26   11   12 ar    
   27   11   42 1     
   28   12   13 ar    
   29   13   17 1     
   30   13   14 ar    
   31   14   15 1     
   32   15   16 2     
   33   16   17 1     
   34   16   43 1     
   35   17   18 1     
   36   18   19 1     
   37   18   44 1     
   38   18   45 1     
   39   19   20 1     
   40   19   22 1     
   41   19   46 1     
   42   20   21 1     
   43   20   47 1     
   44   20   48 1     
   45   21   49 1     
   46   22   26 1     
   47   22   23 1     
   48   22   50 1     
   49   23   24 1     
   50   23   51 1     
   51   23   52 1     
   52   24   25 1     
   53   24   53 1     
   54   24   54 1     
   55   25   26 1     
   56   26   55 1     
   57   26   56 1     
   58   27   28 1     
   59   27   29 1     
   60   27   62 1     
   61   28   57 1     
   62   28   58 1     
   63   28   59 1     
   64   29   60 1     
   65   29   61 1     
   66    2   63 1     
   67    2   64 1     
   68   10   65 1     
   69   12   66 1     
   70   15   67 1     
   71   21   68 1     
   72   21   69 1     
   73   25   70 1     
   74   25   71 1     
@<TRIPOS>SUBSTRUCTURE
      1 S1             1
@<TRIPOS>SET
LONE_PAIRS      STATIC     ATOMS    <user>   **** ""
9 63 64 65 66 67 68 69 70 71
DONOR_HYDROGENS      STATIC     ATOMS    <user>   **** ""
2 49 62
ATOM$BLUE        STATIC     ATOMS    COLORGROUP SYSTEM
9 63 64 65 66 67 68 69 70 71
ATOM$RED        STATIC     ATOMS    COLORGROUP SYSTEM
2 49 62
