AV-unprocessed.smi:1391|AV-procd|sdf|5658|dock3
  -GOLD-   22720 5283D 1   1.00000     0.00000
 Structure written by MMmdl.
 44 45  0  0  0  0  0  0  0  0  2 V2000
  150.7562  136.0493  155.9356 O   0  0  0  0  0  0  0  0  0  0  0  0
  150.3312  136.8292  155.0823 C   0  0  0  0  0  0  0  0  0  0  0  0
  151.2621  137.8595  154.4268 C   0  0  0  0  0  0  0  0  0  0  0  0
  150.9418  139.2470  154.8024 N   0  0  0  0  0  0  0  0  0  0  0  0
  149.9118  139.8868  154.0842 C   0  0  0  0  0  0  0  0  0  0  0  0
  149.5369  141.1477  154.3520 C   0  0  0  0  0  0  0  0  0  0  0  0
  150.2201  141.8532  155.4103 C   0  0  0  0  0  0  0  0  0  0  0  0
  151.2051  141.2499  156.1050 C   0  0  0  0  0  0  0  0  0  0  0  0
  151.6170  139.8712  155.8168 C   0  0  0  0  0  0  0  0  0  0  0  0
  152.5115  139.3098  156.4504 O   0  0  0  0  0  0  0  0  0  0  0  0
  149.0513  136.8459  154.6804 N   0  0  0  0  0  0  0  0  0  0  0  0
  148.0138  135.9447  155.1679 C   0  0  0  0  0  0  0  0  0  0  0  0
  146.6253  136.3379  154.6243 C   0  0  0  0  0  0  0  0  0  0  0  0
  146.4194  135.9295  153.2085 N   0  3  0  0  0  0  0  0  0  0  0  0
  145.5549  136.8872  152.4632 C   0  0  0  0  0  0  0  0  0  0  0  0
  144.0428  136.6251  152.5976 C   0  0  0  0  0  0  0  0  0  0  0  0
  143.5039  135.6974  151.4975 C   0  0  0  0  0  0  0  0  0  0  0  0
  143.9686  134.2406  151.6222 C   0  0  0  0  0  0  0  0  0  0  0  0
  145.4950  134.0681  151.7022 C   0  0  0  0  0  0  0  0  0  0  0  0
  146.0748  134.4850  153.0680 C   0  0  0  0  0  0  0  0  0  0  0  0
  152.2987  137.6354  154.6861 H   0  0  0  0  0  0  0  0  0  0  0  0
  151.2031  137.7288  153.3454 H   0  0  0  0  0  0  0  0  0  0  0  0
  149.4458  139.2890  153.3146 H   0  0  0  0  0  0  0  0  0  0  0  0
  148.7421  141.6203  153.7939 H   0  0  0  0  0  0  0  0  0  0  0  0
  149.9384  142.8684  155.6477 H   0  0  0  0  0  0  0  0  0  0  0  0
  151.7040  141.7925  156.8948 H   0  0  0  0  0  0  0  0  0  0  0  0
  148.7804  137.5243  153.9827 H   0  0  0  0  0  0  0  0  0  0  0  0
  148.2550  134.9152  154.8975 H   0  0  0  0  0  0  0  0  0  0  0  0
  148.0320  135.9951  156.2562 H   0  0  0  0  0  0  0  0  0  0  0  0
  145.8382  135.9122  155.2484 H   0  0  0  0  0  0  0  0  0  0  0  0
  146.5241  137.4212  154.7002 H   0  0  0  0  0  0  0  0  0  0  0  0
  145.7735  137.9036  152.7927 H   0  0  0  0  0  0  0  0  0  0  0  0
  145.8434  136.8764  151.4118 H   0  0  0  0  0  0  0  0  0  0  0  0
  143.7863  136.2534  153.5902 H   0  0  0  0  0  0  0  0  0  0  0  0
  143.5266  137.5807  152.4984 H   0  0  0  0  0  0  0  0  0  0  0  0
  142.4138  135.7164  151.5204 H   0  0  0  0  0  0  0  0  0  0  0  0
  143.7852  136.0880  150.5187 H   0  0  0  0  0  0  0  0  0  0  0  0
  143.5005  133.7800  152.4931 H   0  0  0  0  0  0  0  0  0  0  0  0
  143.5957  133.6866  150.7600 H   0  0  0  0  0  0  0  0  0  0  0  0
  145.7044  133.0061  151.5670 H   0  0  0  0  0  0  0  0  0  0  0  0
  146.0013  134.5704  150.8772 H   0  0  0  0  0  0  0  0  0  0  0  0
  146.9912  133.9179  153.2313 H   0  0  0  0  0  0  0  0  0  0  0  0
  145.3900  134.1842  153.8623 H   0  0  0  0  0  0  0  0  0  0  0  0
  147.3255  136.0336  152.7743 H   0  0  0  0  0  0  0  0  0  0  0  0
  1  2  2  0  0  0  0
  2  3  1  0  0  0  0
  2 11  1  0  0  0  0
  3  4  1  0  0  0  0
  3 21  1  0  0  0  0
  3 22  1  0  0  0  0
  4  9  1  0  0  0  0
  4  5  1  0  0  0  0
  5  6  2  0  0  0  0
  5 23  1  0  0  0  0
  6  7  1  0  0  0  0
  6 24  1  0  0  0  0
  7  8  2  0  0  0  0
  7 25  1  0  0  0  0
  8  9  1  0  0  0  0
  8 26  1  0  0  0  0
  9 10  2  0  0  0  0
 11 12  1  0  0  0  0
 11 27  1  0  0  0  0
 12 13  1  0  0  0  0
 12 28  1  0  0  0  0
 12 29  1  0  0  0  0
 13 14  1  0  0  0  0
 13 30  1  0  0  0  0
 13 31  1  0  0  0  0
 14 20  1  0  0  0  0
 14 15  1  0  0  0  0
 14 44  1  0  0  0  0
 15 16  1  0  0  0  0
 15 32  1  0  0  0  0
 15 33  1  0  0  0  0
 16 17  1  0  0  0  0
 16 34  1  0  0  0  0
 16 35  1  0  0  0  0
 17 18  1  0  0  0  0
 17 36  1  0  0  0  0
 17 37  1  0  0  0  0
 18 19  1  0  0  0  0
 18 38  1  0  0  0  0
 18 39  1  0  0  0  0
 19 20  1  0  0  0  0
 19 40  1  0  0  0  0
 19 41  1  0  0  0  0
 20 42  1  0  0  0  0
 20 43  1  0  0  0  0
M  CHG  1  14   1
M  END
> <s_m_source_file>
AV-unprocessed.smi

> <i_m_source_file_index>
1391

> <i_lp_mmshare_version>
43012

> <i_f3d_flags>
0

> <s_epik_input>
Tz1jMVtjSF1bY0hdW2NIXVtjSF1uMVtDSDJdQyg9TylbTkhdW0NIMl1bQ0gyXU4yW0NIMl1bQ0gyXVtDSDJdW0NIMl1bQ0gyXVtDSDJdMg==

> <s_epik_cmdline>
J2VwaWtfcHl0aG9uJywgJy1waCcsICc3LjAnLCAnLXRuJywgJzgnLCAnLW1hJywgJzIwMCcsICctbWV0YWxfYmluZGluZycsICctaW1hZScsICc8aW5maWxlLm1hZT4nLCAnLW9tYWUnLCAnPG91dGZpbGUubWFlPic=

> <r_lp_tautomer_probability>
1

> <r_epik_Ionization_Penalty>
0.00237247

> <r_epik_Ionization_Penalty_Charging>
0.00237238

> <r_epik_Ionization_Penalty_Neutral>
8.2065e-08

> <r_epik_State_Penalty>
0.00163922

> <r_epik_Charging_Adjusted_Penalty>
0.0040116

> <i_epik_Tot_Q>
1

> <i_epik_Tot_abs_Q>
1

> <r_epik_Metal_State_Penalty>
-0

> <b_epik_Metal_Only>
0

> <s_lp_Force_Field>
OPLS_2005

> <r_lp_Energy>
31.2173

> <b_lp_Chiralities_Consistent>
1

> <s_lp_Variant>
AV-unprocessed.smi:1391-1

> <Gold.Version>
5.8.1

> <Gold.Id.Protein>
6NUR|6NUR_protein|mol2

> <Gold.PLP.Fitness>
49.6243

> <Gold.PLP.PLP>
-36.4325

> <Gold.PLP.part.hbond>
-4.0000

> <Gold.PLP.part.metal>
0.0000

> <Gold.PLP.part.buried>
-2.3012

> <Gold.PLP.part.nonpolar>
-29.2667

> <Gold.PLP.part.repulsive>
0.1033

> <Gold.PLP.ligand.clash>
0.0000

> <Gold.PLP.ligand.torsion>
0.7839

> <Gold.PLP.Chemscore.Hbond>
4.0000

> <Gold.PLP.Chemscore.CHOScore>
0.8838

> <Gold.PLP.Chemscore.Metal>
0.0000

> <Gold.Chemscore.Hbonds>
donor molecule, donor type, donor heavy atom, donor atom, acceptor molecule, acceptor atom, score
      L1  H    14    44       P1  7948  2.00
      P1  H  7997  8008       L1    10  1.00
      L1  C     5    23       P1  7957  0.75

> <Gold.PLP.Chemscore.Internal.Correction>
0.1082

> <Gold.Rescore>
     Score         DG    S(hbond)    S(metal)    S(lipo)     H(rot)  DE(clash)    DE(int)     intcor
     17.45     -18.35       2.99        0.00      65.31       1.86       0.11       0.79       ----

> <Gold.Chemscore.Fitness>
17.4476

> <Gold.Chemscore.DG>
-18.3525

> <Gold.Chemscore.ZeroCoef>
-5.4800

> <Gold.Chemscore.Hbond>
2.9910

> <Gold.Chemscore.Metal>
0.0000

> <Gold.Chemscore.Lipo>
65.3053

> <Gold.Chemscore.Internal_Hbond>
0.0000

> <Gold.Chemscore.DEClash>
0.1135

> <Gold.Chemscore.DEInternal>
0.7914

> <Gold.Chemscore.Rot>
1.8586

> <Gold.Chemscore.Internal.Correction>
   9.000000E+99

> <Gold.Chemscore.Hbonds>
donor molecule, donor type, donor heavy atom, donor atom, acceptor molecule, acceptor atom, score
      L1  H    14    44       P1  7948  1.00
      P1  H  7997  8008       L1    10  0.94

> <Gold.Chemscore.Hbond.Weighted>
-9.9899

> <Gold.Chemscore.Metal.Weighted>
-0.0000

> <Gold.Chemscore.Lipo.Weighted>
-7.6407

> <Gold.Chemscore.Internal_Hbond.Weighted>
0.0000

> <Gold.Chemscore.DEClash.Weighted>
0.1135

> <Gold.Chemscore.DEInternal.Weighted>
0.7914

> <Gold.Chemscore.Rot.Weighted>
4.7581

> <Gold.Chemscore.Internal.Correction.Weighted>
   9.000000E+99

> <Gold.Protein.RotatedTorsions>
[ 6907 6896 6895 6894 ] final   26.28 input  -60.11 | X-H torsion
[ 7974 7965 7964 7962 ] final   42.88 input  175.53 | X-H torsion
[ 8008 7997 7996 7995 ] final  -50.82 input   59.86 | X-H torsion
[ 10167 10162 10161 10158 ] final  133.11 input  -65.29 | X-H torsion
[ 10718 10713 10712 10709 ] final  123.68 input   66.30 | X-H torsion
[ 10763 10752 10751 10750 ] final -160.16 input  -60.55 | X-H torsion
[ 11005 11000 10999 10996 ] final  171.82 input  -57.11 | X-H torsion

> <Gold.Protein.ActiveResidues>
 VAL166  LYS551  ARG553  GLY616  TRP617  ASP618  TYR619  PRO620  LYS621  CYS622 
 ASP623  PHE694  ASN695  SER759  ASP760  ASP761  ALA762  ILE779  LEU786  VAL792 
 PHE793  MET794  SER795  GLU796  ALA797  LYS798  CYS799  TRP800  GLU811  SER814 

> <Gold.Protein.RotatedAtoms>
  151.9852  135.0008  160.0558 H   0  0  0  0  0  0  0  0  0  0  0  0  # atno 6907 bound_to 6896
  152.1660  133.4607  159.4893 H   0  0  0  0  0  0  0  0  0  0  0  0  # atno 6908 bound_to 6896
  150.6894  134.1930  159.4336 H   0  0  0  0  0  0  0  0  0  0  0  0  # atno 6909 bound_to 6896
  146.0702  139.5249  142.9602 H   0  0  0  0  0  0  0  0  0  0  0  0  # atno 7974 bound_to 7965
  154.4070  140.1263  156.4728 H   0  0  0  0  0  0  0  0  0  0  0  0  # atno 8008 bound_to 7997
  155.7162  140.3493  155.4976 H   0  0  0  0  0  0  0  0  0  0  0  0  # atno 8009 bound_to 7997
  155.9256  140.1060  157.1163 H   0  0  0  0  0  0  0  0  0  0  0  0  # atno 8010 bound_to 7997
  139.5311  144.6631  151.4948 H   0  0  0  0  0  0  0  0  0  0  0  0  # atno 10167 bound_to 10162
  157.5646  131.1087  150.8478 H   0  0  0  0  0  0  0  0  0  0  0  0  # atno 10718 bound_to 10713
  154.7414  135.3069  154.8722 H   0  0  0  0  0  0  0  0  0  0  0  0  # atno 10763 bound_to 10752
  153.9535  135.6761  153.4748 H   0  0  0  0  0  0  0  0  0  0  0  0  # atno 10764 bound_to 10752
  153.1012  135.4911  154.8795 H   0  0  0  0  0  0  0  0  0  0  0  0  # atno 10765 bound_to 10752
  140.3231  134.7421  157.4079 H   0  0  0  0  0  0  0  0  0  0  0  0  # atno 11005 bound_to 11000
  145.6404  141.0285  143.1815 LP  0  0  0  0  0  0  0  0  0  0  0  0  # atno 17320 bound_to 7965
  144.7227  139.7976  143.7376 LP  0  0  0  0  0  0  0  0  0  0  0  0  # atno 17321 bound_to 7965
  140.6489  143.8737  150.6765 LP  0  0  0  0  0  0  0  0  0  0  0  0  # atno 17342 bound_to 10162
  140.2095  143.3895  152.1729 LP  0  0  0  0  0  0  0  0  0  0  0  0  # atno 17343 bound_to 10162
  156.8966  130.5232  149.5284 LP  0  0  0  0  0  0  0  0  0  0  0  0  # atno 17370 bound_to 10713
  156.0695  130.5731  150.9355 LP  0  0  0  0  0  0  0  0  0  0  0  0  # atno 17371 bound_to 10713
  140.0925  134.5582  155.8430 LP  0  0  0  0  0  0  0  0  0  0  0  0  # atno 17394 bound_to 11000
  141.2082  133.6671  156.6354 LP  0  0  0  0  0  0  0  0  0  0  0  0  # atno 17395 bound_to 11000

$$$$
