AV-unprocessed.smi:933|AV-procd|sdf|4204|dock1
  -GOLD-   22720 2113D 1   1.00000     0.00000
 Structure written by MMmdl.
 42 43  0  0  0  0  0  0  0  0  1 V2000
  145.6899  129.4130  151.5667 C   0  0  0  0  0  0  0  0  0  0  0  0
  146.1728  130.7436  152.1529 C   0  0  0  0  0  0  0  0  0  0  0  0
  145.4096  131.9134  151.6279 C   0  0  0  0  0  0  0  0  0  0  0  0
  145.6095  133.1681  152.0395 N   0  0  0  0  0  0  0  0  0  0  0  0
  144.7865  134.0888  151.3835 C   0  0  0  0  0  0  0  0  0  0  0  0
  144.8627  135.5428  151.7387 C   0  0  0  0  0  0  0  0  0  0  0  0
  145.7356  136.3322  150.7536 C   0  0  0  0  0  0  0  0  0  0  0  0
  145.9523  137.6954  151.2312 N   0  0  0  0  0  0  0  0  0  0  0  0
  146.3231  138.0719  152.4669 C   0  0  0  0  0  0  0  0  0  0  0  0
  146.5281  137.2538  153.3616 O   0  0  0  0  0  0  0  0  0  0  0  0
  146.4490  139.3997  152.6299 N   0  0  0  0  0  0  0  0  0  0  0  0
  146.7983  140.0701  153.8792 C   0  0  1  0  0  0  0  0  0  0  0  0
  147.9422  139.3165  154.5830 C   0  0  0  0  0  0  0  0  0  0  0  0
  149.1844  140.1907  154.4192 C   0  0  0  0  0  0  0  0  0  0  0  0
  148.6322  141.6118  154.4068 C   0  0  0  0  0  0  0  0  0  0  0  0
  147.3212  141.5032  153.6196 C   0  0  2  0  0  0  0  0  0  0  0  0
  146.3120  142.6054  153.9710 C   0  0  0  0  0  0  0  0  0  0  0  0
  143.9673  133.5103  150.4463 C   0  0  0  0  0  0  0  0  0  0  0  0
  144.1992  131.7859  150.3569 S   0  0  0  0  0  0  0  0  0  0  0  0
  146.2651  128.5794  151.9703 H   0  0  0  0  0  0  0  0  0  0  0  0
  145.7988  129.3984  150.4820 H   0  0  0  0  0  0  0  0  0  0  0  0
  144.6397  129.2382  151.8010 H   0  0  0  0  0  0  0  0  0  0  0  0
  146.0803  130.7263  153.2392 H   0  0  0  0  0  0  0  0  0  0  0  0
  147.2314  130.8844  151.9320 H   0  0  0  0  0  0  0  0  0  0  0  0
  143.8594  135.9706  151.7607 H   0  0  0  0  0  0  0  0  0  0  0  0
  145.2596  135.6581  152.7482 H   0  0  0  0  0  0  0  0  0  0  0  0
  146.6989  135.8354  150.6274 H   0  0  0  0  0  0  0  0  0  0  0  0
  145.2520  136.3606  149.7756 H   0  0  0  0  0  0  0  0  0  0  0  0
  145.8365  138.4294  150.5475 H   0  0  0  0  0  0  0  0  0  0  0  0
  146.2654  139.9922  151.8333 H   0  0  0  0  0  0  0  0  0  0  0  0
  145.9336  140.0832  154.5457 H   0  0  0  0  0  0  0  0  0  0  0  0
  147.7095  139.2244  155.6447 H   0  0  0  0  0  0  0  0  0  0  0  0
  148.0972  138.3058  154.2024 H   0  0  0  0  0  0  0  0  0  0  0  0
  149.9185  140.0304  155.2092 H   0  0  0  0  0  0  0  0  0  0  0  0
  149.6657  139.9734  153.4646 H   0  0  0  0  0  0  0  0  0  0  0  0
  148.4334  141.9314  155.4310 H   0  0  0  0  0  0  0  0  0  0  0  0
  149.3275  142.3266  153.9655 H   0  0  0  0  0  0  0  0  0  0  0  0
  147.5756  141.6015  152.5626 H   0  0  0  0  0  0  0  0  0  0  0  0
  146.0294  142.5659  155.0233 H   0  0  0  0  0  0  0  0  0  0  0  0
  145.4028  142.5068  153.3778 H   0  0  0  0  0  0  0  0  0  0  0  0
  146.7294  143.5930  153.7742 H   0  0  0  0  0  0  0  0  0  0  0  0
  143.2445  133.9919  149.8046 H   0  0  0  0  0  0  0  0  0  0  0  0
  1  2  1  0  0  0  0
  1 20  1  0  0  0  0
  1 21  1  0  0  0  0
  1 22  1  0  0  0  0
  2  3  1  0  0  0  0
  2 23  1  0  0  0  0
  2 24  1  0  0  0  0
  3 19  1  0  0  0  0
  3  4  2  0  0  0  0
  4  5  1  0  0  0  0
  5  6  1  0  0  0  0
  5 18  2  0  0  0  0
  6  7  1  0  0  0  0
  6 25  1  0  0  0  0
  6 26  1  0  0  0  0
  7  8  1  0  0  0  0
  7 27  1  0  0  0  0
  7 28  1  0  0  0  0
  8  9  1  0  0  0  0
  8 29  1  0  0  0  0
  9 10  2  0  0  0  0
  9 11  1  0  0  0  0
 11 12  1  0  0  0  0
 11 30  1  0  0  0  0
 12 16  1  0  0  0  0
 12 13  1  0  0  0  0
 12 31  1  0  0  0  0
 13 14  1  0  0  0  0
 13 32  1  0  0  0  0
 13 33  1  0  0  0  0
 14 15  1  0  0  0  0
 14 34  1  0  0  0  0
 14 35  1  0  0  0  0
 15 16  1  0  0  0  0
 15 36  1  0  0  0  0
 15 37  1  0  0  0  0
 16 17  1  0  0  0  0
 16 38  1  0  0  0  0
 17 39  1  0  0  0  0
 17 40  1  0  0  0  0
 17 41  1  0  0  0  0
 18 19  1  0  0  0  0
 18 42  1  0  0  0  0
M  END
> <s_m_source_file>
AV-unprocessed.smi

> <i_m_source_file_index>
933

> <i_lp_mmshare_version>
43012

> <i_f3d_flags>
0

> <s_epik_input>
W0NIM11bQ0gyXWMxbmMoW2NIXXMxKVtDSDJdW0NIMl1bTkhdQyg9TylbTkhdW0NAQEhdMltDSDJdW0NIMl1bQ0gyXVtDQEhdMltDSDNd

> <s_epik_cmdline>
J2VwaWtfcHl0aG9uJywgJy1waCcsICc3LjAnLCAnLXRuJywgJzgnLCAnLW1hJywgJzIwMCcsICctbWV0YWxfYmluZGluZycsICctaW1hZScsICc8aW5maWxlLm1hZT4nLCAnLW9tYWUnLCAnPG91dGZpbGUubWFlPic=

> <r_epik_Ionization_Penalty>
0.00203408

> <r_epik_Ionization_Penalty_Charging>
0

> <r_epik_Ionization_Penalty_Neutral>
0.00203408

> <r_epik_State_Penalty>
0.0013452

> <r_epik_Charging_Adjusted_Penalty>
0.0013452

> <i_epik_Tot_Q>
0

> <i_epik_Tot_abs_Q>
0

> <r_epik_Metal_State_Penalty>
-0

> <b_epik_Metal_Only>
0

> <s_lp_Force_Field>
OPLS_2005

> <r_lp_Energy>
18.1851

> <b_lp_Chiralities_Consistent>
1

> <s_lp_Variant>
AV-unprocessed.smi:933-4

> <Gold.Version>
5.8.1

> <Gold.Id.Protein>
6NUR|6NUR_protein|mol2

> <Gold.PLP.Fitness>
42.2724

> <Gold.PLP.PLP>
-39.1140

> <Gold.PLP.part.hbond>
-2.0000

> <Gold.PLP.part.metal>
0.0000

> <Gold.PLP.part.buried>
-5.4353

> <Gold.PLP.part.nonpolar>
-32.3108

> <Gold.PLP.part.repulsive>
0.3250

> <Gold.PLP.ligand.clash>
0.0000

> <Gold.PLP.ligand.torsion>
0.6604

> <Gold.PLP.Chemscore.Hbond>
0.4640

> <Gold.PLP.Chemscore.CHOScore>
1.0000

> <Gold.PLP.Chemscore.Metal>
0.0000

> <Gold.Chemscore.Hbonds>
donor molecule, donor type, donor heavy atom, donor atom, acceptor molecule, acceptor atom, score
      L1  H     8    29       P1 10171  0.25
      L1  C    18    42       P1 10186  1.00

> <Gold.PLP.Chemscore.Internal.Correction>
0.0872

> <Gold.Rescore>
     Score         DG    S(hbond)    S(metal)    S(lipo)     H(rot)  DE(clash)    DE(int)     intcor
     11.74     -14.83       0.59        0.00      96.99       1.55       0.04       3.05       ----

> <Gold.Chemscore.Fitness>
11.7382

> <Gold.Chemscore.DG>
-14.8340

> <Gold.Chemscore.ZeroCoef>
-5.4800

> <Gold.Chemscore.Hbond>
0.5897

> <Gold.Chemscore.Metal>
0.0000

> <Gold.Chemscore.Lipo>
96.9902

> <Gold.Chemscore.Internal_Hbond>
0.0000

> <Gold.Chemscore.DEClash>
0.0410

> <Gold.Chemscore.DEInternal>
3.0548

> <Gold.Chemscore.Rot>
1.5482

> <Gold.Chemscore.Internal.Correction>
   9.000000E+99

> <Gold.Chemscore.Hbonds>
donor molecule, donor type, donor heavy atom, donor atom, acceptor molecule, acceptor atom, score
      L1  H     8    29       P1 10171  0.25

> <Gold.Chemscore.Hbond.Weighted>
-1.9696

> <Gold.Chemscore.Metal.Weighted>
-0.0000

> <Gold.Chemscore.Lipo.Weighted>
-11.3479

> <Gold.Chemscore.Internal_Hbond.Weighted>
0.0000

> <Gold.Chemscore.DEClash.Weighted>
0.0410

> <Gold.Chemscore.DEInternal.Weighted>
3.0548

> <Gold.Chemscore.Rot.Weighted>
3.9635

> <Gold.Chemscore.Internal.Correction.Weighted>
   9.000000E+99

> <Gold.Protein.RotatedTorsions>
[ 6907 6896 6895 6894 ] final  171.39 input  -60.11 | X-H torsion
[ 7974 7965 7964 7962 ] final -126.20 input  175.53 | X-H torsion
[ 8008 7997 7996 7995 ] final -120.55 input   59.86 | X-H torsion
[ 10167 10162 10161 10158 ] final  157.60 input  -65.29 | X-H torsion
[ 10718 10713 10712 10709 ] final   72.44 input   66.30 | X-H torsion
[ 10763 10752 10751 10750 ] final  -39.77 input  -60.55 | X-H torsion
[ 11005 11000 10999 10996 ] final  -29.10 input  -57.11 | X-H torsion

> <Gold.Protein.ActiveResidues>
 VAL166  LYS551  ARG553  GLY616  TRP617  ASP618  TYR619  PRO620  LYS621  CYS622 
 ASP623  PHE694  ASN695  SER759  ASP760  ASP761  ALA762  ILE779  LEU786  VAL792 
 PHE793  MET794  SER795  GLU796  ALA797  LYS798  CYS799  TRP800  GLU811  SER814 

> <Gold.Protein.RotatedAtoms>
  151.8010  133.3370  159.3526 H   0  0  0  0  0  0  0  0  0  0  0  0  # atno 6907 bound_to 6896
  150.7358  134.5753  159.5920 H   0  0  0  0  0  0  0  0  0  0  0  0  # atno 6908 bound_to 6896
  152.3143  134.7461  160.0380 H   0  0  0  0  0  0  0  0  0  0  0  0  # atno 6909 bound_to 6896
  144.9898  140.7720  143.4561 H   0  0  0  0  0  0  0  0  0  0  0  0  # atno 7974 bound_to 7965
  155.1337  140.0400  157.2781 H   0  0  0  0  0  0  0  0  0  0  0  0  # atno 8008 bound_to 7997
  154.6524  140.2572  155.7173 H   0  0  0  0  0  0  0  0  0  0  0  0  # atno 8009 bound_to 7997
  156.2583  140.2833  156.0963 H   0  0  0  0  0  0  0  0  0  0  0  0  # atno 8010 bound_to 7997
  139.4823  144.4903  151.8318 H   0  0  0  0  0  0  0  0  0  0  0  0  # atno 10167 bound_to 10162
  157.6501  130.9579  150.0929 H   0  0  0  0  0  0  0  0  0  0  0  0  # atno 10718 bound_to 10713
  153.9349  135.6768  153.4745 H   0  0  0  0  0  0  0  0  0  0  0  0  # atno 10763 bound_to 10752
  153.0960  135.4851  154.8777 H   0  0  0  0  0  0  0  0  0  0  0  0  # atno 10764 bound_to 10752
  154.7408  135.3160  154.8689 H   0  0  0  0  0  0  0  0  0  0  0  0  # atno 10765 bound_to 10752
  140.9266  133.7364  156.0877 H   0  0  0  0  0  0  0  0  0  0  0  0  # atno 11005 bound_to 11000
  145.2302  139.2118  143.5047 LP  0  0  0  0  0  0  0  0  0  0  0  0  # atno 17320 bound_to 7965
  146.3428  140.2178  142.8591 LP  0  0  0  0  0  0  0  0  0  0  0  0  # atno 17321 bound_to 7965
  140.4386  144.2017  150.5890 LP  0  0  0  0  0  0  0  0  0  0  0  0  # atno 17342 bound_to 10162
  140.4706  143.2414  151.9094 LP  0  0  0  0  0  0  0  0  0  0  0  0  # atno 17343 bound_to 10162
  156.1873  130.3653  149.8956 LP  0  0  0  0  0  0  0  0  0  0  0  0  # atno 17370 bound_to 10713
  156.6893  130.8889  151.3586 LP  0  0  0  0  0  0  0  0  0  0  0  0  # atno 17371 bound_to 10713
  140.7917  134.3609  157.5463 LP  0  0  0  0  0  0  0  0  0  0  0  0  # atno 17394 bound_to 11000
  139.8787  134.9144  156.3107 LP  0  0  0  0  0  0  0  0  0  0  0  0  # atno 17395 bound_to 11000

$$$$
