#       Name:                AV-unprocessed.smi:671
#       Creating user name   scv26
#       Creation time:       Fri Mar 27 00:23:38 2020


#       File generated by GOLD software.
#

@<TRIPOS>MOLECULE
AV-unprocessed.smi:671
    52    53     1
SMALL
NO_CHARGES


@<TRIPOS>ATOM
      1 ****         4.1053   0.6233   5.6433 C.3            1 S1                 0.0000
      2 ****         4.1131  -0.8782   5.6770 C.2            1 S1                 0.0000
      3 ****         4.5132  -1.5021   6.7728 N.2            1 S1                 0.0000
      4 ****         4.4014  -2.8142   6.4832 N.pl3          1 S1                 0.0000
      5 ****         4.7622  -3.7981   7.4853 C.3            1 S1                 0.0000
      6 ****         3.9314  -3.0190   5.2007 C.2            1 S1                 0.0000
      7 ****         3.7185  -4.3849   4.6336 C.3            1 S1                 0.0000
      8 ****         3.7266  -1.7846   4.6465 C.2            1 S1                 0.0000
      9 ****         3.2123  -1.4519   3.2696 C.3            1 S1                 0.0000
     10 ****         1.6906  -1.6803   3.1380 C.3            1 S1                 0.0000
     11 ****         0.8746  -0.7384   4.0376 C.3            1 S1                 0.0000
     12 ****         1.2678  -1.4902   1.7487 N.am           1 S1                 0.0000
     13 ****         1.3389  -2.3628   0.7267 C.2            1 S1                 0.0000
     14 ****         1.8054  -3.4912   0.8708 O.2            1 S1                 0.0000
     15 ****         0.8677  -1.8981  -0.4438 N.am           1 S1                 0.0000
     16 ****         0.8058  -2.6472  -1.6995 C.3            1 S1                 0.0000
     17 ****        -0.4669  -2.2612  -2.4653 C.3            1 S1                 0.0000
     18 ****        -0.0226  -1.1886  -3.4550 C.3            1 S1                 0.0000
     19 ****         1.3764  -1.6256  -3.8811 C.3            1 S1                 0.0000
     20 ****         1.9856  -2.3541  -2.6690 C.3            1 S1                 0.0000
     21 ****         3.1879  -1.5966  -2.0731 C.3            1 S1                 0.0000
     22 ****         4.7213   0.9972   4.8254 H              1 S1                 0.0000
     23 ****         4.4903   1.0522   6.5693 H              1 S1                 0.0000
     24 ****         3.0941   1.0036   5.4979 H              1 S1                 0.0000
     25 ****         5.5734  -4.4226   7.1105 H              1 S1                 0.0000
     26 ****         3.9003  -4.4278   7.7069 H              1 S1                 0.0000
     27 ****         5.0892  -3.3106   8.4050 H              1 S1                 0.0000
     28 ****         3.5387  -4.3371   3.5604 H              1 S1                 0.0000
     29 ****         2.8579  -4.8669   5.0975 H              1 S1                 0.0000
     30 ****         4.5915  -5.0177   4.7948 H              1 S1                 0.0000
     31 ****         3.4436  -0.4184   3.0092 H              1 S1                 0.0000
     32 ****         3.7385  -2.0545   2.5289 H              1 S1                 0.0000
     33 ****         1.4535  -2.7007   3.4436 H              1 S1                 0.0000
     34 ****         1.1058  -0.8935   5.0917 H              1 S1                 0.0000
     35 ****        -0.1955  -0.9079   3.9138 H              1 S1                 0.0000
     36 ****         1.0752   0.3077   3.8038 H              1 S1                 0.0000
     37 ****         0.8803  -0.5829   1.5328 H              1 S1                 0.0000
     38 ****         0.5121  -0.9536  -0.4641 H              1 S1                 0.0000
     39 ****         0.7662  -3.7147  -1.4750 H              1 S1                 0.0000
     40 ****        -0.8327  -3.1276  -3.0181 H              1 S1                 0.0000
     41 ****        -1.2784  -1.9254  -1.8179 H              1 S1                 0.0000
     42 ****        -0.7058  -1.0853  -4.2984 H              1 S1                 0.0000
     43 ****         0.0352  -0.2225  -2.9534 H              1 S1                 0.0000
     44 ****         1.2965  -2.3207  -4.7180 H              1 S1                 0.0000
     45 ****         1.9783  -0.7824  -4.2222 H              1 S1                 0.0000
     46 ****         2.3657  -3.3127  -3.0250 H              1 S1                 0.0000
     47 ****         2.9052  -0.6038  -1.7213 H              1 S1                 0.0000
     48 ****         3.9729  -1.4685  -2.8187 H              1 S1                 0.0000
     49 ****         3.6233  -2.1428  -1.2361 H              1 S1                 0.0000
     50 ****         4.8290  -1.0910   7.6279 LP             1 S1                 0.0000
     51 ****         2.1446  -3.7815   1.7656 LP             1 S1                 0.0000
     52 ****         1.8456  -4.1186   0.0932 LP             1 S1                 0.0000
@<TRIPOS>BOND
    1    1    2 1     
    2    1   22 1     
    3    1   23 1     
    4    1   24 1     
    5    2    8 1     
    6    2    3 2     
    7    3    4 1     
    8    4    5 1     
    9    4    6 1     
   10    5   25 1     
   11    5   26 1     
   12    5   27 1     
   13    6    7 1     
   14    6    8 2     
   15    7   28 1     
   16    7   29 1     
   17    7   30 1     
   18    8    9 1     
   19    9   10 1     
   20    9   31 1     
   21    9   32 1     
   22   10   11 1     
   23   10   12 1     
   24   10   33 1     
   25   11   34 1     
   26   11   35 1     
   27   11   36 1     
   28   12   13 am    
   29   12   37 1     
   30   13   14 2     
   31   13   15 am    
   32   15   16 1     
   33   15   38 1     
   34   16   20 1     
   35   16   17 1     
   36   16   39 1     
   37   17   18 1     
   38   17   40 1     
   39   17   41 1     
   40   18   19 1     
   41   18   42 1     
   42   18   43 1     
   43   19   20 1     
   44   19   44 1     
   45   19   45 1     
   46   20   21 1     
   47   20   46 1     
   48   21   47 1     
   49   21   48 1     
   50   21   49 1     
   51    3   50 1     
   52   14   51 1     
   53   14   52 1     
@<TRIPOS>SUBSTRUCTURE
      1 S1             1
@<TRIPOS>SET
LONE_PAIRS      STATIC     ATOMS    <user>   **** ""
3 50 51 52
DONOR_HYDROGENS      STATIC     ATOMS    <user>   **** ""
2 37 38
ATOM$BLUE        STATIC     ATOMS    COLORGROUP SYSTEM
3 50 51 52
ATOM$RED        STATIC     ATOMS    COLORGROUP SYSTEM
2 37 38
