AV-unprocessed.smi:197|AV-procd|sdf|1550|dock7
  -GOLD-   2262019413D 1   1.00000     0.00000
 Structure written by MMmdl.
 54 57  0  0  0  0  0  0  0  0  1 V2000
  152.0627  144.6796  158.3892 C   0  0  0  0  0  0  0  0  0  0  0  0
  151.1890  143.5765  158.5799 O   0  0  0  0  0  0  0  0  0  0  0  0
  151.5873  142.3855  157.9114 C   0  0  0  0  0  0  0  0  0  0  0  0
  150.4363  141.3687  157.7962 C   0  0  0  0  0  0  0  0  0  0  0  0
  150.2677  140.7696  156.3741 C   0  0  2  0  0  0  0  0  0  0  0  0
  149.9029  141.8685  155.3489 C   0  0  0  0  0  0  0  0  0  0  0  0
  149.7324  141.3042  154.0535 O   0  0  0  0  0  0  0  0  0  0  0  0
  148.6742  140.3558  154.0237 C   0  0  0  0  0  0  0  0  0  0  0  0
  149.0115  139.2015  154.9765 C   0  0  0  0  0  0  0  0  0  0  0  0
  149.2509  139.7105  156.3221 N   0  0  0  0  0  0  0  0  0  0  0  0
  149.4135  138.6926  157.1972 C   0  0  0  0  0  0  0  0  0  0  0  0
  150.6832  138.3957  157.5673 N   0  0  0  0  0  0  0  0  0  0  0  0
  150.9150  137.3705  158.3928 C   0  0  0  0  0  0  0  0  0  0  0  0
  150.0390  136.5293  158.9467 N   0  0  0  0  0  0  0  0  0  0  0  0
  148.7597  136.8341  158.5844 C   0  0  0  0  0  0  0  0  0  0  0  0
  148.3579  137.8996  157.7314 C   0  0  0  0  0  0  0  0  0  0  0  0
  146.9738  137.9099  157.6065 N   0  0  0  0  0  0  0  0  0  0  0  0
  146.5812  136.8975  158.3290 C   0  0  0  0  0  0  0  0  0  0  0  0
  147.5896  136.1852  158.9382 N   0  0  0  0  0  0  0  0  0  0  0  0
  147.4412  135.0054  159.7762 C   0  0  0  0  0  0  0  0  0  0  0  0
  146.6559  135.2791  161.0866 C   0  0  2  0  0  0  0  0  0  0  0  0
  145.3231  135.6149  160.7383 O   0  0  0  0  0  0  0  0  0  0  0  0
  147.2243  136.4327  161.9099 C   0  0  0  0  0  0  0  0  0  0  0  0
  146.8409  136.0606  163.3336 C   0  0  0  0  0  0  0  0  0  0  0  0
  147.0507  134.6601  163.3476 O   0  0  0  0  0  0  0  0  0  0  0  0
  146.5963  134.1120  162.1128 C   0  0  2  0  0  0  0  0  0  0  0  0
  147.4565  132.8757  161.8077 C   0  0  0  0  0  0  0  0  0  0  0  0
  151.7056  145.5279  158.9731 H   0  0  0  0  0  0  0  0  0  0  0  0
  152.1040  144.9965  157.3477 H   0  0  0  0  0  0  0  0  0  0  0  0
  153.0741  144.4456  158.7233 H   0  0  0  0  0  0  0  0  0  0  0  0
  151.9852  142.6237  156.9240 H   0  0  0  0  0  0  0  0  0  0  0  0
  152.4150  141.9482  158.4684 H   0  0  0  0  0  0  0  0  0  0  0  0
  150.6091  140.5908  158.5379 H   0  0  0  0  0  0  0  0  0  0  0  0
  149.5027  141.8429  158.1004 H   0  0  0  0  0  0  0  0  0  0  0  0
  151.2172  140.3344  156.0633 H   0  0  0  0  0  0  0  0  0  0  0  0
  148.9935  142.3944  155.6449 H   0  0  0  0  0  0  0  0  0  0  0  0
  150.6937  142.6149  155.2847 H   0  0  0  0  0  0  0  0  0  0  0  0
  147.7317  140.8307  154.3016 H   0  0  0  0  0  0  0  0  0  0  0  0
  148.5580  139.9829  153.0060 H   0  0  0  0  0  0  0  0  0  0  0  0
  148.1913  138.4822  154.9891 H   0  0  0  0  0  0  0  0  0  0  0  0
  149.8973  138.6747  154.6184 H   0  0  0  0  0  0  0  0  0  0  0  0
  151.9517  137.1942  158.6388 H   0  0  0  0  0  0  0  0  0  0  0  0
  145.5380  136.6347  158.4283 H   0  0  0  0  0  0  0  0  0  0  0  0
  146.9458  134.2307  159.1895 H   0  0  0  0  0  0  0  0  0  0  0  0
  148.4414  134.6336  159.9991 H   0  0  0  0  0  0  0  0  0  0  0  0
  145.3363  136.4186  160.2414 H   0  0  0  0  0  0  0  0  0  0  0  0
  148.3124  136.4472  161.8345 H   0  0  0  0  0  0  0  0  0  0  0  0
  146.8574  137.4147  161.6084 H   0  0  0  0  0  0  0  0  0  0  0  0
  147.4499  136.5673  164.0825 H   0  0  0  0  0  0  0  0  0  0  0  0
  145.7908  136.2811  163.5311 H   0  0  0  0  0  0  0  0  0  0  0  0
  145.5649  133.7852  162.2577 H   0  0  0  0  0  0  0  0  0  0  0  0
  147.1445  132.3919  160.8820 H   0  0  0  0  0  0  0  0  0  0  0  0
  147.3649  132.1389  162.6060 H   0  0  0  0  0  0  0  0  0  0  0  0
  148.5124  133.1325  161.7218 H   0  0  0  0  0  0  0  0  0  0  0  0
  1  2  1  0  0  0  0
  1 28  1  0  0  0  0
  1 29  1  0  0  0  0
  1 30  1  0  0  0  0
  2  3  1  0  0  0  0
  3  4  1  0  0  0  0
  3 31  1  0  0  0  0
  3 32  1  0  0  0  0
  4  5  1  0  0  0  0
  4 33  1  0  0  0  0
  4 34  1  0  0  0  0
  5 10  1  0  0  0  0
  5  6  1  0  0  0  0
  5 35  1  0  0  0  0
  6  7  1  0  0  0  0
  6 36  1  0  0  0  0
  6 37  1  0  0  0  0
  7  8  1  0  0  0  0
  8  9  1  0  0  0  0
  8 38  1  0  0  0  0
  8 39  1  0  0  0  0
  9 10  1  0  0  0  0
  9 40  1  0  0  0  0
  9 41  1  0  0  0  0
 10 11  1  0  0  0  0
 11 16  1  0  0  0  0
 11 12  2  0  0  0  0
 12 13  1  0  0  0  0
 13 14  2  0  0  0  0
 13 42  1  0  0  0  0
 14 15  1  0  0  0  0
 15 19  1  0  0  0  0
 15 16  2  0  0  0  0
 16 17  1  0  0  0  0
 17 18  2  0  0  0  0
 18 19  1  0  0  0  0
 18 43  1  0  0  0  0
 19 20  1  0  0  0  0
 20 21  1  0  0  0  0
 20 44  1  0  0  0  0
 20 45  1  0  0  0  0
 21 26  1  0  0  0  0
 21 22  1  0  0  0  0
 21 23  1  0  0  0  0
 22 46  1  0  0  0  0
 23 24  1  0  0  0  0
 23 47  1  0  0  0  0
 23 48  1  0  0  0  0
 24 25  1  0  0  0  0
 24 49  1  0  0  0  0
 24 50  1  0  0  0  0
 25 26  1  0  0  0  0
 26 27  1  0  0  0  0
 26 51  1  0  0  0  0
 27 52  1  0  0  0  0
 27 53  1  0  0  0  0
 27 54  1  0  0  0  0
M  END
> <s_m_source_file>
AV-unprocessed.smi

> <i_m_source_file_index>
197

> <i_lp_mmshare_version>
43012

> <i_f3d_flags>
0

> <s_epik_input>
W0NIM11PW0NIMl1bQ0gyXVtDQEBIXTFbQ0gyXU9bQ0gyXVtDSDJdTjFjKG5bY0hdbjIpYyhjMjMpbltjSF1uM1tDSDJdW0NAQF00KFtPSF0pW0NIMl1bQ0gyXU9bQ0BIXTRbQ0gzXQ==

> <s_epik_cmdline>
J2VwaWtfcHl0aG9uJywgJy1waCcsICc3LjAnLCAnLXRuJywgJzgnLCAnLW1hJywgJzIwMCcsICctbWV0YWxfYmluZGluZycsICctaW1hZScsICc8aW5maWxlLm1hZT4nLCAnLW9tYWUnLCAnPG91dGZpbGUubWFlPic=

> <r_lp_tautomer_probability>
1

> <r_epik_Ionization_Penalty>
0.000106218

> <r_epik_Ionization_Penalty_Charging>
0

> <r_epik_Ionization_Penalty_Neutral>
0.000106218

> <r_epik_State_Penalty>
-0

> <r_epik_Charging_Adjusted_Penalty>
0

> <i_epik_Tot_Q>
0

> <i_epik_Tot_abs_Q>
0

> <r_epik_Metal_State_Penalty>
-0

> <b_epik_Metal_Only>
0

> <s_lp_Force_Field>
OPLS_2005

> <r_lp_Energy>
42.452

> <b_lp_Chiralities_Consistent>
1

> <s_lp_Variant>
AV-unprocessed.smi:197-7

> <Gold.Version>
5.8.1

> <Gold.Id.Protein>
6NUR|6NUR_protein|mol2

> <Gold.PLP.Fitness>
44.8340

> <Gold.PLP.PLP>
-40.7356

> <Gold.PLP.part.hbond>
-4.7210

> <Gold.PLP.part.metal>
0.0000

> <Gold.PLP.part.buried>
-3.4763

> <Gold.PLP.part.nonpolar>
-32.3573

> <Gold.PLP.part.repulsive>
0.3220

> <Gold.PLP.ligand.clash>
0.0000

> <Gold.PLP.ligand.torsion>
1.0708

> <Gold.PLP.Chemscore.Hbond>
1.9981

> <Gold.PLP.Chemscore.CHOScore>
0.0000

> <Gold.PLP.Chemscore.Metal>
0.0000

> <Gold.Chemscore.Hbonds>
donor molecule, donor type, donor heavy atom, donor atom, acceptor molecule, acceptor atom, score
      P1  H  6896  6908       L1    14  1.00
      P1  H  7989  7998       L1     7  0.32
      P1  H  8011  8017       L1     7  0.69

> <Gold.PLP.Chemscore.Internal.Correction>
0.2455

> <Gold.Rescore>
     Score         DG    S(hbond)    S(metal)    S(lipo)     H(rot)  DE(clash)    DE(int)     intcor
     11.36     -14.94       1.53        0.00      99.35       2.84       1.19       2.39       ----

> <Gold.Chemscore.Fitness>
11.3581

> <Gold.Chemscore.DG>
-14.9401

> <Gold.Chemscore.ZeroCoef>
-5.4800

> <Gold.Chemscore.Hbond>
1.5256

> <Gold.Chemscore.Metal>
0.0000

> <Gold.Chemscore.Lipo>
99.3528

> <Gold.Chemscore.Internal_Hbond>
0.0000

> <Gold.Chemscore.DEClash>
1.1941

> <Gold.Chemscore.DEInternal>
2.3879

> <Gold.Chemscore.Rot>
2.8358

> <Gold.Chemscore.Internal.Correction>
   9.000000E+99

> <Gold.Chemscore.Hbonds>
donor molecule, donor type, donor heavy atom, donor atom, acceptor molecule, acceptor atom, score
      P1  H  6896  6908       L1    14  0.62
      P1  H  7989  7998       L1     7  0.12
      P1  H  8011  8017       L1     7  0.53

> <Gold.Chemscore.Hbond.Weighted>
-5.0954

> <Gold.Chemscore.Metal.Weighted>
-0.0000

> <Gold.Chemscore.Lipo.Weighted>
-11.6243

> <Gold.Chemscore.Internal_Hbond.Weighted>
0.0000

> <Gold.Chemscore.DEClash.Weighted>
1.1941

> <Gold.Chemscore.DEInternal.Weighted>
2.3879

> <Gold.Chemscore.Rot.Weighted>
7.2596

> <Gold.Chemscore.Internal.Correction.Weighted>
   9.000000E+99

> <Gold.Protein.RotatedTorsions>
[ 6907 6896 6895 6894 ] final -150.99 input  -60.11 | X-H torsion
[ 7974 7965 7964 7962 ] final  -21.98 input  175.53 | X-H torsion
[ 8008 7997 7996 7995 ] final   42.71 input   59.86 | X-H torsion
[ 10167 10162 10161 10158 ] final  -47.68 input  -65.29 | X-H torsion
[ 10718 10713 10712 10709 ] final  165.41 input   66.30 | X-H torsion
[ 10763 10752 10751 10750 ] final    7.49 input  -60.55 | X-H torsion
[ 11005 11000 10999 10996 ] final  119.40 input  -57.11 | X-H torsion

> <Gold.Protein.ActiveResidues>
 VAL166  LYS551  ARG553  GLY616  TRP617  ASP618  TYR619  PRO620  LYS621  CYS622 
 ASP623  PHE694  ASN695  SER759  ASP760  ASP761  ALA762  ILE779  LEU786  VAL792 
 PHE793  MET794  SER795  GLU796  ALA797  LYS798  CYS799  TRP800  GLU811  SER814 

> <Gold.Protein.RotatedAtoms>
  151.2066  133.4580  159.2597 H   0  0  0  0  0  0  0  0  0  0  0  0  # atno 6907 bound_to 6896
  151.1017  134.9976  159.8462 H   0  0  0  0  0  0  0  0  0  0  0  0  # atno 6908 bound_to 6896
  152.5444  134.1992  159.8758 H   0  0  0  0  0  0  0  0  0  0  0  0  # atno 6909 bound_to 6896
  146.1702  140.4416  142.8535 H   0  0  0  0  0  0  0  0  0  0  0  0  # atno 7974 bound_to 7965
  155.2907  140.3378  155.4252 H   0  0  0  0  0  0  0  0  0  0  0  0  # atno 8008 bound_to 7997
  156.2047  140.1746  156.7865 H   0  0  0  0  0  0  0  0  0  0  0  0  # atno 8009 bound_to 7997
  154.5605  140.0688  156.8796 H   0  0  0  0  0  0  0  0  0  0  0  0  # atno 8010 bound_to 7997
  140.6764  143.2773  151.3962 H   0  0  0  0  0  0  0  0  0  0  0  0  # atno 10167 bound_to 10162
  157.0805  131.0391  151.2577 H   0  0  0  0  0  0  0  0  0  0  0  0  # atno 10718 bound_to 10713
  153.2357  135.6898  153.7839 H   0  0  0  0  0  0  0  0  0  0  0  0  # atno 10763 bound_to 10752
  153.6988  135.3301  155.3220 H   0  0  0  0  0  0  0  0  0  0  0  0  # atno 10764 bound_to 10752
  154.8333  135.4563  154.1259 H   0  0  0  0  0  0  0  0  0  0  0  0  # atno 10765 bound_to 10752
  139.9145  134.9628  156.7649 H   0  0  0  0  0  0  0  0  0  0  0  0  # atno 11005 bound_to 11000
  144.8152  140.6455  143.6389 LP  0  0  0  0  0  0  0  0  0  0  0  0  # atno 17320 bound_to 7965
  145.4360  139.1542  143.3996 LP  0  0  0  0  0  0  0  0  0  0  0  0  # atno 17321 bound_to 7965
  139.6059  144.1198  152.2248 LP  0  0  0  0  0  0  0  0  0  0  0  0  # atno 17342 bound_to 10162
  140.0597  144.5867  150.7273 LP  0  0  0  0  0  0  0  0  0  0  0  0  # atno 17343 bound_to 10162
  157.4804  130.7762  149.7408 LP  0  0  0  0  0  0  0  0  0  0  0  0  # atno 17370 bound_to 10713
  155.9925  130.3930  150.2940 LP  0  0  0  0  0  0  0  0  0  0  0  0  # atno 17371 bound_to 10713
  140.6667  133.9596  155.7834 LP  0  0  0  0  0  0  0  0  0  0  0  0  # atno 17394 bound_to 11000
  141.0606  134.0352  157.3664 LP  0  0  0  0  0  0  0  0  0  0  0  0  # atno 17395 bound_to 11000

$$$$
