AV-unprocessed.smi:50|AV-procd|sdf|493|dock3
  -GOLD-   2262016353D 1   1.00000     0.00000
 Structure written by MMmdl.
 43 44  0  0  0  0  0  0  0  0  1 V2000
  146.6741  139.6724  152.7437 C   0  0  0  0  0  0  0  0  0  0  0  0
  147.5884  140.1864  153.8696 C   0  0  0  0  0  0  0  0  0  0  0  0
  147.6741  141.7251  153.8294 C   0  0  0  0  0  0  0  0  0  0  0  0
  148.9620  139.4590  153.8769 C   0  0  2  0  0  0  0  0  0  0  0  0
  148.7831  138.0079  153.9460 N   0  0  0  0  0  0  0  0  0  0  0  0
  149.9529  139.9895  154.9314 C   0  0  0  0  0  0  0  0  0  0  0  0
  151.1575  139.7346  154.9172 O   0  0  0  0  0  0  0  0  0  0  0  0
  149.3380  140.7678  155.8424 O   0  0  0  0  0  0  0  0  0  0  0  0
  149.9483  140.9933  157.1019 C   0  0  0  0  0  0  0  0  0  0  0  0
  151.3169  141.6454  156.8897 C   0  0  0  0  0  0  0  0  0  0  0  0
  151.9437  141.8098  158.1511 O   0  0  0  0  0  0  0  0  0  0  0  0
  152.7041  140.7114  158.5307 C   0  0  0  0  0  0  0  0  0  0  0  0
  153.1264  140.9248  159.9010 N   0  0  0  0  0  0  0  0  0  0  0  0
  153.8883  140.1097  160.7004 C   0  0  0  0  0  0  0  0  0  0  0  0
  154.0934  140.5845  161.8976 N   0  0  0  0  0  0  0  0  0  0  0  0
  153.4186  141.8020  161.9018 C   0  0  0  0  0  0  0  0  0  0  0  0
  153.2805  142.7799  162.9436 C   0  0  0  0  0  0  0  0  0  0  0  0
  153.7413  142.7498  164.0826 O   0  0  0  0  0  0  0  0  0  0  0  0
  152.5108  143.8779  162.5382 N   0  0  0  0  0  0  0  0  0  0  0  0
  151.9428  144.0109  161.2731 C   0  0  0  0  0  0  0  0  0  0  0  0
  151.2331  145.1240  161.0460 N   0  0  0  0  0  0  0  0  0  0  0  0
  152.0710  143.1101  160.3144 N   0  0  0  0  0  0  0  0  0  0  0  0
  152.8192  142.0218  160.6767 C   0  0  0  0  0  0  0  0  0  0  0  0
  149.4139  139.6523  152.9035 H   0  0  0  0  0  0  0  0  0  0  0  0
  152.3673  144.6102  163.2180 H   0  0  0  0  0  0  0  0  0  0  0  0
  147.0678  139.9232  151.7583 H   0  0  0  0  0  0  0  0  0  0  0  0
  145.6774  140.1079  152.8195 H   0  0  0  0  0  0  0  0  0  0  0  0
  146.5618  138.5890  152.7915 H   0  0  0  0  0  0  0  0  0  0  0  0
  147.0907  139.9258  154.8051 H   0  0  0  0  0  0  0  0  0  0  0  0
  148.0542  142.0875  152.8740 H   0  0  0  0  0  0  0  0  0  0  0  0
  148.3231  142.1095  154.6164 H   0  0  0  0  0  0  0  0  0  0  0  0
  146.6897  142.1708  153.9740 H   0  0  0  0  0  0  0  0  0  0  0  0
  148.8370  137.5836  153.0311 H   0  0  0  0  0  0  0  0  0  0  0  0
  149.5048  137.5735  154.5032 H   0  0  0  0  0  0  0  0  0  0  0  0
  149.3154  141.6390  157.7123 H   0  0  0  0  0  0  0  0  0  0  0  0
  150.0613  140.0455  157.6301 H   0  0  0  0  0  0  0  0  0  0  0  0
  151.9335  141.0180  156.2440 H   0  0  0  0  0  0  0  0  0  0  0  0
  151.1971  142.6122  156.3983 H   0  0  0  0  0  0  0  0  0  0  0  0
  152.1136  139.7942  158.4896 H   0  0  0  0  0  0  0  0  0  0  0  0
  153.5836  140.6030  157.8934 H   0  0  0  0  0  0  0  0  0  0  0  0
  154.2830  139.1589  160.3725 H   0  0  0  0  0  0  0  0  0  0  0  0
  151.1340  145.8131  161.7776 H   0  0  0  0  0  0  0  0  0  0  0  0
  150.7976  145.2762  160.1478 H   0  0  0  0  0  0  0  0  0  0  0  0
  1  2  1  0  0  0  0
  1 26  1  0  0  0  0
  1 27  1  0  0  0  0
  1 28  1  0  0  0  0
  2  3  1  0  0  0  0
  2  4  1  0  0  0  0
  2 29  1  0  0  0  0
  3 30  1  0  0  0  0
  3 31  1  0  0  0  0
  3 32  1  0  0  0  0
  4 24  1  0  0  0  0
  4  5  1  0  0  0  0
  4  6  1  0  0  0  0
  5 33  1  0  0  0  0
  5 34  1  0  0  0  0
  6  7  2  0  0  0  0
  6  8  1  0  0  0  0
  8  9  1  0  0  0  0
  9 10  1  0  0  0  0
  9 35  1  0  0  0  0
  9 36  1  0  0  0  0
 10 11  1  0  0  0  0
 10 37  1  0  0  0  0
 10 38  1  0  0  0  0
 11 12  1  0  0  0  0
 12 13  1  0  0  0  0
 12 39  1  0  0  0  0
 12 40  1  0  0  0  0
 13 23  1  0  0  0  0
 13 14  1  0  0  0  0
 14 15  2  0  0  0  0
 14 41  1  0  0  0  0
 15 16  1  0  0  0  0
 16 23  2  0  0  0  0
 16 17  1  0  0  0  0
 17 18  2  0  0  0  0
 17 19  1  0  0  0  0
 19 25  1  0  0  0  0
 19 20  1  0  0  0  0
 20 21  1  0  0  0  0
 20 22  2  0  0  0  0
 21 42  1  0  0  0  0
 21 43  1  0  0  0  0
 22 23  1  0  0  0  0
M  END
> <s_m_source_file>
AV-unprocessed.smi

> <i_m_source_file_index>
50

> <i_lp_mmshare_version>
43012

> <i_f3d_flags>
0

> <s_epik_input>
W0NIM11bQ0hdKFtDSDNdKVtDQEhdKFtOSDJdKUMoPU8pT1tDSDJdW0NIMl1PW0NIMl1uKFtjSF1uMSljKGMxMiluYyhbTkgyXSlbbkhdYzI9Tw==

> <s_epik_cmdline>
J2VwaWtfcHl0aG9uJywgJy1waCcsICc3LjAnLCAnLXRuJywgJzgnLCAnLW1hJywgJzIwMCcsICctbWV0YWxfYmluZGluZycsICctaW1hZScsICc8aW5maWxlLm1hZT4nLCAnLW9tYWUnLCAnPG91dGZpbGUubWFlPic=

> <r_lp_tautomer_probability>
0.99994

> <r_epik_Ionization_Penalty>
0.704142

> <r_epik_Ionization_Penalty_Charging>
0.00148332

> <r_epik_Ionization_Penalty_Neutral>
0.702658

> <r_epik_State_Penalty>
0.725442

> <r_epik_Charging_Adjusted_Penalty>
0.726926

> <i_epik_Tot_Q>
0

> <i_epik_Tot_abs_Q>
0

> <r_epik_Metal_State_Penalty>
1.04557

> <b_epik_Metal_Only>
0

> <s_epik_Chemistry_Notes>
This compound has an ester and may undergo hydrolysis at high or low pH. This compound contains an acetal/aminal-like group ( X-CH(R)-Y where X, Y are N, S, or O) that may be acid/base labile, releasing an aldehyde.

> <s_lp_Force_Field>
OPLS_2005

> <r_lp_Energy>
11.3413

> <b_lp_Chiralities_Consistent>
1

> <s_lp_Variant>
AV-unprocessed.smi:50-3

> <Gold.Version>
5.8.1

> <Gold.Id.Protein>
6NUR|6NUR_protein|mol2

> <Gold.PLP.Fitness>
52.6203

> <Gold.PLP.PLP>
-47.6275

> <Gold.PLP.part.hbond>
-5.5331

> <Gold.PLP.part.metal>
0.0000

> <Gold.PLP.part.buried>
-7.5429

> <Gold.PLP.part.nonpolar>
-34.6273

> <Gold.PLP.part.repulsive>
0.5255

> <Gold.PLP.ligand.clash>
0.0000

> <Gold.PLP.ligand.torsion>
0.7539

> <Gold.PLP.Chemscore.Hbond>
2.0000

> <Gold.PLP.Chemscore.CHOScore>
0.0000

> <Gold.PLP.Chemscore.Metal>
0.0000

> <Gold.Chemscore.Hbonds>
donor molecule, donor type, donor heavy atom, donor atom, acceptor molecule, acceptor atom, score
      L1  H     5    33       P1  7948  1.00
      P1  H  7989  7998       L1     7  0.90

> <Gold.PLP.Chemscore.Internal.Correction>
0.5006

> <Gold.Rescore>
     Score         DG    S(hbond)    S(metal)    S(lipo)     H(rot)  DE(clash)    DE(int)     intcor
     -2.44      -4.87       1.88        0.00      44.96       4.75       1.92       5.39       ----

> <Gold.Chemscore.Fitness>
-2.4404

> <Gold.Chemscore.DG>
-4.8735

> <Gold.Chemscore.ZeroCoef>
-5.4800

> <Gold.Chemscore.Hbond>
1.8842

> <Gold.Chemscore.Metal>
0.0000

> <Gold.Chemscore.Lipo>
44.9609

> <Gold.Chemscore.Internal_Hbond>
0.0000

> <Gold.Chemscore.DEClash>
1.9223

> <Gold.Chemscore.DEInternal>
5.3916

> <Gold.Chemscore.Rot>
4.7501

> <Gold.Chemscore.Internal.Correction>
   9.000000E+99

> <Gold.Chemscore.Hbonds>
donor molecule, donor type, donor heavy atom, donor atom, acceptor molecule, acceptor atom, score
      L1  H     5    33       P1  7948  0.99
      P1  H  7989  7998       L1     7  0.18

> <Gold.Chemscore.Hbond.Weighted>
-6.2934

> <Gold.Chemscore.Metal.Weighted>
-0.0000

> <Gold.Chemscore.Lipo.Weighted>
-5.2604

> <Gold.Chemscore.Internal_Hbond.Weighted>
0.0000

> <Gold.Chemscore.DEClash.Weighted>
1.9223

> <Gold.Chemscore.DEInternal.Weighted>
5.3916

> <Gold.Chemscore.Rot.Weighted>
12.1603

> <Gold.Chemscore.Internal.Correction.Weighted>
   9.000000E+99

> <Gold.Protein.RotatedTorsions>
[ 6907 6896 6895 6894 ] final  129.34 input  -60.11 | X-H torsion
[ 7974 7965 7964 7962 ] final   53.02 input  175.53 | X-H torsion
[ 8008 7997 7996 7995 ] final  -48.64 input   59.86 | X-H torsion
[ 10167 10162 10161 10158 ] final   25.52 input  -65.29 | X-H torsion
[ 10718 10713 10712 10709 ] final -107.07 input   66.30 | X-H torsion
[ 10763 10752 10751 10750 ] final  -63.17 input  -60.55 | X-H torsion
[ 11005 11000 10999 10996 ] final   42.53 input  -57.11 | X-H torsion

> <Gold.Protein.ActiveResidues>
 VAL166  LYS551  ARG553  GLY616  TRP617  ASP618  TYR619  PRO620  LYS621  CYS622 
 ASP623  PHE694  ASN695  SER759  ASP760  ASP761  ALA762  ILE779  LEU786  VAL792 
 PHE793  MET794  SER795  GLU796  ALA797  LYS798  CYS799  TRP800  GLU811  SER814 

> <Gold.Protein.RotatedAtoms>
  152.3633  133.6324  159.6031 H   0  0  0  0  0  0  0  0  0  0  0  0  # atno 6907 bound_to 6896
  150.7616  133.9389  159.3459 H   0  0  0  0  0  0  0  0  0  0  0  0  # atno 6908 bound_to 6896
  151.7223  135.0893  160.0337 H   0  0  0  0  0  0  0  0  0  0  0  0  # atno 6909 bound_to 6896
  145.9754  139.4189  143.0165 H   0  0  0  0  0  0  0  0  0  0  0  0  # atno 7974 bound_to 7965
  154.4032  140.1316  156.4373 H   0  0  0  0  0  0  0  0  0  0  0  0  # atno 8008 bound_to 7997
  155.7493  140.3488  155.5122 H   0  0  0  0  0  0  0  0  0  0  0  0  # atno 8009 bound_to 7997
  155.8965  140.1012  157.1371 H   0  0  0  0  0  0  0  0  0  0  0  0  # atno 8010 bound_to 7997
  140.5099  144.0178  150.6368 H   0  0  0  0  0  0  0  0  0  0  0  0  # atno 10167 bound_to 10162
  156.0419  130.5644  150.7769 H   0  0  0  0  0  0  0  0  0  0  0  0  # atno 10718 bound_to 10713
  154.3109  135.6215  153.5465 H   0  0  0  0  0  0  0  0  0  0  0  0  # atno 10763 bound_to 10752
  152.9829  135.5701  154.5178 H   0  0  0  0  0  0  0  0  0  0  0  0  # atno 10764 bound_to 10752
  154.4827  135.2864  155.1534 H   0  0  0  0  0  0  0  0  0  0  0  0  # atno 10765 bound_to 10752
  140.1730  134.4198  155.8245 H   0  0  0  0  0  0  0  0  0  0  0  0  # atno 11005 bound_to 11000
  145.7846  140.9841  143.1081 LP  0  0  0  0  0  0  0  0  0  0  0  0  # atno 17320 bound_to 7965
  144.6847  139.9607  143.7480 LP  0  0  0  0  0  0  0  0  0  0  0  0  # atno 17321 bound_to 7965
  140.3497  143.2970  152.0500 LP  0  0  0  0  0  0  0  0  0  0  0  0  # atno 17342 bound_to 10162
  139.4893  144.6382  151.6931 LP  0  0  0  0  0  0  0  0  0  0  0  0  # atno 17343 bound_to 10162
  157.5248  131.0933  151.0032 LP  0  0  0  0  0  0  0  0  0  0  0  0  # atno 17370 bound_to 10713
  157.0354  130.5728  149.5349 LP  0  0  0  0  0  0  0  0  0  0  0  0  # atno 17371 bound_to 10713
  141.2218  133.6965  156.7797 LP  0  0  0  0  0  0  0  0  0  0  0  0  # atno 17394 bound_to 11000
  140.2355  134.8653  157.3520 LP  0  0  0  0  0  0  0  0  0  0  0  0  # atno 17395 bound_to 11000

$$$$
