AV-unprocessed.smi:1302|AV-procd|sdf|5425|dock8
  -GOLD-   22720 4583D 1   1.00000     0.00000
 Structure written by MMmdl.
 43 44  0  0  0  0  0  0  0  0  1 V2000
  146.6561  132.4702  152.5064 C   0  0  0  0  0  0  0  0  0  0  0  0
  145.2256  131.9845  152.2245 C   0  0  0  0  0  0  0  0  0  0  0  0
  145.0512  131.5543  150.7621 C   0  0  0  0  0  0  0  0  0  0  0  0
  144.2610  133.0336  152.5407 N   0  0  0  0  0  0  0  0  0  0  0  0
  144.3165  134.3021  152.1012 C   0  0  0  0  0  0  0  0  0  0  0  0
  145.2221  134.7381  151.3899 O   0  0  0  0  0  0  0  0  0  0  0  0
  143.2197  135.2047  152.5871 C   0  0  0  0  0  0  0  0  0  0  0  0
  143.3895  136.6048  152.5922 C   0  0  0  0  0  0  0  0  0  0  0  0
  142.3314  137.4233  153.0315 C   0  0  0  0  0  0  0  0  0  0  0  0
  141.1209  136.8225  153.4511 C   0  0  0  0  0  0  0  0  0  0  0  0
  140.0480  137.6239  153.8985 N   0  0  0  0  0  0  0  0  0  0  0  0
  138.7751  136.9314  154.0803 C   0  0  0  0  0  0  0  0  0  0  0  0
  137.7865  137.8184  154.8606 C   0  0  2  0  0  0  0  0  0  0  0  0
  136.3981  137.1783  154.9634 C   0  0  0  0  0  0  0  0  0  0  0  0
  137.6524  139.0709  154.1948 O   0  0  0  0  0  0  0  0  0  0  0  0
  138.8833  139.7852  154.1255 C   0  0  2  0  0  0  0  0  0  0  0  0
  138.6126  141.1494  153.4829 C   0  0  0  0  0  0  0  0  0  0  0  0
  139.9012  138.9577  153.3195 C   0  0  0  0  0  0  0  0  0  0  0  0
  140.9530  135.4773  153.4278 N   0  0  0  0  0  0  0  0  0  0  0  0
  141.9702  134.6967  153.0066 C   0  0  0  0  0  0  0  0  0  0  0  0
  147.3844  131.6907  152.2819 H   0  0  0  0  0  0  0  0  0  0  0  0
  146.7821  132.7439  153.5545 H   0  0  0  0  0  0  0  0  0  0  0  0
  146.9057  133.3429  151.9017 H   0  0  0  0  0  0  0  0  0  0  0  0
  145.0252  131.1138  152.8514 H   0  0  0  0  0  0  0  0  0  0  0  0
  145.7416  130.7502  150.5058 H   0  0  0  0  0  0  0  0  0  0  0  0
  145.2375  132.3830  150.0780 H   0  0  0  0  0  0  0  0  0  0  0  0
  144.0398  131.1900  150.5777 H   0  0  0  0  0  0  0  0  0  0  0  0
  143.4912  132.7749  153.1408 H   0  0  0  0  0  0  0  0  0  0  0  0
  144.3163  137.0540  152.2654 H   0  0  0  0  0  0  0  0  0  0  0  0
  142.4553  138.4959  153.0262 H   0  0  0  0  0  0  0  0  0  0  0  0
  138.3674  136.6880  153.0981 H   0  0  0  0  0  0  0  0  0  0  0  0
  138.9020  135.9893  154.6118 H   0  0  0  0  0  0  0  0  0  0  0  0
  138.1648  137.9889  155.8702 H   0  0  0  0  0  0  0  0  0  0  0  0
  136.4451  136.2199  155.4807 H   0  0  0  0  0  0  0  0  0  0  0  0
  135.9692  137.0056  153.9759 H   0  0  0  0  0  0  0  0  0  0  0  0
  135.7128  137.8213  155.5162 H   0  0  0  0  0  0  0  0  0  0  0  0
  139.2606  139.9478  155.1366 H   0  0  0  0  0  0  0  0  0  0  0  0
  139.5270  141.7394  153.4147 H   0  0  0  0  0  0  0  0  0  0  0  0
  137.8921  141.7199  154.0693 H   0  0  0  0  0  0  0  0  0  0  0  0
  138.2094  141.0382  152.4759 H   0  0  0  0  0  0  0  0  0  0  0  0
  140.8627  139.4730  153.3147 H   0  0  0  0  0  0  0  0  0  0  0  0
  139.5745  138.8646  152.2828 H   0  0  0  0  0  0  0  0  0  0  0  0
  141.7687  133.6353  153.0034 H   0  0  0  0  0  0  0  0  0  0  0  0
  1  2  1  0  0  0  0
  1 21  1  0  0  0  0
  1 22  1  0  0  0  0
  1 23  1  0  0  0  0
  2  3  1  0  0  0  0
  2  4  1  0  0  0  0
  2 24  1  0  0  0  0
  3 25  1  0  0  0  0
  3 26  1  0  0  0  0
  3 27  1  0  0  0  0
  4  5  1  0  0  0  0
  4 28  1  0  0  0  0
  5  6  2  0  0  0  0
  5  7  1  0  0  0  0
  7 20  1  0  0  0  0
  7  8  2  0  0  0  0
  8  9  1  0  0  0  0
  8 29  1  0  0  0  0
  9 10  2  0  0  0  0
  9 30  1  0  0  0  0
 10 11  1  0  0  0  0
 10 19  1  0  0  0  0
 11 18  1  0  0  0  0
 11 12  1  0  0  0  0
 12 13  1  0  0  0  0
 12 31  1  0  0  0  0
 12 32  1  0  0  0  0
 13 14  1  0  0  0  0
 13 15  1  0  0  0  0
 13 33  1  0  0  0  0
 14 34  1  0  0  0  0
 14 35  1  0  0  0  0
 14 36  1  0  0  0  0
 15 16  1  0  0  0  0
 16 17  1  0  0  0  0
 16 18  1  0  0  0  0
 16 37  1  0  0  0  0
 17 38  1  0  0  0  0
 17 39  1  0  0  0  0
 17 40  1  0  0  0  0
 18 41  1  0  0  0  0
 18 42  1  0  0  0  0
 19 20  2  0  0  0  0
 20 43  1  0  0  0  0
M  END
> <s_m_source_file>
AV-unprocessed.smi

> <i_m_source_file_index>
1302

> <i_lp_mmshare_version>
43012

> <i_f3d_flags>
0

> <s_epik_input>
W0NIM11bQ0hdKFtDSDNdKVtOSF1DKD1PKWMxW2NIXVtjSF1jKG5bY0hdMSlOMltDSDJdW0NAQEhdKFtDSDNdKU9bQ0BASF0oW0NIM10pW0NIMl0y

> <s_epik_cmdline>
J2VwaWtfcHl0aG9uJywgJy1waCcsICc3LjAnLCAnLXRuJywgJzgnLCAnLW1hJywgJzIwMCcsICctbWV0YWxfYmluZGluZycsICctaW1hZScsICc8aW5maWxlLm1hZT4nLCAnLW9tYWUnLCAnPG91dGZpbGUubWFlPic=

> <r_lp_tautomer_probability>
1

> <r_epik_Ionization_Penalty>
2.23089e-05

> <r_epik_Ionization_Penalty_Charging>
0

> <r_epik_Ionization_Penalty_Neutral>
2.23089e-05

> <r_epik_State_Penalty>
-0

> <r_epik_Charging_Adjusted_Penalty>
0

> <i_epik_Tot_Q>
0

> <i_epik_Tot_abs_Q>
0

> <r_epik_Metal_State_Penalty>
-0

> <b_epik_Metal_Only>
0

> <s_lp_Force_Field>
OPLS_2005

> <r_lp_Energy>
16.9164

> <b_lp_Chiralities_Consistent>
1

> <s_lp_Variant>
AV-unprocessed.smi:1302-1

> <Gold.Version>
5.8.1

> <Gold.Id.Protein>
6NUR|6NUR_protein|mol2

> <Gold.PLP.Fitness>
39.2749

> <Gold.PLP.PLP>
-34.5594

> <Gold.PLP.part.hbond>
-1.0000

> <Gold.PLP.part.metal>
0.0000

> <Gold.PLP.part.buried>
-6.3838

> <Gold.PLP.part.nonpolar>
-28.1132

> <Gold.PLP.part.repulsive>
0.4340

> <Gold.PLP.ligand.clash>
0.0000

> <Gold.PLP.ligand.torsion>
0.7791

> <Gold.PLP.Chemscore.Hbond>
0.9913

> <Gold.PLP.Chemscore.CHOScore>
0.9870

> <Gold.PLP.Chemscore.Metal>
0.0000

> <Gold.Chemscore.Hbonds>
donor molecule, donor type, donor heavy atom, donor atom, acceptor molecule, acceptor atom, score
      L1  H     4    28       P1 10957  0.86
      L1  C    20    43       P1 10957  0.54

> <Gold.PLP.Chemscore.Internal.Correction>
0.3390

> <Gold.Rescore>
     Score         DG    S(hbond)    S(metal)    S(lipo)     H(rot)  DE(clash)    DE(int)     intcor
     13.10     -14.69       1.44        0.00      62.79       1.15       0.00       1.60       ----

> <Gold.Chemscore.Fitness>
13.0964

> <Gold.Chemscore.DG>
-14.6923

> <Gold.Chemscore.ZeroCoef>
-5.4800

> <Gold.Chemscore.Hbond>
1.4405

> <Gold.Chemscore.Metal>
0.0000

> <Gold.Chemscore.Lipo>
62.7947

> <Gold.Chemscore.Internal_Hbond>
0.0000

> <Gold.Chemscore.DEClash>
0.0000

> <Gold.Chemscore.DEInternal>
1.5959

> <Gold.Chemscore.Rot>
1.1508

> <Gold.Chemscore.Internal.Correction>
   9.000000E+99

> <Gold.Chemscore.Hbonds>
donor molecule, donor type, donor heavy atom, donor atom, acceptor molecule, acceptor atom, score
      L1  H     4    28       P1 10957  0.32

> <Gold.Chemscore.Hbond.Weighted>
-4.8114

> <Gold.Chemscore.Metal.Weighted>
-0.0000

> <Gold.Chemscore.Lipo.Weighted>
-7.3470

> <Gold.Chemscore.Internal_Hbond.Weighted>
0.0000

> <Gold.Chemscore.DEClash.Weighted>
0.0000

> <Gold.Chemscore.DEInternal.Weighted>
1.5959

> <Gold.Chemscore.Rot.Weighted>
2.9461

> <Gold.Chemscore.Internal.Correction.Weighted>
   9.000000E+99

> <Gold.Protein.RotatedTorsions>
[ 6907 6896 6895 6894 ] final -134.64 input  -60.11 | X-H torsion
[ 7974 7965 7964 7962 ] final    2.25 input  175.53 | X-H torsion
[ 8008 7997 7996 7995 ] final   45.92 input   59.86 | X-H torsion
[ 10167 10162 10161 10158 ] final  161.99 input  -65.29 | X-H torsion
[ 10718 10713 10712 10709 ] final  115.52 input   66.30 | X-H torsion
[ 10763 10752 10751 10750 ] final -130.64 input  -60.55 | X-H torsion
[ 11005 11000 10999 10996 ] final   42.25 input  -57.11 | X-H torsion

> <Gold.Protein.ActiveResidues>
 VAL166  LYS551  ARG553  GLY616  TRP617  ASP618  TYR619  PRO620  LYS621  CYS622 
 ASP623  PHE694  ASN695  SER759  ASP760  ASP761  ALA762  ILE779  LEU786  VAL792 
 PHE793  MET794  SER795  GLU796  ALA797  LYS798  CYS799  TRP800  GLU811  SER814 

> <Gold.Protein.RotatedAtoms>
  150.9883  133.6176  159.2711 H   0  0  0  0  0  0  0  0  0  0  0  0  # atno 6907 bound_to 6896
  151.3406  135.0861  159.9379 H   0  0  0  0  0  0  0  0  0  0  0  0  # atno 6908 bound_to 6896
  152.5237  133.9495  159.7719 H   0  0  0  0  0  0  0  0  0  0  0  0  # atno 6909 bound_to 6896
  146.2443  140.0864  142.8354 H   0  0  0  0  0  0  0  0  0  0  0  0  # atno 7974 bound_to 7965
  155.3439  140.3409  155.4239 H   0  0  0  0  0  0  0  0  0  0  0  0  # atno 8008 bound_to 7997
  156.1799  140.1660  156.8330 H   0  0  0  0  0  0  0  0  0  0  0  0  # atno 8009 bound_to 7997
  154.5322  140.0743  156.8348 H   0  0  0  0  0  0  0  0  0  0  0  0  # atno 8010 bound_to 7997
  139.4855  144.4482  151.8864 H   0  0  0  0  0  0  0  0  0  0  0  0  # atno 10167 bound_to 10162
  157.6217  131.1013  150.7342 H   0  0  0  0  0  0  0  0  0  0  0  0  # atno 10718 bound_to 10713
  154.8754  135.3856  154.4115 H   0  0  0  0  0  0  0  0  0  0  0  0  # atno 10763 bound_to 10752
  153.4829  135.7030  153.5933 H   0  0  0  0  0  0  0  0  0  0  0  0  # atno 10764 bound_to 10752
  153.4341  135.3871  155.2155 H   0  0  0  0  0  0  0  0  0  0  0  0  # atno 10765 bound_to 10752
  140.1757  134.4166  155.8230 H   0  0  0  0  0  0  0  0  0  0  0  0  # atno 11005 bound_to 11000
  145.0688  140.9141  143.4894 LP  0  0  0  0  0  0  0  0  0  0  0  0  # atno 17320 bound_to 7965
  145.0994  139.2833  143.5694 LP  0  0  0  0  0  0  0  0  0  0  0  0  # atno 17321 bound_to 7965
  140.3938  144.2582  150.5897 LP  0  0  0  0  0  0  0  0  0  0  0  0  # atno 17342 bound_to 10162
  140.5122  143.2288  151.8518 LP  0  0  0  0  0  0  0  0  0  0  0  0  # atno 17343 bound_to 10162
  156.7698  130.4825  149.5420 LP  0  0  0  0  0  0  0  0  0  0  0  0  # atno 17370 bound_to 10713
  156.1365  130.6215  151.0408 LP  0  0  0  0  0  0  0  0  0  0  0  0  # atno 17371 bound_to 10713
  141.2220  133.6977  156.7842 LP  0  0  0  0  0  0  0  0  0  0  0  0  # atno 17394 bound_to 11000
  140.2325  134.8675  157.3491 LP  0  0  0  0  0  0  0  0  0  0  0  0  # atno 17395 bound_to 11000

$$$$
