#       Name:                AV-unprocessed.smi:3085
#       Creating user name   scv26
#       Creation time:       Fri Mar 27 17:14:23 2020


#       File generated by GOLD software.
#

@<TRIPOS>MOLECULE
AV-unprocessed.smi:3085
    32    33     1
SMALL
NO_CHARGES


@<TRIPOS>ATOM
      1 ****        -4.0515   1.0083   1.5381 C.3            1 S1                 0.0000
      2 ****        -3.5669  -0.4368   1.3756 C.3            1 S1                 0.0000
      3 ****        -2.0773  -0.5361   1.3768 C.2            1 S1                 0.0000
      4 ****        -1.3263  -0.4079   0.2414 N.2            1 S1                 0.0000
      5 ****        -0.1039  -0.5230   0.7521 C.2            1 S1                 0.0000
      6 ****         1.1720  -0.4516  -0.0261 C.3            1 S1                 0.0000
      7 ****         1.5466   0.9929  -0.4104 C.3            1 S1                 0.0000
      8 ****         2.7549   0.9923  -1.2579 N.4            1 S1                 1.0000
      9 ****         2.5847   0.1239  -2.4396 C.3            1 S1                 0.0000
     10 ****         2.1714  -1.2920  -2.0006 C.3            1 S1                 0.0000
     11 ****         0.9888  -1.2243  -1.2101 O.3            1 S1                 0.0000
     12 ****        -0.1200  -0.6888   2.0767 N.pl3          1 S1                 0.0000
     13 ****        -1.3974  -0.6933   2.5116 N.2            1 S1                 0.0000
     14 ****         0.6718  -0.7923   2.6951 H              1 S1                 0.0000
     15 ****        -5.1406   1.0552   1.5409 H              1 S1                 0.0000
     16 ****        -3.6924   1.6372   0.7231 H              1 S1                 0.0000
     17 ****        -3.6972   1.4389   2.4752 H              1 S1                 0.0000
     18 ****        -3.9691  -1.0549   2.1793 H              1 S1                 0.0000
     19 ****        -3.9510  -0.8535   0.4439 H              1 S1                 0.0000
     20 ****         1.9679  -0.8982   0.5737 H              1 S1                 0.0000
     21 ****         0.7305   1.4668  -0.9579 H              1 S1                 0.0000
     22 ****         1.7292   1.5950   0.4802 H              1 S1                 0.0000
     23 ****         2.9551   1.9355  -1.5597 H              1 S1                 0.0000
     24 ****         1.8235   0.5525  -3.0928 H              1 S1                 0.0000
     25 ****         3.5158   0.0952  -3.0061 H              1 S1                 0.0000
     26 ****         1.9782  -1.9157  -2.8737 H              1 S1                 0.0000
     27 ****         2.9715  -1.7734  -1.4361 H              1 S1                 0.0000
     28 ****         3.5329   0.6486  -0.7131 H              1 S1                 0.0000
     29 ****        -1.6149  -0.2673  -0.7057 LP             1 S1                 0.0000
     30 ****         0.2608  -0.8089  -1.7556 LP             1 S1                 0.0000
     31 ****         0.7223  -2.1525  -0.9502 LP             1 S1                 0.0000
     32 ****        -1.7441  -0.7897   3.4446 LP             1 S1                 0.0000
@<TRIPOS>BOND
    1    1    2 1     
    2    1   15 1     
    3    1   16 1     
    4    1   17 1     
    5    2   18 1     
    6    2   19 1     
    7    2    3 1     
    8    3    4 1     
    9    3   13 2     
   10    4    5 2     
   11    5    6 1     
   12    5   12 1     
   13    6   11 1     
   14    6    7 1     
   15    6   20 1     
   16    7    8 1     
   17    7   21 1     
   18    7   22 1     
   19    8    9 1     
   20    8   23 1     
   21    8   28 1     
   22    9   10 1     
   23    9   24 1     
   24    9   25 1     
   25   10   11 1     
   26   10   26 1     
   27   10   27 1     
   28   12   13 1     
   29   12   14 1     
   30    4   29 1     
   31   11   30 1     
   32   11   31 1     
   33   13   32 1     
@<TRIPOS>SUBSTRUCTURE
      1 S1             1
@<TRIPOS>SET
LONE_PAIRS      STATIC     ATOMS    <user>   **** ""
4 29 30 31 32
DONOR_HYDROGENS      STATIC     ATOMS    <user>   **** ""
3 23 28 14
ATOM$BLUE        STATIC     ATOMS    COLORGROUP SYSTEM
4 29 30 31 32
ATOM$RED        STATIC     ATOMS    COLORGROUP SYSTEM
3 23 28 14
