AV-unprocessed.smi:1959|AV-procd|sdf|7912|dock8
  -GOLD-   2272010 73D 1   1.00000     0.00000
 Structure written by MMmdl.
 44 45  0  0  0  0  0  0  0  0  1 V2000
  152.9480  140.9362  159.3270 C   0  0  0  0  0  0  0  0  0  0  0  0
  152.3041  142.2828  159.4738 C   0  0  0  0  0  0  0  0  0  0  0  0
  152.9262  143.5327  159.7470 C   0  0  0  0  0  0  0  0  0  0  0  0
  151.8907  144.4232  159.7891 C   0  0  0  0  0  0  0  0  0  0  0  0
  151.9018  145.8941  160.0477 C   0  0  0  0  0  0  0  0  0  0  0  0
  150.7317  143.7048  159.5481 N   0  0  0  0  0  0  0  0  0  0  0  0
  149.3498  144.1651  159.5095 C   0  0  0  0  0  0  0  0  0  0  0  0
  148.4277  143.0976  158.9159 C   0  0  0  0  0  0  0  0  0  0  0  0
  147.6137  142.5161  159.6324 O   0  0  0  0  0  0  0  0  0  0  0  0
  148.5532  142.8688  157.5997 N   0  0  0  0  0  0  0  0  0  0  0  0
  147.6637  142.0418  156.7909 C   0  0  2  0  0  0  0  0  0  0  0  0
  146.2098  142.4767  157.0336 C   0  0  0  0  0  0  0  0  0  0  0  0
  147.8758  140.5536  157.1467 C   0  0  0  0  0  0  0  0  0  0  0  0
  148.9489  139.8693  156.4196 N   0  0  0  0  0  0  0  0  0  0  0  0
  148.6563  139.6968  154.9971 C   0  0  0  0  0  0  0  0  0  0  0  0
  149.8148  139.0277  154.2384 C   0  0  0  0  0  0  0  0  0  0  0  0
  151.0101  139.7764  154.4281 O   0  0  0  0  0  0  0  0  0  0  0  0
  151.3587  139.9068  155.8019 C   0  0  0  0  0  0  0  0  0  0  0  0
  150.2085  140.5933  156.5582 C   0  0  0  0  0  0  0  0  0  0  0  0
  150.9920  142.3932  159.3520 N   0  0  0  0  0  0  0  0  0  0  0  0
  152.6970  140.4816  158.3684 H   0  0  0  0  0  0  0  0  0  0  0  0
  152.6201  140.2581  160.1152 H   0  0  0  0  0  0  0  0  0  0  0  0
  154.0340  141.0105  159.3846 H   0  0  0  0  0  0  0  0  0  0  0  0
  153.9750  143.7423  159.8962 H   0  0  0  0  0  0  0  0  0  0  0  0
  152.9191  146.2523  160.2070 H   0  0  0  0  0  0  0  0  0  0  0  0
  151.3197  146.1391  160.9358 H   0  0  0  0  0  0  0  0  0  0  0  0
  151.4836  146.4413  159.2030 H   0  0  0  0  0  0  0  0  0  0  0  0
  149.0193  144.4207  160.5161 H   0  0  0  0  0  0  0  0  0  0  0  0
  149.2959  145.0790  158.9157 H   0  0  0  0  0  0  0  0  0  0  0  0
  149.2612  143.3875  157.1008 H   0  0  0  0  0  0  0  0  0  0  0  0
  147.8836  142.1812  155.7306 H   0  0  0  0  0  0  0  0  0  0  0  0
  145.5186  141.8911  156.4269 H   0  0  0  0  0  0  0  0  0  0  0  0
  146.0627  143.5254  156.7726 H   0  0  0  0  0  0  0  0  0  0  0  0
  145.9256  142.3501  158.0788 H   0  0  0  0  0  0  0  0  0  0  0  0
  148.0160  140.4398  158.2231 H   0  0  0  0  0  0  0  0  0  0  0  0
  146.9444  140.0322  156.9220 H   0  0  0  0  0  0  0  0  0  0  0  0
  147.7698  139.0784  154.8668 H   0  0  0  0  0  0  0  0  0  0  0  0
  148.4380  140.6649  154.5437 H   0  0  0  0  0  0  0  0  0  0  0  0
  149.9600  138.0027  154.5830 H   0  0  0  0  0  0  0  0  0  0  0  0
  149.5898  138.9786  153.1730 H   0  0  0  0  0  0  0  0  0  0  0  0
  151.5716  138.9248  156.2271 H   0  0  0  0  0  0  0  0  0  0  0  0
  152.2715  140.4969  155.8834 H   0  0  0  0  0  0  0  0  0  0  0  0
  150.0924  141.6121  156.1849 H   0  0  0  0  0  0  0  0  0  0  0  0
  150.4734  140.6767  157.6129 H   0  0  0  0  0  0  0  0  0  0  0  0
  1  2  1  0  0  0  0
  1 21  1  0  0  0  0
  1 22  1  0  0  0  0
  1 23  1  0  0  0  0
  2 20  2  0  0  0  0
  2  3  1  0  0  0  0
  3  4  2  0  0  0  0
  3 24  1  0  0  0  0
  4  5  1  0  0  0  0
  4  6  1  0  0  0  0
  5 25  1  0  0  0  0
  5 26  1  0  0  0  0
  5 27  1  0  0  0  0
  6  7  1  0  0  0  0
  6 20  1  0  0  0  0
  7  8  1  0  0  0  0
  7 28  1  0  0  0  0
  7 29  1  0  0  0  0
  8  9  2  0  0  0  0
  8 10  1  0  0  0  0
 10 11  1  0  0  0  0
 10 30  1  0  0  0  0
 11 12  1  0  0  0  0
 11 13  1  0  0  0  0
 11 31  1  0  0  0  0
 12 32  1  0  0  0  0
 12 33  1  0  0  0  0
 12 34  1  0  0  0  0
 13 14  1  0  0  0  0
 13 35  1  0  0  0  0
 13 36  1  0  0  0  0
 14 19  1  0  0  0  0
 14 15  1  0  0  0  0
 15 16  1  0  0  0  0
 15 37  1  0  0  0  0
 15 38  1  0  0  0  0
 16 17  1  0  0  0  0
 16 39  1  0  0  0  0
 16 40  1  0  0  0  0
 17 18  1  0  0  0  0
 18 19  1  0  0  0  0
 18 41  1  0  0  0  0
 18 42  1  0  0  0  0
 19 43  1  0  0  0  0
 19 44  1  0  0  0  0
M  END
> <s_m_source_file>
AV-unprocessed.smi

> <i_m_source_file_index>
1959

> <i_lp_mmshare_version>
43012

> <i_f3d_flags>
0

> <s_epik_input>
W0NIM11jMVtjSF1jKFtDSDNdKW4objEpW0NIMl1DKD1PKVtOSF1bQ0BIXShbQ0gzXSlbQ0gyXU4yW0NIMl1bQ0gyXU9bQ0gyXVtDSDJdMg==

> <s_epik_cmdline>
J2VwaWtfcHl0aG9uJywgJy1waCcsICc3LjAnLCAnLXRuJywgJzgnLCAnLW1hJywgJzIwMCcsICctbWV0YWxfYmluZGluZycsICctaW1hZScsICc8aW5maWxlLm1hZT4nLCAnLW9tYWUnLCAnPG91dGZpbGUubWFlPic=

> <r_lp_tautomer_probability>
1

> <r_epik_Ionization_Penalty>
0.197284

> <r_epik_Ionization_Penalty_Charging>
0

> <r_epik_Ionization_Penalty_Neutral>
0.197284

> <r_epik_State_Penalty>
0.186684

> <r_epik_Charging_Adjusted_Penalty>
0.186684

> <i_epik_Tot_Q>
0

> <i_epik_Tot_abs_Q>
0

> <r_epik_Metal_State_Penalty>
0.186639

> <b_epik_Metal_Only>
0

> <s_lp_Force_Field>
OPLS_2005

> <r_lp_Energy>
23.1408

> <b_lp_Chiralities_Consistent>
1

> <s_lp_Variant>
AV-unprocessed.smi:1959-1

> <Gold.Version>
5.8.1

> <Gold.Id.Protein>
6NUR|6NUR_protein|mol2

> <Gold.PLP.Fitness>
39.8656

> <Gold.PLP.PLP>
-33.9663

> <Gold.PLP.part.hbond>
-5.4433

> <Gold.PLP.part.metal>
0.0000

> <Gold.PLP.part.buried>
-0.6903

> <Gold.PLP.part.nonpolar>
-28.6832

> <Gold.PLP.part.repulsive>
0.2233

> <Gold.PLP.ligand.clash>
0.0000

> <Gold.PLP.ligand.torsion>
0.6793

> <Gold.PLP.Chemscore.Hbond>
2.4095

> <Gold.PLP.Chemscore.CHOScore>
0.0000

> <Gold.PLP.Chemscore.Metal>
0.0000

> <Gold.Chemscore.Hbonds>
donor molecule, donor type, donor heavy atom, donor atom, acceptor molecule, acceptor atom, score
      L1  H    10    30       P1  8028  0.48
      P1  H  6933  6944       L1     9  0.54
      P1  H  6934  6946       L1     9  0.46
      P1  H  7989  7998       L1    17  1.00

> <Gold.PLP.Chemscore.Internal.Correction>
0.0294

> <Gold.Rescore>
     Score         DG    S(hbond)    S(metal)    S(lipo)     H(rot)  DE(clash)    DE(int)     intcor
     16.63     -18.72       2.17        0.00      88.42       1.70       0.41       1.68       ----

> <Gold.Chemscore.Fitness>
16.6304

> <Gold.Chemscore.DG>
-18.7221

> <Gold.Chemscore.ZeroCoef>
-5.4800

> <Gold.Chemscore.Hbond>
2.1667

> <Gold.Chemscore.Metal>
0.0000

> <Gold.Chemscore.Lipo>
88.4218

> <Gold.Chemscore.Internal_Hbond>
0.0000

> <Gold.Chemscore.DEClash>
0.4093

> <Gold.Chemscore.DEInternal>
1.6824

> <Gold.Chemscore.Rot>
1.6952

> <Gold.Chemscore.Internal.Correction>
   9.000000E+99

> <Gold.Chemscore.Hbonds>
donor molecule, donor type, donor heavy atom, donor atom, acceptor molecule, acceptor atom, score
      L1  H    10    30       P1  8028  0.38
      P1  H  6933  6944       L1     9  0.29
      P1  H  6934  6946       L1     9  0.44
      P1  H  7989  7998       L1    17  0.87

> <Gold.Chemscore.Hbond.Weighted>
-7.2366

> <Gold.Chemscore.Metal.Weighted>
-0.0000

> <Gold.Chemscore.Lipo.Weighted>
-10.3454

> <Gold.Chemscore.Internal_Hbond.Weighted>
0.0000

> <Gold.Chemscore.DEClash.Weighted>
0.4093

> <Gold.Chemscore.DEInternal.Weighted>
1.6824

> <Gold.Chemscore.Rot.Weighted>
4.3398

> <Gold.Chemscore.Internal.Correction.Weighted>
   9.000000E+99

> <Gold.Protein.RotatedTorsions>
[ 6907 6896 6895 6894 ] final  -75.91 input  -60.11 | X-H torsion
[ 7974 7965 7964 7962 ] final -109.62 input  175.53 | X-H torsion
[ 8008 7997 7996 7995 ] final  -10.95 input   59.86 | X-H torsion
[ 10167 10162 10161 10158 ] final  114.09 input  -65.29 | X-H torsion
[ 10718 10713 10712 10709 ] final   29.51 input   66.30 | X-H torsion
[ 10763 10752 10751 10750 ] final  165.94 input  -60.55 | X-H torsion
[ 11005 11000 10999 10996 ] final -134.80 input  -57.11 | X-H torsion

> <Gold.Protein.ActiveResidues>
 VAL166  LYS551  ARG553  GLY616  TRP617  ASP618  TYR619  PRO620  LYS621  CYS622 
 ASP623  PHE694  ASN695  SER759  ASP760  ASP761  ALA762  ILE779  LEU786  VAL792 
 PHE793  MET794  SER795  GLU796  ALA797  LYS798  CYS799  TRP800  GLU811  SER814 

> <Gold.Protein.RotatedAtoms>
  150.7044  134.4650  159.5398 H   0  0  0  0  0  0  0  0  0  0  0  0  # atno 6907 bound_to 6896
  152.2318  134.8312  160.0481 H   0  0  0  0  0  0  0  0  0  0  0  0  # atno 6908 bound_to 6896
  151.9125  133.3530  159.3905 H   0  0  0  0  0  0  0  0  0  0  0  0  # atno 6909 bound_to 6896
  145.1782  140.8958  143.3495 H   0  0  0  0  0  0  0  0  0  0  0  0  # atno 7974 bound_to 7965
  154.5509  140.2315  155.8487 H   0  0  0  0  0  0  0  0  0  0  0  0  # atno 8008 bound_to 7997
  156.1945  140.3068  155.9361 H   0  0  0  0  0  0  0  0  0  0  0  0  # atno 8009 bound_to 7997
  155.3073  140.0434  157.3023 H   0  0  0  0  0  0  0  0  0  0  0  0  # atno 8010 bound_to 7997
  139.6413  144.7124  151.2231 H   0  0  0  0  0  0  0  0  0  0  0  0  # atno 10167 bound_to 10162
  157.2475  130.7099  149.6388 H   0  0  0  0  0  0  0  0  0  0  0  0  # atno 10718 bound_to 10713
  154.3315  135.2754  155.2469 H   0  0  0  0  0  0  0  0  0  0  0  0  # atno 10763 bound_to 10752
  154.4779  135.5866  153.6372 H   0  0  0  0  0  0  0  0  0  0  0  0  # atno 10764 bound_to 10752
  152.9866  135.6104  154.3508 H   0  0  0  0  0  0  0  0  0  0  0  0  # atno 10765 bound_to 10752
  140.8956  134.1756  157.4497 H   0  0  0  0  0  0  0  0  0  0  0  0  # atno 11005 bound_to 11000
  145.0163  139.3464  143.6095 LP  0  0  0  0  0  0  0  0  0  0  0  0  # atno 17320 bound_to 7965
  146.3457  139.9445  142.8736 LP  0  0  0  0  0  0  0  0  0  0  0  0  # atno 17321 bound_to 7965
  140.7492  143.6306  150.8426 LP  0  0  0  0  0  0  0  0  0  0  0  0  # atno 17342 bound_to 10162
  139.9944  143.5812  152.2898 LP  0  0  0  0  0  0  0  0  0  0  0  0  # atno 17343 bound_to 10162
  155.9667  130.4438  150.5437 LP  0  0  0  0  0  0  0  0  0  0  0  0  # atno 17370 bound_to 10713
  157.3314  131.0700  151.1858 LP  0  0  0  0  0  0  0  0  0  0  0  0  # atno 17371 bound_to 10713
  139.8735  134.9877  156.5379 LP  0  0  0  0  0  0  0  0  0  0  0  0  # atno 17394 bound_to 11000
  140.8293  133.8292  155.8969 LP  0  0  0  0  0  0  0  0  0  0  0  0  # atno 17395 bound_to 11000

$$$$
