AV-unprocessed.smi:2445|AV-procd|sdf|9635|dock3
  -GOLD-   2272013273D 1   1.00000     0.00000
 Structure written by MMmdl.
 40 41  0  0  0  0  0  0  0  0  1 V2000
  154.5209  141.1993  162.5486 C   0  0  0  0  0  0  0  0  0  0  0  0
  153.8019  141.7897  161.3836 C   0  0  0  0  0  0  0  0  0  0  0  0
  153.8911  141.4188  160.0647 C   0  0  0  0  0  0  0  0  0  0  0  0
  153.0832  142.1725  159.2106 N   0  0  0  0  0  0  0  0  0  0  0  0
  152.3826  143.1056  159.8614 C   0  0  0  0  0  0  0  0  0  0  0  0
  151.4482  144.0664  159.1904 C   0  0  2  0  0  0  0  0  0  0  0  0
  151.8473  145.5284  159.4353 C   0  0  0  0  0  0  0  0  0  0  0  0
  149.9605  143.7887  159.5023 C   0  0  0  0  0  0  0  0  0  0  0  0
  149.1662  143.5225  158.3061 N   0  0  0  0  0  0  0  0  0  0  0  0
  148.0105  142.8457  158.2830 C   0  0  0  0  0  0  0  0  0  0  0  0
  147.4918  142.3344  159.2752 O   0  0  0  0  0  0  0  0  0  0  0  0
  147.4873  142.8073  157.0503 N   0  0  0  0  0  0  0  0  0  0  0  0
  146.2241  142.1703  156.6767 C   0  0  1  0  0  0  0  0  0  0  0  0
  145.0393  143.0246  157.1277 C   0  0  0  0  0  0  0  0  0  0  0  0
  144.2205  143.2354  155.8566 C   0  0  0  0  0  0  0  0  0  0  0  0
  145.1827  143.1431  154.8205 O   0  0  0  0  0  0  0  0  0  0  0  0
  146.0384  142.0593  155.1485 C   0  0  1  0  0  0  0  0  0  0  0  0
  147.3073  142.0925  154.2811 C   0  0  0  0  0  0  0  0  0  0  0  0
  152.6874  143.1140  161.5951 S   0  0  0  0  0  0  0  0  0  0  0  0
  155.2033  140.4107  162.2309 H   0  0  0  0  0  0  0  0  0  0  0  0
  153.8154  140.7682  163.2590 H   0  0  0  0  0  0  0  0  0  0  0  0
  155.1035  141.9593  163.0693 H   0  0  0  0  0  0  0  0  0  0  0  0
  154.5022  140.6327  159.6465 H   0  0  0  0  0  0  0  0  0  0  0  0
  151.5737  143.9027  158.1192 H   0  0  0  0  0  0  0  0  0  0  0  0
  152.8709  145.7157  159.1089 H   0  0  0  0  0  0  0  0  0  0  0  0
  151.7820  145.7850  160.4932 H   0  0  0  0  0  0  0  0  0  0  0  0
  151.1963  146.2100  158.8874 H   0  0  0  0  0  0  0  0  0  0  0  0
  149.8818  142.9077  160.1402 H   0  0  0  0  0  0  0  0  0  0  0  0
  149.5249  144.6156  160.0654 H   0  0  0  0  0  0  0  0  0  0  0  0
  149.5112  143.9056  157.4380 H   0  0  0  0  0  0  0  0  0  0  0  0
  147.9981  143.2599  156.3063 H   0  0  0  0  0  0  0  0  0  0  0  0
  146.1494  141.1726  157.1129 H   0  0  0  0  0  0  0  0  0  0  0  0
  144.4547  142.5463  157.9139 H   0  0  0  0  0  0  0  0  0  0  0  0
  145.3731  143.9908  157.5097 H   0  0  0  0  0  0  0  0  0  0  0  0
  143.4793  142.4438  155.7361 H   0  0  0  0  0  0  0  0  0  0  0  0
  143.7030  144.1948  155.8423 H   0  0  0  0  0  0  0  0  0  0  0  0
  145.4945  141.1377  154.9324 H   0  0  0  0  0  0  0  0  0  0  0  0
  147.9882  141.2855  154.5530 H   0  0  0  0  0  0  0  0  0  0  0  0
  147.8421  143.0372  154.3831 H   0  0  0  0  0  0  0  0  0  0  0  0
  147.0558  141.9725  153.2273 H   0  0  0  0  0  0  0  0  0  0  0  0
  1  2  1  0  0  0  0
  1 20  1  0  0  0  0
  1 21  1  0  0  0  0
  1 22  1  0  0  0  0
  2 19  1  0  0  0  0
  2  3  2  0  0  0  0
  3  4  1  0  0  0  0
  3 23  1  0  0  0  0
  4  5  2  0  0  0  0
  5  6  1  0  0  0  0
  5 19  1  0  0  0  0
  6  7  1  0  0  0  0
  6  8  1  0  0  0  0
  6 24  1  0  0  0  0
  7 25  1  0  0  0  0
  7 26  1  0  0  0  0
  7 27  1  0  0  0  0
  8  9  1  0  0  0  0
  8 28  1  0  0  0  0
  8 29  1  0  0  0  0
  9 10  1  0  0  0  0
  9 30  1  0  0  0  0
 10 11  2  0  0  0  0
 10 12  1  0  0  0  0
 12 13  1  0  0  0  0
 12 31  1  0  0  0  0
 13 17  1  0  0  0  0
 13 14  1  0  0  0  0
 13 32  1  0  0  0  0
 14 15  1  0  0  0  0
 14 33  1  0  0  0  0
 14 34  1  0  0  0  0
 15 16  1  0  0  0  0
 15 35  1  0  0  0  0
 15 36  1  0  0  0  0
 16 17  1  0  0  0  0
 17 18  1  0  0  0  0
 17 37  1  0  0  0  0
 18 38  1  0  0  0  0
 18 39  1  0  0  0  0
 18 40  1  0  0  0  0
M  END
> <s_m_source_file>
AV-unprocessed.smi

> <i_m_source_file_index>
2445

> <i_lp_mmshare_version>
43012

> <i_f3d_flags>
0

> <s_epik_input>
W0NIM11jMVtjSF1uYyhzMSlbQ0BIXShbQ0gzXSlbQ0gyXVtOSF1DKD1PKVtOSF1bQ0BASF0yW0NIMl1bQ0gyXU9bQ0BIXTJbQ0gzXQ==

> <s_epik_cmdline>
J2VwaWtfcHl0aG9uJywgJy1waCcsICc3LjAnLCAnLXRuJywgJzgnLCAnLW1hJywgJzIwMCcsICctbWV0YWxfYmluZGluZycsICctaW1hZScsICc8aW5maWxlLm1hZT4nLCAnLW9tYWUnLCAnPG91dGZpbGUubWFlPic=

> <r_epik_Ionization_Penalty>
0.000649483

> <r_epik_Ionization_Penalty_Charging>
0

> <r_epik_Ionization_Penalty_Neutral>
0.000649483

> <r_epik_State_Penalty>
0.000379895

> <r_epik_Charging_Adjusted_Penalty>
0.000379895

> <i_epik_Tot_Q>
0

> <i_epik_Tot_abs_Q>
0

> <r_epik_Metal_State_Penalty>
-0

> <b_epik_Metal_Only>
0

> <s_lp_Force_Field>
OPLS_2005

> <r_lp_Energy>
6.16207

> <b_lp_Chiralities_Consistent>
1

> <s_lp_Variant>
AV-unprocessed.smi:2445-3

> <Gold.Version>
5.8.1

> <Gold.Id.Protein>
6NUR|6NUR_protein|mol2

> <Gold.PLP.Fitness>
43.7908

> <Gold.PLP.PLP>
-39.1416

> <Gold.PLP.part.hbond>
-5.6560

> <Gold.PLP.part.metal>
0.0000

> <Gold.PLP.part.buried>
-0.7849

> <Gold.PLP.part.nonpolar>
-34.1420

> <Gold.PLP.part.repulsive>
0.3442

> <Gold.PLP.ligand.clash>
0.0000

> <Gold.PLP.ligand.torsion>
1.1535

> <Gold.PLP.Chemscore.Hbond>
2.2755

> <Gold.PLP.Chemscore.CHOScore>
0.0000

> <Gold.PLP.Chemscore.Metal>
0.0000

> <Gold.Chemscore.Hbonds>
donor molecule, donor type, donor heavy atom, donor atom, acceptor molecule, acceptor atom, score
      L1  H     9    30       P1  8028  0.82
      L1  H    12    31       P1  8028  0.94
      P1  H  6933  6944       L1    11  0.07
      P1  H  6934  6946       L1    11  0.42

> <Gold.PLP.Chemscore.Internal.Correction>
0.1296

> <Gold.Rescore>
     Score         DG    S(hbond)    S(metal)    S(lipo)     H(rot)  DE(clash)    DE(int)     intcor
     16.66     -18.16       1.42        0.00     101.36       1.53       0.34       1.16       ----

> <Gold.Chemscore.Fitness>
16.6574

> <Gold.Chemscore.DG>
-18.1589

> <Gold.Chemscore.ZeroCoef>
-5.4800

> <Gold.Chemscore.Hbond>
1.4202

> <Gold.Chemscore.Metal>
0.0000

> <Gold.Chemscore.Lipo>
101.3560

> <Gold.Chemscore.Internal_Hbond>
0.0000

> <Gold.Chemscore.DEClash>
0.3366

> <Gold.Chemscore.DEInternal>
1.1649

> <Gold.Chemscore.Rot>
1.5325

> <Gold.Chemscore.Internal.Correction>
   9.000000E+99

> <Gold.Chemscore.Hbonds>
donor molecule, donor type, donor heavy atom, donor atom, acceptor molecule, acceptor atom, score
      L1  H     9    30       P1  8028  0.30
      L1  H    12    31       P1  8028  0.20
      P1  H  6933  6944       L1    11  0.08
      P1  H  6934  6946       L1    11  0.41

> <Gold.Chemscore.Hbond.Weighted>
-4.7436

> <Gold.Chemscore.Metal.Weighted>
-0.0000

> <Gold.Chemscore.Lipo.Weighted>
-11.8587

> <Gold.Chemscore.Internal_Hbond.Weighted>
0.0000

> <Gold.Chemscore.DEClash.Weighted>
0.3366

> <Gold.Chemscore.DEInternal.Weighted>
1.1649

> <Gold.Chemscore.Rot.Weighted>
3.9233

> <Gold.Chemscore.Internal.Correction.Weighted>
   9.000000E+99

> <Gold.Protein.RotatedTorsions>
[ 6907 6896 6895 6894 ] final  164.76 input  -60.11 | X-H torsion
[ 7974 7965 7964 7962 ] final -110.90 input  175.53 | X-H torsion
[ 8008 7997 7996 7995 ] final  -24.29 input   59.86 | X-H torsion
[ 10167 10162 10161 10158 ] final -147.10 input  -65.29 | X-H torsion
[ 10718 10713 10712 10709 ] final  -93.04 input   66.30 | X-H torsion
[ 10763 10752 10751 10750 ] final    6.29 input  -60.55 | X-H torsion
[ 11005 11000 10999 10996 ] final -101.86 input  -57.11 | X-H torsion

> <Gold.Protein.ActiveResidues>
 VAL166  LYS551  ARG553  GLY616  TRP617  ASP618  TYR619  PRO620  LYS621  CYS622 
 ASP623  PHE694  ASN695  SER759  ASP760  ASP761  ALA762  ILE779  LEU786  VAL792 
 PHE793  MET794  SER795  GLU796  ALA797  LYS798  CYS799  TRP800  GLU811  SER814 

> <Gold.Protein.RotatedAtoms>
  151.9049  133.3547  159.3843 H   0  0  0  0  0  0  0  0  0  0  0  0  # atno 6907 bound_to 6896
  150.7071  134.4791  159.5471 H   0  0  0  0  0  0  0  0  0  0  0  0  # atno 6908 bound_to 6896
  152.2386  134.8251  160.0514 H   0  0  0  0  0  0  0  0  0  0  0  0  # atno 6909 bound_to 6896
  145.1626  140.8886  143.3582 H   0  0  0  0  0  0  0  0  0  0  0  0  # atno 7974 bound_to 7965
  154.4537  140.1957  156.0442 H   0  0  0  0  0  0  0  0  0  0  0  0  # atno 8008 bound_to 7997
  156.0702  140.3285  155.7539 H   0  0  0  0  0  0  0  0  0  0  0  0  # atno 8009 bound_to 7997
  155.5275  140.0575  157.2886 H   0  0  0  0  0  0  0  0  0  0  0  0  # atno 8010 bound_to 7997
  139.7652  143.8318  152.2615 H   0  0  0  0  0  0  0  0  0  0  0  0  # atno 10167 bound_to 10162
  156.0009  130.5011  150.5716 H   0  0  0  0  0  0  0  0  0  0  0  0  # atno 10718 bound_to 10713
  153.2494  135.6912  153.7695 H   0  0  0  0  0  0  0  0  0  0  0  0  # atno 10763 bound_to 10752
  153.6795  135.3331  155.3175 H   0  0  0  0  0  0  0  0  0  0  0  0  # atno 10764 bound_to 10752
  154.8388  135.4519  154.1446 H   0  0  0  0  0  0  0  0  0  0  0  0  # atno 10765 bound_to 10752
  141.1213  133.8512  157.1286 H   0  0  0  0  0  0  0  0  0  0  0  0  # atno 11005 bound_to 11000
  145.0315  139.3336  143.6022 LP  0  0  0  0  0  0  0  0  0  0  0  0  # atno 17320 bound_to 7965
  146.3480  139.9655  142.8712 LP  0  0  0  0  0  0  0  0  0  0  0  0  # atno 17321 bound_to 7965
  139.8336  144.7242  150.9419 LP  0  0  0  0  0  0  0  0  0  0  0  0  # atno 17342 bound_to 10162
  140.7810  143.4047  151.1090 LP  0  0  0  0  0  0  0  0  0  0  0  0  # atno 17343 bound_to 10162
  157.3610  131.0750  151.1636 LP  0  0  0  0  0  0  0  0  0  0  0  0  # atno 17370 bound_to 10713
  157.2421  130.6574  149.5894 LP  0  0  0  0  0  0  0  0  0  0  0  0  # atno 17371 bound_to 10713
  140.0173  134.9961  157.0520 LP  0  0  0  0  0  0  0  0  0  0  0  0  # atno 17394 bound_to 11000
  140.4498  134.1594  155.7180 LP  0  0  0  0  0  0  0  0  0  0  0  0  # atno 17395 bound_to 11000

$$$$
