#       Name:                AV-unprocessed.smi:2481
#       Creating user name   scv26
#       Creation time:       Fri Mar 27 13:41:26 2020


#       File generated by GOLD software.
#

@<TRIPOS>MOLECULE
AV-unprocessed.smi:2481
    43    44     1
SMALL
NO_CHARGES


@<TRIPOS>ATOM
      1 ****        -4.9830  -0.1789  -0.8009 C.3            1 S1                 0.0000
      2 ****        -4.4939   1.1633  -0.5518 N.pl3          1 S1                 0.0000
      3 ****        -5.3484   2.2093  -0.4593 N.2            1 S1                 0.0000
      4 ****        -4.5302   3.2375  -0.2333 C.2            1 S1                 0.0000
      5 ****        -3.1984   2.9410  -0.1720 N.2            1 S1                 0.0000
      6 ****        -3.2532   1.6290  -0.3796 C.2            1 S1                 0.0000
      7 ****        -2.1447   0.7415  -0.4249 N.am           1 S1                 0.0000
      8 ****        -0.8420   1.0436  -0.2923 C.2            1 S1                 0.0000
      9 ****        -0.3921   2.1752  -0.1105 O.2            1 S1                 0.0000
     10 ****        -0.0790  -0.0563  -0.3792 N.am           1 S1                 0.0000
     11 ****         1.3812  -0.0985  -0.2968 C.3            1 S1                 0.0000
     12 ****         1.9192  -0.7705  -1.5763 C.3            1 S1                 0.0000
     13 ****         3.4463  -0.9170  -1.5474 C.3            1 S1                 0.0000
     14 ****         3.8951  -1.6865  -0.2995 C.3            1 S1                 0.0000
     15 ****         3.3841  -1.0049   0.9780 C.3            1 S1                 0.0000
     16 ****         1.8457  -0.8475   0.9820 C.3            1 S1                 0.0000
     17 ****         1.3641  -0.1544   2.2768 C.3            1 S1                 0.0000
     18 ****         1.6472  -0.9481   3.4105 O.3            1 S1                 0.0000
     19 ****        -4.6175  -0.8532  -0.0263 H              1 S1                 0.0000
     20 ****        -4.6272  -0.5235  -1.7721 H              1 S1                 0.0000
     21 ****        -6.0736  -0.1965  -0.7967 H              1 S1                 0.0000
     22 ****        -4.9086   4.2411  -0.1069 H              1 S1                 0.0000
     23 ****        -2.3705  -0.2307  -0.5741 H              1 S1                 0.0000
     24 ****        -0.5436  -0.9407  -0.5236 H              1 S1                 0.0000
     25 ****         1.7859   0.9149  -0.2614 H              1 S1                 0.0000
     26 ****         1.4669  -1.7564  -1.6943 H              1 S1                 0.0000
     27 ****         1.6263  -0.1910  -2.4527 H              1 S1                 0.0000
     28 ****         3.7887  -1.4314  -2.4458 H              1 S1                 0.0000
     29 ****         3.9111   0.0697  -1.5580 H              1 S1                 0.0000
     30 ****         3.5225  -2.7107  -0.3440 H              1 S1                 0.0000
     31 ****         4.9833  -1.7534  -0.2756 H              1 S1                 0.0000
     32 ****         3.7075  -1.5863   1.8418 H              1 S1                 0.0000
     33 ****         3.8530  -0.0249   1.0762 H              1 S1                 0.0000
     34 ****         1.4082  -1.8473   0.9567 H              1 S1                 0.0000
     35 ****         1.8356   0.8221   2.3917 H              1 S1                 0.0000
     36 ****         0.2874   0.0116   2.2603 H              1 S1                 0.0000
     37 ****         1.3451  -0.4906   4.1804 H              1 S1                 0.0000
     38 ****        -6.3451   2.2105  -0.5403 LP             1 S1                 0.0000
     39 ****        -2.4109   3.5374  -0.0162 LP             1 S1                 0.0000
     40 ****        -1.0132   2.9566  -0.0512 LP             1 S1                 0.0000
     41 ****         0.5945   2.3128  -0.0221 LP             1 S1                 0.0000
     42 ****         2.6329  -1.1036   3.4757 LP             1 S1                 0.0000
     43 ****         1.1756  -1.8265   3.3335 LP             1 S1                 0.0000
@<TRIPOS>BOND
    1    1    2 1     
    2    1   19 1     
    3    1   20 1     
    4    1   21 1     
    5    2    6 1     
    6    2    3 1     
    7    3    4 2     
    8    4    5 1     
    9    4   22 1     
   10    5    6 2     
   11    6    7 1     
   12    7    8 am    
   13    7   23 1     
   14    8    9 2     
   15    8   10 am    
   16   10   11 1     
   17   10   24 1     
   18   11   16 1     
   19   11   12 1     
   20   11   25 1     
   21   12   13 1     
   22   12   26 1     
   23   12   27 1     
   24   13   14 1     
   25   13   28 1     
   26   13   29 1     
   27   14   15 1     
   28   14   30 1     
   29   14   31 1     
   30   15   16 1     
   31   15   32 1     
   32   15   33 1     
   33   16   17 1     
   34   16   34 1     
   35   17   18 1     
   36   17   35 1     
   37   17   36 1     
   38   18   37 1     
   39    3   38 1     
   40    5   39 1     
   41    9   40 1     
   42    9   41 1     
   43   18   42 1     
   44   18   43 1     
@<TRIPOS>SUBSTRUCTURE
      1 S1             1
@<TRIPOS>SET
LONE_PAIRS      STATIC     ATOMS    <user>   **** ""
6 38 39 40 41 42 43
DONOR_HYDROGENS      STATIC     ATOMS    <user>   **** ""
3 23 24 37
ATOM$BLUE        STATIC     ATOMS    COLORGROUP SYSTEM
6 38 39 40 41 42 43
ATOM$RED        STATIC     ATOMS    COLORGROUP SYSTEM
3 23 24 37
