AV-unprocessed.smi:2613|AV-procd|sdf|10212|dock3
  -GOLD-   2272014223D 1   1.00000     0.00000
 Structure written by MMmdl.
 27 28  0  0  0  0  0  0  0  0  2 V2000
  152.0253  145.5453  159.8795 C   0  0  0  0  0  0  0  0  0  0  0  0
  151.8960  144.2309  159.1780 C   0  0  0  0  0  0  0  0  0  0  0  0
  151.4937  144.1360  157.9109 N   0  0  0  0  0  0  0  0  0  0  0  0
  151.5145  142.7718  157.6881 C   0  0  0  0  0  0  0  0  0  0  0  0
  151.1878  142.0252  156.5345 C   0  0  0  0  0  0  0  0  0  0  0  0
  151.2781  140.6117  156.5314 C   0  0  0  0  0  0  0  0  0  0  0  0
  150.9229  139.8307  155.2947 C   0  0  0  0  0  0  0  0  0  0  0  0
  151.1553  138.6014  155.2680 O   0  0  0  0  0  0  0  0  0  0  0  0
  150.4047  140.4333  154.3284 O   0  5  0  0  0  0  0  0  0  0  0  0
  151.7048  139.9423  157.7043 C   0  0  0  0  0  0  0  0  0  0  0  0
  152.0357  140.6674  158.8651 C   0  0  0  0  0  0  0  0  0  0  0  0
  151.9392  142.0698  158.8501 C   0  0  0  0  0  0  0  0  0  0  0  0
  152.1794  143.0596  159.7975 N   0  0  0  0  0  0  0  0  0  0  0  0
  152.6286  142.8528  161.1646 C   0  0  0  0  0  0  0  0  0  0  0  0
  153.7008  141.7578  161.2419 C   0  0  0  0  0  0  0  0  0  0  0  0
  154.1825  141.6543  162.5639 O   0  0  0  0  0  0  0  0  0  0  0  0
  151.6582  146.3542  159.2470 H   0  0  0  0  0  0  0  0  0  0  0  0
  153.0705  145.7421  160.1188 H   0  0  0  0  0  0  0  0  0  0  0  0
  151.4448  145.5416  160.8022 H   0  0  0  0  0  0  0  0  0  0  0  0
  150.8639  142.5531  155.6494 H   0  0  0  0  0  0  0  0  0  0  0  0
  151.7816  138.8647  157.7233 H   0  0  0  0  0  0  0  0  0  0  0  0
  152.3585  140.1497  159.7560 H   0  0  0  0  0  0  0  0  0  0  0  0
  153.0232  143.7960  161.5446 H   0  0  0  0  0  0  0  0  0  0  0  0
  151.7736  142.6019  161.7930 H   0  0  0  0  0  0  0  0  0  0  0  0
  153.2937  140.7940  160.9358 H   0  0  0  0  0  0  0  0  0  0  0  0
  154.5339  141.9868  160.5764 H   0  0  0  0  0  0  0  0  0  0  0  0
  154.1641  142.5129  162.9584 H   0  0  0  0  0  0  0  0  0  0  0  0
  1  2  1  0  0  0  0
  1 17  1  0  0  0  0
  1 18  1  0  0  0  0
  1 19  1  0  0  0  0
  2 13  1  0  0  0  0
  2  3  2  0  0  0  0
  3  4  1  0  0  0  0
  4 12  2  0  0  0  0
  4  5  1  0  0  0  0
  5  6  2  0  0  0  0
  5 20  1  0  0  0  0
  6  7  1  0  0  0  0
  6 10  1  0  0  0  0
  7  8  2  0  0  0  0
  7  9  1  0  0  0  0
 10 11  2  0  0  0  0
 10 21  1  0  0  0  0
 11 12  1  0  0  0  0
 11 22  1  0  0  0  0
 12 13  1  0  0  0  0
 13 14  1  0  0  0  0
 14 15  1  0  0  0  0
 14 23  1  0  0  0  0
 14 24  1  0  0  0  0
 15 16  1  0  0  0  0
 15 25  1  0  0  0  0
 15 26  1  0  0  0  0
 16 27  1  0  0  0  0
M  CHG  1   9  -1
M  END
> <s_m_source_file>
AV-unprocessed.smi

> <i_m_source_file_index>
2613

> <i_lp_mmshare_version>
43012

> <i_f3d_flags>
0

> <s_epik_input>
W09IXVtDSDJdW0NIMl1uKGMobjEpW0NIM10pYyhjMTIpW2NIXVtjSF1jKFtjSF0yKUMoPU8pW09IXQ==

> <s_epik_cmdline>
J2VwaWtfcHl0aG9uJywgJy1waCcsICc3LjAnLCAnLXRuJywgJzgnLCAnLW1hJywgJzIwMCcsICctbWV0YWxfYmluZGluZycsICctaW1hZScsICc8aW5maWxlLm1hZT4nLCAnLW9tYWUnLCAnPG91dGZpbGUubWFlPic=

> <r_epik_Ionization_Penalty>
0.138858

> <r_epik_Ionization_Penalty_Charging>
0.000449576

> <r_epik_Ionization_Penalty_Neutral>
0.138408

> <r_epik_State_Penalty>
0.127739

> <r_epik_Charging_Adjusted_Penalty>
0.128189

> <i_epik_Tot_Q>
-1

> <i_epik_Tot_abs_Q>
1

> <r_epik_Metal_State_Penalty>
0.000142538

> <b_epik_Metal_Only>
0

> <s_lp_Force_Field>
OPLS_2005

> <r_lp_Energy>
7.17367

> <b_lp_Chiralities_Consistent>
1

> <s_lp_Variant>
AV-unprocessed.smi:2613-1

> <Gold.Version>
5.8.1

> <Gold.Id.Protein>
6NUR|6NUR_protein|mol2

> <Gold.PLP.Fitness>
41.9906

> <Gold.PLP.PLP>
-39.6797

> <Gold.PLP.part.hbond>
-2.0000

> <Gold.PLP.part.metal>
0.0000

> <Gold.PLP.part.buried>
-6.1766

> <Gold.PLP.part.nonpolar>
-32.0597

> <Gold.PLP.part.repulsive>
0.3084

> <Gold.PLP.ligand.clash>
0.0000

> <Gold.PLP.ligand.torsion>
0.3102

> <Gold.PLP.Chemscore.Hbond>
0.9760

> <Gold.PLP.Chemscore.CHOScore>
0.0000

> <Gold.PLP.Chemscore.Metal>
0.0000

> <Gold.Chemscore.Hbonds>
donor molecule, donor type, donor heavy atom, donor atom, acceptor molecule, acceptor atom, score
      P1  H  7989  7998       L1     9  0.99

> <Gold.PLP.Chemscore.Internal.Correction>
0.0032

> <Gold.Rescore>
     Score         DG    S(hbond)    S(metal)    S(lipo)     H(rot)  DE(clash)    DE(int)     intcor
     12.81     -13.08       1.00        0.00      76.40       1.83       0.03       0.25       ----

> <Gold.Chemscore.Fitness>
12.8097

> <Gold.Chemscore.DG>
-13.0829

> <Gold.Chemscore.ZeroCoef>
-5.4800

> <Gold.Chemscore.Hbond>
0.9996

> <Gold.Chemscore.Metal>
0.0000

> <Gold.Chemscore.Lipo>
76.4025

> <Gold.Chemscore.Internal_Hbond>
0.0000

> <Gold.Chemscore.DEClash>
0.0272

> <Gold.Chemscore.DEInternal>
0.2459

> <Gold.Chemscore.Rot>
1.8262

> <Gold.Chemscore.Internal.Correction>
   9.000000E+99

> <Gold.Chemscore.Hbonds>
donor molecule, donor type, donor heavy atom, donor atom, acceptor molecule, acceptor atom, score
      P1  H  7989  7998       L1     9  0.39

> <Gold.Chemscore.Hbond.Weighted>
-3.3388

> <Gold.Chemscore.Metal.Weighted>
-0.0000

> <Gold.Chemscore.Lipo.Weighted>
-8.9391

> <Gold.Chemscore.Internal_Hbond.Weighted>
0.0000

> <Gold.Chemscore.DEClash.Weighted>
0.0272

> <Gold.Chemscore.DEInternal.Weighted>
0.2459

> <Gold.Chemscore.Rot.Weighted>
4.6750

> <Gold.Chemscore.Internal.Correction.Weighted>
   9.000000E+99

> <Gold.Protein.RotatedTorsions>
[ 6907 6896 6895 6894 ] final -115.10 input  -60.11 | X-H torsion
[ 7974 7965 7964 7962 ] final  -99.85 input  175.53 | X-H torsion
[ 8008 7997 7996 7995 ] final   10.97 input   59.86 | X-H torsion
[ 10167 10162 10161 10158 ] final  132.44 input  -65.29 | X-H torsion
[ 10718 10713 10712 10709 ] final   20.67 input   66.30 | X-H torsion
[ 10763 10752 10751 10750 ] final  -96.76 input  -60.55 | X-H torsion
[ 11005 11000 10999 10996 ] final  -95.48 input  -57.11 | X-H torsion

> <Gold.Protein.ActiveResidues>
 VAL166  LYS551  ARG553  GLY616  TRP617  ASP618  TYR619  PRO620  LYS621  CYS622 
 ASP623  PHE694  ASN695  SER759  ASP760  ASP761  ALA762  ILE779  LEU786  VAL792 
 PHE793  MET794  SER795  GLU796  ALA797  LYS798  CYS799  TRP800  GLU811  SER814 

> <Gold.Protein.RotatedAtoms>
  150.7952  133.8707  159.3257 H   0  0  0  0  0  0  0  0  0  0  0  0  # atno 6907 bound_to 6896
  151.6534  135.0997  160.0174 H   0  0  0  0  0  0  0  0  0  0  0  0  # atno 6908 bound_to 6896
  152.4032  133.6811  159.6369 H   0  0  0  0  0  0  0  0  0  0  0  0  # atno 6909 bound_to 6896
  145.3021  140.9380  143.2817 H   0  0  0  0  0  0  0  0  0  0  0  0  # atno 7974 bound_to 7965
  154.8006  140.2851  155.5924 H   0  0  0  0  0  0  0  0  0  0  0  0  # atno 8008 bound_to 7997
  156.2976  140.2587  156.2803 H   0  0  0  0  0  0  0  0  0  0  0  0  # atno 8009 bound_to 7997
  154.9563  140.0378  157.2158 H   0  0  0  0  0  0  0  0  0  0  0  0  # atno 8010 bound_to 7997
  139.5339  144.6662  151.4852 H   0  0  0  0  0  0  0  0  0  0  0  0  # atno 10167 bound_to 10162
  157.1277  130.6577  149.5942 H   0  0  0  0  0  0  0  0  0  0  0  0  # atno 10718 bound_to 10713
  154.7268  135.5072  153.8899 H   0  0  0  0  0  0  0  0  0  0  0  0  # atno 10763 bound_to 10752
  153.0912  135.6660  153.9859 H   0  0  0  0  0  0  0  0  0  0  0  0  # atno 10764 bound_to 10752
  153.9669  135.3042  155.3409 H   0  0  0  0  0  0  0  0  0  0  0  0  # atno 10765 bound_to 10752
  141.1440  133.8029  157.0441 H   0  0  0  0  0  0  0  0  0  0  0  0  # atno 11005 bound_to 11000
  144.9085  139.4559  143.6598 LP  0  0  0  0  0  0  0  0  0  0  0  0  # atno 17320 bound_to 7965
  146.3148  139.7879  142.8992 LP  0  0  0  0  0  0  0  0  0  0  0  0  # atno 17321 bound_to 7965
  140.6535  143.8648  150.6810 LP  0  0  0  0  0  0  0  0  0  0  0  0  # atno 17342 bound_to 10162
  140.2020  143.3952  152.1784 LP  0  0  0  0  0  0  0  0  0  0  0  0  # atno 17343 bound_to 10162
  155.9814  130.4822  150.6828 LP  0  0  0  0  0  0  0  0  0  0  0  0  # atno 17370 bound_to 10713
  157.4420  131.0862  151.0934 LP  0  0  0  0  0  0  0  0  0  0  0  0  # atno 17371 bound_to 10713
  140.0673  134.9721  157.1408 LP  0  0  0  0  0  0  0  0  0  0  0  0  # atno 17394 bound_to 11000
  140.3761  134.2338  155.7174 LP  0  0  0  0  0  0  0  0  0  0  0  0  # atno 17395 bound_to 11000

$$$$
