AV-unprocessed.smi:2061|AV-procd|sdf|8360|dock10
  -GOLD-   2272011 33D 1   1.00000     0.00000
 Structure written by MMmdl.
 45 46  0  0  0  0  0  0  0  0  1 V2000
  146.3510  133.3888  162.0571 C   0  0  0  0  0  0  0  0  0  0  0  0
  147.0976  134.5531  161.5023 C   0  0  0  0  0  0  0  0  0  0  0  0
  147.4003  134.9439  160.2280 C   0  0  0  0  0  0  0  0  0  0  0  0
  148.1341  136.1437  160.4271 C   0  0  0  0  0  0  0  0  0  0  0  0
  148.6421  136.8782  159.3250 N   0  0  0  0  0  0  0  0  0  0  0  0
  149.9200  137.2221  159.0895 C   0  0  0  0  0  0  0  0  0  0  0  0
  150.8733  136.9402  159.8160 O   0  0  0  0  0  0  0  0  0  0  0  0
  150.0347  137.9159  157.9467 N   0  0  0  0  0  0  0  0  0  0  0  0
  151.2820  138.4396  157.3928 C   0  0  0  0  0  0  0  0  0  0  0  0
  151.2247  139.9649  157.0943 C   0  0  2  0  0  0  0  0  0  0  0  0
  152.1074  140.2745  155.8580 C   0  0  0  0  0  0  0  0  0  0  0  0
  151.5712  140.7991  158.2697 N   0  0  0  0  0  0  0  0  0  0  0  0
  151.6331  142.2304  157.9532 C   0  0  0  0  0  0  0  0  0  0  0  0
  152.0126  143.0999  159.1677 C   0  0  2  0  0  0  0  0  0  0  0  0
  152.1555  144.5801  158.7985 C   0  0  0  0  0  0  0  0  0  0  0  0
  153.2550  142.6521  159.6945 O   0  0  0  0  0  0  0  0  0  0  0  0
  153.2192  141.2884  160.0941 C   0  0  2  0  0  0  0  0  0  0  0  0
  154.5880  140.9215  160.6774 C   0  0  0  0  0  0  0  0  0  0  0  0
  152.8498  140.4169  158.8788 C   0  0  0  0  0  0  0  0  0  0  0  0
  148.2664  136.4571  161.7068 N   0  0  0  0  0  0  0  0  0  0  0  0
  147.6029  135.4395  162.4023 O   0  0  0  0  0  0  0  0  0  0  0  0
  146.0259  132.7188  161.2611 H   0  0  0  0  0  0  0  0  0  0  0  0
  145.4670  133.7209  162.6015 H   0  0  0  0  0  0  0  0  0  0  0  0
  146.9776  132.8194  162.7438 H   0  0  0  0  0  0  0  0  0  0  0  0
  147.1384  134.4487  159.3047 H   0  0  0  0  0  0  0  0  0  0  0  0
  147.9593  137.1719  158.6428 H   0  0  0  0  0  0  0  0  0  0  0  0
  149.1955  138.0968  157.4158 H   0  0  0  0  0  0  0  0  0  0  0  0
  152.0316  138.2140  158.1490 H   0  0  0  0  0  0  0  0  0  0  0  0
  151.5812  137.8975  156.4942 H   0  0  0  0  0  0  0  0  0  0  0  0
  150.1958  140.1944  156.8126 H   0  0  0  0  0  0  0  0  0  0  0  0
  151.8662  139.6409  155.0057 H   0  0  0  0  0  0  0  0  0  0  0  0
  153.1648  140.1328  156.0834 H   0  0  0  0  0  0  0  0  0  0  0  0
  151.9724  141.2920  155.4942 H   0  0  0  0  0  0  0  0  0  0  0  0
  152.3486  142.3980  157.1466 H   0  0  0  0  0  0  0  0  0  0  0  0
  150.6676  142.5872  157.6007 H   0  0  0  0  0  0  0  0  0  0  0  0
  151.2454  143.0048  159.9382 H   0  0  0  0  0  0  0  0  0  0  0  0
  151.2209  144.9778  158.4020 H   0  0  0  0  0  0  0  0  0  0  0  0
  152.9289  144.7260  158.0438 H   0  0  0  0  0  0  0  0  0  0  0  0
  152.4252  145.1747  159.6716 H   0  0  0  0  0  0  0  0  0  0  0  0
  152.4650  141.1663  160.8737 H   0  0  0  0  0  0  0  0  0  0  0  0
  154.6066  139.8837  161.0110 H   0  0  0  0  0  0  0  0  0  0  0  0
  154.8268  141.5499  161.5356 H   0  0  0  0  0  0  0  0  0  0  0  0
  155.3799  141.0506  159.9393 H   0  0  0  0  0  0  0  0  0  0  0  0
  152.8144  139.3869  159.2278 H   0  0  0  0  0  0  0  0  0  0  0  0
  153.6444  140.4728  158.1330 H   0  0  0  0  0  0  0  0  0  0  0  0
  1  2  1  0  0  0  0
  1 22  1  0  0  0  0
  1 23  1  0  0  0  0
  1 24  1  0  0  0  0
  2 21  1  0  0  0  0
  2  3  2  0  0  0  0
  3  4  1  0  0  0  0
  3 25  1  0  0  0  0
  4  5  1  0  0  0  0
  4 20  2  0  0  0  0
  5  6  1  0  0  0  0
  5 26  1  0  0  0  0
  6  7  2  0  0  0  0
  6  8  1  0  0  0  0
  8  9  1  0  0  0  0
  8 27  1  0  0  0  0
  9 10  1  0  0  0  0
  9 28  1  0  0  0  0
  9 29  1  0  0  0  0
 10 11  1  0  0  0  0
 10 12  1  0  0  0  0
 10 30  1  0  0  0  0
 11 31  1  0  0  0  0
 11 32  1  0  0  0  0
 11 33  1  0  0  0  0
 12 19  1  0  0  0  0
 12 13  1  0  0  0  0
 13 14  1  0  0  0  0
 13 34  1  0  0  0  0
 13 35  1  0  0  0  0
 14 15  1  0  0  0  0
 14 16  1  0  0  0  0
 14 36  1  0  0  0  0
 15 37  1  0  0  0  0
 15 38  1  0  0  0  0
 15 39  1  0  0  0  0
 16 17  1  0  0  0  0
 17 18  1  0  0  0  0
 17 19  1  0  0  0  0
 17 40  1  0  0  0  0
 18 41  1  0  0  0  0
 18 42  1  0  0  0  0
 18 43  1  0  0  0  0
 19 44  1  0  0  0  0
 19 45  1  0  0  0  0
 20 21  1  0  0  0  0
M  END
> <s_m_source_file>
AV-unprocessed.smi

> <i_m_source_file_index>
2061

> <i_lp_mmshare_version>
43012

> <i_f3d_flags>
0

> <s_epik_input>
W0NIM11jMVtjSF1jKG5vMSlbTkhdQyg9TylbTkhdW0NIMl1bQ0BIXShbQ0gzXSlOMltDSDJdW0NAQEhdKFtDSDNdKU9bQ0BASF0oW0NIM10pW0NIMl0y

> <s_epik_cmdline>
J2VwaWtfcHl0aG9uJywgJy1waCcsICc3LjAnLCAnLXRuJywgJzgnLCAnLW1hJywgJzIwMCcsICctbWV0YWxfYmluZGluZycsICctaW1hZScsICc8aW5maWxlLm1hZT4nLCAnLW9tYWUnLCAnPG91dGZpbGUubWFlPic=

> <r_epik_Ionization_Penalty>
0.214073

> <r_epik_Ionization_Penalty_Charging>
0

> <r_epik_Ionization_Penalty_Neutral>
0.214073

> <r_epik_State_Penalty>
0.204211

> <r_epik_Charging_Adjusted_Penalty>
0.204211

> <i_epik_Tot_Q>
0

> <i_epik_Tot_abs_Q>
0

> <r_epik_Metal_State_Penalty>
0.217067

> <b_epik_Metal_Only>
0

> <s_lp_Force_Field>
OPLS_2005

> <r_lp_Energy>
26.137

> <b_lp_Chiralities_Consistent>
1

> <s_lp_Variant>
AV-unprocessed.smi:2061-1

> <Gold.Version>
5.8.1

> <Gold.Id.Protein>
6NUR|6NUR_protein|mol2

> <Gold.PLP.Fitness>
43.8029

> <Gold.PLP.PLP>
-39.7621

> <Gold.PLP.part.hbond>
-2.4211

> <Gold.PLP.part.metal>
0.0000

> <Gold.PLP.part.buried>
-6.5478

> <Gold.PLP.part.nonpolar>
-32.5660

> <Gold.PLP.part.repulsive>
0.3232

> <Gold.PLP.ligand.clash>
0.0000

> <Gold.PLP.ligand.torsion>
0.9950

> <Gold.PLP.Chemscore.Hbond>
2.0000

> <Gold.PLP.Chemscore.CHOScore>
0.0000

> <Gold.PLP.Chemscore.Metal>
0.0000

> <Gold.Chemscore.Hbonds>
donor molecule, donor type, donor heavy atom, donor atom, acceptor molecule, acceptor atom, score
      P1  H  6896  6909       L1     7  1.00
      P1  H  6931  6943       L1    20  1.00

> <Gold.PLP.Chemscore.Internal.Correction>
0.0309

> <Gold.Rescore>
     Score         DG    S(hbond)    S(metal)    S(lipo)     H(rot)  DE(clash)    DE(int)     intcor
     17.51     -18.46       1.74        0.00      94.96       1.55       0.05       0.90       ----

> <Gold.Chemscore.Fitness>
17.5115

> <Gold.Chemscore.DG>
-18.4554

> <Gold.Chemscore.ZeroCoef>
-5.4800

> <Gold.Chemscore.Hbond>
1.7444

> <Gold.Chemscore.Metal>
0.0000

> <Gold.Chemscore.Lipo>
94.9588

> <Gold.Chemscore.Internal_Hbond>
0.0000

> <Gold.Chemscore.DEClash>
0.0456

> <Gold.Chemscore.DEInternal>
0.8983

> <Gold.Chemscore.Rot>
1.5474

> <Gold.Chemscore.Internal.Correction>
   9.000000E+99

> <Gold.Chemscore.Hbonds>
donor molecule, donor type, donor heavy atom, donor atom, acceptor molecule, acceptor atom, score
      P1  H  6896  6909       L1     7  0.88
      P1  H  6931  6943       L1    20  0.77

> <Gold.Chemscore.Hbond.Weighted>
-5.8264

> <Gold.Chemscore.Metal.Weighted>
-0.0000

> <Gold.Chemscore.Lipo.Weighted>
-11.1102

> <Gold.Chemscore.Internal_Hbond.Weighted>
0.0000

> <Gold.Chemscore.DEClash.Weighted>
0.0456

> <Gold.Chemscore.DEInternal.Weighted>
0.8983

> <Gold.Chemscore.Rot.Weighted>
3.9612

> <Gold.Chemscore.Internal.Correction.Weighted>
   9.000000E+99

> <Gold.Protein.RotatedTorsions>
[ 6907 6896 6895 6894 ] final  100.80 input  -60.11 | X-H torsion
[ 7974 7965 7964 7962 ] final  148.39 input  175.53 | X-H torsion
[ 8008 7997 7996 7995 ] final   15.83 input   59.86 | X-H torsion
[ 10167 10162 10161 10158 ] final  -33.47 input  -65.29 | X-H torsion
[ 10718 10713 10712 10709 ] final   79.58 input   66.30 | X-H torsion
[ 10763 10752 10751 10750 ] final  -50.69 input  -60.55 | X-H torsion
[ 11005 11000 10999 10996 ] final  108.10 input  -57.11 | X-H torsion

> <Gold.Protein.ActiveResidues>
 VAL166  LYS551  ARG553  GLY616  TRP617  ASP618  TYR619  PRO620  LYS621  CYS622 
 ASP623  PHE694  ASN695  SER759  ASP760  ASP761  ALA762  ILE779  LEU786  VAL792 
 PHE793  MET794  SER795  GLU796  ALA797  LYS798  CYS799  TRP800  GLU811  SER814 

> <Gold.Protein.RotatedAtoms>
  152.5364  134.0222  159.7986 H   0  0  0  0  0  0  0  0  0  0  0  0  # atno 6907 bound_to 6896
  151.0406  133.5701  159.2658 H   0  0  0  0  0  0  0  0  0  0  0  0  # atno 6908 bound_to 6896
  151.2672  135.0680  159.9174 H   0  0  0  0  0  0  0  0  0  0  0  0  # atno 6909 bound_to 6896
  144.8517  139.6148  143.5970 H   0  0  0  0  0  0  0  0  0  0  0  0  # atno 7974 bound_to 7965
  154.8683  140.2955  155.5497 H   0  0  0  0  0  0  0  0  0  0  0  0  # atno 8008 bound_to 7997
  156.3021  140.2465  156.3601 H   0  0  0  0  0  0  0  0  0  0  0  0  # atno 8009 bound_to 7997
  154.8844  140.0396  157.1791 H   0  0  0  0  0  0  0  0  0  0  0  0  # atno 8010 bound_to 7997
  140.7203  143.3618  151.1949 H   0  0  0  0  0  0  0  0  0  0  0  0  # atno 10167 bound_to 10162
  157.6781  130.9921  150.1954 H   0  0  0  0  0  0  0  0  0  0  0  0  # atno 10718 bound_to 10713
  154.1145  135.6544  153.4891 H   0  0  0  0  0  0  0  0  0  0  0  0  # atno 10763 bound_to 10752
  153.0245  135.5255  154.7159 H   0  0  0  0  0  0  0  0  0  0  0  0  # atno 10764 bound_to 10752
  154.6348  135.2981  155.0143 H   0  0  0  0  0  0  0  0  0  0  0  0  # atno 10765 bound_to 10752
  139.8838  134.9420  156.5921 H   0  0  0  0  0  0  0  0  0  0  0  0  # atno 11005 bound_to 11000
  146.2790  139.6828  142.9242 LP  0  0  0  0  0  0  0  0  0  0  0  0  # atno 17320 bound_to 7965
  145.4486  141.0427  143.2817 LP  0  0  0  0  0  0  0  0  0  0  0  0  # atno 17321 bound_to 7965
  139.7171  143.9283  152.2971 LP  0  0  0  0  0  0  0  0  0  0  0  0  # atno 17342 bound_to 10162
  139.9027  144.6902  150.8647 LP  0  0  0  0  0  0  0  0  0  0  0  0  # atno 17343 bound_to 10162
  156.2656  130.3716  149.8085 LP  0  0  0  0  0  0  0  0  0  0  0  0  # atno 17370 bound_to 10713
  156.5817  130.8468  151.3384 LP  0  0  0  0  0  0  0  0  0  0  0  0  # atno 17371 bound_to 10713
  140.7947  133.8553  155.8676 LP  0  0  0  0  0  0  0  0  0  0  0  0  # atno 17394 bound_to 11000
  140.9646  134.1611  157.4627 LP  0  0  0  0  0  0  0  0  0  0  0  0  # atno 17395 bound_to 11000

$$$$
