AV-unprocessed.smi:2313|AV-procd|sdf|9265|dock1
  -GOLD-   2272012493D 1   1.00000     0.00000
 Structure written by MMmdl.
 37 38  0  0  0  0  0  0  0  0  1 V2000
  152.7607  142.9713  162.1935 C   0  0  0  0  0  0  0  0  0  0  0  0
  152.4364  142.6490  160.7467 C   0  0  0  0  0  0  0  0  0  0  0  0
  151.5255  143.4932  160.0019 C   0  0  0  0  0  0  0  0  0  0  0  0
  151.2472  143.1931  158.7246 C   0  0  0  0  0  0  0  0  0  0  0  0
  151.8162  142.0797  158.0816 N   0  0  0  0  0  0  0  0  0  0  0  0
  151.4321  141.8408  156.6803 C   0  0  0  0  0  0  0  0  0  0  0  0
  150.0710  141.1443  156.5554 C   0  0  0  0  0  0  0  0  0  0  0  0
  149.9573  139.9527  156.8417 O   0  0  0  0  0  0  0  0  0  0  0  0
  149.0563  141.9118  156.1228 N   0  0  0  0  0  0  0  0  0  0  0  0
  147.6676  141.5201  155.8501 C   0  0  2  0  0  0  0  0  0  0  0  0
  147.1161  142.5655  154.8669 C   0  0  0  0  0  0  0  0  0  0  0  0
  146.8344  141.5668  157.0679 C   0  0  0  0  0  0  0  0  0  0  0  0
  146.1835  141.6024  158.0243 N   0  0  0  0  0  0  0  0  0  0  0  0
  147.4991  140.1318  155.2269 C   0  0  0  0  0  0  0  0  0  0  0  0
  147.2548  139.8841  153.7537 C   0  0  0  0  0  0  0  0  0  0  0  0
  146.1575  139.6135  154.7583 C   0  0  0  0  0  0  0  0  0  0  0  0
  152.6850  141.2399  158.7219 C   0  0  0  0  0  0  0  0  0  0  0  0
  153.1814  140.2659  158.1522 O   0  0  0  0  0  0  0  0  0  0  0  0
  152.9804  141.5765  160.1235 C   0  0  0  0  0  0  0  0  0  0  0  0
  153.8818  140.6950  160.7928 C   0  0  0  0  0  0  0  0  0  0  0  0
  154.6166  139.9946  161.3491 N   0  0  0  0  0  0  0  0  0  0  0  0
  152.2371  143.8685  162.5249 H   0  0  0  0  0  0  0  0  0  0  0  0
  153.8308  143.1402  162.3163 H   0  0  0  0  0  0  0  0  0  0  0  0
  152.4642  142.1474  162.8433 H   0  0  0  0  0  0  0  0  0  0  0  0
  151.0680  144.3540  160.4673 H   0  0  0  0  0  0  0  0  0  0  0  0
  150.5700  143.7794  158.1206 H   0  0  0  0  0  0  0  0  0  0  0  0
  151.3851  142.7767  156.1222 H   0  0  0  0  0  0  0  0  0  0  0  0
  152.2028  141.2481  156.1834 H   0  0  0  0  0  0  0  0  0  0  0  0
  149.2766  142.8778  155.9287 H   0  0  0  0  0  0  0  0  0  0  0  0
  146.0699  142.3716  154.6275 H   0  0  0  0  0  0  0  0  0  0  0  0
  147.6734  142.5636  153.9293 H   0  0  0  0  0  0  0  0  0  0  0  0
  147.1724  143.5721  155.2839 H   0  0  0  0  0  0  0  0  0  0  0  0
  148.1397  139.3891  155.6997 H   0  0  0  0  0  0  0  0  0  0  0  0
  147.1148  140.7291  153.0859 H   0  0  0  0  0  0  0  0  0  0  0  0
  147.7452  139.0227  153.3054 H   0  0  0  0  0  0  0  0  0  0  0  0
  145.9191  138.5742  154.9749 H   0  0  0  0  0  0  0  0  0  0  0  0
  145.3085  140.2940  154.7639 H   0  0  0  0  0  0  0  0  0  0  0  0
  1  2  1  0  0  0  0
  1 22  1  0  0  0  0
  1 23  1  0  0  0  0
  1 24  1  0  0  0  0
  2 19  2  0  0  0  0
  2  3  1  0  0  0  0
  3  4  2  0  0  0  0
  3 25  1  0  0  0  0
  4  5  1  0  0  0  0
  4 26  1  0  0  0  0
  5  6  1  0  0  0  0
  5 17  1  0  0  0  0
  6  7  1  0  0  0  0
  6 27  1  0  0  0  0
  6 28  1  0  0  0  0
  7  8  2  0  0  0  0
  7  9  1  0  0  0  0
  9 10  1  0  0  0  0
  9 29  1  0  0  0  0
 10 11  1  0  0  0  0
 10 12  1  0  0  0  0
 10 14  1  0  0  0  0
 11 30  1  0  0  0  0
 11 31  1  0  0  0  0
 11 32  1  0  0  0  0
 12 13  3  0  0  0  0
 14 16  1  0  0  0  0
 14 15  1  0  0  0  0
 14 33  1  0  0  0  0
 15 16  1  0  0  0  0
 15 34  1  0  0  0  0
 15 35  1  0  0  0  0
 16 36  1  0  0  0  0
 16 37  1  0  0  0  0
 17 18  2  0  0  0  0
 17 19  1  0  0  0  0
 19 20  1  0  0  0  0
 20 21  3  0  0  0  0
M  END
> <s_m_source_file>
AV-unprocessed.smi

> <i_m_source_file_index>
2313

> <i_lp_mmshare_version>
43012

> <i_f3d_flags>
0

> <s_epik_input>
W0NIM11jMVtjSF1bY0hdbihjKD1PKWMxQyNOKVtDSDJdQyg9TylbTkhdW0NAQF0oW0NIM10pKEMjTilbQ0hdMltDSDJdW0NIMl0y

> <s_epik_cmdline>
J2VwaWtfcHl0aG9uJywgJy1waCcsICc3LjAnLCAnLXRuJywgJzgnLCAnLW1hJywgJzIwMCcsICctbWV0YWxfYmluZGluZycsICctaW1hZScsICc8aW5maWxlLm1hZT4nLCAnLW9tYWUnLCAnPG91dGZpbGUubWFlPic=

> <r_lp_tautomer_probability>
1

> <r_epik_Ionization_Penalty>
4.65501e-07

> <r_epik_Ionization_Penalty_Charging>
2.39086e-10

> <r_epik_Ionization_Penalty_Neutral>
4.65262e-07

> <r_epik_State_Penalty>
-0

> <r_epik_Charging_Adjusted_Penalty>
2.39086e-10

> <i_epik_Tot_Q>
0

> <i_epik_Tot_abs_Q>
0

> <r_epik_Metal_State_Penalty>
-0

> <b_epik_Metal_Only>
0

> <s_lp_Force_Field>
OPLS_2005

> <r_lp_Energy>
23.1169

> <b_lp_Chiralities_Consistent>
1

> <s_lp_Variant>
AV-unprocessed.smi:2313-2

> <Gold.Version>
5.8.1

> <Gold.Id.Protein>
6NUR|6NUR_protein|mol2

> <Gold.PLP.Fitness>
42.9558

> <Gold.PLP.PLP>
-36.6027

> <Gold.PLP.part.hbond>
-2.0000

> <Gold.PLP.part.metal>
0.0000

> <Gold.PLP.part.buried>
-5.5032

> <Gold.PLP.part.nonpolar>
-28.7941

> <Gold.PLP.part.repulsive>
0.1400

> <Gold.PLP.ligand.clash>
0.0000

> <Gold.PLP.ligand.torsion>
1.8695

> <Gold.PLP.Chemscore.Hbond>
1.8560

> <Gold.PLP.Chemscore.CHOScore>
1.0000

> <Gold.PLP.Chemscore.Metal>
0.0000

> <Gold.Chemscore.Hbonds>
donor molecule, donor type, donor heavy atom, donor atom, acceptor molecule, acceptor atom, score
      L1  H     9    29       P1  8028  1.00
      P1  H  7997  8008       L1    18  0.90

> <Gold.PLP.Chemscore.Internal.Correction>
1.5241

> <Gold.Rescore>
     Score         DG    S(hbond)    S(metal)    S(lipo)     H(rot)  DE(clash)    DE(int)     intcor
     14.01     -16.69       1.81        0.00      83.40       1.80       0.20       2.49       ----

> <Gold.Chemscore.Fitness>
14.0097

> <Gold.Chemscore.DG>
-16.6928

> <Gold.Chemscore.ZeroCoef>
-5.4800

> <Gold.Chemscore.Hbond>
1.8118

> <Gold.Chemscore.Metal>
0.0000

> <Gold.Chemscore.Lipo>
83.4012

> <Gold.Chemscore.Internal_Hbond>
0.0000

> <Gold.Chemscore.DEClash>
0.1962

> <Gold.Chemscore.DEInternal>
2.4869

> <Gold.Chemscore.Rot>
1.7955

> <Gold.Chemscore.Internal.Correction>
   9.000000E+99

> <Gold.Chemscore.Hbonds>
donor molecule, donor type, donor heavy atom, donor atom, acceptor molecule, acceptor atom, score
      L1  H     9    29       P1  8028  0.98
      P1  H  7997  8008       L1    18  0.88

> <Gold.Chemscore.Hbond.Weighted>
-6.0513

> <Gold.Chemscore.Metal.Weighted>
-0.0000

> <Gold.Chemscore.Lipo.Weighted>
-9.7579

> <Gold.Chemscore.Internal_Hbond.Weighted>
0.0000

> <Gold.Chemscore.DEClash.Weighted>
0.1962

> <Gold.Chemscore.DEInternal.Weighted>
2.4869

> <Gold.Chemscore.Rot.Weighted>
4.5965

> <Gold.Chemscore.Internal.Correction.Weighted>
   9.000000E+99

> <Gold.Protein.RotatedTorsions>
[ 6907 6896 6895 6894 ] final -150.73 input  -60.11 | X-H torsion
[ 7974 7965 7964 7962 ] final -153.95 input  175.53 | X-H torsion
[ 8008 7997 7996 7995 ] final  -76.76 input   59.86 | X-H torsion
[ 10167 10162 10161 10158 ] final  -60.26 input  -65.29 | X-H torsion
[ 10718 10713 10712 10709 ] final  144.76 input   66.30 | X-H torsion
[ 10763 10752 10751 10750 ] final -145.90 input  -60.55 | X-H torsion
[ 11005 11000 10999 10996 ] final -126.97 input  -57.11 | X-H torsion

> <Gold.Protein.ActiveResidues>
 VAL166  LYS551  ARG553  GLY616  TRP617  ASP618  TYR619  PRO620  LYS621  CYS622 
 ASP623  PHE694  ASN695  SER759  ASP760  ASP761  ALA762  ILE779  LEU786  VAL792 
 PHE793  MET794  SER795  GLU796  ALA797  LYS798  CYS799  TRP800  GLU811  SER814 

> <Gold.Protein.RotatedAtoms>
  151.2028  133.4601  159.2596 H   0  0  0  0  0  0  0  0  0  0  0  0  # atno 6907 bound_to 6896
  151.1053  134.9995  159.8478 H   0  0  0  0  0  0  0  0  0  0  0  0  # atno 6908 bound_to 6896
  152.5446  134.1952  159.8743 H   0  0  0  0  0  0  0  0  0  0  0  0  # atno 6909 bound_to 6896
  144.7714  140.4455  143.5904 H   0  0  0  0  0  0  0  0  0  0  0  0  # atno 7974 bound_to 7965
  154.5535  140.0721  156.8705 H   0  0  0  0  0  0  0  0  0  0  0  0  # atno 8008 bound_to 7997
  155.2948  140.3380  155.4232 H   0  0  0  0  0  0  0  0  0  0  0  0  # atno 8009 bound_to 7997
  156.1981  140.1711  156.7941 H   0  0  0  0  0  0  0  0  0  0  0  0  # atno 8010 bound_to 7997
  140.6082  143.2379  151.5771 H   0  0  0  0  0  0  0  0  0  0  0  0  # atno 10167 bound_to 10162
  157.3533  131.0954  151.0980 H   0  0  0  0  0  0  0  0  0  0  0  0  # atno 10718 bound_to 10713
  154.8361  135.3400  154.6578 H   0  0  0  0  0  0  0  0  0  0  0  0  # atno 10763 bound_to 10752
  153.7192  135.6959  153.5021 H   0  0  0  0  0  0  0  0  0  0  0  0  # atno 10764 bound_to 10752
  153.2394  135.4390  155.0634 H   0  0  0  0  0  0  0  0  0  0  0  0  # atno 10765 bound_to 10752
  140.9638  134.0900  157.3941 H   0  0  0  0  0  0  0  0  0  0  0  0  # atno 11005 bound_to 11000
  145.6312  139.1536  143.2968 LP  0  0  0  0  0  0  0  0  0  0  0  0  # atno 17320 bound_to 7965
  146.1863  140.6416  142.9166 LP  0  0  0  0  0  0  0  0  0  0  0  0  # atno 17321 bound_to 7965
  139.5341  144.2831  152.1213 LP  0  0  0  0  0  0  0  0  0  0  0  0  # atno 17342 bound_to 10162
  140.2025  144.4644  150.6424 LP  0  0  0  0  0  0  0  0  0  0  0  0  # atno 17343 bound_to 10162
  157.2148  130.6454  149.5788 LP  0  0  0  0  0  0  0  0  0  0  0  0  # atno 17370 bound_to 10713
  155.9725  130.4648  150.6231 LP  0  0  0  0  0  0  0  0  0  0  0  0  # atno 17371 bound_to 10713
  139.8887  135.0100  156.6637 LP  0  0  0  0  0  0  0  0  0  0  0  0  # atno 17394 bound_to 11000
  140.7429  133.8962  155.8291 LP  0  0  0  0  0  0  0  0  0  0  0  0  # atno 17395 bound_to 11000

$$$$
