AV-unprocessed.smi:1100|AV-procd|sdf|4761|dock7
  -GOLD-   22720 3293D 1   1.00000     0.00000
 Structure written by MMmdl.
 44 45  0  0  0  0  0  0  0  0  2 V2000
  145.5171  141.6959  154.8421 C   0  0  0  0  0  0  0  0  0  0  0  0
  146.4699  140.5881  154.3307 C   0  0  2  0  0  0  0  0  0  0  0  0
  147.6892  141.2225  153.6098 C   0  0  0  0  0  0  0  0  0  0  0  0
  148.5778  141.9460  154.5147 N   0  0  0  0  0  0  0  0  0  0  0  0
  149.1481  141.4232  155.6095 C   0  0  0  0  0  0  0  0  0  0  0  0
  148.9751  140.2573  155.9626 O   0  0  0  0  0  0  0  0  0  0  0  0
  149.8981  142.3411  156.2458 N   0  0  0  0  0  0  0  0  0  0  0  0
  150.6726  142.2000  157.4059 C   0  0  0  0  0  0  0  0  0  0  0  0
  150.9259  140.9480  158.1048 C   0  0  0  0  0  0  0  0  0  0  0  0
  151.6836  140.9202  159.2191 C   0  0  0  0  0  0  0  0  0  0  0  0
  152.2840  142.1360  159.7736 C   0  0  0  0  0  0  0  0  0  0  0  0
  152.9668  142.1241  160.7981 O   0  0  0  0  0  0  0  0  0  0  0  0
  152.0386  143.2837  159.0780 N   0  0  0  0  0  0  0  0  0  0  0  0
  152.5987  144.5542  159.5448 C   0  0  0  0  0  0  0  0  0  0  0  0
  151.2435  143.3060  157.9169 C   0  0  0  0  0  0  0  0  0  0  0  0
  145.8026  139.5898  153.4327 N   0  3  0  0  0  0  0  0  0  0  0  0
  146.7811  138.7522  152.6866 C   0  0  0  0  0  0  0  0  0  0  0  0
  146.0677  137.8089  151.7050 C   0  0  0  0  0  0  0  0  0  0  0  0
  145.1548  136.9870  152.4171 O   0  0  0  0  0  0  0  0  0  0  0  0
  144.1488  137.7585  153.0565 C   0  0  0  0  0  0  0  0  0  0  0  0
  144.7903  138.7105  154.0806 C   0  0  0  0  0  0  0  0  0  0  0  0
  146.0375  142.4157  155.4737 H   0  0  0  0  0  0  0  0  0  0  0  0
  144.7141  141.2922  155.4587 H   0  0  0  0  0  0  0  0  0  0  0  0
  145.0699  142.2508  154.0166 H   0  0  0  0  0  0  0  0  0  0  0  0
  146.8215  140.0492  155.2121 H   0  0  0  0  0  0  0  0  0  0  0  0
  148.2821  140.4794  153.0778 H   0  0  0  0  0  0  0  0  0  0  0  0
  147.3414  141.9258  152.8524 H   0  0  0  0  0  0  0  0  0  0  0  0
  148.7691  142.9121  154.2922 H   0  0  0  0  0  0  0  0  0  0  0  0
  149.9095  143.2666  155.8430 H   0  0  0  0  0  0  0  0  0  0  0  0
  150.5308  140.0102  157.7503 H   0  0  0  0  0  0  0  0  0  0  0  0
  151.8593  139.9764  159.7142 H   0  0  0  0  0  0  0  0  0  0  0  0
  152.4273  145.3721  158.8443 H   0  0  0  0  0  0  0  0  0  0  0  0
  153.6775  144.4747  159.6865 H   0  0  0  0  0  0  0  0  0  0  0  0
  152.1508  144.8380  160.4979 H   0  0  0  0  0  0  0  0  0  0  0  0
  151.1207  144.2833  157.4723 H   0  0  0  0  0  0  0  0  0  0  0  0
  147.4816  139.3687  152.1261 H   0  0  0  0  0  0  0  0  0  0  0  0
  147.3736  138.1675  153.3922 H   0  0  0  0  0  0  0  0  0  0  0  0
  145.5467  138.3721  150.9292 H   0  0  0  0  0  0  0  0  0  0  0  0
  146.7950  137.1720  151.2013 H   0  0  0  0  0  0  0  0  0  0  0  0
  143.5732  138.3148  152.3146 H   0  0  0  0  0  0  0  0  0  0  0  0
  143.4529  137.0844  153.5565 H   0  0  0  0  0  0  0  0  0  0  0  0
  145.2598  138.1382  154.8823 H   0  0  0  0  0  0  0  0  0  0  0  0
  143.9882  139.3000  154.5236 H   0  0  0  0  0  0  0  0  0  0  0  0
  145.2942  140.1281  152.7458 H   0  0  0  0  0  0  0  0  0  0  0  0
  1  2  1  0  0  0  0
  1 22  1  0  0  0  0
  1 23  1  0  0  0  0
  1 24  1  0  0  0  0
  2  3  1  0  0  0  0
  2 16  1  0  0  0  0
  2 25  1  0  0  0  0
  3  4  1  0  0  0  0
  3 26  1  0  0  0  0
  3 27  1  0  0  0  0
  4  5  1  0  0  0  0
  4 28  1  0  0  0  0
  5  6  2  0  0  0  0
  5  7  1  0  0  0  0
  7  8  1  0  0  0  0
  7 29  1  0  0  0  0
  8 15  2  0  0  0  0
  8  9  1  0  0  0  0
  9 10  2  0  0  0  0
  9 30  1  0  0  0  0
 10 11  1  0  0  0  0
 10 31  1  0  0  0  0
 11 12  2  0  0  0  0
 11 13  1  0  0  0  0
 13 14  1  0  0  0  0
 13 15  1  0  0  0  0
 14 32  1  0  0  0  0
 14 33  1  0  0  0  0
 14 34  1  0  0  0  0
 15 35  1  0  0  0  0
 16 21  1  0  0  0  0
 16 17  1  0  0  0  0
 16 44  1  0  0  0  0
 17 18  1  0  0  0  0
 17 36  1  0  0  0  0
 17 37  1  0  0  0  0
 18 19  1  0  0  0  0
 18 38  1  0  0  0  0
 18 39  1  0  0  0  0
 19 20  1  0  0  0  0
 20 21  1  0  0  0  0
 20 40  1  0  0  0  0
 20 41  1  0  0  0  0
 21 42  1  0  0  0  0
 21 43  1  0  0  0  0
M  CHG  1  16   1
M  END
> <s_m_source_file>
AV-unprocessed.smi

> <i_m_source_file_index>
1100

> <i_lp_mmshare_version>
43012

> <i_f3d_flags>
0

> <s_epik_input>
W0NIMl0xW0NIMl1PW0NIMl1bQ0gyXU4xW0NASF0oW0NIM10pW0NIMl1bTkhdQyg9TylbTkhdYzJbY0hdW2NIXWMoPU8pbihbQ0gzXSlbY0hdMg==

> <s_epik_cmdline>
J2VwaWtfcHl0aG9uJywgJy1waCcsICc3LjAnLCAnLXRuJywgJzgnLCAnLW1hJywgJzIwMCcsICctbWV0YWxfYmluZGluZycsICctaW1hZScsICc8aW5maWxlLm1hZT4nLCAnLW9tYWUnLCAnPG91dGZpbGUubWFlPic=

> <r_lp_tautomer_probability>
1

> <r_epik_Ionization_Penalty>
0.602556

> <r_epik_Ionization_Penalty_Charging>
0.602536

> <r_epik_Ionization_Penalty_Neutral>
1.99507e-05

> <r_epik_State_Penalty>
0.617039

> <r_epik_Charging_Adjusted_Penalty>
1.21958

> <i_epik_Tot_Q>
1

> <i_epik_Tot_abs_Q>
1

> <r_epik_Metal_State_Penalty>
0.619464

> <b_epik_Metal_Only>
0

> <s_lp_Force_Field>
OPLS_2005

> <r_lp_Energy>
33.1854

> <b_lp_Chiralities_Consistent>
1

> <s_lp_Variant>
AV-unprocessed.smi:1100-3

> <Gold.Version>
5.8.1

> <Gold.Id.Protein>
6NUR|6NUR_protein|mol2

> <Gold.PLP.Fitness>
49.6721

> <Gold.PLP.PLP>
-37.6346

> <Gold.PLP.part.hbond>
-3.0000

> <Gold.PLP.part.metal>
0.0000

> <Gold.PLP.part.buried>
-3.0412

> <Gold.PLP.part.nonpolar>
-33.3478

> <Gold.PLP.part.repulsive>
0.5637

> <Gold.PLP.ligand.clash>
0.0000

> <Gold.PLP.ligand.torsion>
0.2705

> <Gold.PLP.Chemscore.Hbond>
3.7855

> <Gold.PLP.Chemscore.CHOScore>
0.3862

> <Gold.PLP.Chemscore.Metal>
0.0000

> <Gold.Chemscore.Hbonds>
donor molecule, donor type, donor heavy atom, donor atom, acceptor molecule, acceptor atom, score
      L1  H     4    28       P1  8028  0.29
      L1  H     7    29       P1  8028  0.83
      L1  H    16    44       P1 10175  1.44
      L1  C    15    35       P1  8028  0.10

> <Gold.PLP.Chemscore.Internal.Correction>
0.0636

> <Gold.Rescore>
     Score         DG    S(hbond)    S(metal)    S(lipo)     H(rot)  DE(clash)    DE(int)     intcor
     15.54     -18.58       2.73        0.00      67.81       1.54       0.09       2.95       ----

> <Gold.Chemscore.Fitness>
15.5395

> <Gold.Chemscore.DG>
-18.5802

> <Gold.Chemscore.ZeroCoef>
-5.4800

> <Gold.Chemscore.Hbond>
2.7272

> <Gold.Chemscore.Metal>
0.0000

> <Gold.Chemscore.Lipo>
67.8061

> <Gold.Chemscore.Internal_Hbond>
0.0000

> <Gold.Chemscore.DEClash>
0.0904

> <Gold.Chemscore.DEInternal>
2.9503

> <Gold.Chemscore.Rot>
1.5398

> <Gold.Chemscore.Internal.Correction>
   9.000000E+99

> <Gold.Chemscore.Hbonds>
donor molecule, donor type, donor heavy atom, donor atom, acceptor molecule, acceptor atom, score
      L1  H     4    28       P1  8028  0.30
      L1  H     7    29       P1  8028  0.83
      L1  H    16    44       P1 10175  0.70

> <Gold.Chemscore.Hbond.Weighted>
-9.1089

> <Gold.Chemscore.Metal.Weighted>
-0.0000

> <Gold.Chemscore.Lipo.Weighted>
-7.9333

> <Gold.Chemscore.Internal_Hbond.Weighted>
0.0000

> <Gold.Chemscore.DEClash.Weighted>
0.0904

> <Gold.Chemscore.DEInternal.Weighted>
2.9503

> <Gold.Chemscore.Rot.Weighted>
3.9420

> <Gold.Chemscore.Internal.Correction.Weighted>
   9.000000E+99

> <Gold.Protein.RotatedTorsions>
[ 6907 6896 6895 6894 ] final -116.52 input  -60.11 | X-H torsion
[ 7974 7965 7964 7962 ] final  -42.72 input  175.53 | X-H torsion
[ 8008 7997 7996 7995 ] final   63.55 input   59.86 | X-H torsion
[ 10167 10162 10161 10158 ] final   56.57 input  -65.29 | X-H torsion
[ 10718 10713 10712 10709 ] final   57.24 input   66.30 | X-H torsion
[ 10763 10752 10751 10750 ] final  -84.07 input  -60.55 | X-H torsion
[ 11005 11000 10999 10996 ] final   33.86 input  -57.11 | X-H torsion

> <Gold.Protein.ActiveResidues>
 VAL166  LYS551  ARG553  GLY616  TRP617  ASP618  TYR619  PRO620  LYS621  CYS622 
 ASP623  PHE694  ASN695  SER759  ASP760  ASP761  ALA762  ILE779  LEU786  VAL792 
 PHE793  MET794  SER795  GLU796  ALA797  LYS798  CYS799  TRP800  GLU811  SER814 

> <Gold.Protein.RotatedAtoms>
  150.8062  133.8505  159.3203 H   0  0  0  0  0  0  0  0  0  0  0  0  # atno 6907 bound_to 6896
  151.6304  135.1022  160.0130 H   0  0  0  0  0  0  0  0  0  0  0  0  # atno 6908 bound_to 6896
  152.4153  133.6988  159.6468 H   0  0  0  0  0  0  0  0  0  0  0  0  # atno 6909 bound_to 6896
  146.0088  140.6988  142.9234 H   0  0  0  0  0  0  0  0  0  0  0  0  # atno 7974 bound_to 7965
  155.6320  140.3496  155.4686 H   0  0  0  0  0  0  0  0  0  0  0  0  # atno 8008 bound_to 7997
  155.9996  140.1210  157.0584 H   0  0  0  0  0  0  0  0  0  0  0  0  # atno 8009 bound_to 7997
  154.4244  140.1103  156.5664 H   0  0  0  0  0  0  0  0  0  0  0  0  # atno 8010 bound_to 7997
  140.2073  144.3925  150.6503 H   0  0  0  0  0  0  0  0  0  0  0  0  # atno 10167 bound_to 10162
  157.5498  130.8757  149.8946 H   0  0  0  0  0  0  0  0  0  0  0  0  # atno 10718 bound_to 10713
  154.5952  135.5533  153.7319 H   0  0  0  0  0  0  0  0  0  0  0  0  # atno 10763 bound_to 10752
  153.0132  135.6353  154.1792 H   0  0  0  0  0  0  0  0  0  0  0  0  # atno 10764 bound_to 10752
  154.1732  135.2891  155.3054 H   0  0  0  0  0  0  0  0  0  0  0  0  # atno 10765 bound_to 10752
  140.2587  134.3217  155.7865 H   0  0  0  0  0  0  0  0  0  0  0  0  # atno 11005 bound_to 11000
  144.6945  140.3363  143.7207 LP  0  0  0  0  0  0  0  0  0  0  0  0  # atno 17320 bound_to 7965
  145.7374  139.1754  143.2396 LP  0  0  0  0  0  0  0  0  0  0  0  0  # atno 17321 bound_to 7965
  140.6348  143.2193  151.6418 LP  0  0  0  0  0  0  0  0  0  0  0  0  # atno 17342 bound_to 10162
  139.5193  144.3256  152.0872 LP  0  0  0  0  0  0  0  0  0  0  0  0  # atno 17343 bound_to 10162
  156.0567  130.3707  150.1075 LP  0  0  0  0  0  0  0  0  0  0  0  0  # atno 17370 bound_to 10713
  156.9248  130.9695  151.3542 LP  0  0  0  0  0  0  0  0  0  0  0  0  # atno 17371 bound_to 10713
  141.2193  133.7397  156.9153 LP  0  0  0  0  0  0  0  0  0  0  0  0  # atno 17394 bound_to 11000
  140.1486  134.9245  157.2562 LP  0  0  0  0  0  0  0  0  0  0  0  0  # atno 17395 bound_to 11000

$$$$
