AV-unprocessed.smi:112|AV-procd|sdf|1086|dock10
  -GOLD-   2262018183D 1   1.00000     0.00000
 Structure written by MMmdl.
 54 57  0  0  0  0  0  0  0  0  3 V2000
  146.4312  127.7153  151.6974 C   0  0  0  0  0  0  0  0  0  0  0  0
  146.7032  129.0557  152.3609 C   0  0  0  0  0  0  0  0  0  0  0  0
  146.0102  130.1714  152.0384 C   0  0  0  0  0  0  0  0  0  0  0  0
  146.2317  131.4037  152.6226 N   0  0  0  0  0  0  0  0  0  0  0  0
  145.4047  132.5978  152.2134 C   0  0  1  0  0  0  0  0  0  0  0  0
  146.2534  133.6344  151.4825 C   0  0  0  0  0  0  0  0  0  0  0  0
  145.2187  134.3147  150.6037 C   0  0  2  0  0  0  0  0  0  0  0  0
  144.6813  135.4441  151.2652 O   0  0  0  0  0  0  0  0  0  0  0  0
  144.1317  133.2358  150.4157 C   0  0  1  0  0  0  0  0  0  0  0  0
  144.0091  132.6570  148.9939 C   0  0  0  0  0  0  0  0  0  0  0  0
  143.8162  133.6704  148.0276 O   0  0  0  0  0  0  0  0  0  0  0  0
  144.4261  132.1740  151.3203 O   0  0  0  0  0  0  0  0  0  0  0  0
  147.2381  131.5459  153.5993 C   0  0  0  0  0  0  0  0  0  0  0  0
  147.4612  132.6372  154.1281 O   0  0  0  0  0  0  0  0  0  0  0  0
  147.9888  130.4010  153.9513 N   0  0  0  0  0  0  0  0  0  0  0  0
  149.0546  130.5346  154.9711 C   0  0  0  0  0  0  0  0  0  0  0  0
  148.5280  130.7225  156.4110 C   0  0  0  0  0  0  0  0  0  0  0  0
  148.0574  129.7514  157.0043 O   0  0  0  0  0  0  0  0  0  0  0  0
  148.6077  131.9619  156.9570 N   0  0  0  0  0  0  0  0  0  0  0  0
  149.1683  133.1265  156.2493 C   0  0  0  0  0  0  0  0  0  0  0  0
  149.0659  134.3188  157.2251 C   0  0  0  0  0  0  0  0  0  0  0  0
  148.4352  133.7084  158.4413 C   0  0  0  0  0  0  0  0  0  0  0  0
  148.1159  134.3677  159.6403 C   0  0  0  0  0  0  0  0  0  0  0  0
  147.5187  133.6271  160.6904 C   0  0  0  0  0  0  0  0  0  0  0  0
  147.1685  134.2867  161.9640 N   0  3  0  0  0  0  0  0  0  0  0  0
  146.8808  133.5806  162.9251 O   0  0  0  0  0  0  0  0  0  0  0  0
  147.1804  135.5128  162.0053 O   0  5  0  0  0  0  0  0  0  0  0  0
  147.2625  132.2431  160.4999 C   0  0  0  0  0  0  0  0  0  0  0  0
  147.5914  131.5962  159.2884 C   0  0  0  0  0  0  0  0  0  0  0  0
  148.1846  132.3537  158.2553 C   0  0  0  0  0  0  0  0  0  0  0  0
  147.7559  129.1263  153.3770 C   0  0  0  0  0  0  0  0  0  0  0  0
  148.4155  128.1478  153.7331 O   0  0  0  0  0  0  0  0  0  0  0  0
  145.6328  127.7838  150.9580 H   0  0  0  0  0  0  0  0  0  0  0  0
  146.1345  126.9749  152.4410 H   0  0  0  0  0  0  0  0  0  0  0  0
  147.3256  127.3527  151.1895 H   0  0  0  0  0  0  0  0  0  0  0  0
  145.2429  130.0969  151.2809 H   0  0  0  0  0  0  0  0  0  0  0  0
  144.9081  132.9978  153.0984 H   0  0  0  0  0  0  0  0  0  0  0  0
  146.7699  134.2947  152.1803 H   0  0  0  0  0  0  0  0  0  0  0  0
  146.9927  133.1285  150.8602 H   0  0  0  0  0  0  0  0  0  0  0  0
  145.6524  134.6512  149.6612 H   0  0  0  0  0  0  0  0  0  0  0  0
  143.7424  135.3479  151.3128 H   0  0  0  0  0  0  0  0  0  0  0  0
  143.1560  133.6334  150.7008 H   0  0  0  0  0  0  0  0  0  0  0  0
  144.8928  132.0716  148.7388 H   0  0  0  0  0  0  0  0  0  0  0  0
  143.1541  131.9825  148.9448 H   0  0  0  0  0  0  0  0  0  0  0  0
  144.6115  134.1765  147.9605 H   0  0  0  0  0  0  0  0  0  0  0  0
  149.7085  129.6625  154.9408 H   0  0  0  0  0  0  0  0  0  0  0  0
  149.7142  131.3690  154.7290 H   0  0  0  0  0  0  0  0  0  0  0  0
  150.2104  132.9510  155.9790 H   0  0  0  0  0  0  0  0  0  0  0  0
  148.6068  133.3328  155.3371 H   0  0  0  0  0  0  0  0  0  0  0  0
  150.0462  134.7288  157.4696 H   0  0  0  0  0  0  0  0  0  0  0  0
  148.4375  135.1170  156.8286 H   0  0  0  0  0  0  0  0  0  0  0  0
  148.3279  135.4218  159.7447 H   0  0  0  0  0  0  0  0  0  0  0  0
  146.8077  131.6593  161.2867 H   0  0  0  0  0  0  0  0  0  0  0  0
  147.3808  130.5435  159.1854 H   0  0  0  0  0  0  0  0  0  0  0  0
  1  2  1  0  0  0  0
  1 33  1  0  0  0  0
  1 34  1  0  0  0  0
  1 35  1  0  0  0  0
  2 31  1  0  0  0  0
  2  3  2  0  0  0  0
  3  4  1  0  0  0  0
  3 36  1  0  0  0  0
  4  5  1  0  0  0  0
  4 13  1  0  0  0  0
  5 12  1  0  0  0  0
  5  6  1  0  0  0  0
  5 37  1  0  0  0  0
  6  7  1  0  0  0  0
  6 38  1  0  0  0  0
  6 39  1  0  0  0  0
  7  8  1  0  0  0  0
  7  9  1  0  0  0  0
  7 40  1  0  0  0  0
  8 41  1  0  0  0  0
  9 10  1  0  0  0  0
  9 12  1  0  0  0  0
  9 42  1  0  0  0  0
 10 11  1  0  0  0  0
 10 43  1  0  0  0  0
 10 44  1  0  0  0  0
 11 45  1  0  0  0  0
 13 14  2  0  0  0  0
 13 15  1  0  0  0  0
 15 16  1  0  0  0  0
 15 31  1  0  0  0  0
 16 17  1  0  0  0  0
 16 46  1  0  0  0  0
 16 47  1  0  0  0  0
 17 18  2  0  0  0  0
 17 19  1  0  0  0  0
 19 30  1  0  0  0  0
 19 20  1  0  0  0  0
 20 21  1  0  0  0  0
 20 48  1  0  0  0  0
 20 49  1  0  0  0  0
 21 22  1  0  0  0  0
 21 50  1  0  0  0  0
 21 51  1  0  0  0  0
 22 30  2  0  0  0  0
 22 23  1  0  0  0  0
 23 24  2  0  0  0  0
 23 52  1  0  0  0  0
 24 25  1  0  0  0  0
 24 28  1  0  0  0  0
 25 26  2  0  0  0  0
 25 27  1  0  0  0  0
 28 29  2  0  0  0  0
 28 53  1  0  0  0  0
 29 30  1  0  0  0  0
 29 54  1  0  0  0  0
 31 32  2  0  0  0  0
M  CHG  1  25   1
M  CHG  1  27  -1
M  END
> <s_m_source_file>
AV-unprocessed.smi

> <i_m_source_file_index>
112

> <i_lp_mmshare_version>
43012

> <i_f3d_flags>
0

> <s_epik_input>
W09IXVtDSDJdW0NAQEhdKE8xKVtDQEhdKFtPSF0pW0NIMl1bQ0BIXTFuKFtjSF1jMltDSDNdKWMoPU8pbihjMj1PKVtDSDJdQyg9TylOKFtDSDJdW0NIMl0zKWMoYzM0KVtjSF1bY0hdYyhbY0hdNClbTitdKD1PKVtPLV0=

> <s_epik_cmdline>
J2VwaWtfcHl0aG9uJywgJy1waCcsICc3LjAnLCAnLXRuJywgJzgnLCAnLW1hJywgJzIwMCcsICctbWV0YWxfYmluZGluZycsICctaW1hZScsICc8aW5maWxlLm1hZT4nLCAnLW9tYWUnLCAnPG91dGZpbGUubWFlPic=

> <r_lp_tautomer_probability>
1

> <r_epik_Ionization_Penalty>
2.5696e-07

> <r_epik_Ionization_Penalty_Charging>
1.04886e-08

> <r_epik_Ionization_Penalty_Neutral>
2.46472e-07

> <r_epik_State_Penalty>
-0

> <r_epik_Charging_Adjusted_Penalty>
1.04886e-08

> <i_epik_Tot_Q>
0

> <i_epik_Tot_abs_Q>
2

> <r_epik_Metal_State_Penalty>
-0

> <b_epik_Metal_Only>
0

> <s_epik_Chemistry_Notes>
This compound contains an acetal/aminal-like group ( X-CH(R)-Y where X, Y are N, S, or O) that may be acid/base labile, releasing an aldehyde.

> <s_lp_Force_Field>
OPLS_2005

> <r_lp_Energy>
61.0713

> <b_lp_Chiralities_Consistent>
1

> <s_lp_Variant>
AV-unprocessed.smi:112-4

> <Gold.Version>
5.8.1

> <Gold.Id.Protein>
6NUR|6NUR_protein|mol2

> <Gold.PLP.Fitness>
55.8228

> <Gold.PLP.PLP>
-47.0911

> <Gold.PLP.part.hbond>
-6.0746

> <Gold.PLP.part.metal>
0.0000

> <Gold.PLP.part.buried>
-4.4694

> <Gold.PLP.part.nonpolar>
-36.9376

> <Gold.PLP.part.repulsive>
0.3525

> <Gold.PLP.ligand.clash>
0.0000

> <Gold.PLP.ligand.torsion>
0.4771

> <Gold.PLP.Chemscore.Hbond>
3.2246

> <Gold.PLP.Chemscore.CHOScore>
0.0000

> <Gold.PLP.Chemscore.Metal>
0.0000

> <Gold.Chemscore.Hbonds>
donor molecule, donor type, donor heavy atom, donor atom, acceptor molecule, acceptor atom, score
      L1  H    11    45       P1  7921  1.00

> <Gold.PLP.Chemscore.Internal.Correction>
0.0123

> <Gold.Rescore>
     Score         DG    S(hbond)    S(metal)    S(lipo)     H(rot)  DE(clash)    DE(int)     intcor
     13.17     -16.94       2.73        0.00      92.02       3.29       0.62       3.15       ----

> <Gold.Chemscore.Fitness>
13.1727

> <Gold.Chemscore.DG>
-16.9423

> <Gold.Chemscore.ZeroCoef>
-5.4800

> <Gold.Chemscore.Hbond>
2.7313

> <Gold.Chemscore.Metal>
0.0000

> <Gold.Chemscore.Lipo>
92.0199

> <Gold.Chemscore.Internal_Hbond>
0.0000

> <Gold.Chemscore.DEClash>
0.6197

> <Gold.Chemscore.DEInternal>
3.1499

> <Gold.Chemscore.Rot>
3.2916

> <Gold.Chemscore.Internal.Correction>
   9.000000E+99

> <Gold.Chemscore.Hbonds>
donor molecule, donor type, donor heavy atom, donor atom, acceptor molecule, acceptor atom, score
      L1  H    11    45       P1  7921  1.00
      P1  H 10192 10197       L1    11  0.01

> <Gold.Chemscore.Hbond.Weighted>
-9.1225

> <Gold.Chemscore.Metal.Weighted>
-0.0000

> <Gold.Chemscore.Lipo.Weighted>
-10.7663

> <Gold.Chemscore.Internal_Hbond.Weighted>
0.0000

> <Gold.Chemscore.DEClash.Weighted>
0.6197

> <Gold.Chemscore.DEInternal.Weighted>
3.1499

> <Gold.Chemscore.Rot.Weighted>
8.4265

> <Gold.Chemscore.Internal.Correction.Weighted>
   9.000000E+99

> <Gold.Protein.RotatedTorsions>
[ 6907 6896 6895 6894 ] final -142.83 input  -60.11 | X-H torsion
[ 7974 7965 7964 7962 ] final   40.43 input  175.53 | X-H torsion
[ 8008 7997 7996 7995 ] final  -75.87 input   59.86 | X-H torsion
[ 10167 10162 10161 10158 ] final  179.62 input  -65.29 | X-H torsion
[ 10718 10713 10712 10709 ] final   -2.73 input   66.30 | X-H torsion
[ 10763 10752 10751 10750 ] final  154.07 input  -60.55 | X-H torsion
[ 11005 11000 10999 10996 ] final   93.17 input  -57.11 | X-H torsion

> <Gold.Protein.ActiveResidues>
 VAL166  LYS551  ARG553  GLY616  TRP617  ASP618  TYR619  PRO620  LYS621  CYS622 
 ASP623  PHE694  ASN695  SER759  ASP760  ASP761  ALA762  ILE779  LEU786  VAL792 
 PHE793  MET794  SER795  GLU796  ALA797  LYS798  CYS799  TRP800  GLU811  SER814 

> <Gold.Protein.RotatedAtoms>
  151.0923  133.5306  159.2614 H   0  0  0  0  0  0  0  0  0  0  0  0  # atno 6907 bound_to 6896
  151.2168  135.0502  159.8943 H   0  0  0  0  0  0  0  0  0  0  0  0  # atno 6908 bound_to 6896
  152.5435  134.0731  159.8256 H   0  0  0  0  0  0  0  0  0  0  0  0  # atno 6909 bound_to 6896
  146.0905  139.5534  142.9478 H   0  0  0  0  0  0  0  0  0  0  0  0  # atno 7974 bound_to 7965
  154.5455  140.0736  156.8581 H   0  0  0  0  0  0  0  0  0  0  0  0  # atno 8008 bound_to 7997
  155.3096  140.3389  155.4226 H   0  0  0  0  0  0  0  0  0  0  0  0  # atno 8009 bound_to 7997
  156.1914  140.1687  156.8071 H   0  0  0  0  0  0  0  0  0  0  0  0  # atno 8010 bound_to 7997
  139.5344  144.2539  152.0762 H   0  0  0  0  0  0  0  0  0  0  0  0  # atno 10167 bound_to 10162
  156.7865  130.5348  149.5742 H   0  0  0  0  0  0  0  0  0  0  0  0  # atno 10718 bound_to 10713
  154.1464  135.2817  155.3147 H   0  0  0  0  0  0  0  0  0  0  0  0  # atno 10763 bound_to 10752
  154.6249  135.5455  153.7619 H   0  0  0  0  0  0  0  0  0  0  0  0  # atno 10764 bound_to 10752
  153.0234  135.6448  154.1610 H   0  0  0  0  0  0  0  0  0  0  0  0  # atno 10765 bound_to 10752
  139.8813  134.8775  156.3679 H   0  0  0  0  0  0  0  0  0  0  0  0  # atno 11005 bound_to 11000
  145.6047  141.0349  143.1999 LP  0  0  0  0  0  0  0  0  0  0  0  0  # atno 17320 bound_to 7965
  144.7357  139.7593  143.7330 LP  0  0  0  0  0  0  0  0  0  0  0  0  # atno 17321 bound_to 7965
  140.2007  144.4661  150.6433 LP  0  0  0  0  0  0  0  0  0  0  0  0  # atno 17342 bound_to 10162
  140.6543  143.2233  151.6006 LP  0  0  0  0  0  0  0  0  0  0  0  0  # atno 17343 bound_to 10162
  156.1185  130.6092  151.0157 LP  0  0  0  0  0  0  0  0  0  0  0  0  # atno 17370 bound_to 10713
  157.6621  131.0879  150.7814 LP  0  0  0  0  0  0  0  0  0  0  0  0  # atno 17371 bound_to 10713
  140.9484  133.7467  156.0239 LP  0  0  0  0  0  0  0  0  0  0  0  0  # atno 17394 bound_to 11000
  140.8135  134.3372  157.5404 LP  0  0  0  0  0  0  0  0  0  0  0  0  # atno 17395 bound_to 11000

$$$$
