#       Name:                AV-unprocessed.smi:243
#       Creating user name   scv26
#       Creation time:       Thu Mar 26 20:47:45 2020


#       File generated by GOLD software.
#

@<TRIPOS>MOLECULE
AV-unprocessed.smi:243
    65    68     1
SMALL
NO_CHARGES


@<TRIPOS>ATOM
      1 ****        -6.2076  -0.0707  -2.8929 C.3            1 S1                 0.0000
      2 ****        -5.2970  -1.2884  -2.6567 C.3            1 S1                 0.0000
      3 ****        -3.8730  -0.9484  -2.4040 N.4            1 S1                 1.0000
      4 ****        -3.6433  -0.1936  -1.1468 C.3            1 S1                 0.0000
      5 ****        -2.1432  -0.1339  -0.8259 C.3            1 S1                 0.0000
      6 ****        -1.3587   0.4827  -2.0082 C.3            1 S1                 0.0000
      7 ****         0.0670   0.7462  -1.7533 N.pl3          1 S1                 0.0000
      8 ****         0.7870   1.6797  -2.6122 C.3            1 S1                 0.0000
      9 ****         0.8278   0.0268  -0.8865 C.ar           1 S1                 0.0000
     10 ****         0.7166  -1.3260  -0.8504 N.ar           1 S1                 0.0000
     11 ****         1.4669  -2.0477  -0.0134 C.ar           1 S1                 0.0000
     12 ****         2.3792  -1.6252   0.8625 N.ar           1 S1                 0.0000
     13 ****         2.4991  -0.2674   0.8340 C.ar           1 S1                 0.0000
     14 ****         1.7747   0.6254  -0.0064 C.ar           1 S1                 0.0000
     15 ****         2.1666   1.9342   0.2502 N.2            1 S1                 0.0000
     16 ****         3.0713   1.8212   1.1836 C.2            1 S1                 0.0000
     17 ****         3.3247   0.5348   1.6021 N.pl3          1 S1                 0.0000
     18 ****         4.2658   0.1220   2.6317 C.3            1 S1                 0.0000
     19 ****         3.6438   0.0735   4.0473 C.3            1 S1                 0.0000
     20 ****         2.6119  -0.8973   4.0669 O.3            1 S1                 0.0000
     21 ****         3.0635   1.4040   4.5209 C.3            1 S1                 0.0000
     22 ****         3.3022   1.3642   6.0237 C.3            1 S1                 0.0000
     23 ****         4.5849   0.7691   6.1135 O.3            1 S1                 0.0000
     24 ****         4.6635  -0.2761   5.1499 C.3            1 S1                 0.0000
     25 ****        -1.6544  -0.2622  -3.3396 C.3            1 S1                 0.0000
     26 ****        -1.0102  -1.6543  -3.4679 C.3            1 S1                 0.0000
     27 ****        -3.1801  -0.3328  -3.5655 C.3            1 S1                 0.0000
     28 ****        -7.2335  -0.3945  -3.0688 H              1 S1                 0.0000
     29 ****        -5.8988   0.5057  -3.7647 H              1 S1                 0.0000
     30 ****        -6.2255   0.5976  -2.0322 H              1 S1                 0.0000
     31 ****        -5.6733  -1.8642  -1.8104 H              1 S1                 0.0000
     32 ****        -5.3496  -1.9538  -3.5191 H              1 S1                 0.0000
     33 ****        -4.0440   0.8167  -1.2359 H              1 S1                 0.0000
     34 ****        -4.1724  -0.6768  -0.3245 H              1 S1                 0.0000
     35 ****        -1.9855   0.4563   0.0776 H              1 S1                 0.0000
     36 ****        -1.8058  -1.1442  -0.6010 H              1 S1                 0.0000
     37 ****        -1.7791   1.4821  -2.1322 H              1 S1                 0.0000
     38 ****         1.7299   1.2496  -2.9519 H              1 S1                 0.0000
     39 ****         1.0019   2.6046  -2.0777 H              1 S1                 0.0000
     40 ****         0.2032   1.9417  -3.4940 H              1 S1                 0.0000
     41 ****         1.3145  -3.1162  -0.0502 H              1 S1                 0.0000
     42 ****         3.5750   2.6808   1.6014 H              1 S1                 0.0000
     43 ****         4.6696  -0.8547   2.3611 H              1 S1                 0.0000
     44 ****         5.1080   0.8151   2.6164 H              1 S1                 0.0000
     45 ****         2.2561  -0.9400   4.9411 H              1 S1                 0.0000
     46 ****         3.6321   2.2347   4.1011 H              1 S1                 0.0000
     47 ****         2.0159   1.5501   4.2539 H              1 S1                 0.0000
     48 ****         3.2827   2.3530   6.4820 H              1 S1                 0.0000
     49 ****         2.5652   0.7338   6.5238 H              1 S1                 0.0000
     50 ****         4.4386  -1.2301   5.6302 H              1 S1                 0.0000
     51 ****         5.6838  -0.3362   4.7700 H              1 S1                 0.0000
     52 ****        -1.2500   0.3346  -4.1573 H              1 S1                 0.0000
     53 ****        -1.3146  -2.3213  -2.6615 H              1 S1                 0.0000
     54 ****         0.0774  -1.5863  -3.4605 H              1 S1                 0.0000
     55 ****        -1.2891  -2.1286  -4.4090 H              1 S1                 0.0000
     56 ****        -3.3967  -0.9009  -4.4713 H              1 S1                 0.0000
     57 ****        -3.5690   0.6730  -3.7287 H              1 S1                 0.0000
     58 ****        -3.4164  -1.8388  -2.2655 H              1 S1                 0.0000
     59 ****         0.0672  -1.7862  -1.4558 LP             1 S1                 0.0000
     60 ****         2.9070  -2.2264   1.4625 LP             1 S1                 0.0000
     61 ****         1.8316   2.7714  -0.1820 LP             1 S1                 0.0000
     62 ****         2.9835  -1.7896   3.8102 LP             1 S1                 0.0000
     63 ****         1.8926  -0.6379   3.4225 LP             1 S1                 0.0000
     64 ****         4.7198   0.3939   7.0306 LP             1 S1                 0.0000
     65 ****         5.2890   1.4542   5.9269 LP             1 S1                 0.0000
@<TRIPOS>BOND
    1    1    2 1     
    2    1   28 1     
    3    1   29 1     
    4    1   30 1     
    5    2    3 1     
    6    2   31 1     
    7    2   32 1     
    8    3   27 1     
    9    3    4 1     
   10    3   58 1     
   11    4    5 1     
   12    4   33 1     
   13    4   34 1     
   14    5    6 1     
   15    5   35 1     
   16    5   36 1     
   17    6    7 1     
   18    6   25 1     
   19    6   37 1     
   20    7    8 1     
   21    7    9 1     
   22    8   38 1     
   23    8   39 1     
   24    8   40 1     
   25    9   14 ar    
   26    9   10 ar    
   27   10   11 ar    
   28   11   12 ar    
   29   11   41 1     
   30   12   13 ar    
   31   13   17 1     
   32   13   14 ar    
   33   14   15 1     
   34   15   16 2     
   35   16   17 1     
   36   16   42 1     
   37   17   18 1     
   38   18   19 1     
   39   18   43 1     
   40   18   44 1     
   41   19   24 1     
   42   19   20 1     
   43   19   21 1     
   44   20   45 1     
   45   21   22 1     
   46   21   46 1     
   47   21   47 1     
   48   22   23 1     
   49   22   48 1     
   50   22   49 1     
   51   23   24 1     
   52   24   50 1     
   53   24   51 1     
   54   25   26 1     
   55   25   27 1     
   56   25   52 1     
   57   26   53 1     
   58   26   54 1     
   59   26   55 1     
   60   27   56 1     
   61   27   57 1     
   62   10   59 1     
   63   12   60 1     
   64   15   61 1     
   65   20   62 1     
   66   20   63 1     
   67   23   64 1     
   68   23   65 1     
@<TRIPOS>SUBSTRUCTURE
      1 S1             1
@<TRIPOS>SET
LONE_PAIRS      STATIC     ATOMS    <user>   **** ""
7 59 60 61 62 63 64 65
DONOR_HYDROGENS      STATIC     ATOMS    <user>   **** ""
2 58 45
ATOM$BLUE        STATIC     ATOMS    COLORGROUP SYSTEM
7 59 60 61 62 63 64 65
ATOM$RED        STATIC     ATOMS    COLORGROUP SYSTEM
2 58 45
