AV-unprocessed.smi:3308|AV-procd|sdf|12708|dock1
  -GOLD-   2272019 43D 1   1.00000     0.00000
 Structure written by MMmdl.
 41 42  0  0  0  0  0  0  0  0  2 V2000
  149.8063  140.0116  154.3692 C   0  0  0  0  0  0  0  0  0  0  0  0
  148.7968  141.1703  154.4813 C   0  0  2  0  0  0  0  0  0  0  0  0
  148.8857  141.7920  155.8238 N   0  3  0  0  0  0  0  0  0  0  0  0
  150.2524  141.9404  156.3696 C   0  0  0  0  0  0  0  0  0  0  0  0
  150.2436  142.2766  157.8675 C   0  0  0  0  0  0  0  0  0  0  0  0
  149.5697  141.5946  158.6416 O   0  0  0  0  0  0  0  0  0  0  0  0
  150.9845  143.3215  158.2901 N   0  0  0  0  0  0  0  0  0  0  0  0
  151.8075  144.1403  157.4022 C   0  0  0  0  0  0  0  0  0  0  0  0
  152.6662  145.0100  158.3201 C   0  0  0  0  0  0  0  0  0  0  0  0
  151.8515  145.1143  159.6020 C   0  0  0  0  0  0  0  0  0  0  0  0
  151.0900  143.7900  159.6720 C   0  0  0  0  0  0  0  0  0  0  0  0
  147.3373  140.7126  154.2074 C   0  0  2  0  0  0  0  0  0  0  0  0
  147.1261  140.1771  152.7788 C   0  0  0  0  0  0  0  0  0  0  0  0
  146.3742  141.7769  154.4721 N   0  0  0  0  0  0  0  0  0  0  0  0
  146.2531  142.9940  153.8330 C   0  0  0  0  0  0  0  0  0  0  0  0
  145.2267  143.6688  154.4290 C   0  0  0  0  0  0  0  0  0  0  0  0
  144.7820  142.7793  155.4461 C   0  0  0  0  0  0  0  0  0  0  0  0
  145.4725  141.6511  155.4725 N   0  0  0  0  0  0  0  0  0  0  0  0
  149.8195  139.5843  153.3672 H   0  0  0  0  0  0  0  0  0  0  0  0
  149.5697  139.2104  155.0698 H   0  0  0  0  0  0  0  0  0  0  0  0
  150.8240  140.3415  154.5759 H   0  0  0  0  0  0  0  0  0  0  0  0
  149.0598  141.9270  153.7403 H   0  0  0  0  0  0  0  0  0  0  0  0
  148.5034  142.7244  155.7478 H   0  0  0  0  0  0  0  0  0  0  0  0
  150.8125  141.0181  156.2168 H   0  0  0  0  0  0  0  0  0  0  0  0
  150.7654  142.7370  155.8291 H   0  0  0  0  0  0  0  0  0  0  0  0
  152.4262  143.5349  156.7378 H   0  0  0  0  0  0  0  0  0  0  0  0
  151.1552  144.7610  156.7861 H   0  0  0  0  0  0  0  0  0  0  0  0
  153.6094  144.5024  158.5276 H   0  0  0  0  0  0  0  0  0  0  0  0
  152.8989  145.9824  157.8851 H   0  0  0  0  0  0  0  0  0  0  0  0
  152.4687  145.2947  160.4828 H   0  0  0  0  0  0  0  0  0  0  0  0
  151.1431  145.9392  159.5162 H   0  0  0  0  0  0  0  0  0  0  0  0
  150.1146  143.9263  160.1412 H   0  0  0  0  0  0  0  0  0  0  0  0
  151.6517  143.0595  160.2561 H   0  0  0  0  0  0  0  0  0  0  0  0
  147.1041  139.9015  154.8992 H   0  0  0  0  0  0  0  0  0  0  0  0
  147.7023  139.2709  152.5956 H   0  0  0  0  0  0  0  0  0  0  0  0
  147.4143  140.9148  152.0292 H   0  0  0  0  0  0  0  0  0  0  0  0
  146.0788  139.9251  152.6081 H   0  0  0  0  0  0  0  0  0  0  0  0
  146.8993  143.2764  153.0147 H   0  0  0  0  0  0  0  0  0  0  0  0
  144.8541  144.6517  154.1807 H   0  0  0  0  0  0  0  0  0  0  0  0
  143.9857  142.9198  156.1620 H   0  0  0  0  0  0  0  0  0  0  0  0
  148.3178  141.2694  156.4753 H   0  0  0  0  0  0  0  0  0  0  0  0
  1  2  1  0  0  0  0
  1 19  1  0  0  0  0
  1 20  1  0  0  0  0
  1 21  1  0  0  0  0
  2  3  1  0  0  0  0
  2 12  1  0  0  0  0
  2 22  1  0  0  0  0
  3  4  1  0  0  0  0
  3 23  1  0  0  0  0
  3 41  1  0  0  0  0
  4  5  1  0  0  0  0
  4 24  1  0  0  0  0
  4 25  1  0  0  0  0
  5  6  2  0  0  0  0
  5  7  1  0  0  0  0
  7 11  1  0  0  0  0
  7  8  1  0  0  0  0
  8  9  1  0  0  0  0
  8 26  1  0  0  0  0
  8 27  1  0  0  0  0
  9 10  1  0  0  0  0
  9 28  1  0  0  0  0
  9 29  1  0  0  0  0
 10 11  1  0  0  0  0
 10 30  1  0  0  0  0
 10 31  1  0  0  0  0
 11 32  1  0  0  0  0
 11 33  1  0  0  0  0
 12 13  1  0  0  0  0
 12 14  1  0  0  0  0
 12 34  1  0  0  0  0
 13 35  1  0  0  0  0
 13 36  1  0  0  0  0
 13 37  1  0  0  0  0
 14 18  1  0  0  0  0
 14 15  1  0  0  0  0
 15 16  2  0  0  0  0
 15 38  1  0  0  0  0
 16 17  1  0  0  0  0
 16 39  1  0  0  0  0
 17 18  2  0  0  0  0
 17 40  1  0  0  0  0
M  CHG  1   3   1
M  END
> <s_m_source_file>
AV-unprocessed.smi

> <i_m_source_file_index>
3308

> <i_lp_mmshare_version>
43012

> <i_f3d_flags>
0

> <s_epik_input>
bjFbY0hdW2NIXVtjSF1uMVtDQEBIXShbQ0gzXSlbQ0BIXShbQ0gzXSlbTkhdW0NIMl1DKD1PKU4yW0NIMl1bQ0gyXVtDSDJdW0NIMl0y

> <s_epik_cmdline>
J2VwaWtfcHl0aG9uJywgJy1waCcsICc3LjAnLCAnLXRuJywgJzgnLCAnLW1hJywgJzIwMCcsICctbWV0YWxfYmluZGluZycsICctaW1hZScsICc8aW5maWxlLm1hZT4nLCAnLW9tYWUnLCAnPG91dGZpbGUubWFlPic=

> <r_lp_tautomer_probability>
1

> <r_epik_Ionization_Penalty>
0.141739

> <r_epik_Ionization_Penalty_Charging>
0.141731

> <r_epik_Ionization_Penalty_Neutral>
8.82171e-06

> <r_epik_State_Penalty>
0.131043

> <r_epik_Charging_Adjusted_Penalty>
0.272773

> <i_epik_Tot_Q>
1

> <i_epik_Tot_abs_Q>
1

> <r_epik_Metal_State_Penalty>
0.131385

> <b_epik_Metal_Only>
0

> <s_lp_Force_Field>
OPLS_2005

> <r_lp_Energy>
31.7083

> <b_lp_Chiralities_Consistent>
1

> <s_lp_Variant>
AV-unprocessed.smi:3308-1

> <Gold.Version>
5.8.1

> <Gold.Id.Protein>
6NUR|6NUR_protein|mol2

> <Gold.PLP.Fitness>
47.4522

> <Gold.PLP.PLP>
-42.0723

> <Gold.PLP.part.hbond>
-1.7310

> <Gold.PLP.part.metal>
0.0000

> <Gold.PLP.part.buried>
-3.1016

> <Gold.PLP.part.nonpolar>
-36.1686

> <Gold.PLP.part.repulsive>
0.2563

> <Gold.PLP.ligand.clash>
0.0000

> <Gold.PLP.ligand.torsion>
0.3623

> <Gold.PLP.Chemscore.Hbond>
2.0000

> <Gold.PLP.Chemscore.CHOScore>
0.0000

> <Gold.PLP.Chemscore.Metal>
0.0000

> <Gold.Chemscore.Hbonds>
donor molecule, donor type, donor heavy atom, donor atom, acceptor molecule, acceptor atom, score
      L1  H     3    23       P1  8028  1.92

> <Gold.PLP.Chemscore.Internal.Correction>
0.1046

> <Gold.Rescore>
     Score         DG    S(hbond)    S(metal)    S(lipo)     H(rot)  DE(clash)    DE(int)     intcor
     15.58     -16.21       0.89        0.00     105.37       1.78       0.31       0.32       ----

> <Gold.Chemscore.Fitness>
15.5798

> <Gold.Chemscore.DG>
-16.2143

> <Gold.Chemscore.ZeroCoef>
-5.4800

> <Gold.Chemscore.Hbond>
0.8898

> <Gold.Chemscore.Metal>
0.0000

> <Gold.Chemscore.Lipo>
105.3707

> <Gold.Chemscore.Internal_Hbond>
0.0000

> <Gold.Chemscore.DEClash>
0.3122

> <Gold.Chemscore.DEInternal>
0.3223

> <Gold.Chemscore.Rot>
1.7836

> <Gold.Chemscore.Internal.Correction>
   9.000000E+99

> <Gold.Chemscore.Hbonds>
donor molecule, donor type, donor heavy atom, donor atom, acceptor molecule, acceptor atom, score
      L1  H     3    23       P1  8028  0.86

> <Gold.Chemscore.Hbond.Weighted>
-2.9719

> <Gold.Chemscore.Metal.Weighted>
-0.0000

> <Gold.Chemscore.Lipo.Weighted>
-12.3284

> <Gold.Chemscore.Internal_Hbond.Weighted>
0.0000

> <Gold.Chemscore.DEClash.Weighted>
0.3122

> <Gold.Chemscore.DEInternal.Weighted>
0.3223

> <Gold.Chemscore.Rot.Weighted>
4.5660

> <Gold.Chemscore.Internal.Correction.Weighted>
   9.000000E+99

> <Gold.Protein.RotatedTorsions>
[ 6907 6896 6895 6894 ] final  135.84 input  -60.11 | X-H torsion
[ 7974 7965 7964 7962 ] final -149.78 input  175.53 | X-H torsion
[ 8008 7997 7996 7995 ] final -119.57 input   59.86 | X-H torsion
[ 10167 10162 10161 10158 ] final -133.57 input  -65.29 | X-H torsion
[ 10718 10713 10712 10709 ] final  -51.25 input   66.30 | X-H torsion
[ 10763 10752 10751 10750 ] final  109.56 input  -60.55 | X-H torsion
[ 11005 11000 10999 10996 ] final  -86.36 input  -57.11 | X-H torsion

> <Gold.Protein.ActiveResidues>
 VAL166  LYS551  ARG553  GLY616  TRP617  ASP618  TYR619  PRO620  LYS621  CYS622 
 ASP623  PHE694  ASN695  SER759  ASP760  ASP761  ALA762  ILE779  LEU786  VAL792 
 PHE793  MET794  SER795  GLU796  ALA797  LYS798  CYS799  TRP800  GLU811  SER814 

> <Gold.Protein.RotatedAtoms>
  152.2960  133.5608  159.5587 H   0  0  0  0  0  0  0  0  0  0  0  0  # atno 6907 bound_to 6896
  150.7256  134.0360  159.3758 H   0  0  0  0  0  0  0  0  0  0  0  0  # atno 6908 bound_to 6896
  151.8263  135.0636  160.0482 H   0  0  0  0  0  0  0  0  0  0  0  0  # atno 6909 bound_to 6896
  144.7947  140.5020  143.5748 H   0  0  0  0  0  0  0  0  0  0  0  0  # atno 7974 bound_to 7965
  155.1178  140.0398  157.2742 H   0  0  0  0  0  0  0  0  0  0  0  0  # atno 8008 bound_to 7997
  154.6636  140.2596  155.7056 H   0  0  0  0  0  0  0  0  0  0  0  0  # atno 8009 bound_to 7997
  156.2629  140.2812  156.1118 H   0  0  0  0  0  0  0  0  0  0  0  0  # atno 8010 bound_to 7997
  139.8969  143.6654  152.2602 H   0  0  0  0  0  0  0  0  0  0  0  0  # atno 10167 bound_to 10162
  156.1727  130.4149  149.9623 H   0  0  0  0  0  0  0  0  0  0  0  0  # atno 10718 bound_to 10713
  153.4365  135.3776  155.2202 H   0  0  0  0  0  0  0  0  0  0  0  0  # atno 10763 bound_to 10752
  154.8752  135.3852  154.4204 H   0  0  0  0  0  0  0  0  0  0  0  0  # atno 10764 bound_to 10752
  153.4744  135.7087  153.6037 H   0  0  0  0  0  0  0  0  0  0  0  0  # atno 10765 bound_to 10752
  141.1631  133.7450  156.9150 H   0  0  0  0  0  0  0  0  0  0  0  0  # atno 11005 bound_to 11000
  145.5704  139.1483  143.3291 LP  0  0  0  0  0  0  0  0  0  0  0  0  # atno 17320 bound_to 7965
  146.2211  140.5837  142.9017 LP  0  0  0  0  0  0  0  0  0  0  0  0  # atno 17321 bound_to 7965
  139.7059  144.7628  151.1193 LP  0  0  0  0  0  0  0  0  0  0  0  0  # atno 17342 bound_to 10162
  140.7715  143.5395  150.9330 LP  0  0  0  0  0  0  0  0  0  0  0  0  # atno 17343 bound_to 10162
  156.7418  130.9082  151.3632 LP  0  0  0  0  0  0  0  0  0  0  0  0  # atno 17370 bound_to 10713
  157.6814  130.9143  150.0277 LP  0  0  0  0  0  0  0  0  0  0  0  0  # atno 17371 bound_to 10713
  140.1491  134.9242  157.2568 LP  0  0  0  0  0  0  0  0  0  0  0  0  # atno 17394 bound_to 11000
  140.2745  134.3422  155.7363 LP  0  0  0  0  0  0  0  0  0  0  0  0  # atno 17395 bound_to 11000

$$$$
