AV-unprocessed.smi:2249|AV-procd|sdf|9098|dock5
  -GOLD-   2272012293D 1   1.00000     0.00000
 Structure written by MMmdl.
 38 39  0  0  0  0  0  0  0  0  1 V2000
  143.9019  137.2155  152.3352 C   0  0  0  0  0  0  0  0  0  0  0  0
  145.0013  136.1674  152.5894 C   0  0  2  0  0  0  0  0  0  0  0  0
  146.2932  136.8502  152.6545 N   0  0  0  0  0  0  0  0  0  0  0  0
  146.5416  137.9930  153.3110 C   0  0  0  0  0  0  0  0  0  0  0  0
  145.6857  138.6155  153.9402 O   0  0  0  0  0  0  0  0  0  0  0  0
  147.8306  138.3530  153.1821 N   0  0  0  0  0  0  0  0  0  0  0  0
  148.4678  139.4340  153.7053 C   0  0  0  0  0  0  0  0  0  0  0  0
  148.0280  140.7255  153.8095 C   0  0  0  0  0  0  0  0  0  0  0  0
  149.1287  141.3759  154.4371 C   0  0  0  0  0  0  0  0  0  0  0  0
  150.1414  140.5564  154.6910 N   0  0  0  0  0  0  0  0  0  0  0  0
  149.7352  139.3497  154.2396 N   0  0  0  0  0  0  0  0  0  0  0  0
  150.6100  138.1992  154.3562 C   0  0  0  0  0  0  0  0  0  0  0  0
  145.0442  135.0485  151.5158 C   0  0  0  0  0  0  0  0  0  0  0  0
  143.7758  134.1711  151.5183 C   0  0  0  0  0  0  0  0  0  0  0  0
  143.8864  133.0261  150.4983 C   0  0  0  0  0  0  0  0  0  0  0  0
  145.0392  132.2394  150.7709 O   0  0  0  0  0  0  0  0  0  0  0  0
  146.2477  132.9793  150.6525 C   0  0  0  0  0  0  0  0  0  0  0  0
  146.2679  134.1212  151.6810 C   0  0  0  0  0  0  0  0  0  0  0  0
  142.9051  136.7818  152.4078 H   0  0  0  0  0  0  0  0  0  0  0  0
  144.0021  137.6652  151.3469 H   0  0  0  0  0  0  0  0  0  0  0  0
  143.9478  138.0196  153.0706 H   0  0  0  0  0  0  0  0  0  0  0  0
  144.8021  135.6950  153.5532 H   0  0  0  0  0  0  0  0  0  0  0  0
  147.0586  136.4119  152.1633 H   0  0  0  0  0  0  0  0  0  0  0  0
  148.4084  137.7426  152.6232 H   0  0  0  0  0  0  0  0  0  0  0  0
  147.0869  141.1531  153.4980 H   0  0  0  0  0  0  0  0  0  0  0  0
  149.2221  142.4152  154.7155 H   0  0  0  0  0  0  0  0  0  0  0  0
  150.9097  137.8668  153.3624 H   0  0  0  0  0  0  0  0  0  0  0  0
  150.0850  137.3882  154.8613 H   0  0  0  0  0  0  0  0  0  0  0  0
  151.5033  138.4518  154.9295 H   0  0  0  0  0  0  0  0  0  0  0  0
  145.1179  135.5237  150.5362 H   0  0  0  0  0  0  0  0  0  0  0  0
  143.6151  133.7543  152.5134 H   0  0  0  0  0  0  0  0  0  0  0  0
  142.8936  134.7648  151.2813 H   0  0  0  0  0  0  0  0  0  0  0  0
  143.0044  132.3879  150.5556 H   0  0  0  0  0  0  0  0  0  0  0  0
  143.9305  133.4154  149.4799 H   0  0  0  0  0  0  0  0  0  0  0  0
  147.0885  132.3071  150.8241 H   0  0  0  0  0  0  0  0  0  0  0  0
  146.3530  133.3672  149.6381 H   0  0  0  0  0  0  0  0  0  0  0  0
  147.1977  134.6794  151.5704 H   0  0  0  0  0  0  0  0  0  0  0  0
  146.2772  133.6997  152.6872 H   0  0  0  0  0  0  0  0  0  0  0  0
  1  2  1  0  0  0  0
  1 19  1  0  0  0  0
  1 20  1  0  0  0  0
  1 21  1  0  0  0  0
  2  3  1  0  0  0  0
  2 13  1  0  0  0  0
  2 22  1  0  0  0  0
  3  4  1  0  0  0  0
  3 23  1  0  0  0  0
  4  5  2  0  0  0  0
  4  6  1  0  0  0  0
  6  7  1  0  0  0  0
  6 24  1  0  0  0  0
  7 11  1  0  0  0  0
  7  8  2  0  0  0  0
  8  9  1  0  0  0  0
  8 25  1  0  0  0  0
  9 10  2  0  0  0  0
  9 26  1  0  0  0  0
 10 11  1  0  0  0  0
 11 12  1  0  0  0  0
 12 27  1  0  0  0  0
 12 28  1  0  0  0  0
 12 29  1  0  0  0  0
 13 18  1  0  0  0  0
 13 14  1  0  0  0  0
 13 30  1  0  0  0  0
 14 15  1  0  0  0  0
 14 31  1  0  0  0  0
 14 32  1  0  0  0  0
 15 16  1  0  0  0  0
 15 33  1  0  0  0  0
 15 34  1  0  0  0  0
 16 17  1  0  0  0  0
 17 18  1  0  0  0  0
 17 35  1  0  0  0  0
 17 36  1  0  0  0  0
 18 37  1  0  0  0  0
 18 38  1  0  0  0  0
M  END
> <s_m_source_file>
AV-unprocessed.smi

> <i_m_source_file_index>
2249

> <i_lp_mmshare_version>
43012

> <i_f3d_flags>
0

> <s_epik_input>
W0NIMl0xW0NIMl1PW0NIMl1bQ0gyXVtDSF0xW0NASF0oW0NIM10pW05IXUMoPU8pW05IXWMyW2NIXVtjSF1ubjJbQ0gzXQ==

> <s_epik_cmdline>
J2VwaWtfcHl0aG9uJywgJy1waCcsICc3LjAnLCAnLXRuJywgJzgnLCAnLW1hJywgJzIwMCcsICctbWV0YWxfYmluZGluZycsICctaW1hZScsICc8aW5maWxlLm1hZT4nLCAnLW9tYWUnLCAnPG91dGZpbGUubWFlPic=

> <r_lp_tautomer_probability>
1

> <r_epik_Ionization_Penalty>
4.67687e-05

> <r_epik_Ionization_Penalty_Charging>
0

> <r_epik_Ionization_Penalty_Neutral>
4.67687e-05

> <r_epik_State_Penalty>
-0

> <r_epik_Charging_Adjusted_Penalty>
0

> <i_epik_Tot_Q>
0

> <i_epik_Tot_abs_Q>
0

> <r_epik_Metal_State_Penalty>
-0

> <b_epik_Metal_Only>
0

> <s_lp_Force_Field>
OPLS_2005

> <r_lp_Energy>
12.7763

> <b_lp_Chiralities_Consistent>
1

> <s_lp_Variant>
AV-unprocessed.smi:2249-1

> <Gold.Version>
5.8.1

> <Gold.Id.Protein>
6NUR|6NUR_protein|mol2

> <Gold.PLP.Fitness>
42.8533

> <Gold.PLP.PLP>
-32.0821

> <Gold.PLP.part.hbond>
-3.3661

> <Gold.PLP.part.metal>
0.0000

> <Gold.PLP.part.buried>
-2.6469

> <Gold.PLP.part.nonpolar>
-27.1876

> <Gold.PLP.part.repulsive>
0.3868

> <Gold.PLP.ligand.clash>
0.0000

> <Gold.PLP.ligand.torsion>
0.5524

> <Gold.PLP.Chemscore.Hbond>
2.9520

> <Gold.PLP.Chemscore.CHOScore>
1.0000

> <Gold.PLP.Chemscore.Metal>
0.0000

> <Gold.Chemscore.Hbonds>
donor molecule, donor type, donor heavy atom, donor atom, acceptor molecule, acceptor atom, score
      L1  H     3    23       P1  7948  1.00
      L1  H     6    24       P1  7948  1.00
      P1  H  7989  7998       L1    10  0.90
      L1  C     9    26       P1  8028  1.00

> <Gold.PLP.Chemscore.Internal.Correction>
0.0200

> <Gold.Rescore>
     Score         DG    S(hbond)    S(metal)    S(lipo)     H(rot)  DE(clash)    DE(int)     intcor
     14.40     -16.42       2.08        0.00      61.80       1.26       0.11       1.90       ----

> <Gold.Chemscore.Fitness>
14.4011

> <Gold.Chemscore.DG>
-16.4198

> <Gold.Chemscore.ZeroCoef>
-5.4800

> <Gold.Chemscore.Hbond>
2.0755

> <Gold.Chemscore.Metal>
0.0000

> <Gold.Chemscore.Lipo>
61.7958

> <Gold.Chemscore.Internal_Hbond>
0.0000

> <Gold.Chemscore.DEClash>
0.1141

> <Gold.Chemscore.DEInternal>
1.9046

> <Gold.Chemscore.Rot>
1.2588

> <Gold.Chemscore.Internal.Correction>
   9.000000E+99

> <Gold.Chemscore.Hbonds>
donor molecule, donor type, donor heavy atom, donor atom, acceptor molecule, acceptor atom, score
      L1  H     3    23       P1  7948  0.95
      L1  H     6    24       P1  7948  0.99
      P1  H  7989  7998       L1    10  0.18

> <Gold.Chemscore.Hbond.Weighted>
-6.9321

> <Gold.Chemscore.Metal.Weighted>
-0.0000

> <Gold.Chemscore.Lipo.Weighted>
-7.2301

> <Gold.Chemscore.Internal_Hbond.Weighted>
0.0000

> <Gold.Chemscore.DEClash.Weighted>
0.1141

> <Gold.Chemscore.DEInternal.Weighted>
1.9046

> <Gold.Chemscore.Rot.Weighted>
3.2224

> <Gold.Chemscore.Internal.Correction.Weighted>
   9.000000E+99

> <Gold.Protein.RotatedTorsions>
[ 6907 6896 6895 6894 ] final   37.83 input  -60.11 | X-H torsion
[ 7974 7965 7964 7962 ] final -164.68 input  175.53 | X-H torsion
[ 8008 7997 7996 7995 ] final   81.06 input   59.86 | X-H torsion
[ 10167 10162 10161 10158 ] final   94.20 input  -65.29 | X-H torsion
[ 10718 10713 10712 10709 ] final -141.01 input   66.30 | X-H torsion
[ 10763 10752 10751 10750 ] final -130.19 input  -60.55 | X-H torsion
[ 11005 11000 10999 10996 ] final -100.32 input  -57.11 | X-H torsion

> <Gold.Protein.ActiveResidues>
 VAL166  LYS551  ARG553  GLY616  TRP617  ASP618  TYR619  PRO620  LYS621  CYS622 
 ASP623  PHE694  ASN695  SER759  ASP760  ASP761  ALA762  ILE779  LEU786  VAL792 
 PHE793  MET794  SER795  GLU796  ALA797  LYS798  CYS799  TRP800  GLU811  SER814 

> <Gold.Protein.RotatedAtoms>
  152.1484  134.9008  160.0549 H   0  0  0  0  0  0  0  0  0  0  0  0  # atno 6907 bound_to 6896
  152.0049  133.3834  159.4204 H   0  0  0  0  0  0  0  0  0  0  0  0  # atno 6908 bound_to 6896
  150.6873  134.3716  159.5038 H   0  0  0  0  0  0  0  0  0  0  0  0  # atno 6909 bound_to 6896
  144.7290  140.2925  143.6218 H   0  0  0  0  0  0  0  0  0  0  0  0  # atno 7974 bound_to 7965
  155.8920  140.3438  155.5963 H   0  0  0  0  0  0  0  0  0  0  0  0  # atno 8008 bound_to 7997
  155.7599  140.0831  157.2179 H   0  0  0  0  0  0  0  0  0  0  0  0  # atno 8009 bound_to 7997
  154.4034  140.1537  156.2808 H   0  0  0  0  0  0  0  0  0  0  0  0  # atno 8010 bound_to 7997
  139.8107  144.6775  150.9644 H   0  0  0  0  0  0  0  0  0  0  0  0  # atno 10167 bound_to 10162
  156.3290  130.7576  151.1690 H   0  0  0  0  0  0  0  0  0  0  0  0  # atno 10718 bound_to 10713
  154.8756  135.3870  154.4043 H   0  0  0  0  0  0  0  0  0  0  0  0  # atno 10763 bound_to 10752
  153.4764  135.7030  153.5968 H   0  0  0  0  0  0  0  0  0  0  0  0  # atno 10764 bound_to 10752
  153.4403  135.3857  155.2192 H   0  0  0  0  0  0  0  0  0  0  0  0  # atno 10765 bound_to 10752
  141.1275  133.8390  157.1088 H   0  0  0  0  0  0  0  0  0  0  0  0  # atno 11005 bound_to 11000
  145.7840  139.1902  143.2141 LP  0  0  0  0  0  0  0  0  0  0  0  0  # atno 17320 bound_to 7965
  146.0810  140.7764  142.9641 LP  0  0  0  0  0  0  0  0  0  0  0  0  # atno 17321 bound_to 7965
  140.7818  143.4188  151.0874 LP  0  0  0  0  0  0  0  0  0  0  0  0  # atno 17342 bound_to 10162
  139.7855  143.8294  152.3144 LP  0  0  0  0  0  0  0  0  0  0  0  0  # atno 17343 bound_to 10162
  157.7427  131.0486  150.5006 LP  0  0  0  0  0  0  0  0  0  0  0  0  # atno 17370 bound_to 10713
  156.5169  130.4152  149.6271 LP  0  0  0  0  0  0  0  0  0  0  0  0  # atno 17371 bound_to 10713
  140.0288  134.9911  157.0739 LP  0  0  0  0  0  0  0  0  0  0  0  0  # atno 17394 bound_to 11000
  140.4319  134.1772  155.7168 LP  0  0  0  0  0  0  0  0  0  0  0  0  # atno 17395 bound_to 11000

$$$$
