#       Name:                AV-unprocessed.smi:1762
#       Creating user name   scv26
#       Creation time:       Fri Mar 27 08:35:02 2020


#       File generated by GOLD software.
#

@<TRIPOS>MOLECULE
AV-unprocessed.smi:1762
    58    59     1
SMALL
NO_CHARGES


@<TRIPOS>ATOM
      1 ****        -4.3352   3.0878  -0.7846 C.3            1 S1                 0.0000
      2 ****        -2.8112   2.9266  -0.7522 C.3            1 S1                 0.0000
      3 ****        -2.3865   1.4476  -0.8148 C.3            1 S1                 0.0000
      4 ****        -0.9094   1.3110  -0.6945 N.4            1 S1                 1.0000
      5 ****        -0.3814  -0.0876  -0.8402 C.3            1 S1                 0.0000
      6 ****         1.1660  -0.0828  -0.9009 C.2            1 S1                 0.0000
      7 ****         1.7223   0.6095  -1.7604 O.2            1 S1                 0.0000
      8 ****         1.6989  -0.8617   0.0787 N.pl3          1 S1                -1.0000
      9 ****         3.1325  -1.0561   0.2876 C.3            1 S1                 0.0000
     10 ****         3.4295  -1.2879   1.7875 C.3            1 S1                 0.0000
     11 ****         2.8589  -2.5772   2.3747 C.ar           1 S1                 0.0000
     12 ****         1.6148  -2.5729   3.0462 C.ar           1 S1                 0.0000
     13 ****         1.1318  -3.7817   3.5823 C.ar           1 S1                 0.0000
     14 ****         1.9090  -4.9465   3.4372 C.ar           1 S1                 0.0000
     15 ****         3.1401  -4.8494   2.7592 C.ar           1 S1                 0.0000
     16 ****         3.6131  -3.6956   2.2413 N.ar           1 S1                 0.0000
     17 ****        -0.9907  -0.8999  -2.0337 C.3            1 S1                 0.0000
     18 ****        -0.5062  -2.3629  -2.0715 C.3            1 S1                 0.0000
     19 ****        -0.8035  -0.2442  -3.4182 C.3            1 S1                 0.0000
     20 ****        -0.4674   1.9713   0.5681 C.3            1 S1                 0.0000
     21 ****        -0.9280   3.4380   0.6361 C.3            1 S1                 0.0000
     22 ****        -0.1575   4.3677  -0.3184 C.3            1 S1                 0.0000
     23 ****        -2.3393   3.5152   0.4542 O.3            1 S1                 0.0000
     24 ****        -4.7560   2.6695  -1.6994 H              1 S1                 0.0000
     25 ****        -4.6164   4.1404  -0.7418 H              1 S1                 0.0000
     26 ****        -4.8040   2.5834   0.0609 H              1 S1                 0.0000
     27 ****        -2.3993   3.4611  -1.6085 H              1 S1                 0.0000
     28 ****        -2.8700   0.8750  -0.0215 H              1 S1                 0.0000
     29 ****        -2.7472   1.0524  -1.7619 H              1 S1                 0.0000
     30 ****        -0.7021  -0.6084   0.0660 H              1 S1                 0.0000
     31 ****         3.5126  -1.8979  -0.2917 H              1 S1                 0.0000
     32 ****         3.7098  -0.1900  -0.0393 H              1 S1                 0.0000
     33 ****         4.5104  -1.2986   1.9343 H              1 S1                 0.0000
     34 ****         3.0645  -0.4410   2.3703 H              1 S1                 0.0000
     35 ****         1.0403  -1.6628   3.1385 H              1 S1                 0.0000
     36 ****         0.1822  -3.8142   4.0956 H              1 S1                 0.0000
     37 ****         1.5707  -5.8912   3.8360 H              1 S1                 0.0000
     38 ****         3.7633  -5.7219   2.6309 H              1 S1                 0.0000
     39 ****        -2.0624  -0.9840  -1.8590 H              1 S1                 0.0000
     40 ****         0.5497  -2.4371  -2.3331 H              1 S1                 0.0000
     41 ****        -1.0639  -2.9403  -2.8092 H              1 S1                 0.0000
     42 ****        -0.6435  -2.8482  -1.1046 H              1 S1                 0.0000
     43 ****         0.2376  -0.2682  -3.7396 H              1 S1                 0.0000
     44 ****        -1.1276   0.7959  -3.4284 H              1 S1                 0.0000
     45 ****        -1.3837  -0.7719  -4.1755 H              1 S1                 0.0000
     46 ****        -0.8773   1.4204   1.4161 H              1 S1                 0.0000
     47 ****         0.6159   1.9484   0.6832 H              1 S1                 0.0000
     48 ****        -0.7368   3.7980   1.6475 H              1 S1                 0.0000
     49 ****         0.9020   4.3904  -0.0619 H              1 S1                 0.0000
     50 ****        -0.5332   5.3889  -0.2545 H              1 S1                 0.0000
     51 ****        -0.2292   4.0476  -1.3576 H              1 S1                 0.0000
     52 ****        -0.5056   1.8367  -1.4565 H              1 S1                 0.0000
     53 ****         1.1742   1.1510  -2.3979 LP             1 S1                 0.0000
     54 ****         2.7204   0.6281  -1.8183 LP             1 S1                 0.0000
     55 ****         1.0686  -1.3321   0.6964 LP             1 S1                 0.0000
     56 ****         4.4957  -3.6670   1.7721 LP             1 S1                 0.0000
     57 ****        -2.7793   3.0495   1.2220 LP             1 S1                 0.0000
     58 ****        -2.6021   4.4800   0.4548 LP             1 S1                 0.0000
@<TRIPOS>BOND
    1    1    2 1     
    2    1   24 1     
    3    1   25 1     
    4    1   26 1     
    5    2   23 1     
    6    2    3 1     
    7    2   27 1     
    8    3    4 1     
    9    3   28 1     
   10    3   29 1     
   11    4    5 1     
   12    4   20 1     
   13    4   52 1     
   14    5    6 1     
   15    5   17 1     
   16    5   30 1     
   17    6    7 2     
   18    6    8 1     
   19    8    9 1     
   20    9   10 1     
   21    9   31 1     
   22    9   32 1     
   23   10   11 1     
   24   10   33 1     
   25   10   34 1     
   26   11   16 ar    
   27   11   12 ar    
   28   12   13 ar    
   29   12   35 1     
   30   13   14 ar    
   31   13   36 1     
   32   14   15 ar    
   33   14   37 1     
   34   15   16 ar    
   35   15   38 1     
   36   17   18 1     
   37   17   19 1     
   38   17   39 1     
   39   18   40 1     
   40   18   41 1     
   41   18   42 1     
   42   19   43 1     
   43   19   44 1     
   44   19   45 1     
   45   20   21 1     
   46   20   46 1     
   47   20   47 1     
   48   21   22 1     
   49   21   23 1     
   50   21   48 1     
   51   22   49 1     
   52   22   50 1     
   53   22   51 1     
   54    7   53 1     
   55    7   54 1     
   56    8   55 1     
   57   16   56 1     
   58   23   57 1     
   59   23   58 1     
@<TRIPOS>SUBSTRUCTURE
      1 S1             1
@<TRIPOS>SET
LONE_PAIRS      STATIC     ATOMS    <user>   **** ""
6 53 54 55 56 57 58
DONOR_HYDROGENS      STATIC     ATOMS    <user>   **** ""
1 52
ATOM$BLUE        STATIC     ATOMS    COLORGROUP SYSTEM
6 53 54 55 56 57 58
ATOM$RED        STATIC     ATOMS    COLORGROUP SYSTEM
1 52
