AV-unprocessed.smi:1648|AV-procd|sdf|6630|dock2
  -GOLD-   22720 7333D 1   1.00000     0.00000
 Structure written by MMmdl.
 42 42  0  0  0  0  0  0  0  0  2 V2000
  147.2515  134.7788  161.7926 C   0  0  0  0  0  0  0  0  0  0  0  0
  147.5631  136.0407  160.9859 C   0  0  0  0  0  0  0  0  0  0  0  0
  147.6889  137.1137  161.5709 O   0  0  0  0  0  0  0  0  0  0  0  0
  147.6971  135.9534  159.6511 N   0  0  0  0  0  0  0  0  0  0  0  0
  147.9927  137.0413  158.7155 C   0  0  1  0  0  0  0  0  0  0  0  0
  149.5140  137.0391  158.4814 C   0  0  0  0  0  0  0  0  0  0  0  0
  150.2496  136.3310  159.1709 O   0  0  0  0  0  0  0  0  0  0  0  0
  149.9700  137.8501  157.5136 N   0  0  0  0  0  0  0  0  0  0  0  0
  151.3739  138.0401  157.1522 C   0  0  1  0  0  0  0  0  0  0  0  0
  151.9790  136.6780  156.7882 C   0  0  0  0  0  0  0  0  0  0  0  0
  151.5183  139.0447  155.9871 C   0  0  0  0  0  0  0  0  0  0  0  0
  151.1582  140.4182  156.3596 N   0  0  0  0  0  0  0  0  0  0  0  0
  151.6283  141.1404  157.4266 C   0  0  0  0  0  0  0  0  0  0  0  0
  151.0042  142.3604  157.3787 C   0  0  0  0  0  0  0  0  0  0  0  0
  150.1889  142.3360  156.2793 N   0  3  0  0  0  0  0  0  0  0  0  0
  150.2914  141.1583  155.6557 C   0  0  0  0  0  0  0  0  0  0  0  0
  147.2470  136.7743  157.3751 C   0  0  0  0  0  0  0  0  0  0  0  0
  147.1484  138.0303  156.4845 C   0  0  0  0  0  0  0  0  0  0  0  0
  145.8315  136.2112  157.6103 C   0  0  0  0  0  0  0  0  0  0  0  0
  146.3631  134.2751  161.4133 H   0  0  0  0  0  0  0  0  0  0  0  0
  147.0741  135.0265  162.8397 H   0  0  0  0  0  0  0  0  0  0  0  0
  148.0907  134.0842  161.7492 H   0  0  0  0  0  0  0  0  0  0  0  0
  147.6394  135.0299  159.2463 H   0  0  0  0  0  0  0  0  0  0  0  0
  147.6689  138.0031  159.1173 H   0  0  0  0  0  0  0  0  0  0  0  0
  149.2913  138.3866  156.9924 H   0  0  0  0  0  0  0  0  0  0  0  0
  151.9273  138.4165  158.0146 H   0  0  0  0  0  0  0  0  0  0  0  0
  153.0381  136.7717  156.5465 H   0  0  0  0  0  0  0  0  0  0  0  0
  151.4787  136.2377  155.9247 H   0  0  0  0  0  0  0  0  0  0  0  0
  151.8930  135.9750  157.6174 H   0  0  0  0  0  0  0  0  0  0  0  0
  152.5520  139.0716  155.6399 H   0  0  0  0  0  0  0  0  0  0  0  0
  150.9077  138.7408  155.1352 H   0  0  0  0  0  0  0  0  0  0  0  0
  152.3452  140.7394  158.1283 H   0  0  0  0  0  0  0  0  0  0  0  0
  151.0779  143.2213  158.0274 H   0  0  0  0  0  0  0  0  0  0  0  0
  149.7681  140.8627  154.7644 H   0  0  0  0  0  0  0  0  0  0  0  0
  147.7986  136.0201  156.8110 H   0  0  0  0  0  0  0  0  0  0  0  0
  146.6377  138.8422  157.0033 H   0  0  0  0  0  0  0  0  0  0  0  0
  146.5901  137.8196  155.5719 H   0  0  0  0  0  0  0  0  0  0  0  0
  148.1279  138.3956  156.1756 H   0  0  0  0  0  0  0  0  0  0  0  0
  145.2250  136.9013  158.1976 H   0  0  0  0  0  0  0  0  0  0  0  0
  145.8537  135.2568  158.1367 H   0  0  0  0  0  0  0  0  0  0  0  0
  145.3152  136.0394  156.6654 H   0  0  0  0  0  0  0  0  0  0  0  0
  149.5947  143.0985  155.9785 H   0  0  0  0  0  0  0  0  0  0  0  0
  1  2  1  0  0  0  0
  1 20  1  0  0  0  0
  1 21  1  0  0  0  0
  1 22  1  0  0  0  0
  2  3  2  0  0  0  0
  2  4  1  0  0  0  0
  4  5  1  0  0  0  0
  4 23  1  0  0  0  0
  5  6  1  0  0  0  0
  5 17  1  0  0  0  0
  5 24  1  0  0  0  0
  6  7  2  0  0  0  0
  6  8  1  0  0  0  0
  8  9  1  0  0  0  0
  8 25  1  0  0  0  0
  9 10  1  0  0  0  0
  9 11  1  0  0  0  0
  9 26  1  0  0  0  0
 10 27  1  0  0  0  0
 10 28  1  0  0  0  0
 10 29  1  0  0  0  0
 11 12  1  0  0  0  0
 11 30  1  0  0  0  0
 11 31  1  0  0  0  0
 12 16  1  0  0  0  0
 12 13  1  0  0  0  0
 13 14  2  0  0  0  0
 13 32  1  0  0  0  0
 14 15  1  0  0  0  0
 14 33  1  0  0  0  0
 15 16  2  0  0  0  0
 15 42  1  0  0  0  0
 16 34  1  0  0  0  0
 17 18  1  0  0  0  0
 17 19  1  0  0  0  0
 17 35  1  0  0  0  0
 18 36  1  0  0  0  0
 18 37  1  0  0  0  0
 18 38  1  0  0  0  0
 19 39  1  0  0  0  0
 19 40  1  0  0  0  0
 19 41  1  0  0  0  0
M  CHG  1  15   1
M  END
> <s_m_source_file>
AV-unprocessed.smi

> <i_m_source_file_index>
1648

> <i_lp_mmshare_version>
43012

> <i_f3d_flags>
0

> <s_epik_input>
W0NIM11DKD1PKVtOSF1bQ0BASF0oW0NIXShbQ0gzXSlbQ0gzXSlDKD1PKVtOSF1bQ0BIXShbQ0gzXSlbQ0gyXW4xW2NIXVtjSF1uW2NIXTE=

> <s_epik_cmdline>
J2VwaWtfcHl0aG9uJywgJy1waCcsICc3LjAnLCAnLXRuJywgJzgnLCAnLW1hJywgJzIwMCcsICctbWV0YWxfYmluZGluZycsICctaW1hZScsICc8aW5maWxlLm1hZT4nLCAnLW9tYWUnLCAnPG91dGZpbGUubWFlPic=

> <r_lp_tautomer_probability>
1

> <r_epik_Ionization_Penalty>
0.251562

> <r_epik_Ionization_Penalty_Charging>
0

> <r_epik_Ionization_Penalty_Neutral>
0.251562

> <r_epik_State_Penalty>
0.242926

> <r_epik_Charging_Adjusted_Penalty>
0.242926

> <i_epik_Tot_Q>
1

> <i_epik_Tot_abs_Q>
1

> <r_epik_Metal_State_Penalty>
0.53388

> <b_epik_Metal_Only>
0

> <s_lp_Force_Field>
OPLS_2005

> <r_lp_Energy>
9.97271

> <b_lp_Chiralities_Consistent>
1

> <s_lp_Variant>
AV-unprocessed.smi:1648-4

> <Gold.Version>
5.8.1

> <Gold.Id.Protein>
6NUR|6NUR_protein|mol2

> <Gold.PLP.Fitness>
38.6822

> <Gold.PLP.PLP>
-26.1285

> <Gold.PLP.part.hbond>
-4.0000

> <Gold.PLP.part.metal>
0.0000

> <Gold.PLP.part.buried>
-4.1669

> <Gold.PLP.part.nonpolar>
-17.9546

> <Gold.PLP.part.repulsive>
0.2516

> <Gold.PLP.ligand.clash>
0.0000

> <Gold.PLP.ligand.torsion>
0.9647

> <Gold.PLP.Chemscore.Hbond>
4.7520

> <Gold.PLP.Chemscore.CHOScore>
0.0000

> <Gold.PLP.Chemscore.Metal>
0.0000

> <Gold.Chemscore.Hbonds>
donor molecule, donor type, donor heavy atom, donor atom, acceptor molecule, acceptor atom, score
      L1  H    15    42       P1  8028  2.00
      P1  H  6896  6907       L1     7  1.00
      P1  H  6931  6943       L1     3  1.00
      P1  H  6934  6947       L1     3  0.70

> <Gold.PLP.Chemscore.Internal.Correction>
0.2271

> <Gold.Rescore>
     Score         DG    S(hbond)    S(metal)    S(lipo)     H(rot)  DE(clash)    DE(int)     intcor
     14.36     -15.71       3.74        0.00      37.98       2.61       0.00       1.35       ----

> <Gold.Chemscore.Fitness>
14.3648

> <Gold.Chemscore.DG>
-15.7117

> <Gold.Chemscore.ZeroCoef>
-5.4800

> <Gold.Chemscore.Hbond>
3.7361

> <Gold.Chemscore.Metal>
0.0000

> <Gold.Chemscore.Lipo>
37.9816

> <Gold.Chemscore.Internal_Hbond>
0.0000

> <Gold.Chemscore.DEClash>
0.0000

> <Gold.Chemscore.DEInternal>
1.3469

> <Gold.Chemscore.Rot>
2.6135

> <Gold.Chemscore.Internal.Correction>
   9.000000E+99

> <Gold.Chemscore.Hbonds>
donor molecule, donor type, donor heavy atom, donor atom, acceptor molecule, acceptor atom, score
      L1  H    15    42       P1  8028  1.00
      P1  H  6896  6907       L1     7  0.98
      P1  H  6931  6943       L1     3  0.96
      P1  H  6934  6947       L1     3  0.68

> <Gold.Chemscore.Hbond.Weighted>
-12.4785

> <Gold.Chemscore.Metal.Weighted>
-0.0000

> <Gold.Chemscore.Lipo.Weighted>
-4.4438

> <Gold.Chemscore.Internal_Hbond.Weighted>
0.0000

> <Gold.Chemscore.DEClash.Weighted>
0.0000

> <Gold.Chemscore.DEInternal.Weighted>
1.3469

> <Gold.Chemscore.Rot.Weighted>
6.6906

> <Gold.Chemscore.Internal.Correction.Weighted>
   9.000000E+99

> <Gold.Protein.RotatedTorsions>
[ 6907 6896 6895 6894 ] final  -54.23 input  -60.11 | X-H torsion
[ 7974 7965 7964 7962 ] final -176.45 input  175.53 | X-H torsion
[ 8008 7997 7996 7995 ] final   33.42 input   59.86 | X-H torsion
[ 10167 10162 10161 10158 ] final  -51.06 input  -65.29 | X-H torsion
[ 10718 10713 10712 10709 ] final  168.95 input   66.30 | X-H torsion
[ 10763 10752 10751 10750 ] final  -43.69 input  -60.55 | X-H torsion
[ 11005 11000 10999 10996 ] final  -75.39 input  -57.11 | X-H torsion

> <Gold.Protein.ActiveResidues>
 VAL166  LYS551  ARG553  GLY616  TRP617  ASP618  TYR619  PRO620  LYS621  CYS622 
 ASP623  PHE694  ASN695  SER759  ASP760  ASP761  ALA762  ILE779  LEU786  VAL792 
 PHE793  MET794  SER795  GLU796  ALA797  LYS798  CYS799  TRP800  GLU811  SER814 

> <Gold.Protein.RotatedAtoms>
  150.8356  134.7627  159.6889 H   0  0  0  0  0  0  0  0  0  0  0  0  # atno 6907 bound_to 6896
  152.4453  134.5504  159.9875 H   0  0  0  0  0  0  0  0  0  0  0  0  # atno 6908 bound_to 6896
  151.5655  133.3359  159.3015 H   0  0  0  0  0  0  0  0  0  0  0  0  # atno 6909 bound_to 6896
  144.7127  140.1168  143.6407 H   0  0  0  0  0  0  0  0  0  0  0  0  # atno 7974 bound_to 7965
  155.1384  140.3264  155.4458 H   0  0  0  0  0  0  0  0  0  0  0  0  # atno 8008 bound_to 7997
  156.2612  140.1998  156.6450 H   0  0  0  0  0  0  0  0  0  0  0  0  # atno 8009 bound_to 7997
  154.6561  140.0553  156.9996 H   0  0  0  0  0  0  0  0  0  0  0  0  # atno 8010 bound_to 7997
  140.6607  143.2634  151.4450 H   0  0  0  0  0  0  0  0  0  0  0  0  # atno 10167 bound_to 10162
  157.0297  131.0256  151.2748 H   0  0  0  0  0  0  0  0  0  0  0  0  # atno 10718 bound_to 10713
  153.9998  135.6695  153.4758 H   0  0  0  0  0  0  0  0  0  0  0  0  # atno 10763 bound_to 10752
  153.0668  135.4996  154.8213 H   0  0  0  0  0  0  0  0  0  0  0  0  # atno 10764 bound_to 10752
  154.7060  135.3088  154.9233 H   0  0  0  0  0  0  0  0  0  0  0  0  # atno 10765 bound_to 10752
  141.1645  133.6945  156.7509 H   0  0  0  0  0  0  0  0  0  0  0  0  # atno 11005 bound_to 11000
  145.9406  139.2666  143.1271 LP  0  0  0  0  0  0  0  0  0  0  0  0  # atno 17320 bound_to 7965
  145.9428  140.8967  143.0299 LP  0  0  0  0  0  0  0  0  0  0  0  0  # atno 17321 bound_to 7965
  139.5840  144.1646  152.2005 LP  0  0  0  0  0  0  0  0  0  0  0  0  # atno 17342 bound_to 10162
  140.0980  144.5564  150.7008 LP  0  0  0  0  0  0  0  0  0  0  0  0  # atno 17343 bound_to 10162
  157.5187  130.7984  149.7785 LP  0  0  0  0  0  0  0  0  0  0  0  0  # atno 17370 bound_to 10713
  156.0074  130.3849  150.2384 LP  0  0  0  0  0  0  0  0  0  0  0  0  # atno 17371 bound_to 10713
  140.2605  134.8470  157.3754 LP  0  0  0  0  0  0  0  0  0  0  0  0  # atno 17394 bound_to 11000
  140.1616  134.4722  155.7891 LP  0  0  0  0  0  0  0  0  0  0  0  0  # atno 17395 bound_to 11000

$$$$
