AV-unprocessed.smi:1763|AV-procd|sdf|7127|dock3
  -GOLD-   22720 8363D 1   1.00000     0.00000
 Structure written by MMmdl.
 42 43  0  0  0  0  0  0  0  0  1 V2000
  150.9821  143.0372  157.9630 C   0  0  0  0  0  0  0  0  0  0  0  0
  149.7969  142.8142  157.1501 N   0  0  0  0  0  0  0  0  0  0  0  0
  149.0125  141.7301  157.2385 C   0  0  0  0  0  0  0  0  0  0  0  0
  149.2265  140.8011  158.0167 O   0  0  0  0  0  0  0  0  0  0  0  0
  147.8002  141.6831  156.3010 C   0  0  0  0  0  0  0  0  0  0  0  0
  147.8061  140.5591  155.3355 N   0  0  0  0  0  0  0  0  0  0  0  0
  146.8691  140.7694  154.2215 C   0  0  0  0  0  0  0  0  0  0  0  0
  146.9614  139.6135  153.2096 C   0  0  0  0  0  0  0  0  0  0  0  0
  146.6816  138.2592  153.8812 C   0  0  0  0  0  0  0  0  0  0  0  0
  146.9016  137.1582  152.9481 N   0  0  0  0  0  0  0  0  0  0  0  0
  145.9616  136.2960  152.5343 C   0  0  0  0  0  0  0  0  0  0  0  0
  144.7873  136.3441  152.9021 O   0  0  0  0  0  0  0  0  0  0  0  0
  146.4728  135.3947  151.6773 N   0  0  0  0  0  0  0  0  0  0  0  0
  145.8074  134.3157  151.0365 C   0  0  0  0  0  0  0  0  0  0  0  0
  146.6577  133.3748  150.4122 C   0  0  0  0  0  0  0  0  0  0  0  0
  146.0966  132.2644  149.7523 C   0  0  0  0  0  0  0  0  0  0  0  0
  144.6976  132.1223  149.7342 C   0  0  0  0  0  0  0  0  0  0  0  0
  143.9232  133.1040  150.3795 C   0  0  0  0  0  0  0  0  0  0  0  0
  144.4588  134.1696  151.0119 N   0  0  0  0  0  0  0  0  0  0  0  0
  147.6056  138.1070  155.0971 C   0  0  0  0  0  0  0  0  0  0  0  0
  147.4814  139.3153  156.0415 C   0  0  0  0  0  0  0  0  0  0  0  0
  151.4801  143.9548  157.6502 H   0  0  0  0  0  0  0  0  0  0  0  0
  151.6890  142.2130  157.8584 H   0  0  0  0  0  0  0  0  0  0  0  0
  150.7144  143.1359  159.0157 H   0  0  0  0  0  0  0  0  0  0  0  0
  149.5472  143.5330  156.4858 H   0  0  0  0  0  0  0  0  0  0  0  0
  146.9095  141.6197  156.9279 H   0  0  0  0  0  0  0  0  0  0  0  0
  147.7318  142.6301  155.7621 H   0  0  0  0  0  0  0  0  0  0  0  0
  145.8495  140.8603  154.6001 H   0  0  0  0  0  0  0  0  0  0  0  0
  147.0918  141.6961  153.6929 H   0  0  0  0  0  0  0  0  0  0  0  0
  146.2542  139.7833  152.3969 H   0  0  0  0  0  0  0  0  0  0  0  0
  147.9545  139.6075  152.7576 H   0  0  0  0  0  0  0  0  0  0  0  0
  145.6471  138.2379  154.2300 H   0  0  0  0  0  0  0  0  0  0  0  0
  147.8401  137.0448  152.5942 H   0  0  0  0  0  0  0  0  0  0  0  0
  147.4545  135.4873  151.4620 H   0  0  0  0  0  0  0  0  0  0  0  0
  147.7306  133.4985  150.4371 H   0  0  0  0  0  0  0  0  0  0  0  0
  146.7293  131.5342  149.2697 H   0  0  0  0  0  0  0  0  0  0  0  0
  144.2302  131.2836  149.2397 H   0  0  0  0  0  0  0  0  0  0  0  0
  142.8457  133.0317  150.3900 H   0  0  0  0  0  0  0  0  0  0  0  0
  147.3635  137.1908  155.6370 H   0  0  0  0  0  0  0  0  0  0  0  0
  148.6422  138.0082  154.7701 H   0  0  0  0  0  0  0  0  0  0  0  0
  148.1647  139.1768  156.8806 H   0  0  0  0  0  0  0  0  0  0  0  0
  146.4738  139.3667  156.4584 H   0  0  0  0  0  0  0  0  0  0  0  0
  1  2  1  0  0  0  0
  1 22  1  0  0  0  0
  1 23  1  0  0  0  0
  1 24  1  0  0  0  0
  2  3  1  0  0  0  0
  2 25  1  0  0  0  0
  3  4  2  0  0  0  0
  3  5  1  0  0  0  0
  5  6  1  0  0  0  0
  5 26  1  0  0  0  0
  5 27  1  0  0  0  0
  6 21  1  0  0  0  0
  6  7  1  0  0  0  0
  7  8  1  0  0  0  0
  7 28  1  0  0  0  0
  7 29  1  0  0  0  0
  8  9  1  0  0  0  0
  8 30  1  0  0  0  0
  8 31  1  0  0  0  0
  9 10  1  0  0  0  0
  9 20  1  0  0  0  0
  9 32  1  0  0  0  0
 10 11  1  0  0  0  0
 10 33  1  0  0  0  0
 11 12  2  0  0  0  0
 11 13  1  0  0  0  0
 13 14  1  0  0  0  0
 13 34  1  0  0  0  0
 14 19  1  0  0  0  0
 14 15  2  0  0  0  0
 15 16  1  0  0  0  0
 15 35  1  0  0  0  0
 16 17  2  0  0  0  0
 16 36  1  0  0  0  0
 17 18  1  0  0  0  0
 17 37  1  0  0  0  0
 18 19  2  0  0  0  0
 18 38  1  0  0  0  0
 20 21  1  0  0  0  0
 20 39  1  0  0  0  0
 20 40  1  0  0  0  0
 21 41  1  0  0  0  0
 21 42  1  0  0  0  0
M  END
> <s_m_source_file>
AV-unprocessed.smi

> <i_m_source_file_index>
1763

> <i_lp_mmshare_version>
43012

> <i_f3d_flags>
0

> <s_epik_input>
W0NIM11bTkhdQyg9TylbQ0gyXU4xW0NIMl1bQ0gyXVtDSF0oW0NIMl1bQ0gyXTEpW05IXUMoPU8pW05IXWMyW2NIXVtjSF1bY0hdW2NIXW4y

> <s_epik_cmdline>
J2VwaWtfcHl0aG9uJywgJy1waCcsICc3LjAnLCAnLXRuJywgJzgnLCAnLW1hJywgJzIwMCcsICctbWV0YWxfYmluZGluZycsICctaW1hZScsICc8aW5maWxlLm1hZT4nLCAnLW9tYWUnLCAnPG91dGZpbGUubWFlPic=

> <r_epik_Ionization_Penalty>
0.164783

> <r_epik_Ionization_Penalty_Charging>
0

> <r_epik_Ionization_Penalty_Neutral>
0.164783

> <r_epik_State_Penalty>
0.154069

> <r_epik_Charging_Adjusted_Penalty>
0.154069

> <i_epik_Tot_Q>
0

> <i_epik_Tot_abs_Q>
0

> <r_epik_Metal_State_Penalty>
0.158586

> <b_epik_Metal_Only>
0

> <s_lp_Force_Field>
OPLS_2005

> <r_lp_Energy>
16.3585

> <b_lp_Chiralities_Consistent>
1

> <s_lp_Variant>
AV-unprocessed.smi:1763-1

> <Gold.Version>
5.8.1

> <Gold.Id.Protein>
6NUR|6NUR_protein|mol2

> <Gold.PLP.Fitness>
40.7979

> <Gold.PLP.PLP>
-29.2578

> <Gold.PLP.part.hbond>
-2.8669

> <Gold.PLP.part.metal>
0.0000

> <Gold.PLP.part.buried>
-3.6467

> <Gold.PLP.part.nonpolar>
-22.3531

> <Gold.PLP.part.repulsive>
0.4674

> <Gold.PLP.ligand.clash>
0.0000

> <Gold.PLP.ligand.torsion>
0.1648

> <Gold.PLP.Chemscore.Hbond>
2.9440

> <Gold.PLP.Chemscore.CHOScore>
1.0000

> <Gold.PLP.Chemscore.Metal>
0.0000

> <Gold.Chemscore.Hbonds>
donor molecule, donor type, donor heavy atom, donor atom, acceptor molecule, acceptor atom, score
      L1  H     2    25       P1  8028  1.00
      L1  H    10    33       P1  7948  1.00
      L1  H    13    34       P1  7948  0.98
      L1  C    18    38       P1 10186  1.00

> <Gold.PLP.Chemscore.Internal.Correction>
0.0378

> <Gold.Rescore>
     Score         DG    S(hbond)    S(metal)    S(lipo)     H(rot)  DE(clash)    DE(int)     intcor
     17.05     -18.65       2.92        0.00      66.39       1.70       0.06       1.54       ----

> <Gold.Chemscore.Fitness>
17.0523

> <Gold.Chemscore.DG>
-18.6515

> <Gold.Chemscore.ZeroCoef>
-5.4800

> <Gold.Chemscore.Hbond>
2.9236

> <Gold.Chemscore.Metal>
0.0000

> <Gold.Chemscore.Lipo>
66.3942

> <Gold.Chemscore.Internal_Hbond>
0.0000

> <Gold.Chemscore.DEClash>
0.0573

> <Gold.Chemscore.DEInternal>
1.5418

> <Gold.Chemscore.Rot>
1.7037

> <Gold.Chemscore.Internal.Correction>
   9.000000E+99

> <Gold.Chemscore.Hbonds>
donor molecule, donor type, donor heavy atom, donor atom, acceptor molecule, acceptor atom, score
      L1  H     2    25       P1  8028  0.98
      L1  H    10    33       P1  7948  0.92
      L1  H    13    34       P1  7948  0.85

> <Gold.Chemscore.Hbond.Weighted>
-9.7647

> <Gold.Chemscore.Metal.Weighted>
-0.0000

> <Gold.Chemscore.Lipo.Weighted>
-7.7681

> <Gold.Chemscore.Internal_Hbond.Weighted>
0.0000

> <Gold.Chemscore.DEClash.Weighted>
0.0573

> <Gold.Chemscore.DEInternal.Weighted>
1.5418

> <Gold.Chemscore.Rot.Weighted>
4.3614

> <Gold.Chemscore.Internal.Correction.Weighted>
   9.000000E+99

> <Gold.Protein.RotatedTorsions>
[ 6907 6896 6895 6894 ] final  124.92 input  -60.11 | X-H torsion
[ 7974 7965 7964 7962 ] final  100.58 input  175.53 | X-H torsion
[ 8008 7997 7996 7995 ] final  137.63 input   59.86 | X-H torsion
[ 10167 10162 10161 10158 ] final  -73.44 input  -65.29 | X-H torsion
[ 10718 10713 10712 10709 ] final  -81.89 input   66.30 | X-H torsion
[ 10763 10752 10751 10750 ] final  -34.02 input  -60.55 | X-H torsion
[ 11005 11000 10999 10996 ] final  -59.94 input  -57.11 | X-H torsion

> <Gold.Protein.ActiveResidues>
 VAL166  LYS551  ARG553  GLY616  TRP617  ASP618  TYR619  PRO620  LYS621  CYS622 
 ASP623  PHE694  ASN695  SER759  ASP760  ASP761  ALA762  ILE779  LEU786  VAL792 
 PHE793  MET794  SER795  GLU796  ALA797  LYS798  CYS799  TRP800  GLU811  SER814 

> <Gold.Protein.RotatedAtoms>
  152.4037  133.6856  159.6337 H   0  0  0  0  0  0  0  0  0  0  0  0  # atno 6907 bound_to 6896
  150.7925  133.8746  159.3277 H   0  0  0  0  0  0  0  0  0  0  0  0  # atno 6908 bound_to 6896
  151.6506  135.1003  160.0211 H   0  0  0  0  0  0  0  0  0  0  0  0  # atno 6909 bound_to 6896
  145.3836  139.2375  143.3390 H   0  0  0  0  0  0  0  0  0  0  0  0  # atno 7974 bound_to 7965
  156.3001  140.2414  156.3941 H   0  0  0  0  0  0  0  0  0  0  0  0  # atno 8008 bound_to 7997
  154.8587  140.0421  157.1671 H   0  0  0  0  0  0  0  0  0  0  0  0  # atno 8009 bound_to 7997
  154.8920  140.2964  155.5369 H   0  0  0  0  0  0  0  0  0  0  0  0  # atno 8010 bound_to 7997
  140.5110  143.2345  151.7593 H   0  0  0  0  0  0  0  0  0  0  0  0  # atno 10167 bound_to 10162
  156.0042  130.4617  150.4021 H   0  0  0  0  0  0  0  0  0  0  0  0  # atno 10718 bound_to 10713
  153.8399  135.6858  153.4804 H   0  0  0  0  0  0  0  0  0  0  0  0  # atno 10763 bound_to 10752
  153.1460  135.4637  154.9565 H   0  0  0  0  0  0  0  0  0  0  0  0  # atno 10764 bound_to 10752
  154.7850  135.3281  154.7853 H   0  0  0  0  0  0  0  0  0  0  0  0  # atno 10765 bound_to 10752
  141.1268  133.6619  156.5147 H   0  0  0  0  0  0  0  0  0  0  0  0  # atno 11005 bound_to 11000
  146.2830  140.4508  142.8769 LP  0  0  0  0  0  0  0  0  0  0  0  0  # atno 17320 bound_to 7965
  144.8490  140.6972  143.6180 LP  0  0  0  0  0  0  0  0  0  0  0  0  # atno 17321 bound_to 7965
  139.4896  144.4390  151.9786 LP  0  0  0  0  0  0  0  0  0  0  0  0  # atno 17342 bound_to 10162
  140.3482  144.3121  150.5954 LP  0  0  0  0  0  0  0  0  0  0  0  0  # atno 17343 bound_to 10162
  157.2089  131.0456  151.2610 LP  0  0  0  0  0  0  0  0  0  0  0  0  # atno 17370 bound_to 10713
  157.3907  130.7280  149.6695 LP  0  0  0  0  0  0  0  0  0  0  0  0  # atno 17371 bound_to 10713
  140.4340  134.7076  157.4957 LP  0  0  0  0  0  0  0  0  0  0  0  0  # atno 17394 bound_to 11000
  140.0274  134.6456  155.9153 LP  0  0  0  0  0  0  0  0  0  0  0  0  # atno 17395 bound_to 11000

$$$$
