AV-unprocessed.smi:2618|AV-procd|sdf|10218|dock2
  -GOLD-   2272014223D 1   1.00000     0.00000
 Structure written by MMmdl.
 39 40  0  0  0  0  0  0  0  0  1 V2000
  147.1652  142.0910  153.9784 C   0  0  0  0  0  0  0  0  0  0  0  0
  148.3179  141.3841  153.5562 O   0  0  0  0  0  0  0  0  0  0  0  0
  148.9773  140.7279  154.6278 C   0  0  0  0  0  0  0  0  0  0  0  0
  149.9418  141.6980  155.3283 C   0  0  0  0  0  0  0  0  0  0  0  0
  150.8420  141.0003  156.3124 C   0  0  0  0  0  0  0  0  0  0  0  0
  151.2229  141.5399  157.4097 N   0  0  0  0  0  0  0  0  0  0  0  0
  152.0063  140.7110  158.0998 N   0  0  0  0  0  0  0  0  0  0  0  0
  152.6146  141.0657  159.3090 C   0  0  0  0  0  0  0  0  0  0  0  0
  153.5208  140.2276  159.8279 N   0  0  0  0  0  0  0  0  0  0  0  0
  154.1054  140.5765  160.9940 C   0  0  0  0  0  0  0  0  0  0  0  0
  155.1243  139.6115  161.5613 C   0  0  0  0  0  0  0  0  0  0  0  0
  153.7892  141.7821  161.6512 C   0  0  0  0  0  0  0  0  0  0  0  0
  152.8273  142.5952  161.0189 C   0  0  0  0  0  0  0  0  0  0  0  0
  152.3909  143.9150  161.6181 C   0  0  0  0  0  0  0  0  0  0  0  0
  152.2454  142.2341  159.8549 N   0  0  0  0  0  0  0  0  0  0  0  0
  152.1178  139.3972  157.4479 C   0  0  1  0  0  0  0  0  0  0  0  0
  153.4348  138.9815  157.1237 O   0  0  0  0  0  0  0  0  0  0  0  0
  151.4264  138.2660  158.2601 C   0  0  0  0  0  0  0  0  0  0  0  0
  150.1473  138.5738  158.4829 F   0  0  0  0  0  0  0  0  0  0  0  0
  151.4603  137.1228  157.5731 F   0  0  0  0  0  0  0  0  0  0  0  0
  152.0110  138.0633  159.4401 F   0  0  0  0  0  0  0  0  0  0  0  0
  151.3961  139.6346  156.1145 C   0  0  0  0  0  0  0  0  0  0  0  0
  146.6935  142.5682  153.1195 H   0  0  0  0  0  0  0  0  0  0  0  0
  147.4222  142.8704  154.6971 H   0  0  0  0  0  0  0  0  0  0  0  0
  146.4355  141.4203  154.4337 H   0  0  0  0  0  0  0  0  0  0  0  0
  148.2531  140.3261  155.3393 H   0  0  0  0  0  0  0  0  0  0  0  0
  149.5418  139.8821  154.2327 H   0  0  0  0  0  0  0  0  0  0  0  0
  150.5520  142.1889  154.5687 H   0  0  0  0  0  0  0  0  0  0  0  0
  149.3850  142.4907  155.8287 H   0  0  0  0  0  0  0  0  0  0  0  0
  155.2310  139.7475  162.6376 H   0  0  0  0  0  0  0  0  0  0  0  0
  156.0963  139.7754  161.0956 H   0  0  0  0  0  0  0  0  0  0  0  0
  154.8241  138.5789  161.3785 H   0  0  0  0  0  0  0  0  0  0  0  0
  154.2561  142.0657  162.5830 H   0  0  0  0  0  0  0  0  0  0  0  0
  153.1232  144.2771  162.3404 H   0  0  0  0  0  0  0  0  0  0  0  0
  151.4342  143.7979  162.1278 H   0  0  0  0  0  0  0  0  0  0  0  0
  152.2773  144.6724  160.8418 H   0  0  0  0  0  0  0  0  0  0  0  0
  153.5455  138.0883  157.4108 H   0  0  0  0  0  0  0  0  0  0  0  0
  150.6007  138.9134  155.9251 H   0  0  0  0  0  0  0  0  0  0  0  0
  152.0733  139.6244  155.2593 H   0  0  0  0  0  0  0  0  0  0  0  0
  1  2  1  0  0  0  0
  1 23  1  0  0  0  0
  1 24  1  0  0  0  0
  1 25  1  0  0  0  0
  2  3  1  0  0  0  0
  3  4  1  0  0  0  0
  3 26  1  0  0  0  0
  3 27  1  0  0  0  0
  4  5  1  0  0  0  0
  4 28  1  0  0  0  0
  4 29  1  0  0  0  0
  5 22  1  0  0  0  0
  5  6  2  0  0  0  0
  6  7  1  0  0  0  0
  7  8  1  0  0  0  0
  7 16  1  0  0  0  0
  8 15  1  0  0  0  0
  8  9  2  0  0  0  0
  9 10  1  0  0  0  0
 10 11  1  0  0  0  0
 10 12  2  0  0  0  0
 11 30  1  0  0  0  0
 11 31  1  0  0  0  0
 11 32  1  0  0  0  0
 12 13  1  0  0  0  0
 12 33  1  0  0  0  0
 13 14  1  0  0  0  0
 13 15  2  0  0  0  0
 14 34  1  0  0  0  0
 14 35  1  0  0  0  0
 14 36  1  0  0  0  0
 16 17  1  0  0  0  0
 16 18  1  0  0  0  0
 16 22  1  0  0  0  0
 17 37  1  0  0  0  0
 18 19  1  0  0  0  0
 18 20  1  0  0  0  0
 18 21  1  0  0  0  0
 22 38  1  0  0  0  0
 22 39  1  0  0  0  0
M  END
> <s_m_source_file>
AV-unprocessed.smi

> <i_m_source_file_index>
2618

> <i_lp_mmshare_version>
43012

> <i_f3d_flags>
0

> <s_epik_input>
W0NIM11PW0NIMl1bQ0gyXUMoW0NIMl0xKT1OTihbQ0BAXTEoW09IXSlDKEYpKEYpRiljMm5jKFtDSDNdKVtjSF1jKG4yKVtDSDNd

> <s_epik_cmdline>
J2VwaWtfcHl0aG9uJywgJy1waCcsICc3LjAnLCAnLXRuJywgJzgnLCAnLW1hJywgJzIwMCcsICctbWV0YWxfYmluZGluZycsICctaW1hZScsICc8aW5maWxlLm1hZT4nLCAnLW9tYWUnLCAnPG91dGZpbGUubWFlPic=

> <r_lp_tautomer_probability>
1

> <r_epik_Ionization_Penalty>
0.0648608

> <r_epik_Ionization_Penalty_Charging>
0

> <r_epik_Ionization_Penalty_Neutral>
0.0648608

> <r_epik_State_Penalty>
0.0551477

> <r_epik_Charging_Adjusted_Penalty>
0.0551477

> <i_epik_Tot_Q>
0

> <i_epik_Tot_abs_Q>
0

> <r_epik_Metal_State_Penalty>
0.0550619

> <b_epik_Metal_Only>
0

> <s_epik_Chemistry_Notes>
This compound has an imine and may undergo hydrolysis.

> <s_lp_Force_Field>
OPLS_2005

> <r_lp_Energy>
16.027

> <b_lp_Chiralities_Consistent>
1

> <s_lp_Variant>
AV-unprocessed.smi:2618-1

> <Gold.Version>
5.8.1

> <Gold.Id.Protein>
6NUR|6NUR_protein|mol2

> <Gold.PLP.Fitness>
45.8284

> <Gold.PLP.PLP>
-42.0768

> <Gold.PLP.part.hbond>
-1.7576

> <Gold.PLP.part.metal>
0.0000

> <Gold.PLP.part.buried>
-5.5352

> <Gold.PLP.part.nonpolar>
-34.4504

> <Gold.PLP.part.repulsive>
1.1620

> <Gold.PLP.ligand.clash>
0.0000

> <Gold.PLP.ligand.torsion>
0.5865

> <Gold.PLP.Chemscore.Hbond>
1.6110

> <Gold.PLP.Chemscore.CHOScore>
0.0000

> <Gold.PLP.Chemscore.Metal>
0.0000

> <Gold.Chemscore.Hbonds>
donor molecule, donor type, donor heavy atom, donor atom, acceptor molecule, acceptor atom, score
      P1  H  7997  8010       L1    17  0.99
      P1  H  8011  8017       L1     2  0.48

> <Gold.PLP.Chemscore.Internal.Correction>
0.0916

> <Gold.Rescore>
     Score         DG    S(hbond)    S(metal)    S(lipo)     H(rot)  DE(clash)    DE(int)     intcor
     12.87     -15.46       1.44        0.00      88.60       2.03       0.41       2.18       ----

> <Gold.Chemscore.Fitness>
12.8722

> <Gold.Chemscore.DG>
-15.4617

> <Gold.Chemscore.ZeroCoef>
-5.4800

> <Gold.Chemscore.Hbond>
1.4441

> <Gold.Chemscore.Metal>
0.0000

> <Gold.Chemscore.Lipo>
88.5953

> <Gold.Chemscore.Internal_Hbond>
0.0000

> <Gold.Chemscore.DEClash>
0.4118

> <Gold.Chemscore.DEInternal>
2.1776

> <Gold.Chemscore.Rot>
2.0340

> <Gold.Chemscore.Internal.Correction>
   9.000000E+99

> <Gold.Chemscore.Hbonds>
donor molecule, donor type, donor heavy atom, donor atom, acceptor molecule, acceptor atom, score
      P1  H  7997  8010       L1    17  0.83
      P1  H  8011  8017       L1     2  0.34

> <Gold.Chemscore.Hbond.Weighted>
-4.8231

> <Gold.Chemscore.Metal.Weighted>
-0.0000

> <Gold.Chemscore.Lipo.Weighted>
-10.3657

> <Gold.Chemscore.Internal_Hbond.Weighted>
0.0000

> <Gold.Chemscore.DEClash.Weighted>
0.4118

> <Gold.Chemscore.DEInternal.Weighted>
2.1776

> <Gold.Chemscore.Rot.Weighted>
5.2071

> <Gold.Chemscore.Internal.Correction.Weighted>
   9.000000E+99

> <Gold.Protein.RotatedTorsions>
[ 6907 6896 6895 6894 ] final  -85.71 input  -60.11 | X-H torsion
[ 7974 7965 7964 7962 ] final  -83.58 input  175.53 | X-H torsion
[ 8008 7997 7996 7995 ] final   67.50 input   59.86 | X-H torsion
[ 10167 10162 10161 10158 ] final  -18.56 input  -65.29 | X-H torsion
[ 10718 10713 10712 10709 ] final  -97.87 input   66.30 | X-H torsion
[ 10763 10752 10751 10750 ] final  156.27 input  -60.55 | X-H torsion
[ 11005 11000 10999 10996 ] final   72.39 input  -57.11 | X-H torsion

> <Gold.Protein.ActiveResidues>
 VAL166  LYS551  ARG553  GLY616  TRP617  ASP618  TYR619  PRO620  LYS621  CYS622 
 ASP623  PHE694  ASN695  SER759  ASP760  ASP761  ALA762  ILE779  LEU786  VAL792 
 PHE793  MET794  SER795  GLU796  ALA797  LYS798  CYS799  TRP800  GLU811  SER814 

> <Gold.Protein.RotatedAtoms>
  150.6869  134.3162  159.4767 H   0  0  0  0  0  0  0  0  0  0  0  0  # atno 6907 bound_to 6896
  152.1043  134.9317  160.0578 H   0  0  0  0  0  0  0  0  0  0  0  0  # atno 6908 bound_to 6896
  152.0584  133.4016  159.4444 H   0  0  0  0  0  0  0  0  0  0  0  0  # atno 6909 bound_to 6896
  145.5181  140.9534  143.1670 H   0  0  0  0  0  0  0  0  0  0  0  0  # atno 7974 bound_to 7965
  155.6939  140.3496  155.4905 H   0  0  0  0  0  0  0  0  0  0  0  0  # atno 8008 bound_to 7997
  155.9500  140.1117  157.1007 H   0  0  0  0  0  0  0  0  0  0  0  0  # atno 8009 bound_to 7997
  154.4120  140.1196  156.5026 H   0  0  0  0  0  0  0  0  0  0  0  0  # atno 8010 bound_to 7997
  140.7260  143.4904  150.9999 H   0  0  0  0  0  0  0  0  0  0  0  0  # atno 10167 bound_to 10162
  156.0094  130.5213  150.6439 H   0  0  0  0  0  0  0  0  0  0  0  0  # atno 10718 bound_to 10713
  154.1817  135.2799  155.3050 H   0  0  0  0  0  0  0  0  0  0  0  0  # atno 10763 bound_to 10752
  154.5997  135.5533  153.7365 H   0  0  0  0  0  0  0  0  0  0  0  0  # atno 10764 bound_to 10752
  153.0136  135.6389  154.1956 H   0  0  0  0  0  0  0  0  0  0  0  0  # atno 10765 bound_to 10752
  139.9493  134.7256  156.0901 H   0  0  0  0  0  0  0  0  0  0  0  0  # atno 11005 bound_to 11000
  144.7691  139.6776  143.7202 LP  0  0  0  0  0  0  0  0  0  0  0  0  # atno 17320 bound_to 7965
  146.2124  139.5489  142.9672 LP  0  0  0  0  0  0  0  0  0  0  0  0  # atno 17321 bound_to 7965
  139.8608  143.7317  152.3173 LP  0  0  0  0  0  0  0  0  0  0  0  0  # atno 17342 bound_to 10162
  139.7531  144.7528  151.0476 LP  0  0  0  0  0  0  0  0  0  0  0  0  # atno 17343 bound_to 10162
  157.4213  131.0837  151.1128 LP  0  0  0  0  0  0  0  0  0  0  0  0  # atno 17370 bound_to 10713
  157.1729  130.6275  149.5646 LP  0  0  0  0  0  0  0  0  0  0  0  0  # atno 17371 bound_to 10713
  141.1152  133.6630  156.3076 LP  0  0  0  0  0  0  0  0  0  0  0  0  # atno 17394 bound_to 11000
  140.5757  134.5795  157.5468 LP  0  0  0  0  0  0  0  0  0  0  0  0  # atno 17395 bound_to 11000

$$$$
