AV-unprocessed.smi:1084|AV-procd|sdf|4716|dock4
  -GOLD-   22720 3243D 1   1.00000     0.00000
 Structure written by MMmdl.
 52 54  0  0  0  0  0  0  0  0  1 V2000
  147.4833  131.1477  153.5027 C   0  0  0  0  0  0  0  0  0  0  0  0
  147.3859  132.6581  153.1667 C   0  0  2  0  0  0  0  0  0  0  0  0
  147.6828  133.4760  154.4536 C   0  0  0  0  0  0  0  0  0  0  0  0
  148.3053  134.7632  154.1629 N   0  0  0  0  0  0  0  0  0  0  0  0
  148.6903  135.6517  155.0879 C   0  0  0  0  0  0  0  0  0  0  0  0
  148.5324  135.4860  156.2974 O   0  0  0  0  0  0  0  0  0  0  0  0
  149.2409  136.7374  154.5189 N   0  0  0  0  0  0  0  0  0  0  0  0
  149.8518  137.8492  155.1576 C   0  0  0  0  0  0  0  0  0  0  0  0
  149.8648  137.8834  156.5663 C   0  0  0  0  0  0  0  0  0  0  0  0
  150.4391  138.9894  157.2207 C   0  0  0  0  0  0  0  0  0  0  0  0
  150.9751  140.0374  156.4375 C   0  0  0  0  0  0  0  0  0  0  0  0
  151.5552  141.1703  157.0231 N   0  0  0  0  0  0  0  0  0  0  0  0
  151.8992  140.9830  158.4261 C   0  0  0  0  0  0  0  0  0  0  0  0
  152.6485  142.2195  158.9524 C   0  0  0  0  0  0  0  0  0  0  0  0
  151.8607  143.3867  158.7328 O   0  0  0  0  0  0  0  0  0  0  0  0
  151.5953  143.6012  157.3490 C   0  0  0  0  0  0  0  0  0  0  0  0
  150.8150  142.4024  156.7833 C   0  0  0  0  0  0  0  0  0  0  0  0
  150.9576  140.0172  155.0877 N   0  0  0  0  0  0  0  0  0  0  0  0
  150.4072  138.9529  154.4658 C   0  0  0  0  0  0  0  0  0  0  0  0
  146.0984  133.0188  152.5291 N   0  0  0  0  0  0  0  0  0  0  0  0
  145.7431  132.1168  151.4273 C   0  0  0  0  0  0  0  0  0  0  0  0
  144.4177  132.4982  150.7461 C   0  0  0  0  0  0  0  0  0  0  0  0
  144.4913  133.8361  150.2736 O   0  0  0  0  0  0  0  0  0  0  0  0
  144.7583  134.7572  151.3219 C   0  0  0  0  0  0  0  0  0  0  0  0
  146.0846  134.3917  152.0107 C   0  0  0  0  0  0  0  0  0  0  0  0
  148.4046  130.8927  154.0249 H   0  0  0  0  0  0  0  0  0  0  0  0
  147.4838  130.5246  152.6094 H   0  0  0  0  0  0  0  0  0  0  0  0
  146.6524  130.8315  154.1344 H   0  0  0  0  0  0  0  0  0  0  0  0
  148.1851  132.8794  152.4575 H   0  0  0  0  0  0  0  0  0  0  0  0
  146.7726  133.7116  155.0025 H   0  0  0  0  0  0  0  0  0  0  0  0
  148.3175  132.8899  155.1211 H   0  0  0  0  0  0  0  0  0  0  0  0
  148.4669  134.9829  153.1911 H   0  0  0  0  0  0  0  0  0  0  0  0
  149.1989  136.7843  153.5114 H   0  0  0  0  0  0  0  0  0  0  0  0
  149.4431  137.0723  157.1419 H   0  0  0  0  0  0  0  0  0  0  0  0
  150.4641  139.0279  158.2999 H   0  0  0  0  0  0  0  0  0  0  0  0
  150.9920  140.8227  159.0100 H   0  0  0  0  0  0  0  0  0  0  0  0
  152.5188  140.0925  158.5393 H   0  0  0  0  0  0  0  0  0  0  0  0
  152.8416  142.1162  160.0202 H   0  0  0  0  0  0  0  0  0  0  0  0
  153.6175  142.3245  158.4615 H   0  0  0  0  0  0  0  0  0  0  0  0
  151.0137  144.5162  157.2356 H   0  0  0  0  0  0  0  0  0  0  0  0
  152.5306  143.7476  156.8062 H   0  0  0  0  0  0  0  0  0  0  0  0
  150.6509  142.5323  155.7128 H   0  0  0  0  0  0  0  0  0  0  0  0
  149.8344  142.3462  157.2571 H   0  0  0  0  0  0  0  0  0  0  0  0
  150.3975  139.0148  153.3888 H   0  0  0  0  0  0  0  0  0  0  0  0
  146.5419  132.1082  150.6842 H   0  0  0  0  0  0  0  0  0  0  0  0
  145.6327  131.0953  151.7867 H   0  0  0  0  0  0  0  0  0  0  0  0
  144.2199  131.8343  149.9045 H   0  0  0  0  0  0  0  0  0  0  0  0
  143.5821  132.3923  151.4398 H   0  0  0  0  0  0  0  0  0  0  0  0
  144.8135  135.7631  150.9056 H   0  0  0  0  0  0  0  0  0  0  0  0
  143.9370  134.7525  152.0403 H   0  0  0  0  0  0  0  0  0  0  0  0
  146.2285  135.1100  152.8150 H   0  0  0  0  0  0  0  0  0  0  0  0
  146.9078  134.5305  151.3081 H   0  0  0  0  0  0  0  0  0  0  0  0
  1  2  1  0  0  0  0
  1 26  1  0  0  0  0
  1 27  1  0  0  0  0
  1 28  1  0  0  0  0
  2  3  1  0  0  0  0
  2 20  1  0  0  0  0
  2 29  1  0  0  0  0
  3  4  1  0  0  0  0
  3 30  1  0  0  0  0
  3 31  1  0  0  0  0
  4  5  1  0  0  0  0
  4 32  1  0  0  0  0
  5  6  2  0  0  0  0
  5  7  1  0  0  0  0
  7  8  1  0  0  0  0
  7 33  1  0  0  0  0
  8 19  1  0  0  0  0
  8  9  2  0  0  0  0
  9 10  1  0  0  0  0
  9 34  1  0  0  0  0
 10 11  2  0  0  0  0
 10 35  1  0  0  0  0
 11 12  1  0  0  0  0
 11 18  1  0  0  0  0
 12 17  1  0  0  0  0
 12 13  1  0  0  0  0
 13 14  1  0  0  0  0
 13 36  1  0  0  0  0
 13 37  1  0  0  0  0
 14 15  1  0  0  0  0
 14 38  1  0  0  0  0
 14 39  1  0  0  0  0
 15 16  1  0  0  0  0
 16 17  1  0  0  0  0
 16 40  1  0  0  0  0
 16 41  1  0  0  0  0
 17 42  1  0  0  0  0
 17 43  1  0  0  0  0
 18 19  2  0  0  0  0
 19 44  1  0  0  0  0
 20 25  1  0  0  0  0
 20 21  1  0  0  0  0
 21 22  1  0  0  0  0
 21 45  1  0  0  0  0
 21 46  1  0  0  0  0
 22 23  1  0  0  0  0
 22 47  1  0  0  0  0
 22 48  1  0  0  0  0
 23 24  1  0  0  0  0
 24 25  1  0  0  0  0
 24 49  1  0  0  0  0
 24 50  1  0  0  0  0
 25 51  1  0  0  0  0
 25 52  1  0  0  0  0
M  END
> <s_m_source_file>
AV-unprocessed.smi

> <i_m_source_file_index>
1084

> <i_lp_mmshare_version>
43012

> <i_f3d_flags>
0

> <s_epik_input>
W0NIMl0xW0NIMl1PW0NIMl1bQ0gyXU4xW0NASF0oW0NIM10pW0NIMl1bTkhdQyg9TylbTkhdYzJbY0hdW2NIXWMobltjSF0yKU4zW0NIMl1bQ0gyXU9bQ0gyXVtDSDJdMw==

> <s_epik_cmdline>
J2VwaWtfcHl0aG9uJywgJy1waCcsICc3LjAnLCAnLXRuJywgJzgnLCAnLW1hJywgJzIwMCcsICctbWV0YWxfYmluZGluZycsICctaW1hZScsICc8aW5maWxlLm1hZT4nLCAnLW9tYWUnLCAnPG91dGZpbGUubWFlPic=

> <r_lp_tautomer_probability>
1

> <r_epik_Ionization_Penalty>
0.268053

> <r_epik_Ionization_Penalty_Charging>
0

> <r_epik_Ionization_Penalty_Neutral>
0.268053

> <r_epik_State_Penalty>
0.269834

> <r_epik_Charging_Adjusted_Penalty>
0.269834

> <i_epik_Tot_Q>
0

> <i_epik_Tot_abs_Q>
0

> <r_epik_Metal_State_Penalty>
0.268436

> <b_epik_Metal_Only>
0

> <s_lp_Force_Field>
OPLS_2005

> <r_lp_Energy>
46.8762

> <b_lp_Chiralities_Consistent>
1

> <s_lp_Variant>
AV-unprocessed.smi:1084-1

> <Gold.Version>
5.8.1

> <Gold.Id.Protein>
6NUR|6NUR_protein|mol2

> <Gold.PLP.Fitness>
46.8795

> <Gold.PLP.PLP>
-36.9971

> <Gold.PLP.part.hbond>
-3.0000

> <Gold.PLP.part.metal>
0.0000

> <Gold.PLP.part.buried>
-5.1560

> <Gold.PLP.part.nonpolar>
-28.9811

> <Gold.PLP.part.repulsive>
0.4568

> <Gold.PLP.ligand.clash>
0.0187

> <Gold.PLP.ligand.torsion>
0.6715

> <Gold.PLP.Chemscore.Hbond>
2.7000

> <Gold.PLP.Chemscore.CHOScore>
1.0000

> <Gold.PLP.Chemscore.Metal>
0.0000

> <Gold.Chemscore.Hbonds>
donor molecule, donor type, donor heavy atom, donor atom, acceptor molecule, acceptor atom, score
      L1  H     4    32       P1  7948  1.00
      L1  H     7    33       P1  7948  1.00
      P1  H  7989  7998       L1    18  0.85
      L1  C    19    44       P1  7957  0.92

> <Gold.PLP.Chemscore.Internal.Correction>
0.1441

> <Gold.Rescore>
     Score         DG    S(hbond)    S(metal)    S(lipo)     H(rot)  DE(clash)    DE(int)     intcor
     16.48     -18.94       1.94        0.00      95.04       1.62       0.10       2.36       ----

> <Gold.Chemscore.Fitness>
16.4756

> <Gold.Chemscore.DG>
-18.9397

> <Gold.Chemscore.ZeroCoef>
-5.4800

> <Gold.Chemscore.Hbond>
1.9431

> <Gold.Chemscore.Metal>
0.0000

> <Gold.Chemscore.Lipo>
95.0417

> <Gold.Chemscore.Internal_Hbond>
0.0000

> <Gold.Chemscore.DEClash>
0.1048

> <Gold.Chemscore.DEInternal>
2.3593

> <Gold.Chemscore.Rot>
1.6211

> <Gold.Chemscore.Internal.Correction>
   9.000000E+99

> <Gold.Chemscore.Hbonds>
donor molecule, donor type, donor heavy atom, donor atom, acceptor molecule, acceptor atom, score
      L1  H     4    32       P1  7948  0.75
      L1  H     7    33       P1  7948  0.98
      P1  H  7989  7998       L1    18  0.15

> <Gold.Chemscore.Hbond.Weighted>
-6.4899

> <Gold.Chemscore.Metal.Weighted>
-0.0000

> <Gold.Chemscore.Lipo.Weighted>
-11.1199

> <Gold.Chemscore.Internal_Hbond.Weighted>
0.0000

> <Gold.Chemscore.DEClash.Weighted>
0.1048

> <Gold.Chemscore.DEInternal.Weighted>
2.3593

> <Gold.Chemscore.Rot.Weighted>
4.1501

> <Gold.Chemscore.Internal.Correction.Weighted>
   9.000000E+99

> <Gold.Protein.RotatedTorsions>
[ 6907 6896 6895 6894 ] final   44.84 input  -60.11 | X-H torsion
[ 7974 7965 7964 7962 ] final   22.02 input  175.53 | X-H torsion
[ 8008 7997 7996 7995 ] final   45.66 input   59.86 | X-H torsion
[ 10167 10162 10161 10158 ] final   20.96 input  -65.29 | X-H torsion
[ 10718 10713 10712 10709 ] final  -28.94 input   66.30 | X-H torsion
[ 10763 10752 10751 10750 ] final  174.62 input  -60.55 | X-H torsion
[ 11005 11000 10999 10996 ] final  -62.13 input  -57.11 | X-H torsion

> <Gold.Protein.ActiveResidues>
 VAL166  LYS551  ARG553  GLY616  TRP617  ASP618  TYR619  PRO620  LYS621  CYS622 
 ASP623  PHE694  ASN695  SER759  ASP760  ASP761  ALA762  ILE779  LEU786  VAL792 
 PHE793  MET794  SER795  GLU796  ALA797  LYS798  CYS799  TRP800  GLU811  SER814 

> <Gold.Protein.RotatedAtoms>
  152.2373  134.8263  160.0465 H   0  0  0  0  0  0  0  0  0  0  0  0  # atno 6907 bound_to 6896
  151.8990  133.3528  159.3832 H   0  0  0  0  0  0  0  0  0  0  0  0  # atno 6908 bound_to 6896
  150.7043  134.4773  159.5498 H   0  0  0  0  0  0  0  0  0  0  0  0  # atno 6909 bound_to 6896
  146.2047  139.7945  142.8735 H   0  0  0  0  0  0  0  0  0  0  0  0  # atno 7974 bound_to 7965
  155.3396  140.3407  155.4239 H   0  0  0  0  0  0  0  0  0  0  0  0  # atno 8008 bound_to 7997
  156.1820  140.1667  156.8293 H   0  0  0  0  0  0  0  0  0  0  0  0  # atno 8009 bound_to 7997
  154.5344  140.0738  156.8384 H   0  0  0  0  0  0  0  0  0  0  0  0  # atno 8010 bound_to 7997
  140.5463  143.9588  150.6550 H   0  0  0  0  0  0  0  0  0  0  0  0  # atno 10167 bound_to 10162
  156.4188  130.4422  149.7198 H   0  0  0  0  0  0  0  0  0  0  0  0  # atno 10718 bound_to 10713
  154.4563  135.2766  155.1745 H   0  0  0  0  0  0  0  0  0  0  0  0  # atno 10763 bound_to 10752
  154.3551  135.6141  153.5666 H   0  0  0  0  0  0  0  0  0  0  0  0  # atno 10764 bound_to 10752
  152.9851  135.5821  154.4917 H   0  0  0  0  0  0  0  0  0  0  0  0  # atno 10765 bound_to 10752
  141.1349  133.6637  156.5480 H   0  0  0  0  0  0  0  0  0  0  0  0  # atno 11005 bound_to 11000
  145.3362  141.0278  143.3418 LP  0  0  0  0  0  0  0  0  0  0  0  0  # atno 17320 bound_to 7965
  144.8764  139.4966  143.6744 LP  0  0  0  0  0  0  0  0  0  0  0  0  # atno 17321 bound_to 7965
  140.3002  143.3266  152.0979 LP  0  0  0  0  0  0  0  0  0  0  0  0  # atno 17342 bound_to 10162
  139.5009  144.6701  151.6262 LP  0  0  0  0  0  0  0  0  0  0  0  0  # atno 17343 bound_to 10162
  156.4147  130.7739  151.2754 LP  0  0  0  0  0  0  0  0  0  0  0  0  # atno 17370 bound_to 10713
  157.7508  131.0201  150.3693 LP  0  0  0  0  0  0  0  0  0  0  0  0  # atno 17371 bound_to 10713
  140.4086  134.7292  157.4822 LP  0  0  0  0  0  0  0  0  0  0  0  0  # atno 17394 bound_to 11000
  140.0444  134.6221  155.8940 LP  0  0  0  0  0  0  0  0  0  0  0  0  # atno 17395 bound_to 11000

$$$$
