AV-unprocessed.smi:1993|AV-procd|sdf|8071|dock4
  -GOLD-   2272010283D 1   1.00000     0.00000
 Structure written by MMmdl.
 50 51  0  0  0  0  0  0  0  0  1 V2000
  147.5811  133.0029  152.1583 C   0  0  0  0  0  0  0  0  0  0  0  0
  146.6126  133.8207  153.0055 C   0  0  0  0  0  0  0  0  0  0  0  0
  145.7321  133.2571  153.6547 O   0  0  0  0  0  0  0  0  0  0  0  0
  146.7892  135.1513  152.9934 N   0  0  0  0  0  0  0  0  0  0  0  0
  145.9871  136.1208  153.7416 C   0  0  1  0  0  0  0  0  0  0  0  0
  146.9454  137.0813  154.4705 C   0  0  0  0  0  0  0  0  0  0  0  0
  146.5216  137.8498  155.3357 O   0  0  0  0  0  0  0  0  0  0  0  0
  148.2379  137.0125  154.1181 N   0  0  0  0  0  0  0  0  0  0  0  0
  149.3102  137.7996  154.7141 C   0  0  0  0  0  0  0  0  0  0  0  0
  149.0365  139.2971  154.6613 C   0  0  0  0  0  0  0  0  0  0  0  0
  148.1164  139.8037  153.7194 C   0  0  0  0  0  0  0  0  0  0  0  0
  147.8649  141.1873  153.6816 C   0  0  0  0  0  0  0  0  0  0  0  0
  148.5468  142.0143  154.5927 C   0  0  0  0  0  0  0  0  0  0  0  0
  149.4279  141.5450  155.5005 N   0  0  0  0  0  0  0  0  0  0  0  0
  149.6731  140.2126  155.5384 C   0  0  0  0  0  0  0  0  0  0  0  0
  150.5828  139.7501  156.5031 N   0  0  0  0  0  0  0  0  0  0  0  0
  150.9524  140.7693  157.4752 C   0  0  0  0  0  0  0  0  0  0  0  0
  151.8000  140.1427  158.5950 C   0  0  0  0  0  0  0  0  0  0  0  0
  152.9353  139.4933  158.0290 O   0  0  0  0  0  0  0  0  0  0  0  0
  152.5653  138.4517  157.1294 C   0  0  0  0  0  0  0  0  0  0  0  0
  151.7393  139.0392  155.9721 C   0  0  0  0  0  0  0  0  0  0  0  0
  145.0927  136.9125  152.7416 C   0  0  0  0  0  0  0  0  0  0  0  0
  144.1052  136.0126  151.9702 C   0  0  0  0  0  0  0  0  0  0  0  0
  145.9337  137.7159  151.7299 C   0  0  0  0  0  0  0  0  0  0  0  0
  147.7348  133.4702  151.1850 H   0  0  0  0  0  0  0  0  0  0  0  0
  147.1963  131.9957  151.9952 H   0  0  0  0  0  0  0  0  0  0  0  0
  148.5456  132.9233  152.6600 H   0  0  0  0  0  0  0  0  0  0  0  0
  147.5444  135.5238  152.4365 H   0  0  0  0  0  0  0  0  0  0  0  0
  145.3527  135.6013  154.4632 H   0  0  0  0  0  0  0  0  0  0  0  0
  148.4992  136.3596  153.3937 H   0  0  0  0  0  0  0  0  0  0  0  0
  149.4313  137.4905  155.7525 H   0  0  0  0  0  0  0  0  0  0  0  0
  150.2591  137.5740  154.2249 H   0  0  0  0  0  0  0  0  0  0  0  0
  147.6058  139.1414  153.0359 H   0  0  0  0  0  0  0  0  0  0  0  0
  147.1654  141.6038  152.9722 H   0  0  0  0  0  0  0  0  0  0  0  0
  148.3793  143.0813  154.5945 H   0  0  0  0  0  0  0  0  0  0  0  0
  151.5141  141.5622  156.9793 H   0  0  0  0  0  0  0  0  0  0  0  0
  150.0560  141.2234  157.8955 H   0  0  0  0  0  0  0  0  0  0  0  0
  152.1385  140.9137  159.2871 H   0  0  0  0  0  0  0  0  0  0  0  0
  151.2109  139.4297  159.1741 H   0  0  0  0  0  0  0  0  0  0  0  0
  153.4673  137.9759  156.7447 H   0  0  0  0  0  0  0  0  0  0  0  0
  152.0004  137.6834  157.6596 H   0  0  0  0  0  0  0  0  0  0  0  0
  151.4089  138.2436  155.3033 H   0  0  0  0  0  0  0  0  0  0  0  0
  152.3584  139.7203  155.3868 H   0  0  0  0  0  0  0  0  0  0  0  0
  144.4982  137.6344  153.3044 H   0  0  0  0  0  0  0  0  0  0  0  0
  144.6346  135.2557  151.3916 H   0  0  0  0  0  0  0  0  0  0  0  0
  143.5061  136.5984  151.2729 H   0  0  0  0  0  0  0  0  0  0  0  0
  143.4056  135.5014  152.6320 H   0  0  0  0  0  0  0  0  0  0  0  0
  146.5859  137.0609  151.1513 H   0  0  0  0  0  0  0  0  0  0  0  0
  146.5604  138.4614  152.2195 H   0  0  0  0  0  0  0  0  0  0  0  0
  145.2956  138.2522  151.0269 H   0  0  0  0  0  0  0  0  0  0  0  0
  1  2  1  0  0  0  0
  1 25  1  0  0  0  0
  1 26  1  0  0  0  0
  1 27  1  0  0  0  0
  2  3  2  0  0  0  0
  2  4  1  0  0  0  0
  4  5  1  0  0  0  0
  4 28  1  0  0  0  0
  5  6  1  0  0  0  0
  5 22  1  0  0  0  0
  5 29  1  0  0  0  0
  6  7  2  0  0  0  0
  6  8  1  0  0  0  0
  8  9  1  0  0  0  0
  8 30  1  0  0  0  0
  9 10  1  0  0  0  0
  9 31  1  0  0  0  0
  9 32  1  0  0  0  0
 10 15  1  0  0  0  0
 10 11  2  0  0  0  0
 11 12  1  0  0  0  0
 11 33  1  0  0  0  0
 12 13  2  0  0  0  0
 12 34  1  0  0  0  0
 13 14  1  0  0  0  0
 13 35  1  0  0  0  0
 14 15  2  0  0  0  0
 15 16  1  0  0  0  0
 16 21  1  0  0  0  0
 16 17  1  0  0  0  0
 17 18  1  0  0  0  0
 17 36  1  0  0  0  0
 17 37  1  0  0  0  0
 18 19  1  0  0  0  0
 18 38  1  0  0  0  0
 18 39  1  0  0  0  0
 19 20  1  0  0  0  0
 20 21  1  0  0  0  0
 20 40  1  0  0  0  0
 20 41  1  0  0  0  0
 21 42  1  0  0  0  0
 21 43  1  0  0  0  0
 22 23  1  0  0  0  0
 22 24  1  0  0  0  0
 22 44  1  0  0  0  0
 23 45  1  0  0  0  0
 23 46  1  0  0  0  0
 23 47  1  0  0  0  0
 24 48  1  0  0  0  0
 24 49  1  0  0  0  0
 24 50  1  0  0  0  0
M  END
> <s_m_source_file>
AV-unprocessed.smi

> <i_m_source_file_index>
1993

> <i_lp_mmshare_version>
43012

> <i_f3d_flags>
0

> <s_epik_input>
W0NIM11DKD1PKVtOSF1bQ0BASF0oW0NIXShbQ0gzXSlbQ0gzXSlDKD1PKVtOSF1bQ0gyXWMxW2NIXVtjSF1bY0hdbmMxTjJbQ0gyXVtDSDJdT1tDSDJdW0NIMl0y

> <s_epik_cmdline>
J2VwaWtfcHl0aG9uJywgJy1waCcsICc3LjAnLCAnLXRuJywgJzgnLCAnLW1hJywgJzIwMCcsICctbWV0YWxfYmluZGluZycsICctaW1hZScsICc8aW5maWxlLm1hZT4nLCAnLW9tYWUnLCAnPG91dGZpbGUubWFlPic=

> <r_lp_tautomer_probability>
1

> <r_epik_Ionization_Penalty>
0.00485175

> <r_epik_Ionization_Penalty_Charging>
0

> <r_epik_Ionization_Penalty_Neutral>
0.00485175

> <r_epik_State_Penalty>
0.00351951

> <r_epik_Charging_Adjusted_Penalty>
0.00351951

> <i_epik_Tot_Q>
0

> <i_epik_Tot_abs_Q>
0

> <r_epik_Metal_State_Penalty>
-0

> <b_epik_Metal_Only>
0

> <s_lp_Force_Field>
OPLS_2005

> <r_lp_Energy>
18.9648

> <b_lp_Chiralities_Consistent>
1

> <s_lp_Variant>
AV-unprocessed.smi:1993-2

> <Gold.Version>
5.8.1

> <Gold.Id.Protein>
6NUR|6NUR_protein|mol2

> <Gold.PLP.Fitness>
39.3448

> <Gold.PLP.PLP>
-29.1488

> <Gold.PLP.part.hbond>
-2.8884

> <Gold.PLP.part.metal>
0.0000

> <Gold.PLP.part.buried>
2.3219

> <Gold.PLP.part.nonpolar>
-28.6634

> <Gold.PLP.part.repulsive>
0.2434

> <Gold.PLP.ligand.clash>
0.0000

> <Gold.PLP.ligand.torsion>
0.8057

> <Gold.PLP.Chemscore.Hbond>
2.8640

> <Gold.PLP.Chemscore.CHOScore>
0.9927

> <Gold.PLP.Chemscore.Metal>
0.0000

> <Gold.Chemscore.Hbonds>
donor molecule, donor type, donor heavy atom, donor atom, acceptor molecule, acceptor atom, score
      L1  H     4    28       P1  7948  1.00
      L1  H     8    30       P1  7948  0.90
      P1  H  7997  8010       L1    19  0.82
      L1  C    13    35       P1  8028  0.89

> <Gold.PLP.Chemscore.Internal.Correction>
0.2374

> <Gold.Rescore>
     Score         DG    S(hbond)    S(metal)    S(lipo)     H(rot)  DE(clash)    DE(int)     intcor
     15.95     -17.83       2.76        0.00      74.42       2.18       0.88       0.99       ----

> <Gold.Chemscore.Fitness>
15.9522

> <Gold.Chemscore.DG>
-17.8259

> <Gold.Chemscore.ZeroCoef>
-5.4800

> <Gold.Chemscore.Hbond>
2.7614

> <Gold.Chemscore.Metal>
0.0000

> <Gold.Chemscore.Lipo>
74.4175

> <Gold.Chemscore.Internal_Hbond>
0.0000

> <Gold.Chemscore.DEClash>
0.8830

> <Gold.Chemscore.DEInternal>
0.9907

> <Gold.Chemscore.Rot>
2.1813

> <Gold.Chemscore.Internal.Correction>
   9.000000E+99

> <Gold.Chemscore.Hbonds>
donor molecule, donor type, donor heavy atom, donor atom, acceptor molecule, acceptor atom, score
      L1  H     4    28       P1  7948  1.00
      L1  H     8    30       P1  7948  0.87
      P1  H  7997  8010       L1    19  0.15

> <Gold.Chemscore.Hbond.Weighted>
-9.2232

> <Gold.Chemscore.Metal.Weighted>
-0.0000

> <Gold.Chemscore.Lipo.Weighted>
-8.7069

> <Gold.Chemscore.Internal_Hbond.Weighted>
0.0000

> <Gold.Chemscore.DEClash.Weighted>
0.8830

> <Gold.Chemscore.DEInternal.Weighted>
0.9907

> <Gold.Chemscore.Rot.Weighted>
5.5842

> <Gold.Chemscore.Internal.Correction.Weighted>
   9.000000E+99

> <Gold.Protein.RotatedTorsions>
[ 6907 6896 6895 6894 ] final -152.58 input  -60.11 | X-H torsion
[ 7974 7965 7964 7962 ] final  174.72 input  175.53 | X-H torsion
[ 8008 7997 7996 7995 ] final   23.31 input   59.86 | X-H torsion
[ 10167 10162 10161 10158 ] final  -42.69 input  -65.29 | X-H torsion
[ 10718 10713 10712 10709 ] final  170.15 input   66.30 | X-H torsion
[ 10763 10752 10751 10750 ] final  -92.11 input  -60.55 | X-H torsion
[ 11005 11000 10999 10996 ] final  -50.26 input  -57.11 | X-H torsion

> <Gold.Protein.ActiveResidues>
 VAL166  LYS551  ARG553  GLY616  TRP617  ASP618  TYR619  PRO620  LYS621  CYS622 
 ASP623  PHE694  ASN695  SER759  ASP760  ASP761  ALA762  ILE779  LEU786  VAL792 
 PHE793  MET794  SER795  GLU796  ALA797  LYS798  CYS799  TRP800  GLU811  SER814 

> <Gold.Protein.RotatedAtoms>
  151.2299  133.4456  159.2603 H   0  0  0  0  0  0  0  0  0  0  0  0  # atno 6907 bound_to 6896
  151.0805  134.9855  159.8364 H   0  0  0  0  0  0  0  0  0  0  0  0  # atno 6908 bound_to 6896
  152.5423  134.2238  159.8851 H   0  0  0  0  0  0  0  0  0  0  0  0  # atno 6909 bound_to 6896
  144.7216  139.9839  143.6439 H   0  0  0  0  0  0  0  0  0  0  0  0  # atno 7974 bound_to 7965
  154.9789  140.3099  155.4955 H   0  0  0  0  0  0  0  0  0  0  0  0  # atno 8008 bound_to 7997
  156.2956  140.2270  156.4826 H   0  0  0  0  0  0  0  0  0  0  0  0  # atno 8009 bound_to 7997
  154.7807  140.0446  157.1113 H   0  0  0  0  0  0  0  0  0  0  0  0  # atno 8010 bound_to 7997
  140.6960  143.3024  151.3245 H   0  0  0  0  0  0  0  0  0  0  0  0  # atno 10167 bound_to 10162
  157.0123  131.0208  151.2799 H   0  0  0  0  0  0  0  0  0  0  0  0  # atno 10718 bound_to 10713
  154.6828  135.5243  153.8286 H   0  0  0  0  0  0  0  0  0  0  0  0  # atno 10763 bound_to 10752
  153.0576  135.6556  154.0549 H   0  0  0  0  0  0  0  0  0  0  0  0  # atno 10764 bound_to 10752
  154.0434  135.2975  155.3331 H   0  0  0  0  0  0  0  0  0  0  0  0  # atno 10765 bound_to 10752
  141.0806  133.6654  156.3705 H   0  0  0  0  0  0  0  0  0  0  0  0  # atno 11005 bound_to 11000
  146.0466  139.3471  143.0665 LP  0  0  0  0  0  0  0  0  0  0  0  0  # atno 17320 bound_to 7965
  145.8268  140.9651  143.0870 LP  0  0  0  0  0  0  0  0  0  0  0  0  # atno 17321 bound_to 7965
  139.6417  144.0527  152.2559 LP  0  0  0  0  0  0  0  0  0  0  0  0  # atno 17342 bound_to 10162
  140.0035  144.6276  150.7709 LP  0  0  0  0  0  0  0  0  0  0  0  0  # atno 17343 bound_to 10162
  157.5311  130.8059  149.7918 LP  0  0  0  0  0  0  0  0  0  0  0  0  # atno 17370 bound_to 10713
  156.0131  130.3824  150.2197 LP  0  0  0  0  0  0  0  0  0  0  0  0  # atno 17371 bound_to 10713
  140.5477  134.6058  157.5399 LP  0  0  0  0  0  0  0  0  0  0  0  0  # atno 17394 bound_to 11000
  139.9619  134.7437  156.0218 LP  0  0  0  0  0  0  0  0  0  0  0  0  # atno 17395 bound_to 11000

$$$$
