AV-unprocessed.smi:1506|AV-procd|sdf|6077|dock2
  -GOLD-   22720 6203D 1   1.00000     0.00000
 Structure written by MMmdl.
 39 41  0  0  0  0  0  0  0  0  1 V2000
  151.6686  144.5741  157.9582 C   0  0  0  0  0  0  0  0  0  0  0  0
  152.0018  143.9659  159.3051 C   0  0  0  0  0  0  0  0  0  0  0  0
  151.7359  144.6751  160.4930 C   0  0  0  0  0  0  0  0  0  0  0  0
  152.0488  144.1005  161.7387 C   0  0  0  0  0  0  0  0  0  0  0  0
  152.6253  142.8174  161.8027 C   0  0  0  0  0  0  0  0  0  0  0  0
  152.8940  142.0921  160.6143 C   0  0  0  0  0  0  0  0  0  0  0  0
  153.4512  140.8316  160.5842 O   0  0  0  0  0  0  0  0  0  0  0  0
  153.9532  140.3473  159.3455 C   0  0  0  0  0  0  0  0  0  0  0  0
  154.3192  138.8640  159.4998 C   0  0  1  0  0  0  0  0  0  0  0  0
  154.9241  138.4274  158.2987 O   0  0  0  0  0  0  0  0  0  0  0  0
  155.2705  138.6149  160.6867 C   0  0  0  0  0  0  0  0  0  0  0  0
  155.3255  137.2161  161.0727 N   0  0  0  0  0  0  0  0  0  0  0  0
  155.7231  136.1806  160.3088 C   0  0  0  0  0  0  0  0  0  0  0  0
  155.6966  134.9707  160.8606 N   0  0  0  0  0  0  0  0  0  0  0  0
  155.2248  135.2530  162.1311 C   0  0  0  0  0  0  0  0  0  0  0  0
  154.9656  134.3965  163.2252 C   0  0  0  0  0  0  0  0  0  0  0  0
  154.4801  134.9189  164.4422 C   0  0  0  0  0  0  0  0  0  0  0  0
  154.2487  136.3025  164.5848 C   0  0  0  0  0  0  0  0  0  0  0  0
  154.5000  137.1756  163.5090 C   0  0  0  0  0  0  0  0  0  0  0  0
  154.9823  136.6503  162.2958 C   0  0  0  0  0  0  0  0  0  0  0  0
  152.5770  142.6806  159.3725 C   0  0  0  0  0  0  0  0  0  0  0  0
  151.4390  145.6363  158.0485 H   0  0  0  0  0  0  0  0  0  0  0  0
  150.8041  144.0723  157.5227 H   0  0  0  0  0  0  0  0  0  0  0  0
  152.5097  144.4667  157.2728 H   0  0  0  0  0  0  0  0  0  0  0  0
  151.2918  145.6592  160.4544 H   0  0  0  0  0  0  0  0  0  0  0  0
  151.8460  144.6450  162.6491 H   0  0  0  0  0  0  0  0  0  0  0  0
  152.8511  142.4117  162.7768 H   0  0  0  0  0  0  0  0  0  0  0  0
  153.1855  140.4592  158.5777 H   0  0  0  0  0  0  0  0  0  0  0  0
  154.8303  140.9162  159.0326 H   0  0  0  0  0  0  0  0  0  0  0  0
  153.4054  138.2840  159.6356 H   0  0  0  0  0  0  0  0  0  0  0  0
  155.2539  137.5516  158.4316 H   0  0  0  0  0  0  0  0  0  0  0  0
  156.2801  138.9504  160.4456 H   0  0  0  0  0  0  0  0  0  0  0  0
  154.9513  139.1941  161.5541 H   0  0  0  0  0  0  0  0  0  0  0  0
  156.0523  136.3242  159.2900 H   0  0  0  0  0  0  0  0  0  0  0  0
  155.1406  133.3354  163.1282 H   0  0  0  0  0  0  0  0  0  0  0  0
  154.2846  134.2546  165.2713 H   0  0  0  0  0  0  0  0  0  0  0  0
  153.8777  136.6932  165.5213 H   0  0  0  0  0  0  0  0  0  0  0  0
  154.3254  138.2361  163.6148 H   0  0  0  0  0  0  0  0  0  0  0  0
  152.7776  142.1368  158.4608 H   0  0  0  0  0  0  0  0  0  0  0  0
  1  2  1  0  0  0  0
  1 22  1  0  0  0  0
  1 23  1  0  0  0  0
  1 24  1  0  0  0  0
  2 21  1  0  0  0  0
  2  3  2  0  0  0  0
  3  4  1  0  0  0  0
  3 25  1  0  0  0  0
  4  5  2  0  0  0  0
  4 26  1  0  0  0  0
  5  6  1  0  0  0  0
  5 27  1  0  0  0  0
  6  7  1  0  0  0  0
  6 21  2  0  0  0  0
  7  8  1  0  0  0  0
  8  9  1  0  0  0  0
  8 28  1  0  0  0  0
  8 29  1  0  0  0  0
  9 10  1  0  0  0  0
  9 11  1  0  0  0  0
  9 30  1  0  0  0  0
 10 31  1  0  0  0  0
 11 12  1  0  0  0  0
 11 32  1  0  0  0  0
 11 33  1  0  0  0  0
 12 20  1  0  0  0  0
 12 13  1  0  0  0  0
 13 14  2  0  0  0  0
 13 34  1  0  0  0  0
 14 15  1  0  0  0  0
 15 20  2  0  0  0  0
 15 16  1  0  0  0  0
 16 17  2  0  0  0  0
 16 35  1  0  0  0  0
 17 18  1  0  0  0  0
 17 36  1  0  0  0  0
 18 19  2  0  0  0  0
 18 37  1  0  0  0  0
 19 20  1  0  0  0  0
 19 38  1  0  0  0  0
 21 39  1  0  0  0  0
M  END
> <s_m_source_file>
AV-unprocessed.smi

> <i_m_source_file_index>
1506

> <i_lp_mmshare_version>
43012

> <i_f3d_flags>
0

> <s_epik_input>
W0NIM11jMVtjSF1bY0hdW2NIXWMoW2NIXTEpT1tDSDJdW0NASF0oW09IXSlbQ0gyXW4oW2NIXW4yKWMoYzIzKVtjSF1bY0hdW2NIXVtjSF0z

> <s_epik_cmdline>
J2VwaWtfcHl0aG9uJywgJy1waCcsICc3LjAnLCAnLXRuJywgJzgnLCAnLW1hJywgJzIwMCcsICctbWV0YWxfYmluZGluZycsICctaW1hZScsICc8aW5maWxlLm1hZT4nLCAnLW9tYWUnLCAnPG91dGZpbGUubWFlPic=

> <r_lp_tautomer_probability>
1

> <r_epik_Ionization_Penalty>
0.0608485

> <r_epik_Ionization_Penalty_Charging>
0

> <r_epik_Ionization_Penalty_Neutral>
0.0608485

> <r_epik_State_Penalty>
0.0527778

> <r_epik_Charging_Adjusted_Penalty>
0.0527778

> <i_epik_Tot_Q>
0

> <i_epik_Tot_abs_Q>
0

> <r_epik_Metal_State_Penalty>
5.51973e-05

> <b_epik_Metal_Only>
0

> <s_lp_Force_Field>
OPLS_2005

> <r_lp_Energy>
14.3046

> <b_lp_Chiralities_Consistent>
1

> <s_lp_Variant>
AV-unprocessed.smi:1506-2

> <Gold.Version>
5.8.1

> <Gold.Id.Protein>
6NUR|6NUR_protein|mol2

> <Gold.PLP.Fitness>
50.3968

> <Gold.PLP.PLP>
-49.4140

> <Gold.PLP.part.hbond>
-1.0000

> <Gold.PLP.part.metal>
0.0000

> <Gold.PLP.part.buried>
-3.4830

> <Gold.PLP.part.nonpolar>
-44.8436

> <Gold.PLP.part.repulsive>
0.0000

> <Gold.PLP.ligand.clash>
1.4787

> <Gold.PLP.ligand.torsion>
0.3379

> <Gold.PLP.Chemscore.Hbond>
0.9920

> <Gold.PLP.Chemscore.CHOScore>
0.0000

> <Gold.PLP.Chemscore.Metal>
0.0000

> <Gold.Chemscore.Hbonds>
donor molecule, donor type, donor heavy atom, donor atom, acceptor molecule, acceptor atom, score
      P1  H  7997  8009       L1    10  0.98

> <Gold.PLP.Chemscore.Internal.Correction>
0.1613

> <Gold.Rescore>
     Score         DG    S(hbond)    S(metal)    S(lipo)     H(rot)  DE(clash)    DE(int)     intcor
     19.14     -19.53       0.63        0.00     150.07       2.19       0.05       0.34       ----

> <Gold.Chemscore.Fitness>
19.1396

> <Gold.Chemscore.DG>
-19.5314

> <Gold.Chemscore.ZeroCoef>
-5.4800

> <Gold.Chemscore.Hbond>
0.6269

> <Gold.Chemscore.Metal>
0.0000

> <Gold.Chemscore.Lipo>
150.0702

> <Gold.Chemscore.Internal_Hbond>
0.0000

> <Gold.Chemscore.DEClash>
0.0490

> <Gold.Chemscore.DEInternal>
0.3428

> <Gold.Chemscore.Rot>
2.1877

> <Gold.Chemscore.Internal.Correction>
   9.000000E+99

> <Gold.Chemscore.Hbonds>
donor molecule, donor type, donor heavy atom, donor atom, acceptor molecule, acceptor atom, score
      P1  H  7997  8009       L1    10  0.37

> <Gold.Chemscore.Hbond.Weighted>
-2.0937

> <Gold.Chemscore.Metal.Weighted>
-0.0000

> <Gold.Chemscore.Lipo.Weighted>
-17.5582

> <Gold.Chemscore.Internal_Hbond.Weighted>
0.0000

> <Gold.Chemscore.DEClash.Weighted>
0.0490

> <Gold.Chemscore.DEInternal.Weighted>
0.3428

> <Gold.Chemscore.Rot.Weighted>
5.6005

> <Gold.Chemscore.Internal.Correction.Weighted>
   9.000000E+99

> <Gold.Protein.RotatedTorsions>
[ 6907 6896 6895 6894 ] final -154.18 input  -60.11 | X-H torsion
[ 7974 7965 7964 7962 ] final -101.46 input  175.53 | X-H torsion
[ 8008 7997 7996 7995 ] final  129.29 input   59.86 | X-H torsion
[ 10167 10162 10161 10158 ] final   -6.77 input  -65.29 | X-H torsion
[ 10718 10713 10712 10709 ] final   69.87 input   66.30 | X-H torsion
[ 10763 10752 10751 10750 ] final  105.20 input  -60.55 | X-H torsion
[ 11005 11000 10999 10996 ] final   78.53 input  -57.11 | X-H torsion

> <Gold.Protein.ActiveResidues>
 VAL166  LYS551  ARG553  GLY616  TRP617  ASP618  TYR619  PRO620  LYS621  CYS622 
 ASP623  PHE694  ASN695  SER759  ASP760  ASP761  ALA762  ILE779  LEU786  VAL792 
 PHE793  MET794  SER795  GLU796  ALA797  LYS798  CYS799  TRP800  GLU811  SER814 

> <Gold.Protein.RotatedAtoms>
  151.2537  133.4337  159.2612 H   0  0  0  0  0  0  0  0  0  0  0  0  # atno 6907 bound_to 6896
  151.0594  134.9727  159.8263 H   0  0  0  0  0  0  0  0  0  0  0  0  # atno 6908 bound_to 6896
  152.5396  134.2487  159.8943 H   0  0  0  0  0  0  0  0  0  0  0  0  # atno 6909 bound_to 6896
  145.2813  140.9327  143.2930 H   0  0  0  0  0  0  0  0  0  0  0  0  # atno 7974 bound_to 7965
  156.2933  140.2624  156.2574 H   0  0  0  0  0  0  0  0  0  0  0  0  # atno 8008 bound_to 7997
  154.9822  140.0389  157.2301 H   0  0  0  0  0  0  0  0  0  0  0  0  # atno 8009 bound_to 7997
  154.7761  140.2787  155.6104 H   0  0  0  0  0  0  0  0  0  0  0  0  # atno 8010 bound_to 7997
  140.7008  143.6156  150.8662 H   0  0  0  0  0  0  0  0  0  0  0  0  # atno 10167 bound_to 10162
  157.6369  130.9448  150.0572 H   0  0  0  0  0  0  0  0  0  0  0  0  # atno 10718 bound_to 10713
  153.3762  135.3917  155.1824 H   0  0  0  0  0  0  0  0  0  0  0  0  # atno 10763 bound_to 10752
  154.8701  135.3714  154.4915 H   0  0  0  0  0  0  0  0  0  0  0  0  # atno 10764 bound_to 10752
  153.5387  135.7085  153.5708 H   0  0  0  0  0  0  0  0  0  0  0  0  # atno 10765 bound_to 10752
  139.9209  134.7770  156.1661 H   0  0  0  0  0  0  0  0  0  0  0  0  # atno 11005 bound_to 11000
  144.9251  139.4365  143.6522 LP  0  0  0  0  0  0  0  0  0  0  0  0  # atno 17320 bound_to 7965
  146.3215  139.8132  142.8941 LP  0  0  0  0  0  0  0  0  0  0  0  0  # atno 17321 bound_to 7965
  139.9878  143.5880  152.2921 LP  0  0  0  0  0  0  0  0  0  0  0  0  # atno 17342 bound_to 10162
  139.6524  144.7661  151.2121 LP  0  0  0  0  0  0  0  0  0  0  0  0  # atno 17343 bound_to 10162
  156.1616  130.3644  149.9291 LP  0  0  0  0  0  0  0  0  0  0  0  0  # atno 17370 bound_to 10713
  156.7288  130.9035  151.3624 LP  0  0  0  0  0  0  0  0  0  0  0  0  # atno 17371 bound_to 10713
  141.0728  133.6789  156.2176 LP  0  0  0  0  0  0  0  0  0  0  0  0  # atno 17394 bound_to 11000
  140.6478  134.5099  157.5575 LP  0  0  0  0  0  0  0  0  0  0  0  0  # atno 17395 bound_to 11000

$$$$
