AV-unprocessed.smi:1557|AV-procd|sdf|6270|dock3
  -GOLD-   22720 6463D 1   1.00000     0.00000
 Structure written by MMmdl.
 41 42  0  0  0  0  0  0  0  0  1 V2000
  145.8693  133.0560  151.2275 C   0  0  0  0  0  0  0  0  0  0  0  0
  146.2304  132.4788  152.5981 C   0  0  0  0  0  0  0  0  0  0  0  0
  147.2890  133.2528  153.1534 O   0  0  0  0  0  0  0  0  0  0  0  0
  148.0514  132.7061  154.1680 C   0  0  0  0  0  0  0  0  0  0  0  0
  147.8789  131.3953  154.4730 N   0  0  0  0  0  0  0  0  0  0  0  0
  148.6210  130.8640  155.4663 C   0  0  0  0  0  0  0  0  0  0  0  0
  149.5605  131.6044  156.2073 C   0  0  0  0  0  0  0  0  0  0  0  0
  149.7414  132.9639  155.8925 C   0  0  0  0  0  0  0  0  0  0  0  0
  148.9812  133.5315  154.8416 C   0  0  0  0  0  0  0  0  0  0  0  0
  149.0723  134.8963  154.4546 N   0  0  0  0  0  0  0  0  0  0  0  0
  149.6267  135.9181  155.1273 C   0  0  0  0  0  0  0  0  0  0  0  0
  150.1449  135.8406  156.2415 O   0  0  0  0  0  0  0  0  0  0  0  0
  149.5681  137.0528  154.4144 N   0  0  0  0  0  0  0  0  0  0  0  0
  150.1479  138.3365  154.8124 C   0  0  2  0  0  0  0  0  0  0  0  0
  149.6008  139.4269  153.8569 C   0  0  0  0  0  0  0  0  0  0  0  0
  150.3694  140.7671  153.8325 C   0  0  0  0  0  0  0  0  0  0  0  0
  150.7778  141.3140  155.2158 C   0  0  0  0  0  0  0  0  0  0  0  0
  151.7349  140.4317  156.0591 C   0  0  0  0  0  0  0  0  0  0  0  0
  152.3530  139.3228  155.3316 N   0  0  0  0  0  0  0  0  0  0  0  0
  151.6915  138.3105  154.7457 C   0  0  0  0  0  0  0  0  0  0  0  0
  152.2885  137.4124  154.1529 O   0  0  0  0  0  0  0  0  0  0  0  0
  145.0589  132.4898  150.7677 H   0  0  0  0  0  0  0  0  0  0  0  0
  146.7244  133.0247  150.5519 H   0  0  0  0  0  0  0  0  0  0  0  0
  145.5463  134.0938  151.3125 H   0  0  0  0  0  0  0  0  0  0  0  0
  145.3549  132.5075  153.2488 H   0  0  0  0  0  0  0  0  0  0  0  0
  146.5371  131.4375  152.4874 H   0  0  0  0  0  0  0  0  0  0  0  0
  148.4560  129.8187  155.6814 H   0  0  0  0  0  0  0  0  0  0  0  0
  150.1263  131.1416  157.0021 H   0  0  0  0  0  0  0  0  0  0  0  0
  150.4444  133.5454  156.4688 H   0  0  0  0  0  0  0  0  0  0  0  0
  148.7661  135.0984  153.5141 H   0  0  0  0  0  0  0  0  0  0  0  0
  149.1292  137.0187  153.5063 H   0  0  0  0  0  0  0  0  0  0  0  0
  149.8315  138.5570  155.8330 H   0  0  0  0  0  0  0  0  0  0  0  0
  149.5668  139.0438  152.8356 H   0  0  0  0  0  0  0  0  0  0  0  0
  148.5633  139.6249  154.1292 H   0  0  0  0  0  0  0  0  0  0  0  0
  151.2596  140.6671  153.2097 H   0  0  0  0  0  0  0  0  0  0  0  0
  149.7542  141.5107  153.3249 H   0  0  0  0  0  0  0  0  0  0  0  0
  151.2570  142.2812  155.0602 H   0  0  0  0  0  0  0  0  0  0  0  0
  149.8819  141.5272  155.8003 H   0  0  0  0  0  0  0  0  0  0  0  0
  152.5319  141.0516  156.4703 H   0  0  0  0  0  0  0  0  0  0  0  0
  151.2061  140.0303  156.9246 H   0  0  0  0  0  0  0  0  0  0  0  0
  153.3613  139.3187  155.2774 H   0  0  0  0  0  0  0  0  0  0  0  0
  1  2  1  0  0  0  0
  1 22  1  0  0  0  0
  1 23  1  0  0  0  0
  1 24  1  0  0  0  0
  2  3  1  0  0  0  0
  2 25  1  0  0  0  0
  2 26  1  0  0  0  0
  3  4  1  0  0  0  0
  4  9  1  0  0  0  0
  4  5  2  0  0  0  0
  5  6  1  0  0  0  0
  6  7  2  0  0  0  0
  6 27  1  0  0  0  0
  7  8  1  0  0  0  0
  7 28  1  0  0  0  0
  8  9  2  0  0  0  0
  8 29  1  0  0  0  0
  9 10  1  0  0  0  0
 10 11  1  0  0  0  0
 10 30  1  0  0  0  0
 11 12  2  0  0  0  0
 11 13  1  0  0  0  0
 13 14  1  0  0  0  0
 13 31  1  0  0  0  0
 14 20  1  0  0  0  0
 14 15  1  0  0  0  0
 14 32  1  0  0  0  0
 15 16  1  0  0  0  0
 15 33  1  0  0  0  0
 15 34  1  0  0  0  0
 16 17  1  0  0  0  0
 16 35  1  0  0  0  0
 16 36  1  0  0  0  0
 17 18  1  0  0  0  0
 17 37  1  0  0  0  0
 17 38  1  0  0  0  0
 18 19  1  0  0  0  0
 18 39  1  0  0  0  0
 18 40  1  0  0  0  0
 19 20  1  0  0  0  0
 19 41  1  0  0  0  0
 20 21  2  0  0  0  0
M  END
> <s_m_source_file>
AV-unprocessed.smi

> <i_m_source_file_index>
1557

> <i_lp_mmshare_version>
43012

> <i_f3d_flags>
0

> <s_epik_input>
W0NIM11bQ0gyXU9jMW5bY0hdW2NIXVtjSF1jMVtOSF1DKD1PKVtOSF1bQ0BASF0yW0NIMl1bQ0gyXVtDSDJdW0NIMl1bTkhdQzI9Tw==

> <s_epik_cmdline>
J2VwaWtfcHl0aG9uJywgJy1waCcsICc3LjAnLCAnLXRuJywgJzgnLCAnLW1hJywgJzIwMCcsICctbWV0YWxfYmluZGluZycsICctaW1hZScsICc8aW5maWxlLm1hZT4nLCAnLW9tYWUnLCAnPG91dGZpbGUubWFlPic=

> <r_lp_tautomer_probability>
1

> <r_epik_Ionization_Penalty>
0.000101084

> <r_epik_Ionization_Penalty_Charging>
0

> <r_epik_Ionization_Penalty_Neutral>
0.000101084

> <r_epik_State_Penalty>
-0

> <r_epik_Charging_Adjusted_Penalty>
0

> <i_epik_Tot_Q>
0

> <i_epik_Tot_abs_Q>
0

> <r_epik_Metal_State_Penalty>
-0

> <b_epik_Metal_Only>
0

> <s_lp_Force_Field>
OPLS_2005

> <r_lp_Energy>
17.7694

> <b_lp_Chiralities_Consistent>
1

> <s_lp_Variant>
AV-unprocessed.smi:1557-1

> <Gold.Version>
5.8.1

> <Gold.Id.Protein>
6NUR|6NUR_protein|mol2

> <Gold.PLP.Fitness>
43.1198

> <Gold.PLP.PLP>
-35.7584

> <Gold.PLP.part.hbond>
-3.0000

> <Gold.PLP.part.metal>
0.0000

> <Gold.PLP.part.buried>
-3.8067

> <Gold.PLP.part.nonpolar>
-30.1912

> <Gold.PLP.part.repulsive>
0.6932

> <Gold.PLP.ligand.clash>
0.0000

> <Gold.PLP.ligand.torsion>
0.3314

> <Gold.PLP.Chemscore.Hbond>
2.6720

> <Gold.PLP.Chemscore.CHOScore>
0.0000

> <Gold.PLP.Chemscore.Metal>
0.0000

> <Gold.Chemscore.Hbonds>
donor molecule, donor type, donor heavy atom, donor atom, acceptor molecule, acceptor atom, score
      L1  H    10    30       P1  7948  0.96
      L1  H    13    31       P1  7948  0.98
      P1  H 10752 10763       L1    21  0.80

> <Gold.PLP.Chemscore.Internal.Correction>
0.0082

> <Gold.Rescore>
     Score         DG    S(hbond)    S(metal)    S(lipo)     H(rot)  DE(clash)    DE(int)     intcor
     14.50     -16.17       2.07        0.00      64.82       1.49       0.17       1.50       ----

> <Gold.Chemscore.Fitness>
14.4979

> <Gold.Chemscore.DG>
-16.1670

> <Gold.Chemscore.ZeroCoef>
-5.4800

> <Gold.Chemscore.Hbond>
2.0748

> <Gold.Chemscore.Metal>
0.0000

> <Gold.Chemscore.Lipo>
64.8197

> <Gold.Chemscore.Internal_Hbond>
0.0000

> <Gold.Chemscore.DEClash>
0.1661

> <Gold.Chemscore.DEInternal>
1.5031

> <Gold.Chemscore.Rot>
1.4948

> <Gold.Chemscore.Internal.Correction>
   9.000000E+99

> <Gold.Chemscore.Hbonds>
donor molecule, donor type, donor heavy atom, donor atom, acceptor molecule, acceptor atom, score
      L1  H    10    30       P1  7948  0.63
      L1  H    13    31       P1  7948  0.93
      P1  H 10752 10763       L1    21  0.80

> <Gold.Chemscore.Hbond.Weighted>
-6.9299

> <Gold.Chemscore.Metal.Weighted>
-0.0000

> <Gold.Chemscore.Lipo.Weighted>
-7.5839

> <Gold.Chemscore.Internal_Hbond.Weighted>
0.0000

> <Gold.Chemscore.DEClash.Weighted>
0.1661

> <Gold.Chemscore.DEInternal.Weighted>
1.5031

> <Gold.Chemscore.Rot.Weighted>
3.8268

> <Gold.Chemscore.Internal.Correction.Weighted>
   9.000000E+99

> <Gold.Protein.RotatedTorsions>
[ 6907 6896 6895 6894 ] final  143.41 input  -60.11 | X-H torsion
[ 7974 7965 7964 7962 ] final  134.40 input  175.53 | X-H torsion
[ 8008 7997 7996 7995 ] final   -6.96 input   59.86 | X-H torsion
[ 10167 10162 10161 10158 ] final   77.96 input  -65.29 | X-H torsion
[ 10718 10713 10712 10709 ] final   -1.73 input   66.30 | X-H torsion
[ 10763 10752 10751 10750 ] final   32.19 input  -60.55 | X-H torsion
[ 11005 11000 10999 10996 ] final -163.27 input  -57.11 | X-H torsion

> <Gold.Protein.ActiveResidues>
 VAL166  LYS551  ARG553  GLY616  TRP617  ASP618  TYR619  PRO620  LYS621  CYS622 
 ASP623  PHE694  ASN695  SER759  ASP760  ASP761  ALA762  ILE779  LEU786  VAL792 
 PHE793  MET794  SER795  GLU796  ALA797  LYS798  CYS799  TRP800  GLU811  SER814 

> <Gold.Protein.RotatedAtoms>
  152.2066  133.4880  159.5086 H   0  0  0  0  0  0  0  0  0  0  0  0  # atno 6907 bound_to 6896
  150.6981  134.1522  159.4154 H   0  0  0  0  0  0  0  0  0  0  0  0  # atno 6908 bound_to 6896
  151.9440  135.0200  160.0588 H   0  0  0  0  0  0  0  0  0  0  0  0  # atno 6909 bound_to 6896
  144.9767  139.4547  143.5406 H   0  0  0  0  0  0  0  0  0  0  0  0  # atno 7974 bound_to 7965
  154.5885  140.2419  155.7953 H   0  0  0  0  0  0  0  0  0  0  0  0  # atno 8008 bound_to 7997
  156.2231  140.2991  155.9954 H   0  0  0  0  0  0  0  0  0  0  0  0  # atno 8009 bound_to 7997
  155.2415  140.0407  157.2966 H   0  0  0  0  0  0  0  0  0  0  0  0  # atno 8010 bound_to 7997
  139.9760  144.5860  150.7943 H   0  0  0  0  0  0  0  0  0  0  0  0  # atno 10167 bound_to 10162
  156.8012  130.5393  149.5721 H   0  0  0  0  0  0  0  0  0  0  0  0  # atno 10718 bound_to 10713
  153.0275  135.6419  154.1317 H   0  0  0  0  0  0  0  0  0  0  0  0  # atno 10763 bound_to 10752
  154.1044  135.2857  155.3246 H   0  0  0  0  0  0  0  0  0  0  0  0  # atno 10764 bound_to 10752
  154.6376  135.5471  153.7815 H   0  0  0  0  0  0  0  0  0  0  0  0  # atno 10765 bound_to 10752
  140.5999  134.4958  157.5204 H   0  0  0  0  0  0  0  0  0  0  0  0  # atno 11005 bound_to 11000
  146.3397  139.9015  142.8794 LP  0  0  0  0  0  0  0  0  0  0  0  0  # atno 17320 bound_to 7965
  145.2479  141.0033  143.3898 LP  0  0  0  0  0  0  0  0  0  0  0  0  # atno 17321 bound_to 7965
  140.7505  143.2957  151.3210 LP  0  0  0  0  0  0  0  0  0  0  0  0  # atno 17342 bound_to 10162
  139.6445  144.0477  152.2580 LP  0  0  0  0  0  0  0  0  0  0  0  0  # atno 17343 bound_to 10162
  156.1100  130.6033  151.0032 LP  0  0  0  0  0  0  0  0  0  0  0  0  # atno 17370 bound_to 10713
  157.6552  131.0890  150.7962 LP  0  0  0  0  0  0  0  0  0  0  0  0  # atno 17371 bound_to 10713
  139.9237  134.8098  156.1134 LP  0  0  0  0  0  0  0  0  0  0  0  0  # atno 17394 bound_to 11000
  141.0879  133.6726  156.2476 LP  0  0  0  0  0  0  0  0  0  0  0  0  # atno 17395 bound_to 11000

$$$$
