AV-unprocessed.smi:2352|AV-procd|sdf|9378|dock7
  -GOLD-   2272013 03D 1   1.00000     0.00000
 Structure written by MMmdl.
 37 38  0  0  0  0  0  0  0  0  1 V2000
  148.6404  134.0215  157.7187 C   0  0  0  0  0  0  0  0  0  0  0  0
  149.6502  135.1449  157.5626 C   0  0  0  0  0  0  0  0  0  0  0  0
  149.8780  135.9147  158.7070 N   0  0  0  0  0  0  0  0  0  0  0  0
  150.7194  136.8955  158.6673 C   0  0  0  0  0  0  0  0  0  0  0  0
  151.4212  137.2186  157.4944 N   0  0  0  0  0  0  0  0  0  0  0  0
  152.3486  138.3596  157.5821 C   0  0  0  0  0  0  0  0  0  0  0  0
  151.9235  139.5327  156.6710 C   0  0  2  0  0  0  0  0  0  0  0  0
  152.8220  139.6087  155.5815 O   0  0  0  0  0  0  0  0  0  0  0  0
  151.8843  140.8397  157.4489 C   0  0  0  0  0  0  0  0  0  0  0  0
  152.5089  140.9495  158.7105 C   0  0  0  0  0  0  0  0  0  0  0  0
  152.4613  142.1625  159.4246 C   0  0  0  0  0  0  0  0  0  0  0  0
  151.7894  143.2816  158.8869 C   0  0  0  0  0  0  0  0  0  0  0  0
  151.7280  144.5920  159.6583 C   0  0  0  0  0  0  0  0  0  0  0  0
  152.3624  144.4808  160.8259 F   0  0  0  0  0  0  0  0  0  0  0  0
  152.3131  145.5507  158.9414 F   0  0  0  0  0  0  0  0  0  0  0  0
  150.4664  144.9487  159.9024 F   0  0  0  0  0  0  0  0  0  0  0  0
  151.1545  143.1665  157.6316 C   0  0  0  0  0  0  0  0  0  0  0  0
  151.2019  141.9538  156.9170 C   0  0  0  0  0  0  0  0  0  0  0  0
  151.2659  136.5130  156.3367 C   0  0  0  0  0  0  0  0  0  0  0  0
  151.8985  136.7959  155.3172 O   0  0  0  0  0  0  0  0  0  0  0  0
  150.3017  135.4025  156.3957 C   0  0  0  0  0  0  0  0  0  0  0  0
  150.0943  134.5986  155.1183 C   0  0  0  0  0  0  0  0  0  0  0  0
  147.8073  134.1577  157.0287 H   0  0  0  0  0  0  0  0  0  0  0  0
  148.2342  133.9900  158.7305 H   0  0  0  0  0  0  0  0  0  0  0  0
  149.1072  133.0572  157.5166 H   0  0  0  0  0  0  0  0  0  0  0  0
  150.9367  137.5233  159.5333 H   0  0  0  0  0  0  0  0  0  0  0  0
  152.3628  138.6994  158.6196 H   0  0  0  0  0  0  0  0  0  0  0  0
  153.3830  138.0725  157.3802 H   0  0  0  0  0  0  0  0  0  0  0  0
  150.9282  139.3521  156.2629 H   0  0  0  0  0  0  0  0  0  0  0  0
  152.3273  139.5286  154.7801 H   0  0  0  0  0  0  0  0  0  0  0  0
  153.0249  140.1020  159.1376 H   0  0  0  0  0  0  0  0  0  0  0  0
  152.9417  142.2268  160.3898 H   0  0  0  0  0  0  0  0  0  0  0  0
  150.6249  144.0091  157.2119 H   0  0  0  0  0  0  0  0  0  0  0  0
  150.7085  141.8822  155.9585 H   0  0  0  0  0  0  0  0  0  0  0  0
  151.0328  134.1383  154.8073 H   0  0  0  0  0  0  0  0  0  0  0  0
  149.7547  135.2517  154.3136 H   0  0  0  0  0  0  0  0  0  0  0  0
  149.3589  133.8031  155.2262 H   0  0  0  0  0  0  0  0  0  0  0  0
  1  2  1  0  0  0  0
  1 23  1  0  0  0  0
  1 24  1  0  0  0  0
  1 25  1  0  0  0  0
  2 21  2  0  0  0  0
  2  3  1  0  0  0  0
  3  4  2  0  0  0  0
  4  5  1  0  0  0  0
  4 26  1  0  0  0  0
  5  6  1  0  0  0  0
  5 19  1  0  0  0  0
  6  7  1  0  0  0  0
  6 27  1  0  0  0  0
  6 28  1  0  0  0  0
  7  8  1  0  0  0  0
  7  9  1  0  0  0  0
  7 29  1  0  0  0  0
  8 30  1  0  0  0  0
  9 18  1  0  0  0  0
  9 10  2  0  0  0  0
 10 11  1  0  0  0  0
 10 31  1  0  0  0  0
 11 12  2  0  0  0  0
 11 32  1  0  0  0  0
 12 13  1  0  0  0  0
 12 17  1  0  0  0  0
 13 14  1  0  0  0  0
 13 15  1  0  0  0  0
 13 16  1  0  0  0  0
 17 18  2  0  0  0  0
 17 33  1  0  0  0  0
 18 34  1  0  0  0  0
 19 20  2  0  0  0  0
 19 21  1  0  0  0  0
 21 22  1  0  0  0  0
 22 35  1  0  0  0  0
 22 36  1  0  0  0  0
 22 37  1  0  0  0  0
M  END
> <s_m_source_file>
AV-unprocessed.smi

> <i_m_source_file_index>
2352

> <i_lp_mmshare_version>
43012

> <i_f3d_flags>
0

> <s_epik_input>
W0NIM11jMW5bY0hdbihjKD1PKWMxW0NIM10pW0NIMl1bQ0BIXShbT0hdKWMyW2NIXVtjSF1jKEMoRikoRilGKVtjSF1bY0hdMg==

> <s_epik_cmdline>
J2VwaWtfcHl0aG9uJywgJy1waCcsICc3LjAnLCAnLXRuJywgJzgnLCAnLW1hJywgJzIwMCcsICctbWV0YWxfYmluZGluZycsICctaW1hZScsICc8aW5maWxlLm1hZT4nLCAnLW9tYWUnLCAnPG91dGZpbGUubWFlPic=

> <r_lp_tautomer_probability>
1

> <r_epik_Ionization_Penalty>
5.07001e-05

> <r_epik_Ionization_Penalty_Charging>
7.56727e-08

> <r_epik_Ionization_Penalty_Neutral>
5.06244e-05

> <r_epik_State_Penalty>
-0

> <r_epik_Charging_Adjusted_Penalty>
7.56727e-08

> <i_epik_Tot_Q>
0

> <i_epik_Tot_abs_Q>
0

> <r_epik_Metal_State_Penalty>
-0

> <b_epik_Metal_Only>
0

> <s_lp_Force_Field>
OPLS_2005

> <r_lp_Energy>
21.4473

> <b_lp_Chiralities_Consistent>
1

> <s_lp_Variant>
AV-unprocessed.smi:2352-1

> <Gold.Version>
5.8.1

> <Gold.Id.Protein>
6NUR|6NUR_protein|mol2

> <Gold.PLP.Fitness>
46.5184

> <Gold.PLP.PLP>
-40.8300

> <Gold.PLP.part.hbond>
-3.0000

> <Gold.PLP.part.metal>
0.0000

> <Gold.PLP.part.buried>
-6.2788

> <Gold.PLP.part.nonpolar>
-31.8965

> <Gold.PLP.part.repulsive>
0.0799

> <Gold.PLP.ligand.clash>
1.4190

> <Gold.PLP.ligand.torsion>
1.1044

> <Gold.PLP.Chemscore.Hbond>
2.7650

> <Gold.PLP.Chemscore.CHOScore>
0.0000

> <Gold.PLP.Chemscore.Metal>
0.0000

> <Gold.Chemscore.Hbonds>
donor molecule, donor type, donor heavy atom, donor atom, acceptor molecule, acceptor atom, score
      P1  H  6896  6908       L1     3  0.65
      P1  H  7997  8010       L1     8  1.00
      P1  H 10752 10763       L1    20  1.00

> <Gold.PLP.Chemscore.Internal.Correction>
1.0211

> <Gold.Rescore>
     Score         DG    S(hbond)    S(metal)    S(lipo)     H(rot)  DE(clash)    DE(int)     intcor
     15.20     -16.77       1.97        0.00      86.97       2.13       0.03       1.53       ----

> <Gold.Chemscore.Fitness>
15.2018

> <Gold.Chemscore.DG>
-16.7662

> <Gold.Chemscore.ZeroCoef>
-5.4800

> <Gold.Chemscore.Hbond>
1.9686

> <Gold.Chemscore.Metal>
0.0000

> <Gold.Chemscore.Lipo>
86.9733

> <Gold.Chemscore.Internal_Hbond>
0.0000

> <Gold.Chemscore.DEClash>
0.0345

> <Gold.Chemscore.DEInternal>
1.5300

> <Gold.Chemscore.Rot>
2.1347

> <Gold.Chemscore.Internal.Correction>
   9.000000E+99

> <Gold.Chemscore.Hbonds>
donor molecule, donor type, donor heavy atom, donor atom, acceptor molecule, acceptor atom, score
      P1  H  6896  6908       L1     3  0.03
      P1  H  7997  8010       L1     8  0.95
      P1  H 10752 10763       L1    20  0.89

> <Gold.Chemscore.Hbond.Weighted>
-6.5752

> <Gold.Chemscore.Metal.Weighted>
-0.0000

> <Gold.Chemscore.Lipo.Weighted>
-10.1759

> <Gold.Chemscore.Internal_Hbond.Weighted>
0.0000

> <Gold.Chemscore.DEClash.Weighted>
0.0345

> <Gold.Chemscore.DEInternal.Weighted>
1.5300

> <Gold.Chemscore.Rot.Weighted>
5.4649

> <Gold.Chemscore.Internal.Correction.Weighted>
   9.000000E+99

> <Gold.Protein.RotatedTorsions>
[ 6907 6896 6895 6894 ] final  168.77 input  -60.11 | X-H torsion
[ 7974 7965 7964 7962 ] final  148.24 input  175.53 | X-H torsion
[ 8008 7997 7996 7995 ] final  104.28 input   59.86 | X-H torsion
[ 10167 10162 10161 10158 ] final -105.55 input  -65.29 | X-H torsion
[ 10718 10713 10712 10709 ] final   61.49 input   66.30 | X-H torsion
[ 10763 10752 10751 10750 ] final   69.55 input  -60.55 | X-H torsion
[ 11005 11000 10999 10996 ] final   47.56 input  -57.11 | X-H torsion

> <Gold.Protein.ActiveResidues>
 VAL166  LYS551  ARG553  GLY616  TRP617  ASP618  TYR619  PRO620  LYS621  CYS622 
 ASP623  PHE694  ASN695  SER759  ASP760  ASP761  ALA762  ILE779  LEU786  VAL792 
 PHE793  MET794  SER795  GLU796  ALA797  LYS798  CYS799  TRP800  GLU811  SER814 

> <Gold.Protein.RotatedAtoms>
  151.8424  133.3426  159.3647 H   0  0  0  0  0  0  0  0  0  0  0  0  # atno 6907 bound_to 6896
  150.7231  134.5378  159.5741 H   0  0  0  0  0  0  0  0  0  0  0  0  # atno 6908 bound_to 6896
  152.2854  134.7782  160.0439 H   0  0  0  0  0  0  0  0  0  0  0  0  # atno 6909 bound_to 6896
  144.8529  139.6129  143.5965 H   0  0  0  0  0  0  0  0  0  0  0  0  # atno 7974 bound_to 7965
  156.1558  140.3150  155.8724 H   0  0  0  0  0  0  0  0  0  0  0  0  # atno 8008 bound_to 7997
  155.3880  140.0492  157.3058 H   0  0  0  0  0  0  0  0  0  0  0  0  # atno 8009 bound_to 7997
  154.5100  140.2161  155.9186 H   0  0  0  0  0  0  0  0  0  0  0  0  # atno 8010 bound_to 7997
  140.1973  143.3845  152.1158 H   0  0  0  0  0  0  0  0  0  0  0  0  # atno 10167 bound_to 10162
  157.5832  130.8998  149.9468 H   0  0  0  0  0  0  0  0  0  0  0  0  # atno 10718 bound_to 10713
  153.0293  135.5206  154.7305 H   0  0  0  0  0  0  0  0  0  0  0  0  # atno 10763 bound_to 10752
  154.6334  135.2903  155.0192 H   0  0  0  0  0  0  0  0  0  0  0  0  # atno 10764 bound_to 10752
  154.1136  135.6618  153.4942 H   0  0  0  0  0  0  0  0  0  0  0  0  # atno 10765 bound_to 10752
  140.1269  134.4757  155.8552 H   0  0  0  0  0  0  0  0  0  0  0  0  # atno 11005 bound_to 11000
  146.2800  139.6851  142.9236 LP  0  0  0  0  0  0  0  0  0  0  0  0  # atno 17320 bound_to 7965
  145.4463  141.0425  143.2829 LP  0  0  0  0  0  0  0  0  0  0  0  0  # atno 17321 bound_to 7965
  139.5231  144.7067  151.5331 LP  0  0  0  0  0  0  0  0  0  0  0  0  # atno 17342 bound_to 10162
  140.6414  143.8881  150.6696 LP  0  0  0  0  0  0  0  0  0  0  0  0  # atno 17343 bound_to 10162
  156.0879  130.3666  150.0451 LP  0  0  0  0  0  0  0  0  0  0  0  0  # atno 17370 bound_to 10713
  156.8587  130.9484  151.3620 LP  0  0  0  0  0  0  0  0  0  0  0  0  # atno 17371 bound_to 10713
  141.2163  133.6781  156.6995 LP  0  0  0  0  0  0  0  0  0  0  0  0  # atno 17394 bound_to 11000
  140.2893  134.8254  157.4002 LP  0  0  0  0  0  0  0  0  0  0  0  0  # atno 17395 bound_to 11000

$$$$
