#       Name:                AV-unprocessed.smi:1957
#       Creating user name   scv26
#       Creation time:       Fri Mar 27 10:06:22 2020


#       File generated by GOLD software.
#

@<TRIPOS>MOLECULE
AV-unprocessed.smi:1957
    51    52     1
SMALL
NO_CHARGES


@<TRIPOS>ATOM
      1 ****        -3.3065   3.9663  -3.4742 C.3            1 S1                 0.0000
      2 ****        -1.9173   3.7559  -3.2921 O.3            1 S1                 0.0000
      3 ****        -1.5642   2.3845  -3.3538 C.3            1 S1                 0.0000
      4 ****        -0.0487   2.2525  -3.1407 C.3            1 S1                 0.0000
      5 ****         0.3773   0.8496  -3.1609 N.am           1 S1                 0.0000
      6 ****         0.5036   0.2800  -1.9048 N.2            1 S1                 0.0000
      7 ****         0.8625  -0.9575  -1.7851 C.2            1 S1                 0.0000
      8 ****         1.0056  -1.6083  -0.4536 C.2            1 S1                 0.0000
      9 ****         1.3293  -2.7916  -0.3384 O.2            1 S1                 0.0000
     10 ****         0.7499  -0.8157   0.6041 N.am           1 S1                 0.0000
     11 ****         0.7694  -1.2334   2.0076 C.3            1 S1                 0.0000
     12 ****         1.0776   0.0175   2.8619 C.3            1 S1                 0.0000
     13 ****         1.6496  -0.3073   4.2530 C.3            1 S1                 0.0000
     14 ****         0.6885  -1.0507   5.1932 C.3            1 S1                 0.0000
     15 ****         0.2722  -2.4399   4.6801 C.3            1 S1                 0.0000
     16 ****        -0.7420  -2.3578   3.6373 N.am           1 S1                 0.0000
     17 ****        -0.6071  -1.8045   2.4227 C.2            1 S1                 0.0000
     18 ****        -1.5684  -1.7500   1.6554 O.2            1 S1                 0.0000
     19 ****         1.1400  -1.7686  -2.9586 C.2            1 S1                 0.0000
     20 ****         1.0098  -1.1998  -4.1771 C.2            1 S1                 0.0000
     21 ****         0.6015   0.1963  -4.3407 C.2            1 S1                 0.0000
     22 ****         0.4680   0.7341  -5.4394 O.2            1 S1                 0.0000
     23 ****        -3.5248   5.0330  -3.4263 H              1 S1                 0.0000
     24 ****        -3.8854   3.4686  -2.6952 H              1 S1                 0.0000
     25 ****        -3.6378   3.5983  -4.4462 H              1 S1                 0.0000
     26 ****        -2.1008   1.8256  -2.5852 H              1 S1                 0.0000
     27 ****        -1.8511   1.9716  -4.3221 H              1 S1                 0.0000
     28 ****         0.4879   2.8246  -3.8996 H              1 S1                 0.0000
     29 ****         0.2230   2.7095  -2.1873 H              1 S1                 0.0000
     30 ****         0.4868   0.1418   0.4201 H              1 S1                 0.0000
     31 ****         1.5476  -1.9860   2.1477 H              1 S1                 0.0000
     32 ****         1.8237   0.6241   2.3458 H              1 S1                 0.0000
     33 ****         0.1974   0.6564   2.9541 H              1 S1                 0.0000
     34 ****         2.5658  -0.8883   4.1400 H              1 S1                 0.0000
     35 ****         1.9487   0.6258   4.7316 H              1 S1                 0.0000
     36 ****         1.1855  -1.1742   6.1559 H              1 S1                 0.0000
     37 ****        -0.1945  -0.4409   5.3898 H              1 S1                 0.0000
     38 ****         1.1351  -3.0097   4.3324 H              1 S1                 0.0000
     39 ****        -0.1605  -3.0103   5.5024 H              1 S1                 0.0000
     40 ****        -1.6511  -2.7303   3.8710 H              1 S1                 0.0000
     41 ****         1.4428  -2.8017  -2.8677 H              1 S1                 0.0000
     42 ****         1.2119  -1.7915  -5.0579 H              1 S1                 0.0000
     43 ****        -1.6530   4.1154  -2.3971 LP             1 S1                 0.0000
     44 ****        -1.4218   4.2474  -4.0083 LP             1 S1                 0.0000
     45 ****         0.3170   0.8264  -1.0883 LP             1 S1                 0.0000
     46 ****         1.5043  -3.3437  -1.1536 LP             1 S1                 0.0000
     47 ****         1.4170  -3.1997   0.5703 LP             1 S1                 0.0000
     48 ****        -1.4644  -1.3330   0.7524 LP             1 S1                 0.0000
     49 ****        -2.4532  -2.1226   1.9352 LP             1 S1                 0.0000
     50 ****         0.1836   1.6912  -5.4964 LP             1 S1                 0.0000
     51 ****         0.6439   0.2142  -6.2753 LP             1 S1                 0.0000
@<TRIPOS>BOND
    1    1    2 1     
    2    1   23 1     
    3    1   24 1     
    4    1   25 1     
    5    2    3 1     
    6    3    4 1     
    7    3   26 1     
    8    3   27 1     
    9    4    5 1     
   10    4   28 1     
   11    4   29 1     
   12    5   21 am    
   13    5    6 1     
   14    6    7 2     
   15    7    8 1     
   16    7   19 1     
   17    8    9 2     
   18    8   10 am    
   19   10   11 1     
   20   10   30 1     
   21   11   17 1     
   22   11   12 1     
   23   11   31 1     
   24   12   13 1     
   25   12   32 1     
   26   12   33 1     
   27   13   14 1     
   28   13   34 1     
   29   13   35 1     
   30   14   15 1     
   31   14   36 1     
   32   14   37 1     
   33   15   16 1     
   34   15   38 1     
   35   15   39 1     
   36   16   17 am    
   37   16   40 1     
   38   17   18 2     
   39   19   20 2     
   40   19   41 1     
   41   20   21 1     
   42   20   42 1     
   43   21   22 2     
   44    2   43 1     
   45    2   44 1     
   46    6   45 1     
   47    9   46 1     
   48    9   47 1     
   49   18   48 1     
   50   18   49 1     
   51   22   50 1     
   52   22   51 1     
@<TRIPOS>SUBSTRUCTURE
      1 S1             1
@<TRIPOS>SET
LONE_PAIRS      STATIC     ATOMS    <user>   **** ""
9 43 44 45 46 47 48 49 50 51
DONOR_HYDROGENS      STATIC     ATOMS    <user>   **** ""
2 30 40
ATOM$BLUE        STATIC     ATOMS    COLORGROUP SYSTEM
9 43 44 45 46 47 48 49 50 51
ATOM$RED        STATIC     ATOMS    COLORGROUP SYSTEM
2 30 40
