AV-unprocessed.smi:2062|AV-procd|sdf|8404|dock2
  -GOLD-   2272011 93D 1   1.00000     0.00000
 Structure written by MMmdl.
 42 43  0  0  0  0  0  0  0  0  3 V2000
  147.9449  127.8293  150.8949 C   0  0  0  0  0  0  0  0  0  0  0  0
  147.4497  128.7067  152.0568 C   0  0  0  0  0  0  0  0  0  0  0  0
  147.0996  127.8363  153.2729 C   0  0  0  0  0  0  0  0  0  0  0  0
  146.2412  129.5754  151.6469 C   0  0  0  0  0  0  0  0  0  0  0  0
  146.6355  130.9286  151.1688 N   0  3  1  0  0  0  0  0  0  0  0  0
  145.8462  131.4012  150.0054 C   0  0  0  0  0  0  0  0  0  0  0  0
  144.4603  131.9061  150.4432 C   0  0  0  0  0  0  0  0  0  0  0  0
  144.6217  132.9365  151.4087 O   0  0  0  0  0  0  0  0  0  0  0  0
  145.2697  132.4800  152.5925 C   0  0  2  0  0  0  0  0  0  0  0  0
  145.3242  133.6428  153.5919 C   0  0  0  0  0  0  0  0  0  0  0  0
  143.9809  134.0225  154.0065 N   0  0  0  0  0  0  0  0  0  0  0  0
  143.4710  135.2578  153.9316 C   0  0  0  0  0  0  0  0  0  0  0  0
  144.1586  136.1792  153.4858 O   0  0  0  0  0  0  0  0  0  0  0  0
  142.1982  135.3456  154.3786 N   0  5  0  0  0  0  0  0  0  0  0  0
  141.4528  136.4215  154.0775 C   0  0  0  0  0  0  0  0  0  0  0  0
  141.9699  137.5503  153.5787 N   0  0  0  0  0  0  0  0  0  0  0  0
  141.0141  138.5376  153.3326 C   0  0  0  0  0  0  0  0  0  0  0  0
  139.7379  138.1481  153.6423 C   0  0  0  0  0  0  0  0  0  0  0  0
  139.6986  136.5200  154.2566 S   0  0  0  0  0  0  0  0  0  0  0  0
  146.6823  131.9741  152.2237 C   0  0  0  0  0  0  0  0  0  0  0  0
  147.1639  127.1515  150.5487 H   0  0  0  0  0  0  0  0  0  0  0  0
  148.7985  127.2225  151.1987 H   0  0  0  0  0  0  0  0  0  0  0  0
  148.2636  128.4326  150.0446 H   0  0  0  0  0  0  0  0  0  0  0  0
  148.2715  129.3542  152.3611 H   0  0  0  0  0  0  0  0  0  0  0  0
  146.2823  127.1499  153.0483 H   0  0  0  0  0  0  0  0  0  0  0  0
  146.7954  128.4493  154.1217 H   0  0  0  0  0  0  0  0  0  0  0  0
  147.9560  127.2407  153.5904 H   0  0  0  0  0  0  0  0  0  0  0  0
  145.7036  129.0526  150.8547 H   0  0  0  0  0  0  0  0  0  0  0  0
  145.5374  129.6623  152.4746 H   0  0  0  0  0  0  0  0  0  0  0  0
  146.3916  132.2177  149.5305 H   0  0  0  0  0  0  0  0  0  0  0  0
  145.7563  130.6168  149.2532 H   0  0  0  0  0  0  0  0  0  0  0  0
  143.9216  132.3105  149.5861 H   0  0  0  0  0  0  0  0  0  0  0  0
  143.8505  131.0970  150.8480 H   0  0  0  0  0  0  0  0  0  0  0  0
  144.6863  131.6720  153.0367 H   0  0  0  0  0  0  0  0  0  0  0  0
  145.8969  133.3484  154.4729 H   0  0  0  0  0  0  0  0  0  0  0  0
  145.8288  134.5031  153.1496 H   0  0  0  0  0  0  0  0  0  0  0  0
  143.3855  133.2934  154.3709 H   0  0  0  0  0  0  0  0  0  0  0  0
  141.3318  139.4897  152.9342 H   0  0  0  0  0  0  0  0  0  0  0  0
  138.8242  138.7147  153.5466 H   0  0  0  0  0  0  0  0  0  0  0  0
  147.2045  131.6142  153.1092 H   0  0  0  0  0  0  0  0  0  0  0  0
  147.2744  132.8074  151.8425 H   0  0  0  0  0  0  0  0  0  0  0  0
  147.5808  130.8186  150.8300 H   0  0  0  0  0  0  0  0  0  0  0  0
  1  2  1  0  0  0  0
  1 21  1  0  0  0  0
  1 22  1  0  0  0  0
  1 23  1  0  0  0  0
  2  3  1  0  0  0  0
  2  4  1  0  0  0  0
  2 24  1  0  0  0  0
  3 25  1  0  0  0  0
  3 26  1  0  0  0  0
  3 27  1  0  0  0  0
  4  5  1  0  0  0  0
  4 28  1  0  0  0  0
  4 29  1  0  0  0  0
  5 20  1  0  0  0  0
  5  6  1  0  0  0  0
  5 42  1  0  0  0  0
  6  7  1  0  0  0  0
  6 30  1  0  0  0  0
  6 31  1  0  0  0  0
  7  8  1  0  0  0  0
  7 32  1  0  0  0  0
  7 33  1  0  0  0  0
  8  9  1  0  0  0  0
  9 10  1  0  0  0  0
  9 20  1  0  0  0  0
  9 34  1  0  0  0  0
 10 11  1  0  0  0  0
 10 35  1  0  0  0  0
 10 36  1  0  0  0  0
 11 12  1  0  0  0  0
 11 37  1  0  0  0  0
 12 13  2  0  0  0  0
 12 14  1  0  0  0  0
 14 15  1  0  0  0  0
 15 19  1  0  0  0  0
 15 16  2  0  0  0  0
 16 17  1  0  0  0  0
 17 18  2  0  0  0  0
 17 38  1  0  0  0  0
 18 19  1  0  0  0  0
 18 39  1  0  0  0  0
 20 40  1  0  0  0  0
 20 41  1  0  0  0  0
M  CHG  1   5   1
M  CHG  1  14  -1
M  END
> <s_m_source_file>
AV-unprocessed.smi

> <i_m_source_file_index>
2062

> <i_lp_mmshare_version>
43012

> <i_f3d_flags>
0

> <s_epik_input>
W0NIM11bQ0hdKFtDSDNdKVtDSDJdTjFbQ0gyXVtDSDJdT1tDQEhdKFtDSDJdMSlbQ0gyXVtOSF1DKD1PKVtOSF1jMm5bY0hdW2NIXXMy

> <s_epik_cmdline>
J2VwaWtfcHl0aG9uJywgJy1waCcsICc3LjAnLCAnLXRuJywgJzgnLCAnLW1hJywgJzIwMCcsICctbWV0YWxfYmluZGluZycsICctaW1hZScsICc8aW5maWxlLm1hZT4nLCAnLW9tYWUnLCAnPG91dGZpbGUubWFlPic=

> <r_lp_tautomer_probability>
0.999

> <r_epik_Ionization_Penalty>
6.35835

> <r_epik_Ionization_Penalty_Charging>
5.49938

> <r_epik_Ionization_Penalty_Neutral>
0.858963

> <r_epik_State_Penalty>
5.49328

> <r_epik_Charging_Adjusted_Penalty>
10.9927

> <i_epik_Tot_Q>
0

> <i_epik_Tot_abs_Q>
2

> <r_epik_Metal_State_Penalty>
1.51523

> <b_epik_Metal_Only>
1

> <s_lp_Force_Field>
OPLS_2005

> <r_lp_Energy>
10.2516

> <b_lp_Chiralities_Consistent>
1

> <s_lp_Variant>
AV-unprocessed.smi:2062-9

> <Gold.Version>
5.8.1

> <Gold.Id.Protein>
6NUR|6NUR_protein|mol2

> <Gold.PLP.Fitness>
44.2124

> <Gold.PLP.PLP>
-34.4315

> <Gold.PLP.part.hbond>
-2.4210

> <Gold.PLP.part.metal>
0.0000

> <Gold.PLP.part.buried>
-3.2009

> <Gold.PLP.part.nonpolar>
-28.4889

> <Gold.PLP.part.repulsive>
0.4925

> <Gold.PLP.ligand.clash>
0.0000

> <Gold.PLP.ligand.torsion>
1.0754

> <Gold.PLP.Chemscore.Hbond>
1.9913

> <Gold.PLP.Chemscore.CHOScore>
1.9030

> <Gold.PLP.Chemscore.Metal>
0.0000

> <Gold.Chemscore.Hbonds>
donor molecule, donor type, donor heavy atom, donor atom, acceptor molecule, acceptor atom, score
      L1  H     5    42       P1 10747  0.91
      L1  H    11    37       P1 10957  1.00
      L1  C    17    38       P1 10160  0.90
      L1  C    17    38       P1 10175  1.00

> <Gold.PLP.Chemscore.Internal.Correction>
0.2489

> <Gold.Rescore>
     Score         DG    S(hbond)    S(metal)    S(lipo)     H(rot)  DE(clash)    DE(int)     intcor
     15.70     -18.89       1.99        0.00      95.37       1.72       0.14       3.05       ----

> <Gold.Chemscore.Fitness>
15.7004

> <Gold.Chemscore.DG>
-18.8883

> <Gold.Chemscore.ZeroCoef>
-5.4800

> <Gold.Chemscore.Hbond>
1.9914

> <Gold.Chemscore.Metal>
0.0000

> <Gold.Chemscore.Lipo>
95.3729

> <Gold.Chemscore.Internal_Hbond>
0.0000

> <Gold.Chemscore.DEClash>
0.1425

> <Gold.Chemscore.DEInternal>
3.0453

> <Gold.Chemscore.Rot>
1.7194

> <Gold.Chemscore.Internal.Correction>
   9.000000E+99

> <Gold.Chemscore.Hbonds>
donor molecule, donor type, donor heavy atom, donor atom, acceptor molecule, acceptor atom, score
      L1  H     5    42       P1 10747  0.89
      L1  H    11    37       P1 10957  1.00

> <Gold.Chemscore.Hbond.Weighted>
-6.6514

> <Gold.Chemscore.Metal.Weighted>
-0.0000

> <Gold.Chemscore.Lipo.Weighted>
-11.1586

> <Gold.Chemscore.Internal_Hbond.Weighted>
0.0000

> <Gold.Chemscore.DEClash.Weighted>
0.1425

> <Gold.Chemscore.DEInternal.Weighted>
3.0453

> <Gold.Chemscore.Rot.Weighted>
4.4017

> <Gold.Chemscore.Internal.Correction.Weighted>
   9.000000E+99

> <Gold.Protein.RotatedTorsions>
[ 6907 6896 6895 6894 ] final    6.32 input  -60.11 | X-H torsion
[ 7974 7965 7964 7962 ] final   19.50 input  175.53 | X-H torsion
[ 8008 7997 7996 7995 ] final   98.80 input   59.86 | X-H torsion
[ 10167 10162 10161 10158 ] final  122.79 input  -65.29 | X-H torsion
[ 10718 10713 10712 10709 ] final  178.40 input   66.30 | X-H torsion
[ 10763 10752 10751 10750 ] final  155.53 input  -60.55 | X-H torsion
[ 11005 11000 10999 10996 ] final  110.63 input  -57.11 | X-H torsion

> <Gold.Protein.ActiveResidues>
 VAL166  LYS551  ARG553  GLY616  TRP617  ASP618  TYR619  PRO620  LYS621  CYS622 
 ASP623  PHE694  ASN695  SER759  ASP760  ASP761  ALA762  ILE779  LEU786  VAL792 
 PHE793  MET794  SER795  GLU796  ALA797  LYS798  CYS799  TRP800  GLU811  SER814 

> <Gold.Protein.RotatedAtoms>
  151.6718  135.0975  160.0199 H   0  0  0  0  0  0  0  0  0  0  0  0  # atno 6907 bound_to 6896
  152.3887  133.6643  159.6228 H   0  0  0  0  0  0  0  0  0  0  0  0  # atno 6908 bound_to 6896
  150.7807  133.8908  159.3354 H   0  0  0  0  0  0  0  0  0  0  0  0  # atno 6909 bound_to 6896
  146.2147  139.8304  142.8661 H   0  0  0  0  0  0  0  0  0  0  0  0  # atno 7974 bound_to 7965
  156.1041  140.3238  155.7982 H   0  0  0  0  0  0  0  0  0  0  0  0  # atno 8008 bound_to 7997
  155.4786  140.0552  157.2987 H   0  0  0  0  0  0  0  0  0  0  0  0  # atno 8009 bound_to 7997
  154.4716  140.2014  155.9995 H   0  0  0  0  0  0  0  0  0  0  0  0  # atno 8010 bound_to 7997
  139.5837  144.6997  151.3462 H   0  0  0  0  0  0  0  0  0  0  0  0  # atno 10167 bound_to 10162
  156.8912  130.9848  151.3049 H   0  0  0  0  0  0  0  0  0  0  0  0  # atno 10718 bound_to 10713
  154.1698  135.2805  155.3084 H   0  0  0  0  0  0  0  0  0  0  0  0  # atno 10763 bound_to 10752
  154.6084  135.5507  153.7450 H   0  0  0  0  0  0  0  0  0  0  0  0  # atno 10764 bound_to 10752
  153.0168  135.6409  154.1838 H   0  0  0  0  0  0  0  0  0  0  0  0  # atno 10765 bound_to 10752
  139.8886  134.9488  156.6308 H   0  0  0  0  0  0  0  0  0  0  0  0  # atno 11005 bound_to 11000
  145.3003  141.0192  143.3612 LP  0  0  0  0  0  0  0  0  0  0  0  0  # atno 17320 bound_to 7965
  144.9011  139.4648  143.6632 LP  0  0  0  0  0  0  0  0  0  0  0  0  # atno 17321 bound_to 7965
  140.7112  143.7385  150.7571 LP  0  0  0  0  0  0  0  0  0  0  0  0  # atno 17342 bound_to 10162
  140.0924  143.4865  152.2471 LP  0  0  0  0  0  0  0  0  0  0  0  0  # atno 17343 bound_to 10162
  157.6083  130.8563  149.8910 LP  0  0  0  0  0  0  0  0  0  0  0  0  # atno 17370 bound_to 10713
  156.0628  130.3697  150.0944 LP  0  0  0  0  0  0  0  0  0  0  0  0  # atno 17371 bound_to 10713
  140.7668  133.8771  155.8461 LP  0  0  0  0  0  0  0  0  0  0  0  0  # atno 17394 bound_to 11000
  140.9875  134.1322  157.4438 LP  0  0  0  0  0  0  0  0  0  0  0  0  # atno 17395 bound_to 11000

$$$$
