AV-unprocessed.smi:2390|AV-procd|sdf|9479|dock2
  -GOLD-   2272013103D 1   1.00000     0.00000
 Structure written by MMmdl.
 46 47  0  0  0  0  0  0  0  0  2 V2000
  146.3043  130.3469  152.1078 C   0  0  0  0  0  0  0  0  0  0  0  0
  145.6081  131.5798  151.5704 C   0  0  0  0  0  0  0  0  0  0  0  0
  144.3875  131.4790  150.8745 C   0  0  0  0  0  0  0  0  0  0  0  0
  143.7940  132.6632  150.4018 C   0  0  0  0  0  0  0  0  0  0  0  0
  144.4412  133.8908  150.6417 C   0  0  0  0  0  0  0  0  0  0  0  0
  145.6636  133.9046  151.3504 C   0  0  0  0  0  0  0  0  0  0  0  0
  146.2406  135.1892  151.5345 N   0  0  0  0  0  0  0  0  0  0  0  0
  145.6149  136.3425  151.8272 C   0  0  0  0  0  0  0  0  0  0  0  0
  144.3956  136.4884  151.9121 O   0  0  0  0  0  0  0  0  0  0  0  0
  146.4940  137.3352  152.0339 N   0  0  0  0  0  0  0  0  0  0  0  0
  146.1690  138.7262  152.3629 C   0  0  2  0  0  0  0  0  0  0  0  0
  146.7443  139.6206  151.2518 C   0  0  0  0  0  0  0  0  0  0  0  0
  146.6884  139.1046  153.7801 C   0  0  1  0  0  0  0  0  0  0  0  0
  148.2250  139.0195  153.9076 C   0  0  0  0  0  0  0  0  0  0  0  0
  146.1537  140.4276  154.2214 N   0  3  0  0  0  0  0  0  0  0  0  0
  145.9869  140.5647  155.6877 C   0  0  0  0  0  0  0  0  0  0  0  0
  145.2471  141.8756  156.0085 C   0  0  0  0  0  0  0  0  0  0  0  0
  145.9509  142.9787  155.4489 O   0  0  0  0  0  0  0  0  0  0  0  0
  146.0527  142.8887  154.0321 C   0  0  0  0  0  0  0  0  0  0  0  0
  146.8364  141.6202  153.6595 C   0  0  0  0  0  0  0  0  0  0  0  0
  146.2294  132.7566  151.8000 N   0  0  0  0  0  0  0  0  0  0  0  0
  145.7129  129.4484  151.9291 H   0  0  0  0  0  0  0  0  0  0  0  0
  146.4647  130.4395  153.1824 H   0  0  0  0  0  0  0  0  0  0  0  0
  147.2735  130.2187  151.6250 H   0  0  0  0  0  0  0  0  0  0  0  0
  143.9159  130.5221  150.7062 H   0  0  0  0  0  0  0  0  0  0  0  0
  142.8580  132.6316  149.8635 H   0  0  0  0  0  0  0  0  0  0  0  0
  143.9984  134.8092  150.2842 H   0  0  0  0  0  0  0  0  0  0  0  0
  147.2464  135.2271  151.4584 H   0  0  0  0  0  0  0  0  0  0  0  0
  147.4753  137.1174  151.9372 H   0  0  0  0  0  0  0  0  0  0  0  0
  145.0853  138.8522  152.3393 H   0  0  0  0  0  0  0  0  0  0  0  0
  146.4257  140.6568  151.3618 H   0  0  0  0  0  0  0  0  0  0  0  0
  146.4056  139.2896  150.2693 H   0  0  0  0  0  0  0  0  0  0  0  0
  147.8347  139.6029  151.2497 H   0  0  0  0  0  0  0  0  0  0  0  0
  146.2737  138.3590  154.4605 H   0  0  0  0  0  0  0  0  0  0  0  0
  148.5779  137.9959  153.7845 H   0  0  0  0  0  0  0  0  0  0  0  0
  148.5642  139.3489  154.8896 H   0  0  0  0  0  0  0  0  0  0  0  0
  148.7281  139.6297  153.1570 H   0  0  0  0  0  0  0  0  0  0  0  0
  145.4181  139.7220  156.0820 H   0  0  0  0  0  0  0  0  0  0  0  0
  146.9615  140.5544  156.1772 H   0  0  0  0  0  0  0  0  0  0  0  0
  144.2268  141.8495  155.6224 H   0  0  0  0  0  0  0  0  0  0  0  0
  145.1754  142.0126  157.0876 H   0  0  0  0  0  0  0  0  0  0  0  0
  145.0592  142.8819  153.5806 H   0  0  0  0  0  0  0  0  0  0  0  0
  146.5679  143.7732  153.6571 H   0  0  0  0  0  0  0  0  0  0  0  0
  147.8518  141.6964  154.0503 H   0  0  0  0  0  0  0  0  0  0  0  0
  146.9147  141.5405  152.5755 H   0  0  0  0  0  0  0  0  0  0  0  0
  145.2142  140.4569  153.8511 H   0  0  0  0  0  0  0  0  0  0  0  0
  1  2  1  0  0  0  0
  1 22  1  0  0  0  0
  1 23  1  0  0  0  0
  1 24  1  0  0  0  0
  2 21  1  0  0  0  0
  2  3  2  0  0  0  0
  3  4  1  0  0  0  0
  3 25  1  0  0  0  0
  4  5  2  0  0  0  0
  4 26  1  0  0  0  0
  5  6  1  0  0  0  0
  5 27  1  0  0  0  0
  6  7  1  0  0  0  0
  6 21  2  0  0  0  0
  7  8  1  0  0  0  0
  7 28  1  0  0  0  0
  8  9  2  0  0  0  0
  8 10  1  0  0  0  0
 10 11  1  0  0  0  0
 10 29  1  0  0  0  0
 11 12  1  0  0  0  0
 11 13  1  0  0  0  0
 11 30  1  0  0  0  0
 12 31  1  0  0  0  0
 12 32  1  0  0  0  0
 12 33  1  0  0  0  0
 13 14  1  0  0  0  0
 13 15  1  0  0  0  0
 13 34  1  0  0  0  0
 14 35  1  0  0  0  0
 14 36  1  0  0  0  0
 14 37  1  0  0  0  0
 15 20  1  0  0  0  0
 15 16  1  0  0  0  0
 15 46  1  0  0  0  0
 16 17  1  0  0  0  0
 16 38  1  0  0  0  0
 16 39  1  0  0  0  0
 17 18  1  0  0  0  0
 17 40  1  0  0  0  0
 17 41  1  0  0  0  0
 18 19  1  0  0  0  0
 19 20  1  0  0  0  0
 19 42  1  0  0  0  0
 19 43  1  0  0  0  0
 20 44  1  0  0  0  0
 20 45  1  0  0  0  0
M  CHG  1  15   1
M  END
> <s_m_source_file>
AV-unprocessed.smi

> <i_m_source_file_index>
2390

> <i_lp_mmshare_version>
43012

> <i_f3d_flags>
0

> <s_epik_input>
W0NIM11jMVtjSF1bY0hdW2NIXWMobjEpW05IXUMoPU8pW05IXVtDQEhdKFtDSDNdKVtDQEhdKFtDSDNdKU4yW0NIMl1bQ0gyXU9bQ0gyXVtDSDJdMg==

> <s_epik_cmdline>
J2VwaWtfcHl0aG9uJywgJy1waCcsICc3LjAnLCAnLXRuJywgJzgnLCAnLW1hJywgJzIwMCcsICctbWV0YWxfYmluZGluZycsICctaW1hZScsICc8aW5maWxlLm1hZT4nLCAnLW9tYWUnLCAnPG91dGZpbGUubWFlPic=

> <r_epik_Ionization_Penalty>
0.60259

> <r_epik_Ionization_Penalty_Charging>
0.602531

> <r_epik_Ionization_Penalty_Neutral>
5.9516e-05

> <r_epik_State_Penalty>
0.617039

> <r_epik_Charging_Adjusted_Penalty>
1.21957

> <i_epik_Tot_Q>
1

> <i_epik_Tot_abs_Q>
1

> <r_epik_Metal_State_Penalty>
0.617047

> <b_epik_Metal_Only>
0

> <s_lp_Force_Field>
OPLS_2005

> <r_lp_Energy>
26.9068

> <b_lp_Chiralities_Consistent>
1

> <s_lp_Variant>
AV-unprocessed.smi:2390-7

> <Gold.Version>
5.8.1

> <Gold.Id.Protein>
6NUR|6NUR_protein|mol2

> <Gold.PLP.Fitness>
46.8609

> <Gold.PLP.PLP>
-36.2957

> <Gold.PLP.part.hbond>
-3.0000

> <Gold.PLP.part.metal>
0.0000

> <Gold.PLP.part.buried>
-3.4686

> <Gold.PLP.part.nonpolar>
-31.6281

> <Gold.PLP.part.repulsive>
1.7423

> <Gold.PLP.ligand.clash>
0.0000

> <Gold.PLP.ligand.torsion>
0.7776

> <Gold.PLP.Chemscore.Hbond>
3.9920

> <Gold.PLP.Chemscore.CHOScore>
0.0000

> <Gold.PLP.Chemscore.Metal>
0.0000

> <Gold.Chemscore.Hbonds>
donor molecule, donor type, donor heavy atom, donor atom, acceptor molecule, acceptor atom, score
      L1  H     7    28       P1  7948  0.99
      L1  H    10    29       P1  7948  1.00
      L1  H    15    46       P1 10175  1.89

> <Gold.PLP.Chemscore.Internal.Correction>
0.1445

> <Gold.Rescore>
     Score         DG    S(hbond)    S(metal)    S(lipo)     H(rot)  DE(clash)    DE(int)     intcor
     17.76     -21.46       2.86        0.00      87.58       1.48       1.54       2.17       ----

> <Gold.Chemscore.Fitness>
17.7576

> <Gold.Chemscore.DG>
-21.4634

> <Gold.Chemscore.ZeroCoef>
-5.4800

> <Gold.Chemscore.Hbond>
2.8552

> <Gold.Chemscore.Metal>
0.0000

> <Gold.Chemscore.Lipo>
87.5800

> <Gold.Chemscore.Internal_Hbond>
0.0000

> <Gold.Chemscore.DEClash>
1.5384

> <Gold.Chemscore.DEInternal>
2.1674

> <Gold.Chemscore.Rot>
1.4844

> <Gold.Chemscore.Internal.Correction>
   9.000000E+99

> <Gold.Chemscore.Hbonds>
donor molecule, donor type, donor heavy atom, donor atom, acceptor molecule, acceptor atom, score
      L1  H     7    28       P1  7948  0.78
      L1  H    10    29       P1  7948  1.00
      L1  H    15    46       P1 10175  0.89

> <Gold.Chemscore.Hbond.Weighted>
-9.5365

> <Gold.Chemscore.Metal.Weighted>
-0.0000

> <Gold.Chemscore.Lipo.Weighted>
-10.2469

> <Gold.Chemscore.Internal_Hbond.Weighted>
0.0000

> <Gold.Chemscore.DEClash.Weighted>
1.5384

> <Gold.Chemscore.DEInternal.Weighted>
2.1674

> <Gold.Chemscore.Rot.Weighted>
3.8000

> <Gold.Chemscore.Internal.Correction.Weighted>
   9.000000E+99

> <Gold.Protein.RotatedTorsions>
[ 6907 6896 6895 6894 ] final  -31.90 input  -60.11 | X-H torsion
[ 7974 7965 7964 7962 ] final  141.95 input  175.53 | X-H torsion
[ 8008 7997 7996 7995 ] final -110.32 input   59.86 | X-H torsion
[ 10167 10162 10161 10158 ] final -124.03 input  -65.29 | X-H torsion
[ 10718 10713 10712 10709 ] final   -8.66 input   66.30 | X-H torsion
[ 10763 10752 10751 10750 ] final  -62.61 input  -60.55 | X-H torsion
[ 11005 11000 10999 10996 ] final  104.96 input  -57.11 | X-H torsion

> <Gold.Protein.ActiveResidues>
 VAL166  LYS551  ARG553  GLY616  TRP617  ASP618  TYR619  PRO620  LYS621  CYS622 
 ASP623  PHE694  ASN695  SER759  ASP760  ASP761  ALA762  ILE779  LEU786  VAL792 
 PHE793  MET794  SER795  GLU796  ALA797  LYS798  CYS799  TRP800  GLU811  SER814 

> <Gold.Protein.RotatedAtoms>
  151.0859  134.9887  159.8378 H   0  0  0  0  0  0  0  0  0  0  0  0  # atno 6907 bound_to 6896
  152.5424  134.2125  159.8765 H   0  0  0  0  0  0  0  0  0  0  0  0  # atno 6908 bound_to 6896
  151.2158  133.4486  159.2633 H   0  0  0  0  0  0  0  0  0  0  0  0  # atno 6909 bound_to 6896
  144.9050  139.5370  143.5735 H   0  0  0  0  0  0  0  0  0  0  0  0  # atno 7974 bound_to 7965
  154.9727  140.0397  157.2242 H   0  0  0  0  0  0  0  0  0  0  0  0  # atno 8008 bound_to 7997
  154.7786  140.2814  155.6059 H   0  0  0  0  0  0  0  0  0  0  0  0  # atno 8009 bound_to 7997
  156.2932  140.2596  156.2606 H   0  0  0  0  0  0  0  0  0  0  0  0  # atno 8010 bound_to 7997
  139.9971  143.5579  152.2318 H   0  0  0  0  0  0  0  0  0  0  0  0  # atno 10167 bound_to 10162
  156.6994  130.5089  149.5921 H   0  0  0  0  0  0  0  0  0  0  0  0  # atno 10718 bound_to 10713
  154.3025  135.6232  153.5431 H   0  0  0  0  0  0  0  0  0  0  0  0  # atno 10763 bound_to 10752
  152.9839  135.5682  154.5268 H   0  0  0  0  0  0  0  0  0  0  0  0  # atno 10764 bound_to 10752
  154.4901  135.2867  155.1479 H   0  0  0  0  0  0  0  0  0  0  0  0  # atno 10765 bound_to 10752
  139.8797  134.9319  156.5441 H   0  0  0  0  0  0  0  0  0  0  0  0  # atno 11005 bound_to 11000
  146.3129  139.7811  142.9006 LP  0  0  0  0  0  0  0  0  0  0  0  0  # atno 17320 bound_to 7965
  145.3551  141.0315  143.3317 LP  0  0  0  0  0  0  0  0  0  0  0  0  # atno 17321 bound_to 7965
  139.6298  144.7642  151.2561 LP  0  0  0  0  0  0  0  0  0  0  0  0  # atno 17342 bound_to 10162
  140.7433  143.6500  150.8257 LP  0  0  0  0  0  0  0  0  0  0  0  0  # atno 17343 bound_to 10162
  156.1740  130.6455  151.0871 LP  0  0  0  0  0  0  0  0  0  0  0  0  # atno 17370 bound_to 10713
  157.6979  131.0787  150.6913 LP  0  0  0  0  0  0  0  0  0  0  0  0  # atno 17371 bound_to 10713
  140.8289  133.8295  155.8965 LP  0  0  0  0  0  0  0  0  0  0  0  0  # atno 17394 bound_to 11000
  140.9348  134.1976  157.4839 LP  0  0  0  0  0  0  0  0  0  0  0  0  # atno 17395 bound_to 11000

$$$$
