#       Name:                AV-unprocessed.smi:893
#       Creating user name   scv26
#       Creation time:       Fri Mar 27 01:55:37 2020


#       File generated by GOLD software.
#

@<TRIPOS>MOLECULE
AV-unprocessed.smi:893
    32    33     1
SMALL
NO_CHARGES


@<TRIPOS>ATOM
      1 ****        -2.3006   0.9991  -1.0058 C.3            1 S1                 0.0000
      2 ****        -1.6817  -0.4068  -1.0516 C.3            1 S1                 0.0000
      3 ****        -0.1376  -0.4191  -0.9521 C.3            1 S1                 0.0000
      4 ****         0.3698   0.1430   0.3632 C.2            1 S1                 0.0000
      5 ****         1.3168   1.1888   0.5758 C.2            1 S1                 0.0000
      6 ****         1.5380   1.4379   1.8557 N.2            1 S1                 0.0000
      7 ****         0.7450   0.5654   2.5083 N.pl3          1 S1                 0.0000
      8 ****         0.7342   0.5555   3.9554 C.3            1 S1                 0.0000
      9 ****         0.0286  -0.2249   1.6366 C.2            1 S1                 0.0000
     10 ****         0.4696   0.2285  -2.1070 N.am           1 S1                 0.0000
     11 ****         1.2586  -0.5931  -2.8125 C.2            1 S1                 0.0000
     12 ****         1.8989  -0.2938  -3.8173 O.2            1 S1                 0.0000
     13 ****         1.2192  -1.7966  -2.2332 N.am           1 S1                 0.0000
     14 ****         0.4290  -1.8193  -1.1612 C.2            1 S1                 0.0000
     15 ****         0.1845  -2.7925  -0.4492 O.2            1 S1                 0.0000
     16 ****        -3.3865   0.9443  -1.0828 H              1 S1                 0.0000
     17 ****        -1.9435   1.6184  -1.8287 H              1 S1                 0.0000
     18 ****        -2.0630   1.5106  -0.0729 H              1 S1                 0.0000
     19 ****        -2.1071  -1.0030  -0.2431 H              1 S1                 0.0000
     20 ****        -1.9965  -0.8939  -1.9761 H              1 S1                 0.0000
     21 ****         1.8485   1.7731  -0.1607 H              1 S1                 0.0000
     22 ****         0.0794  -0.2367   4.3198 H              1 S1                 0.0000
     23 ****         0.3729   1.5143   4.3283 H              1 S1                 0.0000
     24 ****         1.7431   0.3815   4.3311 H              1 S1                 0.0000
     25 ****        -0.6586  -0.9806   1.9880 H              1 S1                 0.0000
     26 ****         0.3160   1.2009  -2.3313 H              1 S1                 0.0000
     27 ****         1.7221  -2.6015  -2.5774 H              1 S1                 0.0000
     28 ****         2.1544   2.1196   2.2500 LP             1 S1                 0.0000
     29 ****         1.8572   0.6381  -4.1776 LP             1 S1                 0.0000
     30 ****         2.4618  -0.9821  -4.2749 LP             1 S1                 0.0000
     31 ****        -0.4278  -2.6966   0.3356 LP             1 S1                 0.0000
     32 ****         0.5982  -3.6793  -0.6552 LP             1 S1                 0.0000
@<TRIPOS>BOND
    1    1    2 1     
    2    1   16 1     
    3    1   17 1     
    4    1   18 1     
    5    2    3 1     
    6    2   19 1     
    7    2   20 1     
    8    3   14 1     
    9    3    4 1     
   10    3   10 1     
   11    4    9 2     
   12    4    5 1     
   13    5    6 2     
   14    5   21 1     
   15    6    7 1     
   16    7    8 1     
   17    7    9 1     
   18    8   22 1     
   19    8   23 1     
   20    8   24 1     
   21    9   25 1     
   22   10   11 am    
   23   10   26 1     
   24   11   12 2     
   25   11   13 am    
   26   13   14 am    
   27   13   27 1     
   28   14   15 2     
   29    6   28 1     
   30   12   29 1     
   31   12   30 1     
   32   15   31 1     
   33   15   32 1     
@<TRIPOS>SUBSTRUCTURE
      1 S1             1
@<TRIPOS>SET
LONE_PAIRS      STATIC     ATOMS    <user>   **** ""
5 28 29 30 31 32
DONOR_HYDROGENS      STATIC     ATOMS    <user>   **** ""
2 26 27
ATOM$BLUE        STATIC     ATOMS    COLORGROUP SYSTEM
5 28 29 30 31 32
ATOM$RED        STATIC     ATOMS    COLORGROUP SYSTEM
2 26 27
