#       Name:                AV-unprocessed.smi:61
#       Creating user name   scv26
#       Creation time:       Thu Mar 26 16:49:12 2020


#       File generated by GOLD software.
#

@<TRIPOS>MOLECULE
AV-unprocessed.smi:61
    33    34     1
SMALL
NO_CHARGES


@<TRIPOS>ATOM
      1 ****        -3.3109   2.0118  -0.3347 N.pl3          1 S1                 0.0000
      2 ****        -2.6654   0.7991  -0.3762 C.ar           1 S1                 0.0000
      3 ****        -3.4036  -0.3191  -0.4346 N.pl3          1 S1                 1.0000
      4 ****        -2.7868  -1.5256  -0.4799 C.ar           1 S1                 0.0000
      5 ****        -1.3823  -1.6056  -0.4655 C.ar           1 S1                 0.0000
      6 ****        -0.6755  -0.3924  -0.4004 C.ar           1 S1                 0.0000
      7 ****         0.7274  -0.4059  -0.3856 N.3            1 S1                 0.0000
      8 ****         1.3577   0.1371  -1.5857 C.3            1 S1                 0.0000
      9 ****         2.5917   0.9274  -1.1242 C.3            1 S1                 0.0000
     10 ****         2.8038   0.4880   0.3226 C.3            1 S1                 0.0000
     11 ****         1.3708   0.2036   0.7728 C.3            1 S1                 0.0000
     12 ****         1.2187  -0.6197   2.0683 C.3            1 S1                 0.0000
     13 ****         1.9149  -1.8469   1.9918 O.3            1 S1                 0.0000
     14 ****        -1.3279   0.7919  -0.3570 N.ar           1 S1                 0.0000
     15 ****        -2.7815   2.8708  -0.2909 H              1 S1                 0.0000
     16 ****        -4.3177   2.0607  -0.3931 H              1 S1                 0.0000
     17 ****        -3.4373  -2.3867  -0.5268 H              1 S1                 0.0000
     18 ****        -0.8710  -2.5569  -0.5004 H              1 S1                 0.0000
     19 ****         1.6603  -0.6984  -2.2174 H              1 S1                 0.0000
     20 ****         0.6853   0.7650  -2.1721 H              1 S1                 0.0000
     21 ****         3.4656   0.7502  -1.7516 H              1 S1                 0.0000
     22 ****         2.3720   1.9956  -1.1530 H              1 S1                 0.0000
     23 ****         3.4115  -0.4176   0.3454 H              1 S1                 0.0000
     24 ****         3.2985   1.2461   0.9302 H              1 S1                 0.0000
     25 ****         0.8935   1.1693   0.9474 H              1 S1                 0.0000
     26 ****         1.6197  -0.0553   2.9104 H              1 S1                 0.0000
     27 ****         0.1688  -0.8133   2.2905 H              1 S1                 0.0000
     28 ****         1.8239  -2.2977   2.8175 H              1 S1                 0.0000
     29 ****        -4.4228  -0.2754  -0.4468 H              1 S1                 0.0000
     30 ****         0.8843  -1.3924  -0.3385 LP             1 S1                 0.0000
     31 ****         2.8824  -1.6743   1.8072 LP             1 S1                 0.0000
     32 ****         1.5303  -2.4071   1.2581 LP             1 S1                 0.0000
     33 ****        -0.8172   1.6504  -0.3112 LP             1 S1                 0.0000
@<TRIPOS>BOND
    1    1    2 1     
    2    1   15 1     
    3    1   16 1     
    4    2   14 ar    
    5    2    3 ar    
    6    3    4 ar    
    7    3   29 1     
    8    4    5 ar    
    9    4   17 1     
   10    5    6 ar    
   11    5   18 1     
   12    6    7 1     
   13    6   14 ar    
   14    7   11 1     
   15    7    8 1     
   16    8    9 1     
   17    8   19 1     
   18    8   20 1     
   19    9   10 1     
   20    9   21 1     
   21    9   22 1     
   22   10   11 1     
   23   10   23 1     
   24   10   24 1     
   25   11   12 1     
   26   11   25 1     
   27   12   13 1     
   28   12   26 1     
   29   12   27 1     
   30   13   28 1     
   31    7   30 1     
   32   13   31 1     
   33   13   32 1     
   34   14   33 1     
@<TRIPOS>SUBSTRUCTURE
      1 S1             1
@<TRIPOS>SET
LONE_PAIRS      STATIC     ATOMS    <user>   **** ""
4 30 31 32 33
DONOR_HYDROGENS      STATIC     ATOMS    <user>   **** ""
4 15 16 29 28
ATOM$BLUE        STATIC     ATOMS    COLORGROUP SYSTEM
4 30 31 32 33
ATOM$RED        STATIC     ATOMS    COLORGROUP SYSTEM
4 15 16 29 28
