#       Name:                AV-unprocessed.smi:447
#       Creating user name   scv26
#       Creation time:       Thu Mar 26 22:59:53 2020


#       File generated by GOLD software.
#

@<TRIPOS>MOLECULE
AV-unprocessed.smi:447
    50    52     1
SMALL
NO_CHARGES


@<TRIPOS>ATOM
      1 ****        -3.1611   3.2781  -0.7657 C.3            1 S1                 0.0000
      2 ****        -2.2761   2.0600  -0.5280 C.2            1 S1                 0.0000
      3 ****        -1.8677   1.8058   0.6032 O.2            1 S1                 0.0000
      4 ****        -1.9834   1.3169  -1.6062 N.am           1 S1                 0.0000
      5 ****        -1.2090   0.0765  -1.6012 C.3            1 S1                 0.0000
      6 ****        -1.3312  -0.5963  -2.9757 C.3            1 S1                 0.0000
      7 ****         0.2380   0.2734  -1.2423 C.2            1 S1                 0.0000
      8 ****         0.9599   1.4208  -1.4014 N.pl3          1 S1                 1.0000
      9 ****         2.2739   1.2196  -0.9814 C.ar           1 S1                 0.0000
     10 ****         3.3625   2.0854  -0.9467 C.ar           1 S1                 0.0000
     11 ****         4.5775   1.5551  -0.4653 C.ar           1 S1                 0.0000
     12 ****         4.6772   0.2128  -0.0452 C.ar           1 S1                 0.0000
     13 ****         3.5662  -0.6551  -0.0863 C.ar           1 S1                 0.0000
     14 ****         2.3669  -0.1208  -0.5570 C.ar           1 S1                 0.0000
     15 ****         1.0889  -0.6646  -0.7293 N.pl3          1 S1                 0.0000
     16 ****         0.8642  -2.0776  -0.3821 C.3            1 S1                 0.0000
     17 ****         0.7857  -2.3303   1.1380 C.3            1 S1                 0.0000
     18 ****         0.7377  -3.7265   1.3427 O.3            1 S1                 0.0000
     19 ****        -0.3861  -1.6192   1.7983 C.ar           1 S1                 0.0000
     20 ****        -0.1536  -0.5184   2.6507 C.ar           1 S1                 0.0000
     21 ****        -1.2326   0.1329   3.2791 C.ar           1 S1                 0.0000
     22 ****        -2.5509  -0.3057   3.0504 C.ar           1 S1                 0.0000
     23 ****        -2.7896  -1.3975   2.1941 C.ar           1 S1                 0.0000
     24 ****        -1.7103  -2.0549   1.5729 C.ar           1 S1                 0.0000
     25 ****        -2.7512   3.9016  -1.5607 H              1 S1                 0.0000
     26 ****        -3.2373   3.8841   0.1378 H              1 S1                 0.0000
     27 ****        -4.1655   2.9657  -1.0524 H              1 S1                 0.0000
     28 ****        -2.3620   1.6098  -2.4953 H              1 S1                 0.0000
     29 ****        -1.6566  -0.5842  -0.8583 H              1 S1                 0.0000
     30 ****        -0.8201  -1.5589  -2.9940 H              1 S1                 0.0000
     31 ****        -0.8965   0.0232  -3.7609 H              1 S1                 0.0000
     32 ****        -2.3753  -0.7769  -3.2334 H              1 S1                 0.0000
     33 ****         3.2891   3.1129  -1.2718 H              1 S1                 0.0000
     34 ****         5.4509   2.1895  -0.4198 H              1 S1                 0.0000
     35 ****         5.6253  -0.1592   0.3156 H              1 S1                 0.0000
     36 ****         3.6537  -1.6822   0.2357 H              1 S1                 0.0000
     37 ****        -0.0506  -2.4106  -0.8722 H              1 S1                 0.0000
     38 ****         1.6740  -2.6580  -0.8267 H              1 S1                 0.0000
     39 ****         1.7060  -1.9881   1.6109 H              1 S1                 0.0000
     40 ****         0.7714  -3.8942   2.2723 H              1 S1                 0.0000
     41 ****         0.8534  -0.1709   2.8292 H              1 S1                 0.0000
     42 ****        -1.0496   0.9735   3.9317 H              1 S1                 0.0000
     43 ****        -3.3782   0.1983   3.5275 H              1 S1                 0.0000
     44 ****        -3.8005  -1.7328   2.0156 H              1 S1                 0.0000
     45 ****        -1.9023  -2.8939   0.9202 H              1 S1                 0.0000
     46 ****         0.5727   2.2809  -1.7675 H              1 S1                 0.0000
     47 ****        -2.1159   2.3986   1.3694 LP             1 S1                 0.0000
     48 ****        -1.2871   1.0063   0.7573 LP             1 S1                 0.0000
     49 ****         1.5184  -4.1605   0.8930 LP             1 S1                 0.0000
     50 ****        -0.1117  -4.0941   0.9641 LP             1 S1                 0.0000
@<TRIPOS>BOND
    1    1    2 1     
    2    1   25 1     
    3    1   26 1     
    4    1   27 1     
    5    2    3 2     
    6    2    4 am    
    7    4    5 1     
    8    4   28 1     
    9    5    6 1     
   10    5    7 1     
   11    5   29 1     
   12    6   30 1     
   13    6   31 1     
   14    6   32 1     
   15    7   15 1     
   16    7    8 2     
   17    8    9 1     
   18    8   46 1     
   19    9   14 ar    
   20    9   10 ar    
   21   10   11 ar    
   22   10   33 1     
   23   11   12 ar    
   24   11   34 1     
   25   12   13 ar    
   26   12   35 1     
   27   13   14 ar    
   28   13   36 1     
   29   14   15 1     
   30   15   16 1     
   31   16   17 1     
   32   16   37 1     
   33   16   38 1     
   34   17   18 1     
   35   17   19 1     
   36   17   39 1     
   37   18   40 1     
   38   19   24 ar    
   39   19   20 ar    
   40   20   21 ar    
   41   20   41 1     
   42   21   22 ar    
   43   21   42 1     
   44   22   23 ar    
   45   22   43 1     
   46   23   24 ar    
   47   23   44 1     
   48   24   45 1     
   49    3   47 1     
   50    3   48 1     
   51   18   49 1     
   52   18   50 1     
@<TRIPOS>SUBSTRUCTURE
      1 S1             1
@<TRIPOS>SET
LONE_PAIRS      STATIC     ATOMS    <user>   **** ""
4 47 48 49 50
DONOR_HYDROGENS      STATIC     ATOMS    <user>   **** ""
3 28 46 40
ATOM$BLUE        STATIC     ATOMS    COLORGROUP SYSTEM
4 47 48 49 50
ATOM$RED        STATIC     ATOMS    COLORGROUP SYSTEM
3 28 46 40
