AV-unprocessed.smi:213|AV-procd|sdf|1640|dock8
  -GOLD-   2262020 03D 1   1.00000     0.00000
 Structure written by MMmdl.
 59 62  0  0  0  0  0  0  0  0  2 V2000
  151.4786  140.3030  158.6613 C   0  0  0  0  0  0  0  0  0  0  0  0
  150.6766  141.1370  157.6445 C   0  0  1  0  0  0  0  0  0  0  0  0
  151.3370  142.5068  157.3617 C   0  0  0  0  0  0  0  0  0  0  0  0
  151.2608  143.4306  158.5208 N   0  3  0  0  0  0  0  0  0  0  0  0
  149.8837  143.5550  159.0549 C   0  0  0  0  0  0  0  0  0  0  0  0
  149.8462  144.5539  160.2238 C   0  0  0  0  0  0  0  0  0  0  0  0
  150.7558  144.1394  161.2351 O   0  0  0  0  0  0  0  0  0  0  0  0
  152.0961  144.1013  160.7614 C   0  0  0  0  0  0  0  0  0  0  0  0
  152.2087  143.0872  159.6106 C   0  0  0  0  0  0  0  0  0  0  0  0
  150.4526  140.3845  156.4021 N   0  0  0  0  0  0  0  0  0  0  0  0
  151.5786  139.7382  155.7307 C   0  0  0  0  0  0  0  0  0  0  0  0
  149.3567  140.6545  155.6358 C   0  0  0  0  0  0  0  0  0  0  0  0
  149.2798  140.1428  154.3764 N   0  0  0  0  0  0  0  0  0  0  0  0
  148.2168  140.3814  153.6040 C   0  0  0  0  0  0  0  0  0  0  0  0
  147.1287  141.0988  153.8832 N   0  0  0  0  0  0  0  0  0  0  0  0
  147.1953  141.6241  155.1392 C   0  0  0  0  0  0  0  0  0  0  0  0
  148.2587  141.4556  156.0730 C   0  0  0  0  0  0  0  0  0  0  0  0
  147.9659  142.1546  157.2402 N   0  0  0  0  0  0  0  0  0  0  0  0
  146.7979  142.6910  157.0139 C   0  0  0  0  0  0  0  0  0  0  0  0
  146.2630  142.4225  155.7757 N   0  0  0  0  0  0  0  0  0  0  0  0
  144.9888  142.8870  155.2570 C   0  0  0  0  0  0  0  0  0  0  0  0
  145.0184  144.3809  154.8813 C   0  0  1  0  0  0  0  0  0  0  0  0
  144.8940  144.5446  153.4807 O   0  0  0  0  0  0  0  0  0  0  0  0
  143.9462  145.2038  155.6233 C   0  0  1  0  0  0  0  0  0  0  0  0
  144.0582  146.7334  155.5133 C   0  0  0  0  0  0  0  0  0  0  0  0
  142.6257  147.1904  155.2755 C   0  0  0  0  0  0  0  0  0  0  0  0
  141.7907  145.9499  155.5788 C   0  0  0  0  0  0  0  0  0  0  0  0
  142.6348  144.8839  155.1779 O   0  0  0  0  0  0  0  0  0  0  0  0
  151.5354  140.8082  159.6257 H   0  0  0  0  0  0  0  0  0  0  0  0
  152.5003  140.1201  158.3289 H   0  0  0  0  0  0  0  0  0  0  0  0
  151.0056  139.3351  158.8317 H   0  0  0  0  0  0  0  0  0  0  0  0
  149.7053  141.2971  158.1106 H   0  0  0  0  0  0  0  0  0  0  0  0
  152.3829  142.3430  157.0989 H   0  0  0  0  0  0  0  0  0  0  0  0
  150.8831  142.9901  156.4952 H   0  0  0  0  0  0  0  0  0  0  0  0
  149.2082  143.8900  158.2667 H   0  0  0  0  0  0  0  0  0  0  0  0
  149.5304  142.5772  159.3867 H   0  0  0  0  0  0  0  0  0  0  0  0
  150.0944  145.5611  159.8848 H   0  0  0  0  0  0  0  0  0  0  0  0
  148.8429  144.5985  160.6476 H   0  0  0  0  0  0  0  0  0  0  0  0
  152.4097  145.0950  160.4378 H   0  0  0  0  0  0  0  0  0  0  0  0
  152.7526  143.8120  161.5823 H   0  0  0  0  0  0  0  0  0  0  0  0
  151.9939  142.0832  159.9799 H   0  0  0  0  0  0  0  0  0  0  0  0
  153.2332  143.0766  159.2408 H   0  0  0  0  0  0  0  0  0  0  0  0
  151.6394  140.0340  154.6826 H   0  0  0  0  0  0  0  0  0  0  0  0
  151.4732  138.6540  155.7790 H   0  0  0  0  0  0  0  0  0  0  0  0
  152.5293  139.9992  156.1939 H   0  0  0  0  0  0  0  0  0  0  0  0
  148.2417  139.9333  152.6217 H   0  0  0  0  0  0  0  0  0  0  0  0
  146.2907  143.2996  157.7484 H   0  0  0  0  0  0  0  0  0  0  0  0
  144.7230  142.2782  154.3919 H   0  0  0  0  0  0  0  0  0  0  0  0
  144.2258  142.7031  156.0141 H   0  0  0  0  0  0  0  0  0  0  0  0
  145.9932  144.7863  155.1543 H   0  0  0  0  0  0  0  0  0  0  0  0
  144.1168  144.0898  153.1946 H   0  0  0  0  0  0  0  0  0  0  0  0
  143.9838  144.9397  156.6817 H   0  0  0  0  0  0  0  0  0  0  0  0
  144.4632  147.1524  156.4351 H   0  0  0  0  0  0  0  0  0  0  0  0
  144.7012  147.0598  154.6958 H   0  0  0  0  0  0  0  0  0  0  0  0
  142.3438  148.0460  155.8901 H   0  0  0  0  0  0  0  0  0  0  0  0
  142.4991  147.4714  154.2292 H   0  0  0  0  0  0  0  0  0  0  0  0
  141.5840  145.8706  156.6473 H   0  0  0  0  0  0  0  0  0  0  0  0
  140.8421  145.9380  155.0418 H   0  0  0  0  0  0  0  0  0  0  0  0
  151.5166  144.3460  158.1786 H   0  0  0  0  0  0  0  0  0  0  0  0
  1  2  1  0  0  0  0
  1 29  1  0  0  0  0
  1 30  1  0  0  0  0
  1 31  1  0  0  0  0
  2  3  1  0  0  0  0
  2 10  1  0  0  0  0
  2 32  1  0  0  0  0
  3  4  1  0  0  0  0
  3 33  1  0  0  0  0
  3 34  1  0  0  0  0
  4  9  1  0  0  0  0
  4  5  1  0  0  0  0
  4 59  1  0  0  0  0
  5  6  1  0  0  0  0
  5 35  1  0  0  0  0
  5 36  1  0  0  0  0
  6  7  1  0  0  0  0
  6 37  1  0  0  0  0
  6 38  1  0  0  0  0
  7  8  1  0  0  0  0
  8  9  1  0  0  0  0
  8 39  1  0  0  0  0
  8 40  1  0  0  0  0
  9 41  1  0  0  0  0
  9 42  1  0  0  0  0
 10 11  1  0  0  0  0
 10 12  1  0  0  0  0
 11 43  1  0  0  0  0
 11 44  1  0  0  0  0
 11 45  1  0  0  0  0
 12 17  1  0  0  0  0
 12 13  2  0  0  0  0
 13 14  1  0  0  0  0
 14 15  2  0  0  0  0
 14 46  1  0  0  0  0
 15 16  1  0  0  0  0
 16 20  1  0  0  0  0
 16 17  2  0  0  0  0
 17 18  1  0  0  0  0
 18 19  2  0  0  0  0
 19 20  1  0  0  0  0
 19 47  1  0  0  0  0
 20 21  1  0  0  0  0
 21 22  1  0  0  0  0
 21 48  1  0  0  0  0
 21 49  1  0  0  0  0
 22 23  1  0  0  0  0
 22 24  1  0  0  0  0
 22 50  1  0  0  0  0
 23 51  1  0  0  0  0
 24 28  1  0  0  0  0
 24 25  1  0  0  0  0
 24 52  1  0  0  0  0
 25 26  1  0  0  0  0
 25 53  1  0  0  0  0
 25 54  1  0  0  0  0
 26 27  1  0  0  0  0
 26 55  1  0  0  0  0
 26 56  1  0  0  0  0
 27 28  1  0  0  0  0
 27 57  1  0  0  0  0
 27 58  1  0  0  0  0
M  CHG  1   4   1
M  END
> <s_m_source_file>
AV-unprocessed.smi

> <i_m_source_file_index>
213

> <i_lp_mmshare_version>
43012

> <i_f3d_flags>
0

> <s_epik_input>
W0NIMl0xW0NIMl1PW0NIMl1bQ0gyXU4xW0NIMl1bQ0BASF0oW0NIM10pTihbQ0gzXSljKG5bY0hdbjIpYyhjMjMpbltjSF1uM1tDSDJdW0NASF0oW09IXSlbQ0BASF00W0NIMl1bQ0gyXVtDSDJdTzQ=

> <s_epik_cmdline>
J2VwaWtfcHl0aG9uJywgJy1waCcsICc3LjAnLCAnLXRuJywgJzgnLCAnLW1hJywgJzIwMCcsICctbWV0YWxfYmluZGluZycsICctaW1hZScsICc8aW5maWxlLm1hZT4nLCAnLW9tYWUnLCAnPG91dGZpbGUubWFlPic=

> <r_lp_tautomer_probability>
1

> <r_epik_Ionization_Penalty>
0.399679

> <r_epik_Ionization_Penalty_Charging>
0.399433

> <r_epik_Ionization_Penalty_Neutral>
0.000246213

> <r_epik_State_Penalty>
0.286032

> <r_epik_Charging_Adjusted_Penalty>
0.685465

> <i_epik_Tot_Q>
1

> <i_epik_Tot_abs_Q>
1

> <r_epik_Metal_State_Penalty>
0.286072

> <b_epik_Metal_Only>
0

> <s_lp_Force_Field>
OPLS_2005

> <r_lp_Energy>
46.5476

> <b_lp_Chiralities_Consistent>
1

> <s_lp_Variant>
AV-unprocessed.smi:213-8

> <Gold.Version>
5.8.1

> <Gold.Id.Protein>
6NUR|6NUR_protein|mol2

> <Gold.PLP.Fitness>
47.6063

> <Gold.PLP.PLP>
-44.2679

> <Gold.PLP.part.hbond>
-1.0441

> <Gold.PLP.part.metal>
0.0000

> <Gold.PLP.part.buried>
-7.5598

> <Gold.PLP.part.nonpolar>
-36.8837

> <Gold.PLP.part.repulsive>
0.9379

> <Gold.PLP.ligand.clash>
0.0000

> <Gold.PLP.ligand.torsion>
1.6569

> <Gold.PLP.Chemscore.Hbond>
1.0000

> <Gold.PLP.Chemscore.CHOScore>
0.9596

> <Gold.PLP.Chemscore.Metal>
0.0000

> <Gold.Chemscore.Hbonds>
donor molecule, donor type, donor heavy atom, donor atom, acceptor molecule, acceptor atom, score
      L1  H    23    51       P1 10174  0.10
      L1  C    14    46       P1  7957  0.91

> <Gold.PLP.Chemscore.Internal.Correction>
0.7734

> <Gold.Rescore>
     Score         DG    S(hbond)    S(metal)    S(lipo)     H(rot)  DE(clash)    DE(int)     intcor
      9.66     -12.62       0.81        0.00      99.78       2.83       0.29       2.68       ----

> <Gold.Chemscore.Fitness>
9.6550

> <Gold.Chemscore.DG>
-12.6205

> <Gold.Chemscore.ZeroCoef>
-5.4800

> <Gold.Chemscore.Hbond>
0.8081

> <Gold.Chemscore.Metal>
0.0000

> <Gold.Chemscore.Lipo>
99.7805

> <Gold.Chemscore.Internal_Hbond>
0.0000

> <Gold.Chemscore.DEClash>
0.2894

> <Gold.Chemscore.DEInternal>
2.6760

> <Gold.Chemscore.Rot>
2.8254

> <Gold.Chemscore.Internal.Correction>
   9.000000E+99

> <Gold.Chemscore.Hbonds>
donor molecule, donor type, donor heavy atom, donor atom, acceptor molecule, acceptor atom, score
      L1  H    23    51       P1 10174  0.09

> <Gold.Chemscore.Hbond.Weighted>
-2.6991

> <Gold.Chemscore.Metal.Weighted>
-0.0000

> <Gold.Chemscore.Lipo.Weighted>
-11.6743

> <Gold.Chemscore.Internal_Hbond.Weighted>
0.0000

> <Gold.Chemscore.DEClash.Weighted>
0.2894

> <Gold.Chemscore.DEInternal.Weighted>
2.6760

> <Gold.Chemscore.Rot.Weighted>
7.2330

> <Gold.Chemscore.Internal.Correction.Weighted>
   9.000000E+99

> <Gold.Protein.RotatedTorsions>
[ 6907 6896 6895 6894 ] final  -23.61 input  -60.11 | X-H torsion
[ 7974 7965 7964 7962 ] final -122.18 input  175.53 | X-H torsion
[ 8008 7997 7996 7995 ] final -143.12 input   59.86 | X-H torsion
[ 10167 10162 10161 10158 ] final  -81.03 input  -65.29 | X-H torsion
[ 10718 10713 10712 10709 ] final   75.98 input   66.30 | X-H torsion
[ 10763 10752 10751 10750 ] final  129.35 input  -60.55 | X-H torsion
[ 11005 11000 10999 10996 ] final  -47.20 input  -57.11 | X-H torsion

> <Gold.Protein.ActiveResidues>
 VAL166  LYS551  ARG553  GLY616  TRP617  ASP618  TYR619  PRO620  LYS621  CYS622 
 ASP623  PHE694  ASN695  SER759  ASP760  ASP761  ALA762  ILE779  LEU786  VAL792 
 PHE793  MET794  SER795  GLU796  ALA797  LYS798  CYS799  TRP800  GLU811  SER814 

> <Gold.Protein.RotatedAtoms>
  151.2015  135.0444  159.8873 H   0  0  0  0  0  0  0  0  0  0  0  0  # atno 6907 bound_to 6896
  152.5432  134.0845  159.8260 H   0  0  0  0  0  0  0  0  0  0  0  0  # atno 6908 bound_to 6896
  151.0986  133.5213  159.2643 H   0  0  0  0  0  0  0  0  0  0  0  0  # atno 6909 bound_to 6896
  145.0322  140.8077  143.4317 H   0  0  0  0  0  0  0  0  0  0  0  0  # atno 7974 bound_to 7965
  155.5054  140.0579  157.2932 H   0  0  0  0  0  0  0  0  0  0  0  0  # atno 8008 bound_to 7997
  154.4571  140.1978  156.0297 H   0  0  0  0  0  0  0  0  0  0  0  0  # atno 8009 bound_to 7997
  156.0820  140.3245  155.7710 H   0  0  0  0  0  0  0  0  0  0  0  0  # atno 8010 bound_to 7997
  140.4449  143.2502  151.8572 H   0  0  0  0  0  0  0  0  0  0  0  0  # atno 10167 bound_to 10162
  157.6655  130.9752  150.1430 H   0  0  0  0  0  0  0  0  0  0  0  0  # atno 10718 bound_to 10713
  153.7403  135.3225  155.3302 H   0  0  0  0  0  0  0  0  0  0  0  0  # atno 10763 bound_to 10752
  154.8297  135.4543  154.1033 H   0  0  0  0  0  0  0  0  0  0  0  0  # atno 10764 bound_to 10752
  153.2206  135.6947  153.8086 H   0  0  0  0  0  0  0  0  0  0  0  0  # atno 10765 bound_to 10752
  141.0626  133.6704  156.3263 H   0  0  0  0  0  0  0  0  0  0  0  0  # atno 11005 bound_to 11000
  145.1756  139.2380  143.5319 LP  0  0  0  0  0  0  0  0  0  0  0  0  # atno 17320 bound_to 7965
  146.3500  140.1517  142.8592 LP  0  0  0  0  0  0  0  0  0  0  0  0  # atno 17321 bound_to 7965
  139.4792  144.5186  151.8832 LP  0  0  0  0  0  0  0  0  0  0  0  0  # atno 17342 bound_to 10162
  140.4275  144.2160  150.5887 LP  0  0  0  0  0  0  0  0  0  0  0  0  # atno 17343 bound_to 10162
  156.2248  130.3677  149.8513 LP  0  0  0  0  0  0  0  0  0  0  0  0  # atno 17370 bound_to 10713
  156.6356  130.8684  151.3504 LP  0  0  0  0  0  0  0  0  0  0  0  0  # atno 17371 bound_to 10713
  140.5838  134.5719  157.5485 LP  0  0  0  0  0  0  0  0  0  0  0  0  # atno 17394 bound_to 11000
  139.9446  134.7724  156.0593 LP  0  0  0  0  0  0  0  0  0  0  0  0  # atno 17395 bound_to 11000

$$$$
