AV-unprocessed.smi:1027|AV-procd|sdf|4471|dock6
  -GOLD-   22720 2443D 1   1.00000     0.00000
 Structure written by MMmdl.
 34 35  0  0  0  0  0  0  0  0  2 V2000
  152.5685  144.2068  158.5885 C   0  0  0  0  0  0  0  0  0  0  0  0
  151.6790  143.4529  159.5939 C   0  0  0  0  0  0  0  0  0  0  0  0
  151.5014  144.3097  160.8628 C   0  0  0  0  0  0  0  0  0  0  0  0
  152.2191  142.0339  159.9152 C   0  0  2  0  0  0  0  0  0  0  0  0
  153.4774  142.0470  160.8040 C   0  0  0  0  0  0  0  0  0  0  0  0
  152.5245  141.3193  158.6750 N   0  0  0  0  0  0  0  0  0  0  0  0
  152.7043  139.9971  158.5391 C   0  0  0  0  0  0  0  0  0  0  0  0
  152.6303  139.2592  159.5244 O   0  0  0  0  0  0  0  0  0  0  0  0
  152.9578  139.6117  157.2675 N   0  5  0  0  0  0  0  0  0  0  0  0
  151.9977  139.7079  156.3329 C   0  0  0  0  0  0  0  0  0  0  0  0
  152.2223  139.4310  155.0408 N   0  0  0  0  0  0  0  0  0  0  0  0
  151.0977  139.5956  154.2454 N   0  0  0  0  0  0  0  0  0  0  0  0
  150.0385  140.0034  154.9485 C   0  0  0  0  0  0  0  0  0  0  0  0
  148.7076  140.2479  154.3195 C   0  0  0  0  0  0  0  0  0  0  0  0
  148.0989  141.6323  154.2670 C   0  0  0  0  0  0  0  0  0  0  0  0
  147.5020  140.5817  155.1680 C   0  0  0  0  0  0  0  0  0  0  0  0
  150.3455  140.2279  156.6633 S   0  0  0  0  0  0  0  0  0  0  0  0
  153.5925  144.2931  158.9531 H   0  0  0  0  0  0  0  0  0  0  0  0
  152.1939  145.2158  158.4133 H   0  0  0  0  0  0  0  0  0  0  0  0
  152.5969  143.7103  157.6193 H   0  0  0  0  0  0  0  0  0  0  0  0
  150.6937  143.3438  159.1382 H   0  0  0  0  0  0  0  0  0  0  0  0
  152.4447  144.4203  161.3985 H   0  0  0  0  0  0  0  0  0  0  0  0
  150.7773  143.8741  161.5516 H   0  0  0  0  0  0  0  0  0  0  0  0
  151.1416  145.3087  160.6154 H   0  0  0  0  0  0  0  0  0  0  0  0
  151.4330  141.4938  160.4462 H   0  0  0  0  0  0  0  0  0  0  0  0
  153.2716  142.4583  161.7914 H   0  0  0  0  0  0  0  0  0  0  0  0
  154.2756  142.6370  160.3526 H   0  0  0  0  0  0  0  0  0  0  0  0
  153.8602  141.0376  160.9589 H   0  0  0  0  0  0  0  0  0  0  0  0
  152.5977  141.8793  157.8382 H   0  0  0  0  0  0  0  0  0  0  0  0
  148.5627  139.5955  153.4607 H   0  0  0  0  0  0  0  0  0  0  0  0
  148.6354  142.4496  154.7448 H   0  0  0  0  0  0  0  0  0  0  0  0
  147.5426  141.9012  153.3716 H   0  0  0  0  0  0  0  0  0  0  0  0
  146.5475  140.1494  154.8750 H   0  0  0  0  0  0  0  0  0  0  0  0
  147.6544  140.6947  156.2396 H   0  0  0  0  0  0  0  0  0  0  0  0
  1  2  1  0  0  0  0
  1 18  1  0  0  0  0
  1 19  1  0  0  0  0
  1 20  1  0  0  0  0
  2  3  1  0  0  0  0
  2  4  1  0  0  0  0
  2 21  1  0  0  0  0
  3 22  1  0  0  0  0
  3 23  1  0  0  0  0
  3 24  1  0  0  0  0
  4  5  1  0  0  0  0
  4  6  1  0  0  0  0
  4 25  1  0  0  0  0
  5 26  1  0  0  0  0
  5 27  1  0  0  0  0
  5 28  1  0  0  0  0
  6  7  1  0  0  0  0
  6 29  1  0  0  0  0
  7  8  2  0  0  0  0
  7  9  1  0  0  0  0
  9 10  1  0  0  0  0
 10 17  1  0  0  0  0
 10 11  2  0  0  0  0
 11 12  1  0  0  0  0
 12 13  2  0  0  0  0
 13 14  1  0  0  0  0
 13 17  1  0  0  0  0
 14 16  1  0  0  0  0
 14 15  1  0  0  0  0
 14 30  1  0  0  0  0
 15 16  1  0  0  0  0
 15 31  1  0  0  0  0
 15 32  1  0  0  0  0
 16 33  1  0  0  0  0
 16 34  1  0  0  0  0
M  CHG  1   9  -1
M  END
> <s_m_source_file>
AV-unprocessed.smi

> <i_m_source_file_index>
1027

> <i_lp_mmshare_version>
43012

> <i_f3d_flags>
0

> <s_epik_input>
W0NIM11bQ0hdKFtDSDNdKVtDQEhdKFtDSDNdKVtOSF1DKD1PKVtOSF1jMW5uYyhzMSlbQ0hdMltDSDJdW0NIMl0y

> <s_epik_cmdline>
J2VwaWtfcHl0aG9uJywgJy1waCcsICc3LjAnLCAnLXRuJywgJzgnLCAnLW1hJywgJzIwMCcsICctbWV0YWxfYmluZGluZycsICctaW1hZScsICc8aW5maWxlLm1hZT4nLCAnLW9tYWUnLCAnPG91dGZpbGUubWFlPic=

> <r_lp_tautomer_probability>
1

> <r_epik_Ionization_Penalty>
3.99975

> <r_epik_Ionization_Penalty_Charging>
3.83446

> <r_epik_Ionization_Penalty_Neutral>
0.165297

> <r_epik_State_Penalty>
3.83354

> <r_epik_Charging_Adjusted_Penalty>
7.668

> <i_epik_Tot_Q>
-1

> <i_epik_Tot_abs_Q>
1

> <r_epik_Metal_State_Penalty>
0.575872

> <b_epik_Metal_Only>
1

> <s_lp_Force_Field>
OPLS_2005

> <r_lp_Energy>
2.28672

> <b_lp_Chiralities_Consistent>
1

> <s_lp_Variant>
AV-unprocessed.smi:1027-3

> <Gold.Version>
5.8.1

> <Gold.Id.Protein>
6NUR|6NUR_protein|mol2

> <Gold.PLP.Fitness>
42.7434

> <Gold.PLP.PLP>
-35.5733

> <Gold.PLP.part.hbond>
-2.6236

> <Gold.PLP.part.metal>
0.0000

> <Gold.PLP.part.buried>
-3.0403

> <Gold.PLP.part.nonpolar>
-30.9555

> <Gold.PLP.part.repulsive>
0.2381

> <Gold.PLP.ligand.clash>
0.0000

> <Gold.PLP.ligand.torsion>
0.9944

> <Gold.PLP.Chemscore.Hbond>
3.0000

> <Gold.PLP.Chemscore.CHOScore>
0.0000

> <Gold.PLP.Chemscore.Metal>
0.0000

> <Gold.Chemscore.Hbonds>
donor molecule, donor type, donor heavy atom, donor atom, acceptor molecule, acceptor atom, score
      P1  H  7989  7998       L1    12  0.75
      P1  H  7997  8009       L1     9  2.00

> <Gold.PLP.Chemscore.Internal.Correction>
0.1589

> <Gold.Rescore>
     Score         DG    S(hbond)    S(metal)    S(lipo)     H(rot)  DE(clash)    DE(int)     intcor
     13.24     -14.42       0.62        0.00      88.58       1.36       0.04       1.14       ----

> <Gold.Chemscore.Fitness>
13.2363

> <Gold.Chemscore.DG>
-14.4238

> <Gold.Chemscore.ZeroCoef>
-5.4800

> <Gold.Chemscore.Hbond>
0.6185

> <Gold.Chemscore.Metal>
0.0000

> <Gold.Chemscore.Lipo>
88.5847

> <Gold.Chemscore.Internal_Hbond>
0.0000

> <Gold.Chemscore.DEClash>
0.0427

> <Gold.Chemscore.DEInternal>
1.1448

> <Gold.Chemscore.Rot>
1.3618

> <Gold.Chemscore.Internal.Correction>
   9.000000E+99

> <Gold.Chemscore.Hbonds>
donor molecule, donor type, donor heavy atom, donor atom, acceptor molecule, acceptor atom, score
      P1  H  7989  7998       L1    12  0.05
      P1  H  7997  8009       L1     9  0.66

> <Gold.Chemscore.Hbond.Weighted>
-2.0657

> <Gold.Chemscore.Metal.Weighted>
-0.0000

> <Gold.Chemscore.Lipo.Weighted>
-10.3644

> <Gold.Chemscore.Internal_Hbond.Weighted>
0.0000

> <Gold.Chemscore.DEClash.Weighted>
0.0427

> <Gold.Chemscore.DEInternal.Weighted>
1.1448

> <Gold.Chemscore.Rot.Weighted>
3.4863

> <Gold.Chemscore.Internal.Correction.Weighted>
   9.000000E+99

> <Gold.Protein.RotatedTorsions>
[ 6907 6896 6895 6894 ] final    0.82 input  -60.11 | X-H torsion
[ 7974 7965 7964 7962 ] final  115.63 input  175.53 | X-H torsion
[ 8008 7997 7996 7995 ] final -177.81 input   59.86 | X-H torsion
[ 10167 10162 10161 10158 ] final   54.21 input  -65.29 | X-H torsion
[ 10718 10713 10712 10709 ] final  -50.65 input   66.30 | X-H torsion
[ 10763 10752 10751 10750 ] final -145.30 input  -60.55 | X-H torsion
[ 11005 11000 10999 10996 ] final  127.49 input  -57.11 | X-H torsion

> <Gold.Protein.ActiveResidues>
 VAL166  LYS551  ARG553  GLY616  TRP617  ASP618  TYR619  PRO620  LYS621  CYS622 
 ASP623  PHE694  ASN695  SER759  ASP760  ASP761  ALA762  ILE779  LEU786  VAL792 
 PHE793  MET794  SER795  GLU796  ALA797  LYS798  CYS799  TRP800  GLU811  SER814 

> <Gold.Protein.RotatedAtoms>
  151.5827  135.1057  160.0020 H   0  0  0  0  0  0  0  0  0  0  0  0  # atno 6907 bound_to 6896
  152.4346  133.7333  159.6610 H   0  0  0  0  0  0  0  0  0  0  0  0  # atno 6908 bound_to 6896
  150.8242  133.8130  159.3149 H   0  0  0  0  0  0  0  0  0  0  0  0  # atno 6909 bound_to 6896
  145.1896  139.3007  143.4375 H   0  0  0  0  0  0  0  0  0  0  0  0  # atno 7974 bound_to 7965
  156.0114  140.1241  157.0450 H   0  0  0  0  0  0  0  0  0  0  0  0  # atno 8008 bound_to 7997
  154.4277  140.1087  156.5904 H   0  0  0  0  0  0  0  0  0  0  0  0  # atno 8009 bound_to 7997
  155.6074  140.3471  155.4614 H   0  0  0  0  0  0  0  0  0  0  0  0  # atno 8010 bound_to 7997
  140.2325  144.3671  150.6409 H   0  0  0  0  0  0  0  0  0  0  0  0  # atno 10167 bound_to 10162
  156.1781  130.4150  149.9547 H   0  0  0  0  0  0  0  0  0  0  0  0  # atno 10718 bound_to 10713
  154.8390  135.3417  154.6482 H   0  0  0  0  0  0  0  0  0  0  0  0  # atno 10763 bound_to 10752
  153.7094  135.6965  153.5046 H   0  0  0  0  0  0  0  0  0  0  0  0  # atno 10764 bound_to 10752
  153.2463  135.4368  155.0704 H   0  0  0  0  0  0  0  0  0  0  0  0  # atno 10765 bound_to 10752
  139.9510  134.9622  156.8862 H   0  0  0  0  0  0  0  0  0  0  0  0  # atno 11005 bound_to 11000
  146.3438  140.2104  142.8590 LP  0  0  0  0  0  0  0  0  0  0  0  0  # atno 17320 bound_to 7965
  145.0054  140.8668  143.5256 LP  0  0  0  0  0  0  0  0  0  0  0  0  # atno 17321 bound_to 7965
  140.6174  143.2173  151.6763 LP  0  0  0  0  0  0  0  0  0  0  0  0  # atno 17342 bound_to 10162
  139.5105  144.3541  152.0625 LP  0  0  0  0  0  0  0  0  0  0  0  0  # atno 17343 bound_to 10162
  156.7326  130.9049  151.3627 LP  0  0  0  0  0  0  0  0  0  0  0  0  # atno 17370 bound_to 10713
  157.6849  130.9176  150.0362 LP  0  0  0  0  0  0  0  0  0  0  0  0  # atno 17371 bound_to 10713
  140.5719  134.0435  155.7433 LP  0  0  0  0  0  0  0  0  0  0  0  0  # atno 17394 bound_to 11000
  141.1172  133.9520  157.2799 LP  0  0  0  0  0  0  0  0  0  0  0  0  # atno 17395 bound_to 11000

$$$$
