AV-unprocessed.smi:644|AV-procd|sdf|3156|dock4
  -GOLD-   22720 0 83D 1   1.00000     0.00000
 Structure written by MMmdl.
 37 39  0  0  0  0  0  0  0  0  1 V2000
  153.0844  144.0141  163.3009 C   0  0  0  0  0  0  0  0  0  0  0  0
  152.7317  143.4678  161.9287 C   0  0  0  0  0  0  0  0  0  0  0  0
  151.9763  144.2695  161.0431 C   0  0  0  0  0  0  0  0  0  0  0  0
  151.6291  143.7993  159.7577 C   0  0  0  0  0  0  0  0  0  0  0  0
  150.9070  144.4043  158.7432 N   0  0  0  0  0  0  0  0  0  0  0  0
  150.9290  143.4653  157.8015 C   0  0  0  0  0  0  0  0  0  0  0  0
  151.5774  142.3201  158.0885 N   0  0  0  0  0  0  0  0  0  0  0  0
  151.7398  141.1631  157.2267 C   0  0  0  0  0  0  0  0  0  0  0  0
  151.0637  141.3485  155.8551 C   0  0  1  0  0  0  0  0  0  0  0  0
  151.3919  140.2577  155.0154 O   0  0  0  0  0  0  0  0  0  0  0  0
  149.5354  141.4537  155.9807 C   0  0  0  0  0  0  0  0  0  0  0  0
  148.7163  141.5113  154.3567 S   0  0  0  0  0  0  0  0  0  0  0  0
  147.1114  142.0644  154.8374 C   0  0  0  0  0  0  0  0  0  0  0  0
  146.4377  141.6406  155.9167 N   0  0  0  0  0  0  0  0  0  0  0  0
  145.1988  142.2548  156.0416 N   0  0  0  0  0  0  0  0  0  0  0  0
  144.9816  143.1218  155.0501 C   0  0  0  0  0  0  0  0  0  0  0  0
  146.2706  143.2704  153.8701 S   0  0  0  0  0  0  0  0  0  0  0  0
  152.0625  142.4950  159.3795 C   0  0  0  0  0  0  0  0  0  0  0  0
  152.8142  141.6878  160.2513 C   0  0  0  0  0  0  0  0  0  0  0  0
  153.1513  142.1724  161.5324 C   0  0  0  0  0  0  0  0  0  0  0  0
  153.9616  141.2923  162.4675 C   0  0  0  0  0  0  0  0  0  0  0  0
  152.6834  145.0177  163.4454 H   0  0  0  0  0  0  0  0  0  0  0  0
  154.1663  144.0654  163.4241 H   0  0  0  0  0  0  0  0  0  0  0  0
  152.6762  143.3754  164.0843 H   0  0  0  0  0  0  0  0  0  0  0  0
  151.6567  145.2562  161.3445 H   0  0  0  0  0  0  0  0  0  0  0  0
  150.4432  143.6173  156.8484 H   0  0  0  0  0  0  0  0  0  0  0  0
  152.8055  140.9640  157.1037 H   0  0  0  0  0  0  0  0  0  0  0  0
  151.3188  140.2980  157.7408 H   0  0  0  0  0  0  0  0  0  0  0  0
  151.4436  142.2587  155.3894 H   0  0  0  0  0  0  0  0  0  0  0  0
  150.9191  139.4962  155.3151 H   0  0  0  0  0  0  0  0  0  0  0  0
  149.1448  140.6131  156.5559 H   0  0  0  0  0  0  0  0  0  0  0  0
  149.2777  142.3639  156.5234 H   0  0  0  0  0  0  0  0  0  0  0  0
  144.0571  143.6789  155.0141 H   0  0  0  0  0  0  0  0  0  0  0  0
  153.1275  140.7034  159.9365 H   0  0  0  0  0  0  0  0  0  0  0  0
  154.1842  140.3266  162.0125 H   0  0  0  0  0  0  0  0  0  0  0  0
  153.4112  141.1071  163.3901 H   0  0  0  0  0  0  0  0  0  0  0  0
  154.9084  141.7709  162.7180 H   0  0  0  0  0  0  0  0  0  0  0  0
  1  2  1  0  0  0  0
  1 22  1  0  0  0  0
  1 23  1  0  0  0  0
  1 24  1  0  0  0  0
  2 20  1  0  0  0  0
  2  3  2  0  0  0  0
  3  4  1  0  0  0  0
  3 25  1  0  0  0  0
  4 18  2  0  0  0  0
  4  5  1  0  0  0  0
  5  6  2  0  0  0  0
  6  7  1  0  0  0  0
  6 26  1  0  0  0  0
  7  8  1  0  0  0  0
  7 18  1  0  0  0  0
  8  9  1  0  0  0  0
  8 27  1  0  0  0  0
  8 28  1  0  0  0  0
  9 10  1  0  0  0  0
  9 11  1  0  0  0  0
  9 29  1  0  0  0  0
 10 30  1  0  0  0  0
 11 12  1  0  0  0  0
 11 31  1  0  0  0  0
 11 32  1  0  0  0  0
 12 13  1  0  0  0  0
 13 17  1  0  0  0  0
 13 14  2  0  0  0  0
 14 15  1  0  0  0  0
 15 16  2  0  0  0  0
 16 17  1  0  0  0  0
 16 33  1  0  0  0  0
 18 19  1  0  0  0  0
 19 20  2  0  0  0  0
 19 34  1  0  0  0  0
 20 21  1  0  0  0  0
 21 35  1  0  0  0  0
 21 36  1  0  0  0  0
 21 37  1  0  0  0  0
M  END
> <s_m_source_file>
AV-unprocessed.smi

> <i_m_source_file_index>
644

> <i_lp_mmshare_version>
43012

> <i_f3d_flags>
0

> <s_epik_input>
W0NIM11jKFtjSF0xKWMoW0NIM10pW2NIXWMoYzEyKW4oW2NIXW4yKVtDSDJdW0NASF0oW09IXSlbQ0gyXVNjM25uW2NIXXMz

> <s_epik_cmdline>
J2VwaWtfcHl0aG9uJywgJy1waCcsICc3LjAnLCAnLXRuJywgJzgnLCAnLW1hJywgJzIwMCcsICctbWV0YWxfYmluZGluZycsICctaW1hZScsICc8aW5maWxlLm1hZT4nLCAnLW9tYWUnLCAnPG91dGZpbGUubWFlPic=

> <r_lp_tautomer_probability>
1

> <r_epik_Ionization_Penalty>
0.105397

> <r_epik_Ionization_Penalty_Charging>
0

> <r_epik_Ionization_Penalty_Neutral>
0.105397

> <r_epik_State_Penalty>
0.0952713

> <r_epik_Charging_Adjusted_Penalty>
0.0952713

> <i_epik_Tot_Q>
0

> <i_epik_Tot_abs_Q>
0

> <r_epik_Metal_State_Penalty>
0.0807681

> <b_epik_Metal_Only>
0

> <s_lp_Force_Field>
OPLS_2005

> <r_lp_Energy>
7.47595

> <b_lp_Chiralities_Consistent>
1

> <s_lp_Variant>
AV-unprocessed.smi:644-2

> <Gold.Version>
5.8.1

> <Gold.Id.Protein>
6NUR|6NUR_protein|mol2

> <Gold.PLP.Fitness>
54.0889

> <Gold.PLP.PLP>
-48.7182

> <Gold.PLP.part.hbond>
-1.0000

> <Gold.PLP.part.metal>
0.0000

> <Gold.PLP.part.buried>
-6.6961

> <Gold.PLP.part.nonpolar>
-40.5703

> <Gold.PLP.part.repulsive>
0.3113

> <Gold.PLP.ligand.clash>
0.0000

> <Gold.PLP.ligand.torsion>
0.3483

> <Gold.PLP.Chemscore.Hbond>
1.0000

> <Gold.PLP.Chemscore.CHOScore>
1.0000

> <Gold.PLP.Chemscore.Metal>
0.0000

> <Gold.Chemscore.Hbonds>
donor molecule, donor type, donor heavy atom, donor atom, acceptor molecule, acceptor atom, score
      P1  H  7989  7998       L1    10  1.00
      L1  C     6    26       P1  8028  1.00

> <Gold.PLP.Chemscore.Internal.Correction>
0.0673

> <Gold.Rescore>
     Score         DG    S(hbond)    S(metal)    S(lipo)     H(rot)  DE(clash)    DE(int)     intcor
     15.72     -16.93       0.89        0.00     126.21       2.46       1.05       0.17       ----

> <Gold.Chemscore.Fitness>
15.7179

> <Gold.Chemscore.DG>
-16.9280

> <Gold.Chemscore.ZeroCoef>
-5.4800

> <Gold.Chemscore.Hbond>
0.8912

> <Gold.Chemscore.Metal>
0.0000

> <Gold.Chemscore.Lipo>
126.2057

> <Gold.Chemscore.Internal_Hbond>
0.0000

> <Gold.Chemscore.DEClash>
1.0451

> <Gold.Chemscore.DEInternal>
0.1651

> <Gold.Chemscore.Rot>
2.4588

> <Gold.Chemscore.Internal.Correction>
   9.000000E+99

> <Gold.Chemscore.Hbonds>
donor molecule, donor type, donor heavy atom, donor atom, acceptor molecule, acceptor atom, score
      P1  H  7989  7998       L1    10  0.58

> <Gold.Chemscore.Hbond.Weighted>
-2.9765

> <Gold.Chemscore.Metal.Weighted>
-0.0000

> <Gold.Chemscore.Lipo.Weighted>
-14.7661

> <Gold.Chemscore.Internal_Hbond.Weighted>
0.0000

> <Gold.Chemscore.DEClash.Weighted>
1.0451

> <Gold.Chemscore.DEInternal.Weighted>
0.1651

> <Gold.Chemscore.Rot.Weighted>
6.2946

> <Gold.Chemscore.Internal.Correction.Weighted>
   9.000000E+99

> <Gold.Protein.RotatedTorsions>
[ 6907 6896 6895 6894 ] final   80.80 input  -60.11 | X-H torsion
[ 7974 7965 7964 7962 ] final  -45.72 input  175.53 | X-H torsion
[ 8008 7997 7996 7995 ] final   38.67 input   59.86 | X-H torsion
[ 10167 10162 10161 10158 ] final  -37.56 input  -65.29 | X-H torsion
[ 10718 10713 10712 10709 ] final -155.46 input   66.30 | X-H torsion
[ 10763 10752 10751 10750 ] final  138.38 input  -60.55 | X-H torsion
[ 11005 11000 10999 10996 ] final  -39.92 input  -57.11 | X-H torsion

> <Gold.Protein.ActiveResidues>
 VAL166  LYS551  ARG553  GLY616  TRP617  ASP618  TYR619  PRO620  LYS621  CYS622 
 ASP623  PHE694  ASN695  SER759  ASP760  ASP761  ALA762  ILE779  LEU786  VAL792 
 PHE793  MET794  SER795  GLU796  ALA797  LYS798  CYS799  TRP800  GLU811  SER814 

> <Gold.Protein.RotatedAtoms>
  152.5247  134.3302  159.9179 H   0  0  0  0  0  0  0  0  0  0  0  0  # atno 6907 bound_to 6896
  151.3251  133.4017  159.2665 H   0  0  0  0  0  0  0  0  0  0  0  0  # atno 6908 bound_to 6896
  150.9926  134.9275  159.7966 H   0  0  0  0  0  0  0  0  0  0  0  0  # atno 6909 bound_to 6896
  145.9792  140.7301  142.9372 H   0  0  0  0  0  0  0  0  0  0  0  0  # atno 7974 bound_to 7965
  155.2240  140.3333  155.4312 H   0  0  0  0  0  0  0  0  0  0  0  0  # atno 8008 bound_to 7997
  156.2322  140.1855  156.7260 H   0  0  0  0  0  0  0  0  0  0  0  0  # atno 8009 bound_to 7997
  154.5997  140.0625  156.9337 H   0  0  0  0  0  0  0  0  0  0  0  0  # atno 8010 bound_to 7997
  140.7115  143.3334  151.2517 H   0  0  0  0  0  0  0  0  0  0  0  0  # atno 10167 bound_to 10162
  156.5132  130.8444  151.2654 H   0  0  0  0  0  0  0  0  0  0  0  0  # atno 10718 bound_to 10713
  153.8886  135.3036  155.3447 H   0  0  0  0  0  0  0  0  0  0  0  0  # atno 10763 bound_to 10752
  154.7727  135.4877  153.9685 H   0  0  0  0  0  0  0  0  0  0  0  0  # atno 10764 bound_to 10752
  153.1310  135.6804  153.9276 H   0  0  0  0  0  0  0  0  0  0  0  0  # atno 10765 bound_to 10752
  141.0137  133.6896  156.2251 H   0  0  0  0  0  0  0  0  0  0  0  0  # atno 11005 bound_to 11000
  144.6857  140.2880  143.7282 LP  0  0  0  0  0  0  0  0  0  0  0  0  # atno 17320 bound_to 7965
  145.7794  139.1886  143.2166 LP  0  0  0  0  0  0  0  0  0  0  0  0  # atno 17321 bound_to 7965
  139.6822  143.9834  152.2815 LP  0  0  0  0  0  0  0  0  0  0  0  0  # atno 17342 bound_to 10162
  139.9468  144.6646  150.8211 LP  0  0  0  0  0  0  0  0  0  0  0  0  # atno 17343 bound_to 10162
  157.7447  130.9942  150.2701 LP  0  0  0  0  0  0  0  0  0  0  0  0  # atno 17370 bound_to 10713
  156.3220  130.3787  149.7566 LP  0  0  0  0  0  0  0  0  0  0  0  0  # atno 17371 bound_to 10713
  140.6691  134.4887  157.5586 LP  0  0  0  0  0  0  0  0  0  0  0  0  # atno 17394 bound_to 11000
  139.9104  134.8356  156.1548 LP  0  0  0  0  0  0  0  0  0  0  0  0  # atno 17395 bound_to 11000

$$$$
