#       Name:                AV-unprocessed.smi:2492
#       Creating user name   scv26
#       Creation time:       Fri Mar 27 13:44:24 2020


#       File generated by GOLD software.
#

@<TRIPOS>MOLECULE
AV-unprocessed.smi:2492
    39    40     1
SMALL
NO_CHARGES


@<TRIPOS>ATOM
      1 ****        -4.7053  -2.6110  -2.1353 C.3            1 S1                 0.0000
      2 ****        -3.6253  -3.2852  -0.8453 S.3            1 S1                 0.0000
      3 ****        -3.1223  -1.7506  -0.0152 C.3            1 S1                 0.0000
      4 ****        -2.3158  -2.0093   1.2547 C.3            1 S1                 0.0000
      5 ****        -1.5934  -0.6871   1.5138 C.3            1 S1                 0.0000
      6 ****        -1.3578  -0.0532   0.1279 C.3            1 S1                 0.0000
      7 ****         0.0563  -0.0733  -0.2382 N.am           1 S1                 0.0000
      8 ****         0.9686   0.8199   0.1713 C.2            1 S1                 0.0000
      9 ****         0.7059   1.7669   0.9134 O.2            1 S1                 0.0000
     10 ****         2.1845   0.5403  -0.3276 N.am           1 S1                 0.0000
     11 ****         3.3905   1.2568  -0.1205 C.2            1 S1                 0.0000
     12 ****         3.5405   2.3659   0.6038 N.2            1 S1                 0.0000
     13 ****         4.8724   2.5971   0.4460 C.2            1 S1                 0.0000
     14 ****         5.5659   3.7570   1.0755 C.3            1 S1                 0.0000
     15 ****         5.5293   1.7227  -0.3080 N.2            1 S1                 0.0000
     16 ****         4.5332   0.8142  -0.6955 O.3            1 S1                 0.0000
     17 ****        -2.1949  -0.8784  -0.8674 C.3            1 S1                 0.0000
     18 ****        -5.1364  -3.4209  -2.7239 H              1 S1                 0.0000
     19 ****        -4.1435  -1.9606  -2.8057 H              1 S1                 0.0000
     20 ****        -5.5179  -2.0363  -1.6907 H              1 S1                 0.0000
     21 ****        -4.0153  -1.1813   0.2472 H              1 S1                 0.0000
     22 ****        -2.9393  -2.3168   2.0948 H              1 S1                 0.0000
     23 ****        -1.5811  -2.7964   1.0784 H              1 S1                 0.0000
     24 ****        -2.2391  -0.0331   2.1014 H              1 S1                 0.0000
     25 ****        -0.6779  -0.8316   2.0891 H              1 S1                 0.0000
     26 ****        -1.7197   0.9768   0.1345 H              1 S1                 0.0000
     27 ****         0.3584  -0.8207  -0.8460 H              1 S1                 0.0000
     28 ****         2.2578  -0.2739  -0.9195 H              1 S1                 0.0000
     29 ****         6.6206   3.7794   0.7989 H              1 S1                 0.0000
     30 ****         5.4952   3.6928   2.1615 H              1 S1                 0.0000
     31 ****         5.1053   4.6910   0.7526 H              1 S1                 0.0000
     32 ****        -1.5479  -1.5181  -1.4706 H              1 S1                 0.0000
     33 ****        -2.7517  -0.2431  -1.5570 H              1 S1                 0.0000
     34 ****        -0.2290   1.8999   1.2425 LP             1 S1                 0.0000
     35 ****         1.4275   2.4029   1.1870 LP             1 S1                 0.0000
     36 ****         2.8607   2.8856   1.1213 LP             1 S1                 0.0000
     37 ****         6.5012   1.7142  -0.5430 LP             1 S1                 0.0000
     38 ****         4.4406   0.8020  -1.6911 LP             1 S1                 0.0000
     39 ****         4.7540  -0.1052  -0.3699 LP             1 S1                 0.0000
@<TRIPOS>BOND
    1    1    2 1     
    2    1   18 1     
    3    1   19 1     
    4    1   20 1     
    5    2    3 1     
    6    3   17 1     
    7    3    4 1     
    8    3   21 1     
    9    4    5 1     
   10    4   22 1     
   11    4   23 1     
   12    5    6 1     
   13    5   24 1     
   14    5   25 1     
   15    6    7 1     
   16    6   17 1     
   17    6   26 1     
   18    7    8 am    
   19    7   27 1     
   20    8    9 2     
   21    8   10 am    
   22   10   11 1     
   23   10   28 1     
   24   11   16 1     
   25   11   12 2     
   26   12   13 1     
   27   13   14 1     
   28   13   15 2     
   29   14   29 1     
   30   14   30 1     
   31   14   31 1     
   32   15   16 1     
   33   17   32 1     
   34   17   33 1     
   35    9   34 1     
   36    9   35 1     
   37   12   36 1     
   38   15   37 1     
   39   16   38 1     
   40   16   39 1     
@<TRIPOS>SUBSTRUCTURE
      1 S1             1
@<TRIPOS>SET
LONE_PAIRS      STATIC     ATOMS    <user>   **** ""
6 34 35 36 37 38 39
DONOR_HYDROGENS      STATIC     ATOMS    <user>   **** ""
2 27 28
ATOM$BLUE        STATIC     ATOMS    COLORGROUP SYSTEM
6 34 35 36 37 38 39
ATOM$RED        STATIC     ATOMS    COLORGROUP SYSTEM
2 27 28
