#       Name:                AV-unprocessed.smi:415
#       Creating user name   scv26
#       Creation time:       Thu Mar 26 22:47:29 2020


#       File generated by GOLD software.
#

@<TRIPOS>MOLECULE
AV-unprocessed.smi:415
    61    62     1
SMALL
NO_CHARGES


@<TRIPOS>ATOM
      1 ****        -4.6010  -5.5046   2.0344 C.3            1 S1                 0.0000
      2 ****        -4.5193  -4.5797   0.9642 O.3            1 S1                 0.0000
      3 ****        -4.1270  -3.2870   1.3920 C.3            1 S1                 0.0000
      4 ****        -4.0569  -2.3625   0.1676 C.3            1 S1                 0.0000
      5 ****        -3.6764  -1.0065   0.5116 N.am           1 S1                 0.0000
      6 ****        -4.5972   0.0008   0.7854 C.2            1 S1                 0.0000
      7 ****        -5.9510  -0.2815   0.7507 N.pl3          1 S1                 0.0000
      8 ****        -4.1980   1.2533   1.1000 C.2            1 S1                 0.0000
      9 ****        -2.7896   1.6155   1.1777 C.2            1 S1                 0.0000
     10 ****        -2.4064   2.7561   1.4395 O.2            1 S1                 0.0000
     11 ****        -1.8722   0.5692   0.9275 N.am           1 S1                 0.0000
     12 ****        -0.4231   0.8636   0.9820 C.3            1 S1                 0.0000
     13 ****         0.1747   1.2373  -0.3827 C.2            1 S1                 0.0000
     14 ****        -0.5483   1.5673  -1.3241 O.2            1 S1                 0.0000
     15 ****         1.5126   1.1899  -0.4647 N.am           1 S1                 0.0000
     16 ****         2.3061   1.5011  -1.6546 C.3            1 S1                 0.0000
     17 ****         2.5740   3.0161  -1.7517 C.3            1 S1                 0.0000
     18 ****         3.5471   3.4934  -0.6645 C.3            1 S1                 0.0000
     19 ****         4.8585   2.6984  -0.7155 C.3            1 S1                 0.0000
     20 ****         4.6236   1.1784  -0.5925 C.3            1 S1                 0.0000
     21 ****         5.9728   0.4390  -0.6387 C.3            1 S1                 0.0000
     22 ****         3.6257   0.6861  -1.6783 C.3            1 S1                 0.0000
     23 ****         3.3469  -0.8291  -1.6023 C.3            1 S1                 0.0000
     24 ****        -2.2855  -0.7419   0.5982 C.2            1 S1                 0.0000
     25 ****        -1.4482  -1.6251   0.3913 O.2            1 S1                 0.0000
     26 ****        -4.9029  -6.4800   1.6530 H              1 S1                 0.0000
     27 ****        -5.3385  -5.1888   2.7734 H              1 S1                 0.0000
     28 ****        -3.6362  -5.6216   2.5299 H              1 S1                 0.0000
     29 ****        -4.8468  -2.8988   2.1145 H              1 S1                 0.0000
     30 ****        -3.1564  -3.3381   1.8882 H              1 S1                 0.0000
     31 ****        -3.3599  -2.7299  -0.5878 H              1 S1                 0.0000
     32 ****        -5.0185  -2.3073  -0.3415 H              1 S1                 0.0000
     33 ****        -6.2983  -1.2042   0.5309 H              1 S1                 0.0000
     34 ****        -6.6465   0.4170   0.9710 H              1 S1                 0.0000
     35 ****        -4.9374   2.0149   1.3030 H              1 S1                 0.0000
     36 ****        -0.2058   1.6731   1.6801 H              1 S1                 0.0000
     37 ****         0.1263   0.0126   1.3887 H              1 S1                 0.0000
     38 ****         2.0255   0.9143   0.3604 H              1 S1                 0.0000
     39 ****         1.7274   1.2088  -2.5332 H              1 S1                 0.0000
     40 ****         2.9950   3.2431  -2.7319 H              1 S1                 0.0000
     41 ****         1.6393   3.5746  -1.6888 H              1 S1                 0.0000
     42 ****         3.7530   4.5563  -0.7930 H              1 S1                 0.0000
     43 ****         3.0887   3.3862   0.3194 H              1 S1                 0.0000
     44 ****         5.3754   2.9154  -1.6513 H              1 S1                 0.0000
     45 ****         5.5169   3.0399   0.0840 H              1 S1                 0.0000
     46 ****         4.1841   0.9893   0.3880 H              1 S1                 0.0000
     47 ****         6.4389   0.5240  -1.6208 H              1 S1                 0.0000
     48 ****         5.8617  -0.6204  -0.4096 H              1 S1                 0.0000
     49 ****         6.6684   0.8490   0.0939 H              1 S1                 0.0000
     50 ****         4.0880   0.8697  -2.6496 H              1 S1                 0.0000
     51 ****         3.0031  -1.1272  -0.6114 H              1 S1                 0.0000
     52 ****         4.2365  -1.4137  -1.8351 H              1 S1                 0.0000
     53 ****         2.5807  -1.1212  -2.3209 H              1 S1                 0.0000
     54 ****        -5.4167  -4.5143   0.5277 LP             1 S1                 0.0000
     55 ****        -3.8499  -4.9148   0.3012 LP             1 S1                 0.0000
     56 ****        -3.0739   3.4811   1.6097 LP             1 S1                 0.0000
     57 ****        -1.4278   2.9574   1.4818 LP             1 S1                 0.0000
     58 ****        -1.5410   1.5950  -1.2064 LP             1 S1                 0.0000
     59 ****        -0.1425   1.8076  -2.2059 LP             1 S1                 0.0000
     60 ****        -1.7454  -2.5507   0.1568 LP             1 S1                 0.0000
     61 ****        -0.4729  -1.4149   0.4581 LP             1 S1                 0.0000
@<TRIPOS>BOND
    1    1    2 1     
    2    1   26 1     
    3    1   27 1     
    4    1   28 1     
    5    2    3 1     
    6    3    4 1     
    7    3   29 1     
    8    3   30 1     
    9    4    5 1     
   10    4   31 1     
   11    4   32 1     
   12    5   24 am    
   13    5    6 1     
   14    6    7 1     
   15    6    8 2     
   16    7   33 1     
   17    7   34 1     
   18    8    9 1     
   19    8   35 1     
   20    9   10 2     
   21    9   11 am    
   22   11   12 1     
   23   11   24 am    
   24   12   13 1     
   25   12   36 1     
   26   12   37 1     
   27   13   14 2     
   28   13   15 am    
   29   15   16 1     
   30   15   38 1     
   31   16   22 1     
   32   16   17 1     
   33   16   39 1     
   34   17   18 1     
   35   17   40 1     
   36   17   41 1     
   37   18   19 1     
   38   18   42 1     
   39   18   43 1     
   40   19   20 1     
   41   19   44 1     
   42   19   45 1     
   43   20   21 1     
   44   20   22 1     
   45   20   46 1     
   46   21   47 1     
   47   21   48 1     
   48   21   49 1     
   49   22   23 1     
   50   22   50 1     
   51   23   51 1     
   52   23   52 1     
   53   23   53 1     
   54   24   25 2     
   55    2   54 1     
   56    2   55 1     
   57   10   56 1     
   58   10   57 1     
   59   14   58 1     
   60   14   59 1     
   61   25   60 1     
   62   25   61 1     
@<TRIPOS>SUBSTRUCTURE
      1 S1             1
@<TRIPOS>SET
LONE_PAIRS      STATIC     ATOMS    <user>   **** ""
8 54 55 56 57 58 59 60 61
DONOR_HYDROGENS      STATIC     ATOMS    <user>   **** ""
3 33 34 38
ATOM$BLUE        STATIC     ATOMS    COLORGROUP SYSTEM
8 54 55 56 57 58 59 60 61
ATOM$RED        STATIC     ATOMS    COLORGROUP SYSTEM
3 33 34 38
