#       Name:                AV-unprocessed.smi:1045
#       Creating user name   scv26
#       Creation time:       Fri Mar 27 02:57:08 2020


#       File generated by GOLD software.
#

@<TRIPOS>MOLECULE
AV-unprocessed.smi:1045
    47    48     1
SMALL
NO_CHARGES


@<TRIPOS>ATOM
      1 ****        -4.5478   5.5944  -0.8475 C.3            1 S1                 0.0000
      2 ****        -3.4009   5.2058  -1.5827 O.3            1 S1                 0.0000
      3 ****        -3.1175   3.8217  -1.4584 C.3            1 S1                 0.0000
      4 ****        -1.8662   3.4792  -2.2868 C.3            1 S1                 0.0000
      5 ****        -2.0930   3.6982  -3.7896 C.3            1 S1                 0.0000
      6 ****        -1.4734   2.0905  -2.0635 N.am           1 S1                 0.0000
      7 ****        -0.7317   1.6473  -1.0382 C.2            1 S1                 0.0000
      8 ****        -0.3050   2.3768  -0.1437 O.2            1 S1                 0.0000
      9 ****        -0.5440   0.3189  -1.1179 N.am           1 S1                 0.0000
     10 ****         0.2010  -0.5303  -0.2553 C.ar           1 S1                 0.0000
     11 ****         1.1915  -0.0851   0.6510 C.ar           1 S1                 0.0000
     12 ****         1.8737  -1.0340   1.4365 C.ar           1 S1                 0.0000
     13 ****         1.5585  -2.4058   1.2921 C.ar           1 S1                 0.0000
     14 ****         2.2155  -3.3859   2.0626 N.pl3          1 S1                 0.0000
     15 ****         2.0260  -4.8071   1.8166 C.3            1 S1                 0.0000
     16 ****         3.0160  -5.4966   2.7536 C.3            1 S1                 0.0000
     17 ****         4.1790  -4.5068   2.8163 C.3            1 S1                 0.0000
     18 ****         3.5104  -3.1338   2.6799 C.3            1 S1                 0.0000
     19 ****         0.6125  -2.8296   0.4209 N.ar           1 S1                 0.0000
     20 ****        -0.0379  -1.9169  -0.3302 C.ar           1 S1                 0.0000
     21 ****        -4.7220   6.6622  -0.9788 H              1 S1                 0.0000
     22 ****        -4.4171   5.4032   0.2183 H              1 S1                 0.0000
     23 ****        -5.4359   5.0636  -1.1927 H              1 S1                 0.0000
     24 ****        -2.9509   3.5838  -0.4065 H              1 S1                 0.0000
     25 ****        -3.9696   3.2286  -1.7954 H              1 S1                 0.0000
     26 ****        -1.0487   4.1306  -1.9719 H              1 S1                 0.0000
     27 ****        -2.3469   4.7369  -4.0031 H              1 S1                 0.0000
     28 ****        -2.9050   3.0742  -4.1646 H              1 S1                 0.0000
     29 ****        -1.1958   3.4580  -4.3611 H              1 S1                 0.0000
     30 ****        -1.7870   1.4171  -2.7470 H              1 S1                 0.0000
     31 ****        -1.0260  -0.1501  -1.8707 H              1 S1                 0.0000
     32 ****         1.4524   0.9564   0.7537 H              1 S1                 0.0000
     33 ****         2.6234  -0.6969   2.1367 H              1 S1                 0.0000
     34 ****         0.9996  -5.1179   2.0144 H              1 S1                 0.0000
     35 ****         2.2620  -5.0311   0.7755 H              1 S1                 0.0000
     36 ****         2.5728  -5.6070   3.7444 H              1 S1                 0.0000
     37 ****         3.3135  -6.4855   2.4040 H              1 S1                 0.0000
     38 ****         4.7696  -4.6010   3.7278 H              1 S1                 0.0000
     39 ****         4.8439  -4.6747   1.9680 H              1 S1                 0.0000
     40 ****         4.1274  -2.4591   2.0853 H              1 S1                 0.0000
     41 ****         3.3518  -2.6815   3.6593 H              1 S1                 0.0000
     42 ****        -0.7772  -2.3098  -1.0128 H              1 S1                 0.0000
     43 ****        -2.6146   5.7252  -1.2480 LP             1 S1                 0.0000
     44 ****        -3.5529   5.4163  -2.5484 LP             1 S1                 0.0000
     45 ****        -0.5074   3.3560  -0.1578 LP             1 S1                 0.0000
     46 ****         0.2441   1.9904   0.5974 LP             1 S1                 0.0000
     47 ****         0.3995  -3.8029   0.3357 LP             1 S1                 0.0000
@<TRIPOS>BOND
    1    1    2 1     
    2    1   21 1     
    3    1   22 1     
    4    1   23 1     
    5    2    3 1     
    6    3    4 1     
    7    3   24 1     
    8    3   25 1     
    9    4    5 1     
   10    4    6 1     
   11    4   26 1     
   12    5   27 1     
   13    5   28 1     
   14    5   29 1     
   15    6    7 am    
   16    6   30 1     
   17    7    8 2     
   18    7    9 am    
   19    9   10 1     
   20    9   31 1     
   21   10   20 ar    
   22   10   11 ar    
   23   11   12 ar    
   24   11   32 1     
   25   12   13 ar    
   26   12   33 1     
   27   13   14 1     
   28   13   19 ar    
   29   14   18 1     
   30   14   15 1     
   31   15   16 1     
   32   15   34 1     
   33   15   35 1     
   34   16   17 1     
   35   16   36 1     
   36   16   37 1     
   37   17   18 1     
   38   17   38 1     
   39   17   39 1     
   40   18   40 1     
   41   18   41 1     
   42   19   20 ar    
   43   20   42 1     
   44    2   43 1     
   45    2   44 1     
   46    8   45 1     
   47    8   46 1     
   48   19   47 1     
@<TRIPOS>SUBSTRUCTURE
      1 S1             1
@<TRIPOS>SET
LONE_PAIRS      STATIC     ATOMS    <user>   **** ""
5 43 44 45 46 47
DONOR_HYDROGENS      STATIC     ATOMS    <user>   **** ""
2 30 31
ATOM$BLUE        STATIC     ATOMS    COLORGROUP SYSTEM
5 43 44 45 46 47
ATOM$RED        STATIC     ATOMS    COLORGROUP SYSTEM
2 30 31
