AV-unprocessed.smi:1778|AV-procd|sdf|7179|dock2
  -GOLD-   22720 8413D 1   1.00000     0.00000
 Structure written by MMmdl.
 34 35  0  0  0  0  0  0  0  0  1 V2000
  145.5538  136.3089  151.3661 C   0  0  0  0  0  0  0  0  0  0  0  0
  144.9548  134.9327  151.3072 C   0  0  0  0  0  0  0  0  0  0  0  0
  143.6435  134.8046  151.1956 N   0  0  0  0  0  0  0  0  0  0  0  0
  143.3939  133.4297  151.1524 O   0  0  0  0  0  0  0  0  0  0  0  0
  144.5801  132.7758  151.2387 C   0  0  0  0  0  0  0  0  0  0  0  0
  144.5312  131.2856  151.2009 C   0  0  0  0  0  0  0  0  0  0  0  0
  145.6117  133.6678  151.3398 C   0  0  0  0  0  0  0  0  0  0  0  0
  147.0873  133.3800  151.4502 C   0  0  0  0  0  0  0  0  0  0  0  0
  147.4371  133.0317  152.8966 C   0  0  0  0  0  0  0  0  0  0  0  0
  147.0193  131.9885  153.3981 O   0  0  0  0  0  0  0  0  0  0  0  0
  148.2071  133.9129  153.5530 N   0  0  0  0  0  0  0  0  0  0  0  0
  148.6740  133.7615  154.9262 C   0  0  2  0  0  0  0  0  0  0  0  0
  148.3056  134.9764  155.8019 C   0  0  0  0  0  0  0  0  0  0  0  0
  149.1383  134.9248  157.0886 C   0  0  0  0  0  0  0  0  0  0  0  0
  150.7195  134.1124  156.6402 S   0  0  0  0  0  0  0  0  0  0  0  0
  151.7793  135.1254  156.5225 O   0  0  0  0  0  0  0  0  0  0  0  0
  150.8999  132.9222  157.4850 O   0  0  0  0  0  0  0  0  0  0  0  0
  150.1994  133.5955  154.9612 C   0  0  0  0  0  0  0  0  0  0  0  0
  145.6241  136.7448  150.3694 H   0  0  0  0  0  0  0  0  0  0  0  0
  146.5572  136.2900  151.7903 H   0  0  0  0  0  0  0  0  0  0  0  0
  144.9510  136.9778  151.9811 H   0  0  0  0  0  0  0  0  0  0  0  0
  145.0656  130.9061  150.3299 H   0  0  0  0  0  0  0  0  0  0  0  0
  143.5034  130.9257  151.1507 H   0  0  0  0  0  0  0  0  0  0  0  0
  144.9939  130.8616  152.0920 H   0  0  0  0  0  0  0  0  0  0  0  0
  147.3880  132.5581  150.7999 H   0  0  0  0  0  0  0  0  0  0  0  0
  147.6822  134.2398  151.1393 H   0  0  0  0  0  0  0  0  0  0  0  0
  148.5025  134.7421  153.0586 H   0  0  0  0  0  0  0  0  0  0  0  0
  148.2288  132.8681  155.3686 H   0  0  0  0  0  0  0  0  0  0  0  0
  148.5515  135.8936  155.2648 H   0  0  0  0  0  0  0  0  0  0  0  0
  147.2376  135.0124  156.0198 H   0  0  0  0  0  0  0  0  0  0  0  0
  149.3266  135.9108  157.5139 H   0  0  0  0  0  0  0  0  0  0  0  0
  148.6466  134.3086  157.8418 H   0  0  0  0  0  0  0  0  0  0  0  0
  150.5219  132.5725  154.7656 H   0  0  0  0  0  0  0  0  0  0  0  0
  150.6881  134.2577  154.2455 H   0  0  0  0  0  0  0  0  0  0  0  0
  1  2  1  0  0  0  0
  1 19  1  0  0  0  0
  1 20  1  0  0  0  0
  1 21  1  0  0  0  0
  2  7  1  0  0  0  0
  2  3  2  0  0  0  0
  3  4  1  0  0  0  0
  4  5  1  0  0  0  0
  5  6  1  0  0  0  0
  5  7  2  0  0  0  0
  6 22  1  0  0  0  0
  6 23  1  0  0  0  0
  6 24  1  0  0  0  0
  7  8  1  0  0  0  0
  8  9  1  0  0  0  0
  8 25  1  0  0  0  0
  8 26  1  0  0  0  0
  9 10  2  0  0  0  0
  9 11  1  0  0  0  0
 11 12  1  0  0  0  0
 11 27  1  0  0  0  0
 12 18  1  0  0  0  0
 12 13  1  0  0  0  0
 12 28  1  0  0  0  0
 13 14  1  0  0  0  0
 13 29  1  0  0  0  0
 13 30  1  0  0  0  0
 14 15  1  0  0  0  0
 14 31  1  0  0  0  0
 14 32  1  0  0  0  0
 15 16  2  0  0  0  0
 15 17  2  0  0  0  0
 15 18  1  0  0  0  0
 18 33  1  0  0  0  0
 18 34  1  0  0  0  0
M  END
> <s_m_source_file>
AV-unprocessed.smi

> <i_m_source_file_index>
1778

> <i_lp_mmshare_version>
43012

> <i_f3d_flags>
0

> <s_epik_input>
W0NIM11jMW5vYyhbQ0gzXSljMVtDSDJdQyg9TylbTkhdW0NAQEhdKFtDSDJdMilbQ0gyXVtDSDJdUzIoPU8pPU8=

> <s_epik_cmdline>
J2VwaWtfcHl0aG9uJywgJy1waCcsICc3LjAnLCAnLXRuJywgJzgnLCAnLW1hJywgJzIwMCcsICctbWV0YWxfYmluZGluZycsICctaW1hZScsICc8aW5maWxlLm1hZT4nLCAnLW9tYWUnLCAnPG91dGZpbGUubWFlPic=

> <r_lp_tautomer_probability>
1

> <r_epik_Ionization_Penalty>
1.26334e-07

> <r_epik_Ionization_Penalty_Charging>
0

> <r_epik_Ionization_Penalty_Neutral>
1.26334e-07

> <r_epik_State_Penalty>
-0

> <r_epik_Charging_Adjusted_Penalty>
0

> <i_epik_Tot_Q>
0

> <i_epik_Tot_abs_Q>
0

> <r_epik_Metal_State_Penalty>
-0

> <b_epik_Metal_Only>
0

> <s_lp_Force_Field>
OPLS_2005

> <r_lp_Energy>
-2.84912

> <b_lp_Chiralities_Consistent>
1

> <s_lp_Variant>
AV-unprocessed.smi:1778-1

> <Gold.Version>
5.8.1

> <Gold.Id.Protein>
6NUR|6NUR_protein|mol2

> <Gold.PLP.Fitness>
34.5644

> <Gold.PLP.PLP>
-26.3345

> <Gold.PLP.part.hbond>
-3.0000

> <Gold.PLP.part.metal>
0.0000

> <Gold.PLP.part.buried>
-5.5549

> <Gold.PLP.part.nonpolar>
-18.2232

> <Gold.PLP.part.repulsive>
0.5223

> <Gold.PLP.ligand.clash>
0.0000

> <Gold.PLP.ligand.torsion>
0.3862

> <Gold.PLP.Chemscore.Hbond>
3.0000

> <Gold.PLP.Chemscore.CHOScore>
0.0000

> <Gold.PLP.Chemscore.Metal>
0.0000

> <Gold.Chemscore.Hbonds>
donor molecule, donor type, donor heavy atom, donor atom, acceptor molecule, acceptor atom, score
      L1  H    11    27       P1  7948  1.00
      P1  H  6896  6907       L1    17  1.00
      P1  H 10752 10765       L1    16  1.00

> <Gold.PLP.Chemscore.Internal.Correction>
0.0023

> <Gold.Rescore>
     Score         DG    S(hbond)    S(metal)    S(lipo)     H(rot)  DE(clash)    DE(int)     intcor
     15.42     -16.15       2.36        0.00      56.80       1.51       0.35       0.39       ----

> <Gold.Chemscore.Fitness>
15.4189

> <Gold.Chemscore.DG>
-16.1525

> <Gold.Chemscore.ZeroCoef>
-5.4800

> <Gold.Chemscore.Hbond>
2.3593

> <Gold.Chemscore.Metal>
0.0000

> <Gold.Chemscore.Lipo>
56.7995

> <Gold.Chemscore.Internal_Hbond>
0.0000

> <Gold.Chemscore.DEClash>
0.3481

> <Gold.Chemscore.DEInternal>
0.3855

> <Gold.Chemscore.Rot>
1.5051

> <Gold.Chemscore.Internal.Correction>
   9.000000E+99

> <Gold.Chemscore.Hbonds>
donor molecule, donor type, donor heavy atom, donor atom, acceptor molecule, acceptor atom, score
      L1  H    11    27       P1  7948  0.45
      P1  H  6896  6907       L1    17  0.78
      P1  H 10752 10765       L1    16  0.93

> <Gold.Chemscore.Hbond.Weighted>
-7.8801

> <Gold.Chemscore.Metal.Weighted>
-0.0000

> <Gold.Chemscore.Lipo.Weighted>
-6.6455

> <Gold.Chemscore.Internal_Hbond.Weighted>
0.0000

> <Gold.Chemscore.DEClash.Weighted>
0.3481

> <Gold.Chemscore.DEInternal.Weighted>
0.3855

> <Gold.Chemscore.Rot.Weighted>
3.8531

> <Gold.Chemscore.Internal.Correction.Weighted>
   9.000000E+99

> <Gold.Protein.RotatedTorsions>
[ 6907 6896 6895 6894 ] final -160.51 input  -60.11 | X-H torsion
[ 7974 7965 7964 7962 ] final  173.72 input  175.53 | X-H torsion
[ 8008 7997 7996 7995 ] final -150.05 input   59.86 | X-H torsion
[ 10167 10162 10161 10158 ] final   42.53 input  -65.29 | X-H torsion
[ 10718 10713 10712 10709 ] final -127.86 input   66.30 | X-H torsion
[ 10763 10752 10751 10750 ] final -146.20 input  -60.55 | X-H torsion
[ 11005 11000 10999 10996 ] final   27.10 input  -57.11 | X-H torsion

> <Gold.Protein.ActiveResidues>
 VAL166  LYS551  ARG553  GLY616  TRP617  ASP618  TYR619  PRO620  LYS621  CYS622 
 ASP623  PHE694  ASN695  SER759  ASP760  ASP761  ALA762  ILE779  LEU786  VAL792 
 PHE793  MET794  SER795  GLU796  ALA797  LYS798  CYS799  TRP800  GLU811  SER814 

> <Gold.Protein.RotatedAtoms>
  151.3501  133.3928  159.2679 H   0  0  0  0  0  0  0  0  0  0  0  0  # atno 6907 bound_to 6896
  150.9808  134.9164  159.7853 H   0  0  0  0  0  0  0  0  0  0  0  0  # atno 6908 bound_to 6896
  152.5216  134.3465  159.9288 H   0  0  0  0  0  0  0  0  0  0  0  0  # atno 6909 bound_to 6896
  144.7237  139.9690  143.6436 H   0  0  0  0  0  0  0  0  0  0  0  0  # atno 7974 bound_to 7965
  155.6173  140.0678  157.2688 H   0  0  0  0  0  0  0  0  0  0  0  0  # atno 8008 bound_to 7997
  154.4238  140.1790  156.1383 H   0  0  0  0  0  0  0  0  0  0  0  0  # atno 8009 bound_to 7997
  156.0037  140.3333  155.6874 H   0  0  0  0  0  0  0  0  0  0  0  0  # atno 8010 bound_to 7997
  140.3534  144.2320  150.6143 H   0  0  0  0  0  0  0  0  0  0  0  0  # atno 10167 bound_to 10162
  156.1896  130.6786  151.0407 H   0  0  0  0  0  0  0  0  0  0  0  0  # atno 10718 bound_to 10713
  154.8347  135.3393  154.6624 H   0  0  0  0  0  0  0  0  0  0  0  0  # atno 10763 bound_to 10752
  153.7240  135.6956  153.5010 H   0  0  0  0  0  0  0  0  0  0  0  0  # atno 10764 bound_to 10752
  153.2361  135.4400  155.0600 H   0  0  0  0  0  0  0  0  0  0  0  0  # atno 10765 bound_to 10752
  140.3299  134.2450  155.7704 H   0  0  0  0  0  0  0  0  0  0  0  0  # atno 11005 bound_to 11000
  146.0578  139.3573  143.0600 LP  0  0  0  0  0  0  0  0  0  0  0  0  # atno 17320 bound_to 7965
  145.8132  140.9715  143.0937 LP  0  0  0  0  0  0  0  0  0  0  0  0  # atno 17321 bound_to 7965
  140.5196  143.2269  151.8409 LP  0  0  0  0  0  0  0  0  0  0  0  0  # atno 17342 bound_to 10162
  139.4823  144.4852  151.9256 LP  0  0  0  0  0  0  0  0  0  0  0  0  # atno 17343 bound_to 10162
  157.6921  131.0806  150.7078 LP  0  0  0  0  0  0  0  0  0  0  0  0  # atno 17370 bound_to 10713
  156.7135  130.4659  149.5541 LP  0  0  0  0  0  0  0  0  0  0  0  0  # atno 17371 bound_to 10713
  141.2066  133.7829  157.0168 LP  0  0  0  0  0  0  0  0  0  0  0  0  # atno 17394 bound_to 11000
  140.0870  134.9615  157.1715 LP  0  0  0  0  0  0  0  0  0  0  0  0  # atno 17395 bound_to 11000

$$$$
