AV-unprocessed.smi:1793|AV-procd|sdf|7225|dock8
  -GOLD-   22720 8473D 1   1.00000     0.00000
 Structure written by MMmdl.
 46 48  0  0  0  0  0  0  0  0  1 V2000
  144.1558  135.5719  152.8301 C   0  0  0  0  0  0  0  0  0  0  0  0
  145.0525  135.7125  151.5917 C   0  0  1  0  0  0  0  0  0  0  0  0
  146.2175  136.5250  151.9383 N   0  0  0  0  0  0  0  0  0  0  0  0
  146.1906  137.7421  152.4999 C   0  0  0  0  0  0  0  0  0  0  0  0
  145.1552  138.3364  152.7997 O   0  0  0  0  0  0  0  0  0  0  0  0
  147.4350  138.2071  152.6980 N   0  0  0  0  0  0  0  0  0  0  0  0
  147.8312  139.4140  153.3407 C   0  0  0  0  0  0  0  0  0  0  0  0
  147.1049  140.6175  153.1668 C   0  0  0  0  0  0  0  0  0  0  0  0
  147.5733  141.7996  153.7655 C   0  0  0  0  0  0  0  0  0  0  0  0
  148.7652  141.7415  154.5062 C   0  0  0  0  0  0  0  0  0  0  0  0
  149.4757  140.6080  154.6694 N   0  0  0  0  0  0  0  0  0  0  0  0
  149.0295  139.4554  154.1111 C   0  0  0  0  0  0  0  0  0  0  0  0
  149.8123  138.2977  154.3305 N   0  0  0  0  0  0  0  0  0  0  0  0
  151.1834  138.4117  154.8162 C   0  0  0  0  0  0  0  0  0  0  0  0
  151.5555  137.0081  155.2853 C   0  0  0  0  0  0  0  0  0  0  0  0
  150.2359  136.4942  155.8526 C   0  0  0  0  0  0  0  0  0  0  0  0
  149.1780  137.1371  154.9496 C   0  0  0  0  0  0  0  0  0  0  0  0
  145.5066  134.3430  151.0503 C   0  0  2  0  0  0  0  0  0  0  0  0
  144.3713  133.4140  150.6171 C   0  0  0  0  0  0  0  0  0  0  0  0
  144.9887  132.0291  150.7241 C   0  0  0  0  0  0  0  0  0  0  0  0
  146.2178  132.2362  151.6146 C   0  0  0  0  0  0  0  0  0  0  0  0
  146.1339  133.5803  152.0692 O   0  0  0  0  0  0  0  0  0  0  0  0
  143.2602  134.9927  152.6033 H   0  0  0  0  0  0  0  0  0  0  0  0
  143.8308  136.5480  153.1920 H   0  0  0  0  0  0  0  0  0  0  0  0
  144.6779  135.0703  153.6457 H   0  0  0  0  0  0  0  0  0  0  0  0
  144.4670  136.2070  150.8147 H   0  0  0  0  0  0  0  0  0  0  0  0
  147.1202  136.1234  151.7314 H   0  0  0  0  0  0  0  0  0  0  0  0
  148.1867  137.5710  152.4759 H   0  0  0  0  0  0  0  0  0  0  0  0
  146.2101  140.6592  152.5648 H   0  0  0  0  0  0  0  0  0  0  0  0
  147.0389  142.7305  153.6481 H   0  0  0  0  0  0  0  0  0  0  0  0
  149.1630  142.6293  154.9750 H   0  0  0  0  0  0  0  0  0  0  0  0
  151.8542  138.7693  154.0348 H   0  0  0  0  0  0  0  0  0  0  0  0
  151.2390  139.1013  155.6595 H   0  0  0  0  0  0  0  0  0  0  0  0
  151.8586  136.3966  154.4341 H   0  0  0  0  0  0  0  0  0  0  0  0
  152.3665  137.0041  156.0139 H   0  0  0  0  0  0  0  0  0  0  0  0
  150.1737  135.4059  155.8690 H   0  0  0  0  0  0  0  0  0  0  0  0
  150.1132  136.8537  156.8751 H   0  0  0  0  0  0  0  0  0  0  0  0
  148.2839  137.4074  155.5131 H   0  0  0  0  0  0  0  0  0  0  0  0
  148.8868  136.4371  154.1662 H   0  0  0  0  0  0  0  0  0  0  0  0
  146.2099  134.4740  150.2252 H   0  0  0  0  0  0  0  0  0  0  0  0
  143.5343  133.4955  151.3121 H   0  0  0  0  0  0  0  0  0  0  0  0
  144.0000  133.6368  149.6165 H   0  0  0  0  0  0  0  0  0  0  0  0
  144.2857  131.3170  151.1573 H   0  0  0  0  0  0  0  0  0  0  0  0
  145.2875  131.6531  149.7451 H   0  0  0  0  0  0  0  0  0  0  0  0
  146.2457  131.5431  152.4558 H   0  0  0  0  0  0  0  0  0  0  0  0
  147.1347  132.1081  151.0380 H   0  0  0  0  0  0  0  0  0  0  0  0
  1  2  1  0  0  0  0
  1 23  1  0  0  0  0
  1 24  1  0  0  0  0
  1 25  1  0  0  0  0
  2  3  1  0  0  0  0
  2 18  1  0  0  0  0
  2 26  1  0  0  0  0
  3  4  1  0  0  0  0
  3 27  1  0  0  0  0
  4  5  2  0  0  0  0
  4  6  1  0  0  0  0
  6  7  1  0  0  0  0
  6 28  1  0  0  0  0
  7 12  1  0  0  0  0
  7  8  2  0  0  0  0
  8  9  1  0  0  0  0
  8 29  1  0  0  0  0
  9 10  2  0  0  0  0
  9 30  1  0  0  0  0
 10 11  1  0  0  0  0
 10 31  1  0  0  0  0
 11 12  2  0  0  0  0
 12 13  1  0  0  0  0
 13 17  1  0  0  0  0
 13 14  1  0  0  0  0
 14 15  1  0  0  0  0
 14 32  1  0  0  0  0
 14 33  1  0  0  0  0
 15 16  1  0  0  0  0
 15 34  1  0  0  0  0
 15 35  1  0  0  0  0
 16 17  1  0  0  0  0
 16 36  1  0  0  0  0
 16 37  1  0  0  0  0
 17 38  1  0  0  0  0
 17 39  1  0  0  0  0
 18 22  1  0  0  0  0
 18 19  1  0  0  0  0
 18 40  1  0  0  0  0
 19 20  1  0  0  0  0
 19 41  1  0  0  0  0
 19 42  1  0  0  0  0
 20 21  1  0  0  0  0
 20 43  1  0  0  0  0
 20 44  1  0  0  0  0
 21 22  1  0  0  0  0
 21 45  1  0  0  0  0
 21 46  1  0  0  0  0
M  END
> <s_m_source_file>
AV-unprocessed.smi

> <i_m_source_file_index>
1793

> <i_lp_mmshare_version>
43012

> <i_f3d_flags>
0

> <s_epik_input>
TzFbQ0gyXVtDSDJdW0NIMl1bQ0BIXTFbQ0BIXShbQ0gzXSlbTkhdQyg9TylbTkhdYzJbY0hdW2NIXVtjSF1uYzJOM1tDSDJdW0NIMl1bQ0gyXVtDSDJdMw==

> <s_epik_cmdline>
J2VwaWtfcHl0aG9uJywgJy1waCcsICc3LjAnLCAnLXRuJywgJzgnLCAnLW1hJywgJzIwMCcsICctbWV0YWxfYmluZGluZycsICctaW1hZScsICc8aW5maWxlLm1hZT4nLCAnLW9tYWUnLCAnPG91dGZpbGUubWFlPic=

> <r_lp_tautomer_probability>
1

> <r_epik_Ionization_Penalty>
0.0992086

> <r_epik_Ionization_Penalty_Charging>
0

> <r_epik_Ionization_Penalty_Neutral>
0.0992086

> <r_epik_State_Penalty>
0.0887141

> <r_epik_Charging_Adjusted_Penalty>
0.0887141

> <i_epik_Tot_Q>
0

> <i_epik_Tot_abs_Q>
0

> <r_epik_Metal_State_Penalty>
0.075945

> <b_epik_Metal_Only>
0

> <s_lp_Force_Field>
OPLS_2005

> <r_lp_Energy>
46.0011

> <b_lp_Chiralities_Consistent>
1

> <s_lp_Variant>
AV-unprocessed.smi:1793-2

> <Gold.Version>
5.8.1

> <Gold.Id.Protein>
6NUR|6NUR_protein|mol2

> <Gold.PLP.Fitness>
41.9015

> <Gold.PLP.PLP>
-33.6308

> <Gold.PLP.part.hbond>
-2.3545

> <Gold.PLP.part.metal>
0.0000

> <Gold.PLP.part.buried>
-3.0738

> <Gold.PLP.part.nonpolar>
-31.7961

> <Gold.PLP.part.repulsive>
4.6369

> <Gold.PLP.ligand.clash>
0.0000

> <Gold.PLP.ligand.torsion>
0.5325

> <Gold.PLP.Chemscore.Hbond>
1.9920

> <Gold.PLP.Chemscore.CHOScore>
1.0000

> <Gold.PLP.Chemscore.Metal>
0.0000

> <Gold.Chemscore.Hbonds>
donor molecule, donor type, donor heavy atom, donor atom, acceptor molecule, acceptor atom, score
      L1  H     3    27       P1  7948  0.99
      L1  H     6    28       P1  7948  1.00
      L1  C    10    31       P1  8028  1.00

> <Gold.PLP.Chemscore.Internal.Correction>
0.3596

> <Gold.Rescore>
     Score         DG    S(hbond)    S(metal)    S(lipo)     H(rot)  DE(clash)    DE(int)     intcor
     14.14     -18.66       1.93        0.00      87.42       1.36       1.67       2.85       ----

> <Gold.Chemscore.Fitness>
14.1420

> <Gold.Chemscore.DG>
-18.6621

> <Gold.Chemscore.ZeroCoef>
-5.4800

> <Gold.Chemscore.Hbond>
1.9256

> <Gold.Chemscore.Metal>
0.0000

> <Gold.Chemscore.Lipo>
87.4158

> <Gold.Chemscore.Internal_Hbond>
0.0000

> <Gold.Chemscore.DEClash>
1.6722

> <Gold.Chemscore.DEInternal>
2.8479

> <Gold.Chemscore.Rot>
1.3582

> <Gold.Chemscore.Internal.Correction>
   9.000000E+99

> <Gold.Chemscore.Hbonds>
donor molecule, donor type, donor heavy atom, donor atom, acceptor molecule, acceptor atom, score
      L1  H     3    27       P1  7948  0.94
      L1  H     6    28       P1  7948  0.99
      P1  H  7989  7998       L1    11  0.01

> <Gold.Chemscore.Hbond.Weighted>
-6.4315

> <Gold.Chemscore.Metal.Weighted>
-0.0000

> <Gold.Chemscore.Lipo.Weighted>
-10.2277

> <Gold.Chemscore.Internal_Hbond.Weighted>
0.0000

> <Gold.Chemscore.DEClash.Weighted>
1.6722

> <Gold.Chemscore.DEInternal.Weighted>
2.8479

> <Gold.Chemscore.Rot.Weighted>
3.4771

> <Gold.Chemscore.Internal.Correction.Weighted>
   9.000000E+99

> <Gold.Protein.RotatedTorsions>
[ 6907 6896 6895 6894 ] final  -54.49 input  -60.11 | X-H torsion
[ 7974 7965 7964 7962 ] final   -1.88 input  175.53 | X-H torsion
[ 8008 7997 7996 7995 ] final -176.38 input   59.86 | X-H torsion
[ 10167 10162 10161 10158 ] final   61.13 input  -65.29 | X-H torsion
[ 10718 10713 10712 10709 ] final  -38.41 input   66.30 | X-H torsion
[ 10763 10752 10751 10750 ] final  -80.32 input  -60.55 | X-H torsion
[ 11005 11000 10999 10996 ] final   11.75 input  -57.11 | X-H torsion

> <Gold.Protein.ActiveResidues>
 VAL166  LYS551  ARG553  GLY616  TRP617  ASP618  TYR619  PRO620  LYS621  CYS622 
 ASP623  PHE694  ASN695  SER759  ASP760  ASP761  ALA762  ILE779  LEU786  VAL792 
 PHE793  MET794  SER795  GLU796  ALA797  LYS798  CYS799  TRP800  GLU811  SER814 

> <Gold.Protein.RotatedAtoms>
  150.8334  134.7597  159.6872 H   0  0  0  0  0  0  0  0  0  0  0  0  # atno 6907 bound_to 6896
  152.4435  134.5540  159.9885 H   0  0  0  0  0  0  0  0  0  0  0  0  # atno 6908 bound_to 6896
  151.5696  133.3354  159.3023 H   0  0  0  0  0  0  0  0  0  0  0  0  # atno 6909 bound_to 6896
  146.2412  140.1486  142.8334 H   0  0  0  0  0  0  0  0  0  0  0  0  # atno 7974 bound_to 7965
  155.9941  140.1207  157.0610 H   0  0  0  0  0  0  0  0  0  0  0  0  # atno 8008 bound_to 7997
  154.4221  140.1120  156.5674 H   0  0  0  0  0  0  0  0  0  0  0  0  # atno 8009 bound_to 7997
  155.6302  140.3473  155.4683 H   0  0  0  0  0  0  0  0  0  0  0  0  # atno 8010 bound_to 7997
  140.1581  144.4397  150.6723 H   0  0  0  0  0  0  0  0  0  0  0  0  # atno 10167 bound_to 10162
  156.3040  130.4244  149.8115 H   0  0  0  0  0  0  0  0  0  0  0  0  # atno 10718 bound_to 10713
  154.5498  135.5665  153.6912 H   0  0  0  0  0  0  0  0  0  0  0  0  # atno 10763 bound_to 10752
  152.9986  135.6248  154.2390 H   0  0  0  0  0  0  0  0  0  0  0  0  # atno 10764 bound_to 10752
  154.2324  135.2865  155.2864 H   0  0  0  0  0  0  0  0  0  0  0  0  # atno 10765 bound_to 10752
  140.4997  134.0758  155.7790 H   0  0  0  0  0  0  0  0  0  0  0  0  # atno 11005 bound_to 11000
  145.0186  140.8775  143.5180 LP  0  0  0  0  0  0  0  0  0  0  0  0  # atno 17320 bound_to 7965
  145.1531  139.2502  143.5430 LP  0  0  0  0  0  0  0  0  0  0  0  0  # atno 17321 bound_to 7965
  140.6660  143.2268  151.5741 LP  0  0  0  0  0  0  0  0  0  0  0  0  # atno 17342 bound_to 10162
  139.5394  144.2690  152.1319 LP  0  0  0  0  0  0  0  0  0  0  0  0  # atno 17343 bound_to 10162
  156.5482  130.8330  151.3291 LP  0  0  0  0  0  0  0  0  0  0  0  0  # atno 17370 bound_to 10713
  157.7375  130.9797  150.2197 LP  0  0  0  0  0  0  0  0  0  0  0  0  # atno 17371 bound_to 10713
  141.1442  133.9085  157.2255 LP  0  0  0  0  0  0  0  0  0  0  0  0  # atno 17394 bound_to 11000
  139.9721  135.0125  156.9538 LP  0  0  0  0  0  0  0  0  0  0  0  0  # atno 17395 bound_to 11000

$$$$
