AV-unprocessed.smi:794|AV-procd|sdf|3756|dock7
  -GOLD-   22720 1193D 1   1.00000     0.00000
 Structure written by MMmdl.
 41 43  0  0  0  0  0  0  0  0  1 V2000
  145.2574  126.7683  155.0616 C   0  0  0  0  0  0  0  0  0  0  0  0
  146.3380  127.2793  154.1592 C   0  0  0  0  0  0  0  0  0  0  0  0
  146.1217  128.4403  153.4111 N   0  0  0  0  0  0  0  0  0  0  0  0
  147.1786  128.7624  152.6587 C   0  0  0  0  0  0  0  0  0  0  0  0
  147.2369  129.8907  151.7995 N   0  0  0  0  0  0  0  0  0  0  0  0
  146.3301  130.8728  151.6550 C   0  0  0  0  0  0  0  0  0  0  0  0
  145.2657  130.9532  152.2688 O   0  0  0  0  0  0  0  0  0  0  0  0
  146.7327  131.7714  150.7454 N   0  0  0  0  0  0  0  0  0  0  0  0
  146.0015  132.9790  150.3679 C   0  0  2  0  0  0  0  0  0  0  0  0
  146.1212  134.0526  151.4721 C   0  0  1  0  0  0  0  0  0  0  0  0
  145.6932  135.4108  150.8879 C   0  0  0  0  0  0  0  0  0  0  0  0
  144.1682  135.2464  150.7477 C   0  0  0  0  0  0  0  0  0  0  0  0
  143.9245  133.8125  151.2669 C   0  0  2  0  0  0  0  0  0  0  0  0
  144.9475  133.7311  152.3929 C   0  0  0  0  0  0  0  0  0  0  0  0
  144.4705  132.7432  150.2906 C   0  0  1  0  0  0  0  0  0  0  0  0
  143.8761  132.7952  148.8699 C   0  0  0  0  0  0  0  0  0  0  0  0
  142.6181  132.1559  148.8464 O   0  0  0  0  0  0  0  0  0  0  0  0
  148.5237  127.6467  152.8202 S   0  0  0  0  0  0  0  0  0  0  0  0
  147.5805  126.7218  153.9625 C   0  0  0  0  0  0  0  0  0  0  0  0
  148.1363  125.4903  154.5965 C   0  0  0  0  0  0  0  0  0  0  0  0
  144.9938  125.7399  154.8145 H   0  0  0  0  0  0  0  0  0  0  0  0
  144.3493  127.3672  154.9843 H   0  0  0  0  0  0  0  0  0  0  0  0
  145.5760  126.7872  156.1039 H   0  0  0  0  0  0  0  0  0  0  0  0
  148.0682  129.9600  151.2313 H   0  0  0  0  0  0  0  0  0  0  0  0
  147.6206  131.6201  150.2895 H   0  0  0  0  0  0  0  0  0  0  0  0
  146.3964  133.3727  149.4291 H   0  0  0  0  0  0  0  0  0  0  0  0
  147.0966  134.0833  151.9592 H   0  0  0  0  0  0  0  0  0  0  0  0
  145.9286  136.2225  151.5775 H   0  0  0  0  0  0  0  0  0  0  0  0
  146.1794  135.6302  149.9365 H   0  0  0  0  0  0  0  0  0  0  0  0
  143.6528  135.9718  151.3786 H   0  0  0  0  0  0  0  0  0  0  0  0
  143.8192  135.4019  149.7275 H   0  0  0  0  0  0  0  0  0  0  0  0
  142.8949  133.6312  151.5766 H   0  0  0  0  0  0  0  0  0  0  0  0
  145.0123  132.7432  152.8519 H   0  0  0  0  0  0  0  0  0  0  0  0
  144.7936  134.4770  153.1750 H   0  0  0  0  0  0  0  0  0  0  0  0
  144.2250  131.7694  150.7202 H   0  0  0  0  0  0  0  0  0  0  0  0
  143.7404  133.8295  148.5532 H   0  0  0  0  0  0  0  0  0  0  0  0
  144.5293  132.3133  148.1425 H   0  0  0  0  0  0  0  0  0  0  0  0
  141.9457  132.8063  148.9798 H   0  0  0  0  0  0  0  0  0  0  0  0
  148.1353  125.5805  155.6829 H   0  0  0  0  0  0  0  0  0  0  0  0
  149.1621  125.3083  154.2756 H   0  0  0  0  0  0  0  0  0  0  0  0
  147.5408  124.6172  154.3297 H   0  0  0  0  0  0  0  0  0  0  0  0
  1  2  1  0  0  0  0
  1 21  1  0  0  0  0
  1 22  1  0  0  0  0
  1 23  1  0  0  0  0
  2 19  2  0  0  0  0
  2  3  1  0  0  0  0
  3  4  2  0  0  0  0
  4  5  1  0  0  0  0
  4 18  1  0  0  0  0
  5  6  1  0  0  0  0
  5 24  1  0  0  0  0
  6  7  2  0  0  0  0
  6  8  1  0  0  0  0
  8  9  1  0  0  0  0
  8 25  1  0  0  0  0
  9 15  1  0  0  0  0
  9 10  1  0  0  0  0
  9 26  1  0  0  0  0
 10 14  1  0  0  0  0
 10 11  1  0  0  0  0
 10 27  1  0  0  0  0
 11 12  1  0  0  0  0
 11 28  1  0  0  0  0
 11 29  1  0  0  0  0
 12 13  1  0  0  0  0
 12 30  1  0  0  0  0
 12 31  1  0  0  0  0
 13 14  1  0  0  0  0
 13 15  1  0  0  0  0
 13 32  1  0  0  0  0
 14 33  1  0  0  0  0
 14 34  1  0  0  0  0
 15 16  1  0  0  0  0
 15 35  1  0  0  0  0
 16 17  1  0  0  0  0
 16 36  1  0  0  0  0
 16 37  1  0  0  0  0
 17 38  1  0  0  0  0
 18 19  1  0  0  0  0
 19 20  1  0  0  0  0
 20 39  1  0  0  0  0
 20 40  1  0  0  0  0
 20 41  1  0  0  0  0
M  END
> <s_m_source_file>
AV-unprocessed.smi

> <i_m_source_file_index>
794

> <i_lp_mmshare_version>
43012

> <i_f3d_flags>
0

> <s_epik_input>
W0NIM11jMW5jKHNjMVtDSDNdKVtOSF1DKD1PKVtOSF1bQ0BIXShbQ0BASF0yMylbQ0BIXShbQ0gyXVtPSF0pW0NAQEhdKFtDSDJdMylbQ0gyXVtDSDJdMg==

> <s_epik_cmdline>
J2VwaWtfcHl0aG9uJywgJy1waCcsICc3LjAnLCAnLXRuJywgJzgnLCAnLW1hJywgJzIwMCcsICctbWV0YWxfYmluZGluZycsICctaW1hZScsICc8aW5maWxlLm1hZT4nLCAnLW9tYWUnLCAnPG91dGZpbGUubWFlPic=

> <r_lp_tautomer_probability>
0.999

> <r_epik_Ionization_Penalty>
0.000713029

> <r_epik_Ionization_Penalty_Charging>
0

> <r_epik_Ionization_Penalty_Neutral>
0.000713029

> <r_epik_State_Penalty>
0.000177984

> <r_epik_Charging_Adjusted_Penalty>
0.000177984

> <i_epik_Tot_Q>
0

> <i_epik_Tot_abs_Q>
0

> <r_epik_Metal_State_Penalty>
-0

> <b_epik_Metal_Only>
0

> <s_lp_Force_Field>
OPLS_2005

> <r_lp_Energy>
47.5891

> <b_lp_Chiralities_Consistent>
1

> <s_lp_Variant>
AV-unprocessed.smi:794-1

> <Gold.Version>
5.8.1

> <Gold.Id.Protein>
6NUR|6NUR_protein|mol2

> <Gold.PLP.Fitness>
47.6042

> <Gold.PLP.PLP>
-36.5543

> <Gold.PLP.part.hbond>
-4.6100

> <Gold.PLP.part.metal>
0.0000

> <Gold.PLP.part.buried>
-6.1297

> <Gold.PLP.part.nonpolar>
-26.7709

> <Gold.PLP.part.repulsive>
0.3930

> <Gold.PLP.ligand.clash>
0.0000

> <Gold.PLP.ligand.torsion>
0.4374

> <Gold.PLP.Chemscore.Hbond>
3.9680

> <Gold.PLP.Chemscore.CHOScore>
0.0000

> <Gold.PLP.Chemscore.Metal>
0.0000

> <Gold.Chemscore.Hbonds>
donor molecule, donor type, donor heavy atom, donor atom, acceptor molecule, acceptor atom, score
      L1  H     5    24       P1 10747  0.99
      L1  H     8    25       P1 10747  0.98
      L1  H    17    38       P1 10186  1.00
      P1  H 10785 10796       L1    17  0.84

> <Gold.PLP.Chemscore.Internal.Correction>
0.0206

> <Gold.Rescore>
     Score         DG    S(hbond)    S(metal)    S(lipo)     H(rot)  DE(clash)    DE(int)     intcor
     16.03     -20.74       3.48        0.00      69.95       1.78       0.15       4.57       ----

> <Gold.Chemscore.Fitness>
16.0261

> <Gold.Chemscore.DG>
-20.7403

> <Gold.Chemscore.ZeroCoef>
-5.4800

> <Gold.Chemscore.Hbond>
3.4828

> <Gold.Chemscore.Metal>
0.0000

> <Gold.Chemscore.Lipo>
69.9487

> <Gold.Chemscore.Internal_Hbond>
0.0000

> <Gold.Chemscore.DEClash>
0.1470

> <Gold.Chemscore.DEInternal>
4.5672

> <Gold.Chemscore.Rot>
1.7798

> <Gold.Chemscore.Internal.Correction>
   9.000000E+99

> <Gold.Chemscore.Hbonds>
donor molecule, donor type, donor heavy atom, donor atom, acceptor molecule, acceptor atom, score
      L1  H     5    24       P1 10747  0.87
      L1  H     8    25       P1 10747  0.89
      L1  H    17    38       P1 10186  0.99
      P1  H 10785 10796       L1    17  0.24

> <Gold.Chemscore.Hbond.Weighted>
-11.6325

> <Gold.Chemscore.Metal.Weighted>
-0.0000

> <Gold.Chemscore.Lipo.Weighted>
-8.1840

> <Gold.Chemscore.Internal_Hbond.Weighted>
0.0000

> <Gold.Chemscore.DEClash.Weighted>
0.1470

> <Gold.Chemscore.DEInternal.Weighted>
4.5672

> <Gold.Chemscore.Rot.Weighted>
4.5562

> <Gold.Chemscore.Internal.Correction.Weighted>
   9.000000E+99

> <Gold.Protein.RotatedTorsions>
[ 6907 6896 6895 6894 ] final  -17.84 input  -60.11 | X-H torsion
[ 7974 7965 7964 7962 ] final  -58.67 input  175.53 | X-H torsion
[ 8008 7997 7996 7995 ] final -170.18 input   59.86 | X-H torsion
[ 10167 10162 10161 10158 ] final  -29.61 input  -65.29 | X-H torsion
[ 10718 10713 10712 10709 ] final -170.54 input   66.30 | X-H torsion
[ 10763 10752 10751 10750 ] final   83.62 input  -60.55 | X-H torsion
[ 11005 11000 10999 10996 ] final  -19.72 input  -57.11 | X-H torsion

> <Gold.Protein.ActiveResidues>
 VAL166  LYS551  ARG553  GLY616  TRP617  ASP618  TYR619  PRO620  LYS621  CYS622 
 ASP623  PHE694  ASN695  SER759  ASP760  ASP761  ALA762  ILE779  LEU786  VAL792 
 PHE793  MET794  SER795  GLU796  ALA797  LYS798  CYS799  TRP800  GLU811  SER814 

> <Gold.Protein.RotatedAtoms>
  151.2872  135.0731  159.9190 H   0  0  0  0  0  0  0  0  0  0  0  0  # atno 6907 bound_to 6896
  152.5323  133.9969  159.7887 H   0  0  0  0  0  0  0  0  0  0  0  0  # atno 6908 bound_to 6896
  151.0233  133.5806  159.2699 H   0  0  0  0  0  0  0  0  0  0  0  0  # atno 6909 bound_to 6896
  145.8366  140.8445  143.0056 H   0  0  0  0  0  0  0  0  0  0  0  0  # atno 7974 bound_to 7965
  155.9148  140.1064  157.1252 H   0  0  0  0  0  0  0  0  0  0  0  0  # atno 8008 bound_to 7997
  154.4045  140.1267  156.4669 H   0  0  0  0  0  0  0  0  0  0  0  0  # atno 8009 bound_to 7997
  155.7266  140.3469  155.5042 H   0  0  0  0  0  0  0  0  0  0  0  0  # atno 8010 bound_to 7997
  140.7259  143.3915  151.1422 H   0  0  0  0  0  0  0  0  0  0  0  0  # atno 10167 bound_to 10162
  156.7277  130.9294  151.3102 H   0  0  0  0  0  0  0  0  0  0  0  0  # atno 10718 bound_to 10713
  153.1308  135.4684  154.9345 H   0  0  0  0  0  0  0  0  0  0  0  0  # atno 10763 bound_to 10752
  154.7662  135.3145  154.8284 H   0  0  0  0  0  0  0  0  0  0  0  0  # atno 10764 bound_to 10752
  153.8827  135.6892  153.4820 H   0  0  0  0  0  0  0  0  0  0  0  0  # atno 10765 bound_to 10752
  140.8395  133.7937  155.9845 H   0  0  0  0  0  0  0  0  0  0  0  0  # atno 11005 bound_to 11000
  144.6736  140.0750  143.7471 LP  0  0  0  0  0  0  0  0  0  0  0  0  # atno 17320 bound_to 7965
  145.9512  139.2735  143.1211 LP  0  0  0  0  0  0  0  0  0  0  0  0  # atno 17321 bound_to 7965
  139.7521  143.8763  152.3079 LP  0  0  0  0  0  0  0  0  0  0  0  0  # atno 17342 bound_to 10162
  139.8620  144.7112  150.9088 LP  0  0  0  0  0  0  0  0  0  0  0  0  # atno 17343 bound_to 10162
  157.6872  130.9197  150.0417 LP  0  0  0  0  0  0  0  0  0  0  0  0  # atno 17370 bound_to 10713
  156.1550  130.3643  149.9382 LP  0  0  0  0  0  0  0  0  0  0  0  0  # atno 17371 bound_to 10713
  140.8911  134.2494  157.5094 LP  0  0  0  0  0  0  0  0  0  0  0  0  # atno 17394 bound_to 11000
  139.8703  134.9662  156.4554 LP  0  0  0  0  0  0  0  0  0  0  0  0  # atno 17395 bound_to 11000

$$$$
