AV-unprocessed.smi:160|AV-procd|sdf|1357|dock10
  -GOLD-   2262019 63D 1   1.00000     0.00000
 Structure written by MMmdl.
 29 30  0  0  0  0  0  0  0  0  1 V2000
  154.5903  138.4580  160.4417 N   0  0  0  0  0  0  0  0  0  0  0  0
  154.8053  138.9113  159.2024 C   0  0  0  0  0  0  0  0  0  0  0  0
  155.9269  139.2103  158.7956 O   0  0  0  0  0  0  0  0  0  0  0  0
  153.5929  139.0394  158.3224 C   0  0  0  0  0  0  0  0  0  0  0  0
  152.3381  139.1224  158.8562 N   0  0  0  0  0  0  0  0  0  0  0  0
  151.6391  139.2141  157.7320 C   0  0  0  0  0  0  0  0  0  0  0  0
  152.3826  139.1958  156.6212 N   0  0  0  0  0  0  0  0  0  0  0  0
  151.9607  139.2765  155.1838 C   0  0  2  0  0  0  0  0  0  0  0  0
  151.1352  140.3933  155.0299 O   0  0  0  0  0  0  0  0  0  0  0  0
  149.7757  139.9780  154.9440 C   0  0  1  0  0  0  0  0  0  0  0  0
  148.9366  141.0691  154.2618 C   0  0  0  0  0  0  0  0  0  0  0  0
  148.5713  142.0573  155.2015 O   0  0  0  0  0  0  0  0  0  0  0  0
  149.9069  138.6956  154.1211 C   0  0  2  0  0  0  0  0  0  0  0  0
  148.7550  137.8758  154.1880 O   0  0  0  0  0  0  0  0  0  0  0  0
  151.1590  138.0418  154.7043 C   0  0  2  0  0  0  0  0  0  0  0  0
  150.8611  137.1038  155.7281 O   0  0  0  0  0  0  0  0  0  0  0  0
  153.6827  139.0781  156.9922 N   0  0  0  0  0  0  0  0  0  0  0  0
  152.8921  139.4261  154.6365 H   0  0  0  0  0  0  0  0  0  0  0  0
  149.3857  139.7431  155.9362 H   0  0  0  0  0  0  0  0  0  0  0  0
  150.0949  138.9538  153.0776 H   0  0  0  0  0  0  0  0  0  0  0  0
  151.7243  137.5267  153.9268 H   0  0  0  0  0  0  0  0  0  0  0  0
  155.3643  138.3504  161.0803 H   0  0  0  0  0  0  0  0  0  0  0  0
  153.6507  138.2261  160.7305 H   0  0  0  0  0  0  0  0  0  0  0  0
  150.5626  139.2994  157.7183 H   0  0  0  0  0  0  0  0  0  0  0  0
  149.4715  141.5183  153.4245 H   0  0  0  0  0  0  0  0  0  0  0  0
  148.0154  140.6407  153.8656 H   0  0  0  0  0  0  0  0  0  0  0  0
  148.8427  142.9004  154.8725 H   0  0  0  0  0  0  0  0  0  0  0  0
  148.8137  137.2209  153.5094 H   0  0  0  0  0  0  0  0  0  0  0  0
  151.4852  136.3958  155.6813 H   0  0  0  0  0  0  0  0  0  0  0  0
  1  2  1  0  0  0  0
  1 22  1  0  0  0  0
  1 23  1  0  0  0  0
  2  3  2  0  0  0  0
  2  4  1  0  0  0  0
  4 17  2  0  0  0  0
  4  5  1  0  0  0  0
  5  6  2  0  0  0  0
  6  7  1  0  0  0  0
  6 24  1  0  0  0  0
  7  8  1  0  0  0  0
  7 17  1  0  0  0  0
  8 18  1  0  0  0  0
  8 15  1  0  0  0  0
  8  9  1  0  0  0  0
  9 10  1  0  0  0  0
 10 19  1  0  0  0  0
 10 11  1  0  0  0  0
 10 13  1  0  0  0  0
 11 12  1  0  0  0  0
 11 25  1  0  0  0  0
 11 26  1  0  0  0  0
 12 27  1  0  0  0  0
 13 20  1  0  0  0  0
 13 14  1  0  0  0  0
 13 15  1  0  0  0  0
 14 28  1  0  0  0  0
 15 21  1  0  0  0  0
 15 16  1  0  0  0  0
 16 29  1  0  0  0  0
M  END
> <s_m_source_file>
AV-unprocessed.smi

> <i_m_source_file_index>
160

> <i_lp_mmshare_version>
43012

> <i_f3d_flags>
0

> <s_epik_input>
W05IMl1DKD1PKWMxbltjSF1uKG4xKVtDQEBIXTJPW0NASF0oW0NIMl1bT0hdKVtDQEBIXShbT0hdKVtDQEhdMltPSF0=

> <s_epik_cmdline>
J2VwaWtfcHl0aG9uJywgJy1waCcsICc3LjAnLCAnLXRuJywgJzgnLCAnLW1hJywgJzIwMCcsICctbWV0YWxfYmluZGluZycsICctaW1hZScsICc8aW5maWxlLm1hZT4nLCAnLW9tYWUnLCAnPG91dGZpbGUubWFlPic=

> <r_lp_tautomer_probability>
1

> <r_epik_Ionization_Penalty>
1.06932e-05

> <r_epik_Ionization_Penalty_Charging>
0

> <r_epik_Ionization_Penalty_Neutral>
1.06932e-05

> <r_epik_State_Penalty>
-0

> <r_epik_Charging_Adjusted_Penalty>
0

> <i_epik_Tot_Q>
0

> <i_epik_Tot_abs_Q>
0

> <r_epik_Metal_State_Penalty>
0.0142097

> <b_epik_Metal_Only>
0

> <s_epik_Chemistry_Notes>
This compound contains an acetal/aminal-like group ( X-CH(R)-Y where X, Y are N, S, or O) that may be acid/base labile, releasing an aldehyde.

> <s_lp_Force_Field>
OPLS_2005

> <r_lp_Energy>
46.1783

> <b_lp_Chiralities_Consistent>
1

> <s_lp_Variant>
AV-unprocessed.smi:160-15

> <Gold.Version>
5.8.1

> <Gold.Id.Protein>
6NUR|6NUR_protein|mol2

> <Gold.PLP.Fitness>
37.4710

> <Gold.PLP.PLP>
-25.5239

> <Gold.PLP.part.hbond>
-4.6394

> <Gold.PLP.part.metal>
0.0000

> <Gold.PLP.part.buried>
-2.6319

> <Gold.PLP.part.nonpolar>
-17.7952

> <Gold.PLP.part.repulsive>
0.0625

> <Gold.PLP.ligand.clash>
0.0000

> <Gold.PLP.ligand.torsion>
0.4785

> <Gold.PLP.Chemscore.Hbond>
4.2960

> <Gold.PLP.Chemscore.CHOScore>
0.0000

> <Gold.PLP.Chemscore.Metal>
0.0000

> <Gold.Chemscore.Hbonds>
donor molecule, donor type, donor heavy atom, donor atom, acceptor molecule, acceptor atom, score
      L1  H    12    27       P1  8028  0.69
      L1  H    14    28       P1  7948  1.00
      P1  H  7989  7998       L1     9  0.95
      P1  H  7997  8009       L1     3  1.00
      P1  H  7997  8010       L1    17  0.42

> <Gold.PLP.Chemscore.Internal.Correction>
0.0161

> <Gold.Rescore>
     Score         DG    S(hbond)    S(metal)    S(lipo)     H(rot)  DE(clash)    DE(int)     intcor
      9.29     -10.07       3.50        0.00      28.30       4.06       0.20       0.58       ----

> <Gold.Chemscore.Fitness>
9.2853

> <Gold.Chemscore.DG>
-10.0710

> <Gold.Chemscore.ZeroCoef>
-5.4800

> <Gold.Chemscore.Hbond>
3.4951

> <Gold.Chemscore.Metal>
0.0000

> <Gold.Chemscore.Lipo>
28.2991

> <Gold.Chemscore.Internal_Hbond>
0.0000

> <Gold.Chemscore.DEClash>
0.2011

> <Gold.Chemscore.DEInternal>
0.5846

> <Gold.Chemscore.Rot>
4.0600

> <Gold.Chemscore.Internal.Correction>
   9.000000E+99

> <Gold.Chemscore.Hbonds>
donor molecule, donor type, donor heavy atom, donor atom, acceptor molecule, acceptor atom, score
      L1  H    12    27       P1  8028  0.67
      L1  H    14    28       P1  7948  1.00
      P1  H  7989  7998       L1     9  0.15
      P1  H  7997  8009       L1     3  0.70
      P1  H  7997  8010       L1    17  0.23

> <Gold.Chemscore.Hbond.Weighted>
-11.6736

> <Gold.Chemscore.Metal.Weighted>
-0.0000

> <Gold.Chemscore.Lipo.Weighted>
-3.3110

> <Gold.Chemscore.Internal_Hbond.Weighted>
0.0000

> <Gold.Chemscore.DEClash.Weighted>
0.2011

> <Gold.Chemscore.DEInternal.Weighted>
0.5846

> <Gold.Chemscore.Rot.Weighted>
10.3936

> <Gold.Chemscore.Internal.Correction.Weighted>
   9.000000E+99

> <Gold.Protein.RotatedTorsions>
[ 6907 6896 6895 6894 ] final -122.68 input  -60.11 | X-H torsion
[ 7974 7965 7964 7962 ] final  140.97 input  175.53 | X-H torsion
[ 8008 7997 7996 7995 ] final   81.28 input   59.86 | X-H torsion
[ 10167 10162 10161 10158 ] final  -47.86 input  -65.29 | X-H torsion
[ 10718 10713 10712 10709 ] final  -49.40 input   66.30 | X-H torsion
[ 10763 10752 10751 10750 ] final -126.62 input  -60.55 | X-H torsion
[ 11005 11000 10999 10996 ] final   53.32 input  -57.11 | X-H torsion

> <Gold.Protein.ActiveResidues>
 VAL166  LYS551  ARG553  GLY616  TRP617  ASP618  TYR619  PRO620  LYS621  CYS622 
 ASP623  PHE694  ASN695  SER759  ASP760  ASP761  ALA762  ILE779  LEU786  VAL792 
 PHE793  MET794  SER795  GLU796  ALA797  LYS798  CYS799  TRP800  GLU811  SER814 

> <Gold.Protein.RotatedAtoms>
  150.8599  133.7659  159.2995 H   0  0  0  0  0  0  0  0  0  0  0  0  # atno 6907 bound_to 6896
  151.5304  135.1066  159.9911 H   0  0  0  0  0  0  0  0  0  0  0  0  # atno 6908 bound_to 6896
  152.4618  133.7795  159.6899 H   0  0  0  0  0  0  0  0  0  0  0  0  # atno 6909 bound_to 6896
  144.9138  139.5258  143.5696 H   0  0  0  0  0  0  0  0  0  0  0  0  # atno 7974 bound_to 7965
  155.8950  140.3436  155.5984 H   0  0  0  0  0  0  0  0  0  0  0  0  # atno 8008 bound_to 7997
  155.7567  140.0827  157.2194 H   0  0  0  0  0  0  0  0  0  0  0  0  # atno 8009 bound_to 7997
  154.4037  140.1543  156.2772 H   0  0  0  0  0  0  0  0  0  0  0  0  # atno 8010 bound_to 7997
  140.6756  143.2765  151.3987 H   0  0  0  0  0  0  0  0  0  0  0  0  # atno 10167 bound_to 10162
  156.1897  130.4152  149.9389 H   0  0  0  0  0  0  0  0  0  0  0  0  # atno 10718 bound_to 10713
  154.8747  135.3989  154.3460 H   0  0  0  0  0  0  0  0  0  0  0  0  # atno 10763 bound_to 10752
  153.4253  135.7024  153.6272 H   0  0  0  0  0  0  0  0  0  0  0  0  # atno 10764 bound_to 10752
  153.4917  135.3747  155.2465 H   0  0  0  0  0  0  0  0  0  0  0  0  # atno 10765 bound_to 10752
  140.0777  134.5382  155.8979 H   0  0  0  0  0  0  0  0  0  0  0  0  # atno 11005 bound_to 11000
  146.3172  139.7965  142.8974 LP  0  0  0  0  0  0  0  0  0  0  0  0  # atno 17320 bound_to 7965
  145.3410  141.0287  143.3392 LP  0  0  0  0  0  0  0  0  0  0  0  0  # atno 17321 bound_to 7965
  139.6047  144.1221  152.2237 LP  0  0  0  0  0  0  0  0  0  0  0  0  # atno 17342 bound_to 10162
  140.0616  144.5852  150.7258 LP  0  0  0  0  0  0  0  0  0  0  0  0  # atno 17343 bound_to 10162
  156.7134  130.8979  151.3611 LP  0  0  0  0  0  0  0  0  0  0  0  0  # atno 17370 bound_to 10713
  157.6921  130.9244  150.0542 LP  0  0  0  0  0  0  0  0  0  0  0  0  # atno 17371 bound_to 10713
  141.2035  133.6632  156.6068 LP  0  0  0  0  0  0  0  0  0  0  0  0  # atno 17394 bound_to 11000
  140.3534  134.7749  157.4483 LP  0  0  0  0  0  0  0  0  0  0  0  0  # atno 17395 bound_to 11000

$$$$
