AV-unprocessed.smi:1047|AV-procd|sdf|4585|dock3
  -GOLD-   22720 3 53D 1   1.00000     0.00000
 Structure written by MMmdl.
 58 60  0  0  0  0  0  0  0  0  4 V2000
  149.5268  130.6773  154.2096 C   0  0  0  0  0  0  0  0  0  0  0  0
  149.5591  132.2124  154.2021 C   0  0  0  0  0  0  0  0  0  0  0  0
  150.2747  132.7727  155.3794 N   0  3  2  0  0  0  0  0  0  0  0  0
  149.5740  132.5370  156.6651 C   0  0  0  0  0  0  0  0  0  0  0  0
  148.4037  133.5196  156.8492 C   0  0  0  0  0  0  0  0  0  0  0  0
  148.8871  134.8547  156.7581 O   0  0  0  0  0  0  0  0  0  0  0  0
  149.4589  135.1453  155.4863 C   0  0  1  0  0  0  0  0  0  0  0  0
  149.8876  136.6209  155.4840 C   0  0  0  0  0  0  0  0  0  0  0  0
  150.5793  136.9810  154.2296 N   0  3  0  0  0  0  0  0  0  0  0  0
  151.0589  138.3773  154.1871 C   0  0  0  0  0  0  0  0  0  0  0  0
  152.1778  138.6197  155.2141 C   0  0  1  0  0  0  0  0  0  0  0  0
  153.0369  139.6273  154.7177 O   0  0  0  0  0  0  0  0  0  0  0  0
  151.6131  139.0489  156.5828 C   0  0  0  0  0  0  0  0  0  0  0  0
  151.1514  140.4450  156.6026 N   0  0  0  0  0  0  0  0  0  0  0  0
  150.3454  141.1043  155.7260 C   0  0  0  0  0  0  0  0  0  0  0  0
  150.2218  142.3872  156.1653 N   0  3  0  0  0  0  0  0  0  0  0  0
  150.9611  142.5517  157.3381 C   0  0  0  0  0  0  0  0  0  0  0  0
  151.1463  143.6664  158.1468 C   0  0  0  0  0  0  0  0  0  0  0  0
  151.9667  143.5075  159.2863 C   0  0  0  0  0  0  0  0  0  0  0  0
  152.1917  144.7077  160.1904 C   0  0  0  0  0  0  0  0  0  0  0  0
  152.5686  142.2576  159.5837 C   0  0  0  0  0  0  0  0  0  0  0  0
  153.4462  142.0978  160.8135 C   0  0  0  0  0  0  0  0  0  0  0  0
  152.3688  141.1357  158.7475 C   0  0  0  0  0  0  0  0  0  0  0  0
  151.5597  141.3093  157.6265 C   0  0  0  0  0  0  0  0  0  0  0  0
  150.6615  134.2022  155.2561 C   0  0  0  0  0  0  0  0  0  0  0  0
  148.9076  130.3038  153.3937 H   0  0  0  0  0  0  0  0  0  0  0  0
  149.1073  130.2960  155.1411 H   0  0  0  0  0  0  0  0  0  0  0  0
  150.5184  130.2439  154.0833 H   0  0  0  0  0  0  0  0  0  0  0  0
  149.9892  132.5795  153.2705 H   0  0  0  0  0  0  0  0  0  0  0  0
  148.5261  132.5622  154.2182 H   0  0  0  0  0  0  0  0  0  0  0  0
  149.2300  131.5045  156.7356 H   0  0  0  0  0  0  0  0  0  0  0  0
  150.2905  132.6753  157.4759 H   0  0  0  0  0  0  0  0  0  0  0  0
  147.6201  133.3484  156.1099 H   0  0  0  0  0  0  0  0  0  0  0  0
  147.9487  133.3779  157.8296 H   0  0  0  0  0  0  0  0  0  0  0  0
  148.7113  134.9963  154.7055 H   0  0  0  0  0  0  0  0  0  0  0  0
  149.0193  137.2664  155.6236 H   0  0  0  0  0  0  0  0  0  0  0  0
  150.5649  136.8088  156.3182 H   0  0  0  0  0  0  0  0  0  0  0  0
  151.3696  136.3651  154.1024 H   0  0  0  0  0  0  0  0  0  0  0  0
  151.4065  138.6186  153.1812 H   0  0  0  0  0  0  0  0  0  0  0  0
  150.2160  139.0365  154.3993 H   0  0  0  0  0  0  0  0  0  0  0  0
  152.7597  137.7058  155.3418 H   0  0  0  0  0  0  0  0  0  0  0  0
  152.7688  139.8441  153.8373 H   0  0  0  0  0  0  0  0  0  0  0  0
  150.8009  138.3946  156.9007 H   0  0  0  0  0  0  0  0  0  0  0  0
  152.3878  138.9608  157.3456 H   0  0  0  0  0  0  0  0  0  0  0  0
  149.8895  140.6879  154.8391 H   0  0  0  0  0  0  0  0  0  0  0  0
  150.6839  144.6150  157.9150 H   0  0  0  0  0  0  0  0  0  0  0  0
  153.2535  144.9483  160.2503 H   0  0  0  0  0  0  0  0  0  0  0  0
  151.8247  144.5041  161.1967 H   0  0  0  0  0  0  0  0  0  0  0  0
  151.6713  145.5908  159.8185 H   0  0  0  0  0  0  0  0  0  0  0  0
  153.8145  141.0762  160.9115 H   0  0  0  0  0  0  0  0  0  0  0  0
  152.8867  142.3375  161.7181 H   0  0  0  0  0  0  0  0  0  0  0  0
  154.3108  142.7593  160.7552 H   0  0  0  0  0  0  0  0  0  0  0  0
  152.8267  140.1853  158.9784 H   0  0  0  0  0  0  0  0  0  0  0  0
  151.4266  134.4055  156.0070 H   0  0  0  0  0  0  0  0  0  0  0  0
  151.1292  134.3996  154.2923 H   0  0  0  0  0  0  0  0  0  0  0  0
  149.9386  136.8469  153.4597 H   0  0  0  0  0  0  0  0  0  0  0  0
  151.1350  132.2458  155.4360 H   0  0  0  0  0  0  0  0  0  0  0  0
  149.6758  143.0978  155.6945 H   0  0  0  0  0  0  0  0  0  0  0  0
  1  2  1  0  0  0  0
  1 26  1  0  0  0  0
  1 27  1  0  0  0  0
  1 28  1  0  0  0  0
  2  3  1  0  0  0  0
  2 29  1  0  0  0  0
  2 30  1  0  0  0  0
  3 25  1  0  0  0  0
  3  4  1  0  0  0  0
  3 57  1  0  0  0  0
  4  5  1  0  0  0  0
  4 31  1  0  0  0  0
  4 32  1  0  0  0  0
  5  6  1  0  0  0  0
  5 33  1  0  0  0  0
  5 34  1  0  0  0  0
  6  7  1  0  0  0  0
  7  8  1  0  0  0  0
  7 25  1  0  0  0  0
  7 35  1  0  0  0  0
  8  9  1  0  0  0  0
  8 36  1  0  0  0  0
  8 37  1  0  0  0  0
  9 10  1  0  0  0  0
  9 38  1  0  0  0  0
  9 56  1  0  0  0  0
 10 11  1  0  0  0  0
 10 39  1  0  0  0  0
 10 40  1  0  0  0  0
 11 12  1  0  0  0  0
 11 13  1  0  0  0  0
 11 41  1  0  0  0  0
 12 42  1  0  0  0  0
 13 14  1  0  0  0  0
 13 43  1  0  0  0  0
 13 44  1  0  0  0  0
 14 24  1  0  0  0  0
 14 15  1  0  0  0  0
 15 16  2  0  0  0  0
 15 45  1  0  0  0  0
 16 17  1  0  0  0  0
 16 58  1  0  0  0  0
 17 24  2  0  0  0  0
 17 18  1  0  0  0  0
 18 19  2  0  0  0  0
 18 46  1  0  0  0  0
 19 20  1  0  0  0  0
 19 21  1  0  0  0  0
 20 47  1  0  0  0  0
 20 48  1  0  0  0  0
 20 49  1  0  0  0  0
 21 22  1  0  0  0  0
 21 23  2  0  0  0  0
 22 50  1  0  0  0  0
 22 51  1  0  0  0  0
 22 52  1  0  0  0  0
 23 24  1  0  0  0  0
 23 53  1  0  0  0  0
 25 54  1  0  0  0  0
 25 55  1  0  0  0  0
M  CHG  1   3   1
M  CHG  1   9   1
M  CHG  1  16   1
M  END
> <s_m_source_file>
AV-unprocessed.smi

> <i_m_source_file_index>
1047

> <i_lp_mmshare_version>
43012

> <i_f3d_flags>
0

> <s_epik_input>
W0NIM11bQ0gyXU4xW0NIMl1bQ0gyXU9bQ0BIXShbQ0gyXTEpW0NIMl1bTkhdW0NIMl1bQ0BIXShbT0hdKVtDSDJdbihbY0hdbjIpYyhjMjMpW2NIXWMoW0NIM10pYyhbY0hdMylbQ0gzXQ==

> <s_epik_cmdline>
J2VwaWtfcHl0aG9uJywgJy1waCcsICc3LjAnLCAnLXRuJywgJzgnLCAnLW1hJywgJzIwMCcsICctbWV0YWxfYmluZGluZycsICctaW1hZScsICc8aW5maWxlLm1hZT4nLCAnLW9tYWUnLCAnPG91dGZpbGUubWFlPic=

> <r_epik_Ionization_Penalty>
1.6114

> <r_epik_Ionization_Penalty_Charging>
1.61139

> <r_epik_Ionization_Penalty_Neutral>
5.04732e-06

> <r_epik_State_Penalty>
1.63724

> <r_epik_Charging_Adjusted_Penalty>
3.24864

> <i_epik_Tot_Q>
3

> <i_epik_Tot_abs_Q>
3

> <r_epik_Metal_State_Penalty>
5.64594

> <b_epik_Metal_Only>
0

> <s_lp_Force_Field>
OPLS_2005

> <r_lp_Energy>
39.6477

> <b_lp_Chiralities_Consistent>
1

> <s_lp_Variant>
AV-unprocessed.smi:1047-26

> <Gold.Version>
5.8.1

> <Gold.Id.Protein>
6NUR|6NUR_protein|mol2

> <Gold.PLP.Fitness>
65.7935

> <Gold.PLP.PLP>
-52.0048

> <Gold.PLP.part.hbond>
-5.0000

> <Gold.PLP.part.metal>
0.0000

> <Gold.PLP.part.buried>
-7.9218

> <Gold.PLP.part.nonpolar>
-40.1671

> <Gold.PLP.part.repulsive>
0.2189

> <Gold.PLP.ligand.clash>
0.0000

> <Gold.PLP.ligand.torsion>
0.6832

> <Gold.PLP.Chemscore.Hbond>
4.9840

> <Gold.PLP.Chemscore.CHOScore>
0.0000

> <Gold.PLP.Chemscore.Metal>
0.0000

> <Gold.Chemscore.Hbonds>
donor molecule, donor type, donor heavy atom, donor atom, acceptor molecule, acceptor atom, score
      L1  H     9    56       P1  7948  2.00
      L1  H    16    58       P1  8028  2.00
      P1  H  7997  8008       L1    12  1.00

> <Gold.PLP.Chemscore.Internal.Correction>
0.2031

> <Gold.Rescore>
     Score         DG    S(hbond)    S(metal)    S(lipo)     H(rot)  DE(clash)    DE(int)     intcor
     21.70     -22.47       2.60        0.00     132.06       2.78       0.09       0.69       ----

> <Gold.Chemscore.Fitness>
21.6962

> <Gold.Chemscore.DG>
-22.4749

> <Gold.Chemscore.ZeroCoef>
-5.4800

> <Gold.Chemscore.Hbond>
2.5968

> <Gold.Chemscore.Metal>
0.0000

> <Gold.Chemscore.Lipo>
132.0572

> <Gold.Chemscore.Internal_Hbond>
0.0000

> <Gold.Chemscore.DEClash>
0.0911

> <Gold.Chemscore.DEInternal>
0.6875

> <Gold.Chemscore.Rot>
2.7848

> <Gold.Chemscore.Internal.Correction>
   9.000000E+99

> <Gold.Chemscore.Hbonds>
donor molecule, donor type, donor heavy atom, donor atom, acceptor molecule, acceptor atom, score
      L1  H     9    56       P1  7948  0.25
      L1  H    16    58       P1  8028  0.96
      P1  H  7997  8008       L1    12  0.87

> <Gold.Chemscore.Hbond.Weighted>
-8.6733

> <Gold.Chemscore.Metal.Weighted>
-0.0000

> <Gold.Chemscore.Lipo.Weighted>
-15.4507

> <Gold.Chemscore.Internal_Hbond.Weighted>
0.0000

> <Gold.Chemscore.DEClash.Weighted>
0.0911

> <Gold.Chemscore.DEInternal.Weighted>
0.6875

> <Gold.Chemscore.Rot.Weighted>
7.1291

> <Gold.Chemscore.Internal.Correction.Weighted>
   9.000000E+99

> <Gold.Protein.RotatedTorsions>
[ 6907 6896 6895 6894 ] final   11.75 input  -60.11 | X-H torsion
[ 7974 7965 7964 7962 ] final -124.81 input  175.53 | X-H torsion
[ 8008 7997 7996 7995 ] final  -22.28 input   59.86 | X-H torsion
[ 10167 10162 10161 10158 ] final   51.07 input  -65.29 | X-H torsion
[ 10718 10713 10712 10709 ] final    8.02 input   66.30 | X-H torsion
[ 10763 10752 10751 10750 ] final   98.38 input  -60.55 | X-H torsion
[ 11005 11000 10999 10996 ] final  -54.35 input  -57.11 | X-H torsion

> <Gold.Protein.ActiveResidues>
 VAL166  LYS551  ARG553  GLY616  TRP617  ASP618  TYR619  PRO620  LYS621  CYS622 
 ASP623  PHE694  ASN695  SER759  ASP760  ASP761  ALA762  ILE779  LEU786  VAL792 
 PHE793  MET794  SER795  GLU796  ALA797  LYS798  CYS799  TRP800  GLU811  SER814 

> <Gold.Protein.RotatedAtoms>
  151.7593  135.0814  160.0342 H   0  0  0  0  0  0  0  0  0  0  0  0  # atno 6907 bound_to 6896
  152.3364  133.6012  159.5854 H   0  0  0  0  0  0  0  0  0  0  0  0  # atno 6908 bound_to 6896
  150.7453  133.9706  159.3586 H   0  0  0  0  0  0  0  0  0  0  0  0  # atno 6909 bound_to 6896
  145.0042  140.7848  143.4478 H   0  0  0  0  0  0  0  0  0  0  0  0  # atno 7974 bound_to 7965
  154.4654  140.2012  156.0133 H   0  0  0  0  0  0  0  0  0  0  0  0  # atno 8008 bound_to 7997
  156.0916  140.3257  155.7795 H   0  0  0  0  0  0  0  0  0  0  0  0  # atno 8009 bound_to 7997
  155.4946  140.0549  157.2939 H   0  0  0  0  0  0  0  0  0  0  0  0  # atno 8010 bound_to 7997
  140.2657  144.3322  150.6304 H   0  0  0  0  0  0  0  0  0  0  0  0  # atno 10167 bound_to 10162
  156.9455  130.5877  149.5654 H   0  0  0  0  0  0  0  0  0  0  0  0  # atno 10718 bound_to 10713
  153.2883  135.4150  155.1143 H   0  0  0  0  0  0  0  0  0  0  0  0  # atno 10763 bound_to 10752
  154.8512  135.3512  154.6016 H   0  0  0  0  0  0  0  0  0  0  0  0  # atno 10764 bound_to 10752
  153.6438  135.7055  153.5290 H   0  0  0  0  0  0  0  0  0  0  0  0  # atno 10765 bound_to 10752
  141.1022  133.6617  156.4308 H   0  0  0  0  0  0  0  0  0  0  0  0  # atno 11005 bound_to 11000
  145.2111  139.2204  143.5142 LP  0  0  0  0  0  0  0  0  0  0  0  0  # atno 17320 bound_to 7965
  146.3458  140.1950  142.8589 LP  0  0  0  0  0  0  0  0  0  0  0  0  # atno 17321 bound_to 7965
  140.5930  143.2167  151.7217 LP  0  0  0  0  0  0  0  0  0  0  0  0  # atno 17342 bound_to 10162
  139.5003  144.3910  152.0279 LP  0  0  0  0  0  0  0  0  0  0  0  0  # atno 17343 bound_to 10162
  156.0386  130.5471  150.8714 LP  0  0  0  0  0  0  0  0  0  0  0  0  # atno 17370 bound_to 10713
  157.5757  131.0946  150.9350 LP  0  0  0  0  0  0  0  0  0  0  0  0  # atno 17371 bound_to 10713
  140.4994  134.6500  157.5242 LP  0  0  0  0  0  0  0  0  0  0  0  0  # atno 17394 bound_to 11000
  139.9877  134.7035  155.9744 LP  0  0  0  0  0  0  0  0  0  0  0  0  # atno 17395 bound_to 11000

$$$$
