AV-unprocessed.smi:972|AV-procd|sdf|4298|dock2
  -GOLD-   22720 2203D 1   1.00000     0.00000
 Structure written by MMmdl.
 50 52  0  0  0  0  0  0  0  0  1 V2000
  143.6537  132.2313  149.0608 C   0  0  0  0  0  0  0  0  0  0  0  0
  144.8333  132.2949  150.0597 C   0  0  0  0  0  0  0  0  0  0  0  0
  144.5695  131.1832  151.1024 C   0  0  0  0  0  0  0  0  0  0  0  0
  146.1510  132.0065  149.3172 C   0  0  0  0  0  0  0  0  0  0  0  0
  144.9169  133.6755  150.7338 C   0  0  0  0  0  0  0  0  0  0  0  0
  144.0789  134.6227  150.2919 N   0  0  0  0  0  0  0  0  0  0  0  0
  144.2307  135.8708  150.7812 C   0  0  0  0  0  0  0  0  0  0  0  0
  145.2551  136.1970  151.6920 C   0  0  0  0  0  0  0  0  0  0  0  0
  145.3469  137.5315  152.1710 N   0  0  0  0  0  0  0  0  0  0  0  0
  146.0995  138.0127  153.1750 C   0  0  0  0  0  0  0  0  0  0  0  0
  146.8750  137.3507  153.8638 O   0  0  0  0  0  0  0  0  0  0  0  0
  145.9104  139.3314  153.3255 N   0  0  0  0  0  0  0  0  0  0  0  0
  146.5760  140.1855  154.3054 C   0  0  0  0  0  0  0  0  0  0  0  0
  148.0460  140.3971  153.9095 C   0  0  0  0  0  0  0  0  0  0  0  0
  148.8111  141.1540  155.0096 C   0  0  0  0  0  0  0  0  0  0  0  0
  148.7352  140.4209  156.2737 N   0  0  0  0  0  0  0  0  0  0  0  0
  149.5029  141.1365  157.2796 C   0  0  0  0  0  0  0  0  0  0  0  0
  150.7823  141.8087  156.8362 C   0  0  0  0  0  0  0  0  0  0  0  0
  150.8410  140.5579  157.6795 C   0  0  0  0  0  0  0  0  0  0  0  0
  147.3433  140.3347  156.7157 C   0  0  0  0  0  0  0  0  0  0  0  0
  146.5119  139.5364  155.6967 C   0  0  0  0  0  0  0  0  0  0  0  0
  146.1044  135.1294  152.0693 C   0  0  0  0  0  0  0  0  0  0  0  0
  145.9392  133.8845  151.5735 N   0  0  0  0  0  0  0  0  0  0  0  0
  143.5625  131.2393  148.6170 H   0  0  0  0  0  0  0  0  0  0  0  0
  143.7781  132.9337  148.2357 H   0  0  0  0  0  0  0  0  0  0  0  0
  142.7059  132.4595  149.5498 H   0  0  0  0  0  0  0  0  0  0  0  0
  143.6550  131.3757  151.6649 H   0  0  0  0  0  0  0  0  0  0  0  0
  145.3858  131.0926  151.8201 H   0  0  0  0  0  0  0  0  0  0  0  0
  144.4611  130.2085  150.6256 H   0  0  0  0  0  0  0  0  0  0  0  0
  146.1279  131.0321  148.8285 H   0  0  0  0  0  0  0  0  0  0  0  0
  147.0004  132.0119  150.0012 H   0  0  0  0  0  0  0  0  0  0  0  0
  146.3437  132.7559  148.5485 H   0  0  0  0  0  0  0  0  0  0  0  0
  143.5320  136.6171  150.4325 H   0  0  0  0  0  0  0  0  0  0  0  0
  144.8052  138.2119  151.6583 H   0  0  0  0  0  0  0  0  0  0  0  0
  145.2536  139.7854  152.7078 H   0  0  0  0  0  0  0  0  0  0  0  0
  146.0915  141.1620  154.3618 H   0  0  0  0  0  0  0  0  0  0  0  0
  148.5285  139.4346  153.7316 H   0  0  0  0  0  0  0  0  0  0  0  0
  148.1041  140.9505  152.9716 H   0  0  0  0  0  0  0  0  0  0  0  0
  149.8553  141.2643  154.7149 H   0  0  0  0  0  0  0  0  0  0  0  0
  148.4046  142.1595  155.1311 H   0  0  0  0  0  0  0  0  0  0  0  0
  148.9638  141.6470  158.0761 H   0  0  0  0  0  0  0  0  0  0  0  0
  151.0694  141.7214  155.7898 H   0  0  0  0  0  0  0  0  0  0  0  0
  151.0448  142.7503  157.3140 H   0  0  0  0  0  0  0  0  0  0  0  0
  151.1418  140.6652  158.7198 H   0  0  0  0  0  0  0  0  0  0  0  0
  151.1670  139.6405  157.1928 H   0  0  0  0  0  0  0  0  0  0  0  0
  147.2994  139.8400  157.6868 H   0  0  0  0  0  0  0  0  0  0  0  0
  146.9257  141.3345  156.8465 H   0  0  0  0  0  0  0  0  0  0  0  0
  145.4763  139.4745  156.0329 H   0  0  0  0  0  0  0  0  0  0  0  0
  146.8844  138.5116  155.6506 H   0  0  0  0  0  0  0  0  0  0  0  0
  146.9139  135.2432  152.7728 H   0  0  0  0  0  0  0  0  0  0  0  0
  1  2  1  0  0  0  0
  1 24  1  0  0  0  0
  1 25  1  0  0  0  0
  1 26  1  0  0  0  0
  2  3  1  0  0  0  0
  2  4  1  0  0  0  0
  2  5  1  0  0  0  0
  3 27  1  0  0  0  0
  3 28  1  0  0  0  0
  3 29  1  0  0  0  0
  4 30  1  0  0  0  0
  4 31  1  0  0  0  0
  4 32  1  0  0  0  0
  5 23  1  0  0  0  0
  5  6  2  0  0  0  0
  6  7  1  0  0  0  0
  7  8  2  0  0  0  0
  7 33  1  0  0  0  0
  8  9  1  0  0  0  0
  8 22  1  0  0  0  0
  9 10  1  0  0  0  0
  9 34  1  0  0  0  0
 10 11  2  0  0  0  0
 10 12  1  0  0  0  0
 12 13  1  0  0  0  0
 12 35  1  0  0  0  0
 13 21  1  0  0  0  0
 13 14  1  0  0  0  0
 13 36  1  0  0  0  0
 14 15  1  0  0  0  0
 14 37  1  0  0  0  0
 14 38  1  0  0  0  0
 15 16  1  0  0  0  0
 15 39  1  0  0  0  0
 15 40  1  0  0  0  0
 16 17  1  0  0  0  0
 16 20  1  0  0  0  0
 17 19  1  0  0  0  0
 17 18  1  0  0  0  0
 17 41  1  0  0  0  0
 18 19  1  0  0  0  0
 18 42  1  0  0  0  0
 18 43  1  0  0  0  0
 19 44  1  0  0  0  0
 19 45  1  0  0  0  0
 20 21  1  0  0  0  0
 20 46  1  0  0  0  0
 20 47  1  0  0  0  0
 21 48  1  0  0  0  0
 21 49  1  0  0  0  0
 22 23  2  0  0  0  0
 22 50  1  0  0  0  0
M  END
> <s_m_source_file>
AV-unprocessed.smi

> <i_m_source_file_index>
972

> <i_lp_mmshare_version>
43012

> <i_f3d_flags>
0

> <s_epik_input>
W0NIM11DKFtDSDNdKShbQ0gzXSljMW5bY0hdYyhbY0hdbjEpW05IXUMoPU8pW05IXVtDSF0yW0NIMl1bQ0gyXU4oW0NIMl1bQ0gyXTIpW0NIXTNbQ0gyXVtDSDJdMw==

> <s_epik_cmdline>
J2VwaWtfcHl0aG9uJywgJy1waCcsICc3LjAnLCAnLXRuJywgJzgnLCAnLW1hJywgJzIwMCcsICctbWV0YWxfYmluZGluZycsICctaW1hZScsICc8aW5maWxlLm1hZT4nLCAnLW9tYWUnLCAnPG91dGZpbGUubWFlPic=

> <r_lp_tautomer_probability>
1

> <r_epik_Ionization_Penalty>
0.990889

> <r_epik_Ionization_Penalty_Charging>
0

> <r_epik_Ionization_Penalty_Neutral>
0.990889

> <r_epik_State_Penalty>
1.03856

> <r_epik_Charging_Adjusted_Penalty>
1.03856

> <i_epik_Tot_Q>
0

> <i_epik_Tot_abs_Q>
0

> <r_epik_Metal_State_Penalty>
1.03856

> <b_epik_Metal_Only>
0

> <s_lp_Force_Field>
OPLS_2005

> <r_lp_Energy>
19.7386

> <b_lp_Chiralities_Consistent>
1

> <s_lp_Variant>
AV-unprocessed.smi:972-3

> <Gold.Version>
5.8.1

> <Gold.Id.Protein>
6NUR|6NUR_protein|mol2

> <Gold.PLP.Fitness>
42.9960

> <Gold.PLP.PLP>
-33.1980

> <Gold.PLP.part.hbond>
-2.0107

> <Gold.PLP.part.metal>
0.0000

> <Gold.PLP.part.buried>
1.2108

> <Gold.PLP.part.nonpolar>
-33.6146

> <Gold.PLP.part.repulsive>
1.3279

> <Gold.PLP.ligand.clash>
0.0000

> <Gold.PLP.ligand.torsion>
1.1116

> <Gold.PLP.Chemscore.Hbond>
1.8163

> <Gold.PLP.Chemscore.CHOScore>
1.7366

> <Gold.PLP.Chemscore.Metal>
0.0000

> <Gold.Chemscore.Hbonds>
donor molecule, donor type, donor heavy atom, donor atom, acceptor molecule, acceptor atom, score
      L1  H     9    34       P1 10171  0.73
      L1  H    12    35       P1 10175  0.98
      L1  C     7    33       P1 10171  1.00
      L1  C    22    50       P1  7948  0.69

> <Gold.PLP.Chemscore.Internal.Correction>
1.3623

> <Gold.Rescore>
     Score         DG    S(hbond)    S(metal)    S(lipo)     H(rot)  DE(clash)    DE(int)     intcor
     13.68     -19.14       1.67        0.00      97.31       1.30       2.28       3.17       ----

> <Gold.Chemscore.Fitness>
13.6815

> <Gold.Chemscore.DG>
-19.1377

> <Gold.Chemscore.ZeroCoef>
-5.4800

> <Gold.Chemscore.Hbond>
1.6730

> <Gold.Chemscore.Metal>
0.0000

> <Gold.Chemscore.Lipo>
97.3092

> <Gold.Chemscore.Internal_Hbond>
0.0000

> <Gold.Chemscore.DEClash>
2.2832

> <Gold.Chemscore.DEInternal>
3.1730

> <Gold.Chemscore.Rot>
1.2951

> <Gold.Chemscore.Internal.Correction>
   9.000000E+99

> <Gold.Chemscore.Hbonds>
donor molecule, donor type, donor heavy atom, donor atom, acceptor molecule, acceptor atom, score
      L1  H     9    34       P1 10171  0.70
      L1  H    12    35       P1 10175  0.93

> <Gold.Chemscore.Hbond.Weighted>
-5.5879

> <Gold.Chemscore.Metal.Weighted>
-0.0000

> <Gold.Chemscore.Lipo.Weighted>
-11.3852

> <Gold.Chemscore.Internal_Hbond.Weighted>
0.0000

> <Gold.Chemscore.DEClash.Weighted>
2.2832

> <Gold.Chemscore.DEInternal.Weighted>
3.1730

> <Gold.Chemscore.Rot.Weighted>
3.3154

> <Gold.Chemscore.Internal.Correction.Weighted>
   9.000000E+99

> <Gold.Protein.RotatedTorsions>
[ 6907 6896 6895 6894 ] final   27.12 input  -60.11 | X-H torsion
[ 7974 7965 7964 7962 ] final   34.19 input  175.53 | X-H torsion
[ 8008 7997 7996 7995 ] final  -13.32 input   59.86 | X-H torsion
[ 10167 10162 10161 10158 ] final  -30.57 input  -65.29 | X-H torsion
[ 10718 10713 10712 10709 ] final   39.61 input   66.30 | X-H torsion
[ 10763 10752 10751 10750 ] final  -69.50 input  -60.55 | X-H torsion
[ 11005 11000 10999 10996 ] final   11.59 input  -57.11 | X-H torsion

> <Gold.Protein.ActiveResidues>
 VAL166  LYS551  ARG553  GLY616  TRP617  ASP618  TYR619  PRO620  LYS621  CYS622 
 ASP623  PHE694  ASN695  SER759  ASP760  ASP761  ALA762  ILE779  LEU786  VAL792 
 PHE793  MET794  SER795  GLU796  ALA797  LYS798  CYS799  TRP800  GLU811  SER814 

> <Gold.Protein.RotatedAtoms>
  151.9976  134.9945  160.0563 H   0  0  0  0  0  0  0  0  0  0  0  0  # atno 6907 bound_to 6896
  152.1549  133.4540  159.4840 H   0  0  0  0  0  0  0  0  0  0  0  0  # atno 6908 bound_to 6896
  150.6880  134.2061  159.4384 H   0  0  0  0  0  0  0  0  0  0  0  0  # atno 6909 bound_to 6896
  146.1369  139.6300  142.9189 H   0  0  0  0  0  0  0  0  0  0  0  0  # atno 7974 bound_to 7965
  154.5302  140.2253  155.8817 H   0  0  0  0  0  0  0  0  0  0  0  0  # atno 8008 bound_to 7997
  156.1756  140.3112  155.9017 H   0  0  0  0  0  0  0  0  0  0  0  0  # atno 8009 bound_to 7997
  155.3466  140.0453  157.3036 H   0  0  0  0  0  0  0  0  0  0  0  0  # atno 8010 bound_to 7997
  140.7247  143.3838  151.1552 H   0  0  0  0  0  0  0  0  0  0  0  0  # atno 10167 bound_to 10162
  157.3725  130.7709  149.7130 H   0  0  0  0  0  0  0  0  0  0  0  0  # atno 10718 bound_to 10713
  154.4043  135.6024  153.5915 H   0  0  0  0  0  0  0  0  0  0  0  0  # atno 10763 bound_to 10752
  152.9789  135.5914  154.4147 H   0  0  0  0  0  0  0  0  0  0  0  0  # atno 10764 bound_to 10752
  154.3950  135.2842  155.2110 H   0  0  0  0  0  0  0  0  0  0  0  0  # atno 10765 bound_to 10752
  140.5015  134.0741  155.7795 H   0  0  0  0  0  0  0  0  0  0  0  0  # atno 11005 bound_to 11000
  145.5134  141.0434  143.2475 LP  0  0  0  0  0  0  0  0  0  0  0  0  # atno 17320 bound_to 7965
  144.7750  139.6650  143.7179 LP  0  0  0  0  0  0  0  0  0  0  0  0  # atno 17321 bound_to 7965
  139.7431  143.8893  152.3056 LP  0  0  0  0  0  0  0  0  0  0  0  0  # atno 17342 bound_to 10162
  139.8721  144.7063  150.8975 LP  0  0  0  0  0  0  0  0  0  0  0  0  # atno 17343 bound_to 10162
  155.9758  130.4083  150.3820 LP  0  0  0  0  0  0  0  0  0  0  0  0  # atno 17370 bound_to 10713
  157.1913  131.0416  151.2698 LP  0  0  0  0  0  0  0  0  0  0  0  0  # atno 17371 bound_to 10713
  141.1433  133.9100  157.2275 LP  0  0  0  0  0  0  0  0  0  0  0  0  # atno 17394 bound_to 11000
  139.9710  135.0128  156.9513 LP  0  0  0  0  0  0  0  0  0  0  0  0  # atno 17395 bound_to 11000

$$$$
