AV-unprocessed.smi:1718|AV-procd|sdf|6924|dock6
  -GOLD-   22720 8133D 1   1.00000     0.00000
 Structure written by MMmdl.
 40 41  0  0  0  0  0  0  0  0  1 V2000
  149.4135  134.9343  155.1528 C   0  0  0  0  0  0  0  0  0  0  0  0
  148.3223  135.9796  155.4287 C   0  0  2  0  0  0  0  0  0  0  0  0
  148.0728  135.9773  156.8306 O   0  0  0  0  0  0  0  0  0  0  0  0
  148.9881  136.7336  157.6168 C   0  0  0  0  0  0  0  0  0  0  0  0
  148.7664  136.4131  159.1011 C   0  0  1  0  0  0  0  0  0  0  0  0
  147.3800  136.8051  159.6349 C   0  0  0  0  0  0  0  0  0  0  0  0
  146.7362  135.4721  159.9632 C   0  0  0  0  0  0  0  0  0  0  0  0
  147.9442  134.6000  160.2762 C   0  0  0  0  0  0  0  0  0  0  0  0
  148.9000  135.0096  159.3111 O   0  0  0  0  0  0  0  0  0  0  0  0
  147.0295  135.6594  154.6608 C   0  0  0  0  0  0  0  0  0  0  0  0
  145.9658  135.5801  155.2748 O   0  0  0  0  0  0  0  0  0  0  0  0
  147.1756  135.4852  153.3321 N   0  0  0  0  0  0  0  0  0  0  0  0
  146.2062  135.2166  152.3507 C   0  0  0  0  0  0  0  0  0  0  0  0
  145.8657  133.9774  151.9086 C   0  0  0  0  0  0  0  0  0  0  0  0
  144.8453  133.7729  150.8940 C   0  0  0  0  0  0  0  0  0  0  0  0
  144.5350  132.3887  150.3450 C   0  0  0  0  0  0  0  0  0  0  0  0
  144.7333  132.3349  149.0272 F   0  0  0  0  0  0  0  0  0  0  0  0
  145.3015  131.4630  150.9218 F   0  0  0  0  0  0  0  0  0  0  0  0
  143.2613  132.0814  150.5860 F   0  0  0  0  0  0  0  0  0  0  0  0
  144.2539  134.8791  150.4064 C   0  0  0  0  0  0  0  0  0  0  0  0
  144.5802  136.1545  150.8726 N   0  0  0  0  0  0  0  0  0  0  0  0
  145.5172  136.4024  151.8150 C   0  0  0  0  0  0  0  0  0  0  0  0
  145.7476  137.5571  152.1725 O   0  0  0  0  0  0  0  0  0  0  0  0
  144.0790  136.9327  150.4690 H   0  0  0  0  0  0  0  0  0  0  0  0
  149.6446  134.8737  154.0888 H   0  0  0  0  0  0  0  0  0  0  0  0
  149.1141  133.9406  155.4888 H   0  0  0  0  0  0  0  0  0  0  0  0
  150.3346  135.1926  155.6755 H   0  0  0  0  0  0  0  0  0  0  0  0
  148.7036  136.9577  155.1284 H   0  0  0  0  0  0  0  0  0  0  0  0
  150.0143  136.4967  157.3325 H   0  0  0  0  0  0  0  0  0  0  0  0
  148.8449  137.8028  157.4580 H   0  0  0  0  0  0  0  0  0  0  0  0
  149.5322  136.9151  159.6939 H   0  0  0  0  0  0  0  0  0  0  0  0
  147.4879  137.4000  160.5427 H   0  0  0  0  0  0  0  0  0  0  0  0
  146.7897  137.3868  158.9261 H   0  0  0  0  0  0  0  0  0  0  0  0
  146.0253  135.5310  160.7877 H   0  0  0  0  0  0  0  0  0  0  0  0
  146.2151  135.0838  159.0871 H   0  0  0  0  0  0  0  0  0  0  0  0
  148.3248  134.8071  161.2775 H   0  0  0  0  0  0  0  0  0  0  0  0
  147.7270  133.5344  160.2015 H   0  0  0  0  0  0  0  0  0  0  0  0
  148.1225  135.5246  152.9825 H   0  0  0  0  0  0  0  0  0  0  0  0
  146.3311  133.0938  152.3125 H   0  0  0  0  0  0  0  0  0  0  0  0
  143.5027  134.8757  149.6303 H   0  0  0  0  0  0  0  0  0  0  0  0
  1  2  1  0  0  0  0
  1 25  1  0  0  0  0
  1 26  1  0  0  0  0
  1 27  1  0  0  0  0
  2  3  1  0  0  0  0
  2 10  1  0  0  0  0
  2 28  1  0  0  0  0
  3  4  1  0  0  0  0
  4  5  1  0  0  0  0
  4 29  1  0  0  0  0
  4 30  1  0  0  0  0
  5  9  1  0  0  0  0
  5  6  1  0  0  0  0
  5 31  1  0  0  0  0
  6  7  1  0  0  0  0
  6 32  1  0  0  0  0
  6 33  1  0  0  0  0
  7  8  1  0  0  0  0
  7 34  1  0  0  0  0
  7 35  1  0  0  0  0
  8  9  1  0  0  0  0
  8 36  1  0  0  0  0
  8 37  1  0  0  0  0
 10 11  2  0  0  0  0
 10 12  1  0  0  0  0
 12 13  1  0  0  0  0
 12 38  1  0  0  0  0
 13 22  1  0  0  0  0
 13 14  2  0  0  0  0
 14 15  1  0  0  0  0
 14 39  1  0  0  0  0
 15 16  1  0  0  0  0
 15 20  2  0  0  0  0
 16 17  1  0  0  0  0
 16 18  1  0  0  0  0
 16 19  1  0  0  0  0
 20 21  1  0  0  0  0
 20 40  1  0  0  0  0
 21 24  1  0  0  0  0
 21 22  1  0  0  0  0
 22 23  2  0  0  0  0
M  END
> <s_m_source_file>
AV-unprocessed.smi

> <i_m_source_file_index>
1718

> <i_lp_mmshare_version>
43012

> <i_f3d_flags>
0

> <s_epik_input>
TzFbQ0gyXVtDSDJdW0NIMl1bQ0BIXTFbQ0gyXU9bQ0BASF0oW0NIM10pQyg9TylbTkhdYzJbY0hdYyhDKEYpKEYpRilbY0hdW25IXWMyPU8=

> <s_epik_cmdline>
J2VwaWtfcHl0aG9uJywgJy1waCcsICc3LjAnLCAnLXRuJywgJzgnLCAnLW1hJywgJzIwMCcsICctbWV0YWxfYmluZGluZycsICctaW1hZScsICc8aW5maWxlLm1hZT4nLCAnLW9tYWUnLCAnPG91dGZpbGUubWFlPic=

> <r_lp_tautomer_probability>
0.999

> <r_epik_Ionization_Penalty>
0.00894336

> <r_epik_Ionization_Penalty_Charging>
0.00894326

> <r_epik_Ionization_Penalty_Neutral>
1.00145e-07

> <r_epik_State_Penalty>
0.00676626

> <r_epik_Charging_Adjusted_Penalty>
0.0157095

> <i_epik_Tot_Q>
0

> <i_epik_Tot_abs_Q>
0

> <r_epik_Metal_State_Penalty>
0.321145

> <b_epik_Metal_Only>
0

> <s_lp_Force_Field>
OPLS_2005

> <r_lp_Energy>
34.3894

> <b_lp_Chiralities_Consistent>
1

> <s_lp_Variant>
AV-unprocessed.smi:1718-3

> <Gold.Version>
5.8.1

> <Gold.Id.Protein>
6NUR|6NUR_protein|mol2

> <Gold.PLP.Fitness>
40.0865

> <Gold.PLP.PLP>
-30.7685

> <Gold.PLP.part.hbond>
-2.5667

> <Gold.PLP.part.metal>
0.0000

> <Gold.PLP.part.buried>
-2.8753

> <Gold.PLP.part.nonpolar>
-26.4829

> <Gold.PLP.part.repulsive>
0.3364

> <Gold.PLP.ligand.clash>
0.0000

> <Gold.PLP.ligand.torsion>
1.1302

> <Gold.PLP.Chemscore.Hbond>
2.8406

> <Gold.PLP.Chemscore.CHOScore>
1.0000

> <Gold.PLP.Chemscore.Metal>
0.0000

> <Gold.Chemscore.Hbonds>
donor molecule, donor type, donor heavy atom, donor atom, acceptor molecule, acceptor atom, score
      L1  H    12    38       P1  7948  0.82
      L1  H    21    24       P1 10171  1.00
      P1  H  6896  6909       L1     9  1.00
      L1  C    20    40       P1 10186  1.00

> <Gold.PLP.Chemscore.Internal.Correction>
0.0567

> <Gold.Rescore>
     Score         DG    S(hbond)    S(metal)    S(lipo)     H(rot)  DE(clash)    DE(int)     intcor
     14.62     -15.87       2.69        0.00      53.15       1.88       0.09       1.16       ----

> <Gold.Chemscore.Fitness>
14.6201

> <Gold.Chemscore.DG>
-15.8732

> <Gold.Chemscore.ZeroCoef>
-5.4800

> <Gold.Chemscore.Hbond>
2.6902

> <Gold.Chemscore.Metal>
0.0000

> <Gold.Chemscore.Lipo>
53.1472

> <Gold.Chemscore.Internal_Hbond>
0.0000

> <Gold.Chemscore.DEClash>
0.0891

> <Gold.Chemscore.DEInternal>
1.1640

> <Gold.Chemscore.Rot>
1.8790

> <Gold.Chemscore.Internal.Correction>
   9.000000E+99

> <Gold.Chemscore.Hbonds>
donor molecule, donor type, donor heavy atom, donor atom, acceptor molecule, acceptor atom, score
      L1  H    12    38       P1  7948  0.78
      L1  H    21    24       P1 10171  0.99
      P1  H  6896  6909       L1     9  0.81

> <Gold.Chemscore.Hbond.Weighted>
-8.9852

> <Gold.Chemscore.Metal.Weighted>
-0.0000

> <Gold.Chemscore.Lipo.Weighted>
-6.2182

> <Gold.Chemscore.Internal_Hbond.Weighted>
0.0000

> <Gold.Chemscore.DEClash.Weighted>
0.0891

> <Gold.Chemscore.DEInternal.Weighted>
1.1640

> <Gold.Chemscore.Rot.Weighted>
4.8102

> <Gold.Chemscore.Internal.Correction.Weighted>
   9.000000E+99

> <Gold.Protein.RotatedTorsions>
[ 6907 6896 6895 6894 ] final   43.35 input  -60.11 | X-H torsion
[ 7974 7965 7964 7962 ] final -135.14 input  175.53 | X-H torsion
[ 8008 7997 7996 7995 ] final  -69.15 input   59.86 | X-H torsion
[ 10167 10162 10161 10158 ] final  -53.35 input  -65.29 | X-H torsion
[ 10718 10713 10712 10709 ] final -122.25 input   66.30 | X-H torsion
[ 10763 10752 10751 10750 ] final -131.45 input  -60.55 | X-H torsion
[ 11005 11000 10999 10996 ] final  160.30 input  -57.11 | X-H torsion

> <Gold.Protein.ActiveResidues>
 VAL166  LYS551  ARG553  GLY616  TRP617  ASP618  TYR619  PRO620  LYS621  CYS622 
 ASP623  PHE694  ASN695  SER759  ASP760  ASP761  ALA762  ILE779  LEU786  VAL792 
 PHE793  MET794  SER795  GLU796  ALA797  LYS798  CYS799  TRP800  GLU811  SER814 

> <Gold.Protein.RotatedAtoms>
  152.2192  134.8429  160.0487 H   0  0  0  0  0  0  0  0  0  0  0  0  # atno 6907 bound_to 6896
  151.9219  133.3582  159.3908 H   0  0  0  0  0  0  0  0  0  0  0  0  # atno 6908 bound_to 6896
  150.6995  134.4552  159.5399 H   0  0  0  0  0  0  0  0  0  0  0  0  # atno 6909 bound_to 6896
  144.9040  140.6809  143.5067 H   0  0  0  0  0  0  0  0  0  0  0  0  # atno 7974 bound_to 7965
  154.4918  140.0859  156.7610 H   0  0  0  0  0  0  0  0  0  0  0  0  # atno 8008 bound_to 7997
  155.4213  140.3446  155.4253 H   0  0  0  0  0  0  0  0  0  0  0  0  # atno 8009 bound_to 7997
  156.1340  140.1509  156.9011 H   0  0  0  0  0  0  0  0  0  0  0  0  # atno 8010 bound_to 7997
  140.6489  143.2553  151.4779 H   0  0  0  0  0  0  0  0  0  0  0  0  # atno 10167 bound_to 10162
  156.1403  130.6461  150.9761 H   0  0  0  0  0  0  0  0  0  0  0  0  # atno 10718 bound_to 10713
  154.8750  135.3829  154.4248 H   0  0  0  0  0  0  0  0  0  0  0  0  # atno 10763 bound_to 10752
  153.4948  135.7030  153.5869 H   0  0  0  0  0  0  0  0  0  0  0  0  # atno 10764 bound_to 10752
  153.4227  135.3897  155.2088 H   0  0  0  0  0  0  0  0  0  0  0  0  # atno 10765 bound_to 10752
  140.2046  134.8312  157.3055 H   0  0  0  0  0  0  0  0  0  0  0  0  # atno 11005 bound_to 11000
  145.3567  139.1692  143.4405 LP  0  0  0  0  0  0  0  0  0  0  0  0  # atno 17320 bound_to 7965
  146.3124  140.3625  142.8666 LP  0  0  0  0  0  0  0  0  0  0  0  0  # atno 17321 bound_to 7965
  139.5702  144.1945  152.1826 LP  0  0  0  0  0  0  0  0  0  0  0  0  # atno 17342 bound_to 10162
  140.1239  144.5348  150.6845 LP  0  0  0  0  0  0  0  0  0  0  0  0  # atno 17343 bound_to 10162
  157.6570  131.0887  150.7925 LP  0  0  0  0  0  0  0  0  0  0  0  0  # atno 17370 bound_to 10713
  156.8001  130.4918  149.5371 LP  0  0  0  0  0  0  0  0  0  0  0  0  # atno 17371 bound_to 10713
  140.2017  134.4247  155.7659 LP  0  0  0  0  0  0  0  0  0  0  0  0  # atno 17394 bound_to 11000
  141.2227  133.7075  156.8194 LP  0  0  0  0  0  0  0  0  0  0  0  0  # atno 17395 bound_to 11000

$$$$
