AV-unprocessed.smi:180|AV-procd|sdf|1452|dock8
  -GOLD-   2262019253D 1   1.00000     0.00000
 Structure written by MMmdl.
 54 57  0  0  0  0  0  0  0  0  1 V2000
  145.0790  137.1320  160.9202 C   0  0  0  0  0  0  0  0  0  0  0  0
  146.5180  136.6391  160.8121 C   0  0  0  0  0  0  0  0  0  0  0  0
  147.4198  137.2363  161.3989 O   0  0  0  0  0  0  0  0  0  0  0  0
  146.7196  135.5512  160.0537 N   0  0  0  0  0  0  0  0  0  0  0  0
  148.0165  134.9290  159.8107 C   0  0  0  0  0  0  0  0  0  0  0  0
  148.4000  134.9752  158.3218 C   0  0  1  0  0  0  0  0  0  0  0  0
  149.0967  136.2985  157.9529 C   0  0  0  0  0  0  0  0  0  0  0  0
  149.5226  136.2644  156.5599 N   0  0  0  0  0  0  0  0  0  0  0  0
  150.0094  137.4361  156.1019 C   0  0  0  0  0  0  0  0  0  0  0  0
  150.0702  137.5943  154.7574 N   0  0  0  0  0  0  0  0  0  0  0  0
  150.5440  138.7320  154.2403 C   0  0  0  0  0  0  0  0  0  0  0  0
  150.9973  139.8143  154.8771 N   0  0  0  0  0  0  0  0  0  0  0  0
  150.9349  139.6566  156.2307 C   0  0  0  0  0  0  0  0  0  0  0  0
  150.4625  138.5068  156.9235 C   0  0  0  0  0  0  0  0  0  0  0  0
  150.5600  138.7063  158.2954 N   0  0  0  0  0  0  0  0  0  0  0  0
  151.0575  139.9077  158.4068 C   0  0  0  0  0  0  0  0  0  0  0  0
  151.2991  140.5571  157.2167 N   0  0  0  0  0  0  0  0  0  0  0  0
  151.8450  141.8951  157.0493 C   0  0  0  0  0  0  0  0  0  0  0  0
  151.4080  142.9087  158.1379 C   0  0  0  0  0  0  0  0  0  0  0  0
  150.0126  142.7184  158.2875 O   0  0  0  0  0  0  0  0  0  0  0  0
  152.0820  142.6566  159.5040 C   0  0  0  0  0  0  0  0  0  0  0  0
  151.7024  143.7307  160.5391 C   0  0  0  0  0  0  0  0  0  0  0  0
  152.0213  145.0242  160.0386 O   0  0  0  0  0  0  0  0  0  0  0  0
  151.2966  145.3562  158.8600 C   0  0  0  0  0  0  0  0  0  0  0  0
  151.6555  144.3767  157.7279 C   0  0  0  0  0  0  0  0  0  0  0  0
  150.3671  135.1179  156.2542 C   0  0  0  0  0  0  0  0  0  0  0  0
  149.6537  133.8218  156.6719 C   0  0  0  0  0  0  0  0  0  0  0  0
  149.2960  133.8981  158.0489 O   0  0  0  0  0  0  0  0  0  0  0  0
  144.3858  136.2938  160.9983 H   0  0  0  0  0  0  0  0  0  0  0  0
  144.8142  137.7187  160.0403 H   0  0  0  0  0  0  0  0  0  0  0  0
  144.9524  137.7606  161.8023 H   0  0  0  0  0  0  0  0  0  0  0  0
  145.9201  135.1301  159.6032 H   0  0  0  0  0  0  0  0  0  0  0  0
  148.7799  135.4230  160.4144 H   0  0  0  0  0  0  0  0  0  0  0  0
  147.9733  133.8952  160.1545 H   0  0  0  0  0  0  0  0  0  0  0  0
  147.5009  134.8623  157.7126 H   0  0  0  0  0  0  0  0  0  0  0  0
  148.4162  137.1370  158.1083 H   0  0  0  0  0  0  0  0  0  0  0  0
  149.9581  136.4566  158.6026 H   0  0  0  0  0  0  0  0  0  0  0  0
  150.5612  138.7829  153.1618 H   0  0  0  0  0  0  0  0  0  0  0  0
  151.2561  140.3604  159.3674 H   0  0  0  0  0  0  0  0  0  0  0  0
  152.9328  141.8116  157.0311 H   0  0  0  0  0  0  0  0  0  0  0  0
  151.5547  142.2569  156.0615 H   0  0  0  0  0  0  0  0  0  0  0  0
  149.5713  143.1749  157.5876 H   0  0  0  0  0  0  0  0  0  0  0  0
  151.8286  141.6644  159.8797 H   0  0  0  0  0  0  0  0  0  0  0  0
  153.1657  142.6747  159.3909 H   0  0  0  0  0  0  0  0  0  0  0  0
  150.6430  143.6776  160.7945 H   0  0  0  0  0  0  0  0  0  0  0  0
  152.2564  143.5675  161.4635 H   0  0  0  0  0  0  0  0  0  0  0  0
  150.2249  145.3502  159.0639 H   0  0  0  0  0  0  0  0  0  0  0  0
  151.5544  146.3738  158.5665 H   0  0  0  0  0  0  0  0  0  0  0  0
  152.7081  144.5219  157.4859 H   0  0  0  0  0  0  0  0  0  0  0  0
  151.0958  144.6231  156.8248 H   0  0  0  0  0  0  0  0  0  0  0  0
  150.5923  135.0945  155.1870 H   0  0  0  0  0  0  0  0  0  0  0  0
  151.3163  135.2050  156.7844 H   0  0  0  0  0  0  0  0  0  0  0  0
  148.7643  133.6528  156.0627 H   0  0  0  0  0  0  0  0  0  0  0  0
  150.3110  132.9655  156.5219 H   0  0  0  0  0  0  0  0  0  0  0  0
  1  2  1  0  0  0  0
  1 29  1  0  0  0  0
  1 30  1  0  0  0  0
  1 31  1  0  0  0  0
  2  3  2  0  0  0  0
  2  4  1  0  0  0  0
  4  5  1  0  0  0  0
  4 32  1  0  0  0  0
  5  6  1  0  0  0  0
  5 33  1  0  0  0  0
  5 34  1  0  0  0  0
  6 28  1  0  0  0  0
  6  7  1  0  0  0  0
  6 35  1  0  0  0  0
  7  8  1  0  0  0  0
  7 36  1  0  0  0  0
  7 37  1  0  0  0  0
  8  9  1  0  0  0  0
  8 26  1  0  0  0  0
  9 14  1  0  0  0  0
  9 10  2  0  0  0  0
 10 11  1  0  0  0  0
 11 12  2  0  0  0  0
 11 38  1  0  0  0  0
 12 13  1  0  0  0  0
 13 17  1  0  0  0  0
 13 14  2  0  0  0  0
 14 15  1  0  0  0  0
 15 16  2  0  0  0  0
 16 17  1  0  0  0  0
 16 39  1  0  0  0  0
 17 18  1  0  0  0  0
 18 19  1  0  0  0  0
 18 40  1  0  0  0  0
 18 41  1  0  0  0  0
 19 25  1  0  0  0  0
 19 20  1  0  0  0  0
 19 21  1  0  0  0  0
 20 42  1  0  0  0  0
 21 22  1  0  0  0  0
 21 43  1  0  0  0  0
 21 44  1  0  0  0  0
 22 23  1  0  0  0  0
 22 45  1  0  0  0  0
 22 46  1  0  0  0  0
 23 24  1  0  0  0  0
 24 25  1  0  0  0  0
 24 47  1  0  0  0  0
 24 48  1  0  0  0  0
 25 49  1  0  0  0  0
 25 50  1  0  0  0  0
 26 27  1  0  0  0  0
 26 51  1  0  0  0  0
 26 52  1  0  0  0  0
 27 28  1  0  0  0  0
 27 53  1  0  0  0  0
 27 54  1  0  0  0  0
M  END
> <s_m_source_file>
AV-unprocessed.smi

> <i_m_source_file_index>
180

> <i_lp_mmshare_version>
43012

> <i_f3d_flags>
0

> <s_epik_input>
W0NIM11DKD1PKVtOSF1bQ0gyXVtDQEBIXTFbQ0gyXU4oW0NIMl1bQ0gyXU8xKWMobltjSF1uMiljKGMyMyluW2NIXW4zW0NIMl1DNChbT0hdKVtDSDJdW0NIMl1PW0NIMl1bQ0gyXTQ=

> <s_epik_cmdline>
J2VwaWtfcHl0aG9uJywgJy1waCcsICc3LjAnLCAnLXRuJywgJzgnLCAnLW1hJywgJzIwMCcsICctbWV0YWxfYmluZGluZycsICctaW1hZScsICc8aW5maWxlLm1hZT4nLCAnLW9tYWUnLCAnPG91dGZpbGUubWFlPic=

> <r_lp_tautomer_probability>
1

> <r_epik_Ionization_Penalty>
7.38871e-05

> <r_epik_Ionization_Penalty_Charging>
0

> <r_epik_Ionization_Penalty_Neutral>
7.38871e-05

> <r_epik_State_Penalty>
-0

> <r_epik_Charging_Adjusted_Penalty>
0

> <i_epik_Tot_Q>
0

> <i_epik_Tot_abs_Q>
0

> <r_epik_Metal_State_Penalty>
-0

> <b_epik_Metal_Only>
0

> <s_lp_Force_Field>
OPLS_2005

> <r_lp_Energy>
30.2573

> <b_lp_Chiralities_Consistent>
1

> <s_lp_Variant>
AV-unprocessed.smi:180-2

> <Gold.Version>
5.8.1

> <Gold.Id.Protein>
6NUR|6NUR_protein|mol2

> <Gold.PLP.Fitness>
50.4384

> <Gold.PLP.PLP>
-37.9467

> <Gold.PLP.part.hbond>
-4.0000

> <Gold.PLP.part.metal>
0.0000

> <Gold.PLP.part.buried>
-6.7008

> <Gold.PLP.part.nonpolar>
-26.7739

> <Gold.PLP.part.repulsive>
0.3631

> <Gold.PLP.ligand.clash>
0.0000

> <Gold.PLP.ligand.torsion>
1.0990

> <Gold.PLP.Chemscore.Hbond>
3.8320

> <Gold.PLP.Chemscore.CHOScore>
1.0000

> <Gold.PLP.Chemscore.Metal>
0.0000

> <Gold.Chemscore.Hbonds>
donor molecule, donor type, donor heavy atom, donor atom, acceptor molecule, acceptor atom, score
      P1  H  6896  6909       L1    28  1.00
      P1  H  6931  6943       L1     3  0.88
      P1  H  6934  6947       L1     3  0.91
      P1  H  7989  7998       L1    12  1.00
      L1  C    11    38       P1  7957  1.00

> <Gold.PLP.Chemscore.Internal.Correction>
0.1937

> <Gold.Rescore>
     Score         DG    S(hbond)    S(metal)    S(lipo)     H(rot)  DE(clash)    DE(int)     intcor
     13.26     -17.97       3.00        0.00      86.53       2.99       1.50       3.21       ----

> <Gold.Chemscore.Fitness>
13.2650

> <Gold.Chemscore.DG>
-17.9742

> <Gold.Chemscore.ZeroCoef>
-5.4800

> <Gold.Chemscore.Hbond>
3.0004

> <Gold.Chemscore.Metal>
0.0000

> <Gold.Chemscore.Lipo>
86.5266

> <Gold.Chemscore.Internal_Hbond>
0.0000

> <Gold.Chemscore.DEClash>
1.5032

> <Gold.Chemscore.DEInternal>
3.2061

> <Gold.Chemscore.Rot>
2.9885

> <Gold.Chemscore.Internal.Correction>
   9.000000E+99

> <Gold.Chemscore.Hbonds>
donor molecule, donor type, donor heavy atom, donor atom, acceptor molecule, acceptor atom, score
      P1  H  6896  6909       L1    28  0.79
      P1  H  6931  6943       L1     3  0.85
      P1  H  6934  6947       L1     3  0.45
      P1  H  7989  7998       L1    12  0.40

> <Gold.Chemscore.Hbond.Weighted>
-10.0212

> <Gold.Chemscore.Metal.Weighted>
-0.0000

> <Gold.Chemscore.Lipo.Weighted>
-10.1236

> <Gold.Chemscore.Internal_Hbond.Weighted>
0.0000

> <Gold.Chemscore.DEClash.Weighted>
1.5032

> <Gold.Chemscore.DEInternal.Weighted>
3.2061

> <Gold.Chemscore.Rot.Weighted>
7.6506

> <Gold.Chemscore.Internal.Correction.Weighted>
   9.000000E+99

> <Gold.Protein.RotatedTorsions>
[ 6907 6896 6895 6894 ] final   -0.14 input  -60.11 | X-H torsion
[ 7974 7965 7964 7962 ] final  127.88 input  175.53 | X-H torsion
[ 8008 7997 7996 7995 ] final  143.07 input   59.86 | X-H torsion
[ 10167 10162 10161 10158 ] final  145.28 input  -65.29 | X-H torsion
[ 10718 10713 10712 10709 ] final  -86.55 input   66.30 | X-H torsion
[ 10763 10752 10751 10750 ] final -158.71 input  -60.55 | X-H torsion
[ 11005 11000 10999 10996 ] final  -78.53 input  -57.11 | X-H torsion

> <Gold.Protein.ActiveResidues>
 VAL166  LYS551  ARG553  GLY616  TRP617  ASP618  TYR619  PRO620  LYS621  CYS622 
 ASP623  PHE694  ASN695  SER759  ASP760  ASP761  ALA762  ILE779  LEU786  VAL792 
 PHE793  MET794  SER795  GLU796  ALA797  LYS798  CYS799  TRP800  GLU811  SER814 

> <Gold.Protein.RotatedAtoms>
  151.5671  135.1063  159.9986 H   0  0  0  0  0  0  0  0  0  0  0  0  # atno 6907 bound_to 6896
  152.4418  133.7459  159.6677 H   0  0  0  0  0  0  0  0  0  0  0  0  # atno 6908 bound_to 6896
  150.8326  133.7998  159.3116 H   0  0  0  0  0  0  0  0  0  0  0  0  # atno 6909 bound_to 6896
  145.0456  139.3926  143.5080 H   0  0  0  0  0  0  0  0  0  0  0  0  # atno 7974 bound_to 7965
  156.2937  140.2272  156.4831 H   0  0  0  0  0  0  0  0  0  0  0  0  # atno 8008 bound_to 7997
  154.7836  140.0458  157.1167 H   0  0  0  0  0  0  0  0  0  0  0  0  # atno 8009 bound_to 7997
  154.9729  140.3069  155.4983 H   0  0  0  0  0  0  0  0  0  0  0  0  # atno 8010 bound_to 7997
  139.4929  144.5913  151.6675 H   0  0  0  0  0  0  0  0  0  0  0  0  # atno 10167 bound_to 10162
  155.9989  130.4769  150.4731 H   0  0  0  0  0  0  0  0  0  0  0  0  # atno 10718 bound_to 10713
  154.7534  135.3098  154.8515 H   0  0  0  0  0  0  0  0  0  0  0  0  # atno 10763 bound_to 10752
  153.9295  135.6787  153.4750 H   0  0  0  0  0  0  0  0  0  0  0  0  # atno 10764 bound_to 10752
  153.1131  135.4857  154.8998 H   0  0  0  0  0  0  0  0  0  0  0  0  # atno 10765 bound_to 10752
  141.1665  133.7067  156.7986 H   0  0  0  0  0  0  0  0  0  0  0  0  # atno 11005 bound_to 11000
  146.3513  140.0080  142.8670 LP  0  0  0  0  0  0  0  0  0  0  0  0  # atno 17320 bound_to 7965
  145.1592  140.9664  143.4387 LP  0  0  0  0  0  0  0  0  0  0  0  0  # atno 17321 bound_to 7965
  140.5540  144.0378  150.6139 LP  0  0  0  0  0  0  0  0  0  0  0  0  # atno 17342 bound_to 10162
  140.3441  143.3002  152.0556 LP  0  0  0  0  0  0  0  0  0  0  0  0  # atno 17343 bound_to 10162
  157.2744  131.0594  151.2239 LP  0  0  0  0  0  0  0  0  0  0  0  0  # atno 17370 bound_to 10713
  157.3307  130.6984  149.6323 LP  0  0  0  0  0  0  0  0  0  0  0  0  # atno 17371 bound_to 10713
  140.2273  134.8712  157.3440 LP  0  0  0  0  0  0  0  0  0  0  0  0  # atno 17394 bound_to 11000
  140.1927  134.4352  155.7707 LP  0  0  0  0  0  0  0  0  0  0  0  0  # atno 17395 bound_to 11000

$$$$
