AV-unprocessed.smi:2862|AV-procd|sdf|11008|dock2
  -GOLD-   2272015463D 1   1.00000     0.00000
 Structure written by MMmdl.
 52 54  0  0  0  0  0  0  0  0  1 V2000
  144.2364  136.8502  153.2821 C   0  0  0  0  0  0  0  0  0  0  0  0
  145.6377  136.5474  152.7246 C   0  0  2  0  0  0  0  0  0  0  0  0
  146.4466  137.7630  152.7494 N   0  0  0  0  0  0  0  0  0  0  0  0
  146.8361  138.4194  153.8576 C   0  0  0  0  0  0  0  0  0  0  0  0
  146.5824  138.0166  154.9924 O   0  0  0  0  0  0  0  0  0  0  0  0
  147.6131  139.7373  153.6967 C   0  0  0  0  0  0  0  0  0  0  0  0
  148.9232  139.7746  154.3712 N   0  0  0  0  0  0  0  0  0  0  0  0
  149.8078  138.7119  154.0939 C   0  0  0  0  0  0  0  0  0  0  0  0
  151.0296  138.6351  154.6447 C   0  0  0  0  0  0  0  0  0  0  0  0
  151.4384  139.6804  155.5506 C   0  0  0  0  0  0  0  0  0  0  0  0
  150.5884  140.6867  155.8414 C   0  0  0  0  0  0  0  0  0  0  0  0
  150.9944  141.7770  156.7265 C   0  0  0  0  0  0  0  0  0  0  0  0
  151.2348  142.9026  156.2856 O   0  0  0  0  0  0  0  0  0  0  0  0
  151.1241  141.4866  158.0536 N   0  0  0  0  0  0  0  0  0  0  0  0
  150.9142  140.0938  158.4751 C   0  0  0  0  0  0  0  0  0  0  0  0
  151.3118  142.4552  159.1596 C   0  0  2  0  0  0  0  0  0  0  0  0
  150.6724  143.8160  158.8243 C   0  0  0  0  0  0  0  0  0  0  0  0
  152.7538  142.5918  159.6241 C   0  0  0  0  0  0  0  0  0  0  0  0
  153.4205  141.4943  160.4179 C   0  0  0  0  0  0  0  0  0  0  0  0
  153.0877  142.8120  161.0806 C   0  0  0  0  0  0  0  0  0  0  0  0
  149.2491  140.7979  155.2208 C   0  0  0  0  0  0  0  0  0  0  0  0
  148.4675  141.7288  155.4315 O   0  0  0  0  0  0  0  0  0  0  0  0
  145.5384  135.9323  151.3409 C   0  0  0  0  0  0  0  0  0  0  0  0
  144.2506  135.2917  150.8775 C   0  0  0  0  0  0  0  0  0  0  0  0
  145.4654  134.4362  151.1456 C   0  0  0  0  0  0  0  0  0  0  0  0
  143.6218  135.9502  153.3093 H   0  0  0  0  0  0  0  0  0  0  0  0
  143.7169  137.5881  152.6694 H   0  0  0  0  0  0  0  0  0  0  0  0
  144.2860  137.2386  154.2997 H   0  0  0  0  0  0  0  0  0  0  0  0
  146.1067  135.8062  153.3746 H   0  0  0  0  0  0  0  0  0  0  0  0
  146.6973  138.1583  151.8546 H   0  0  0  0  0  0  0  0  0  0  0  0
  147.7507  139.9123  152.6285 H   0  0  0  0  0  0  0  0  0  0  0  0
  146.9756  140.5588  154.0282 H   0  0  0  0  0  0  0  0  0  0  0  0
  149.4267  137.9662  153.4110 H   0  0  0  0  0  0  0  0  0  0  0  0
  151.6885  137.8096  154.4186 H   0  0  0  0  0  0  0  0  0  0  0  0
  152.4230  139.6460  155.9951 H   0  0  0  0  0  0  0  0  0  0  0  0
  149.9235  139.7449  158.1794 H   0  0  0  0  0  0  0  0  0  0  0  0
  150.9870  139.9521  159.5524 H   0  0  0  0  0  0  0  0  0  0  0  0
  151.6568  139.4412  158.0140 H   0  0  0  0  0  0  0  0  0  0  0  0
  150.7773  142.1242  160.0471 H   0  0  0  0  0  0  0  0  0  0  0  0
  150.6971  144.4789  159.6873 H   0  0  0  0  0  0  0  0  0  0  0  0
  149.6286  143.7053  158.5323 H   0  0  0  0  0  0  0  0  0  0  0  0
  151.1890  144.3300  158.0148 H   0  0  0  0  0  0  0  0  0  0  0  0
  153.3957  143.1170  158.9197 H   0  0  0  0  0  0  0  0  0  0  0  0
  152.8192  140.6293  160.6906 H   0  0  0  0  0  0  0  0  0  0  0  0
  154.4672  141.2864  160.2050 H   0  0  0  0  0  0  0  0  0  0  0  0
  153.9127  143.4829  161.3111 H   0  0  0  0  0  0  0  0  0  0  0  0
  152.2715  142.8130  161.7996 H   0  0  0  0  0  0  0  0  0  0  0  0
  146.0814  136.4878  150.5783 H   0  0  0  0  0  0  0  0  0  0  0  0
  143.4281  135.2291  151.5874 H   0  0  0  0  0  0  0  0  0  0  0  0
  143.9605  135.4426  149.8397 H   0  0  0  0  0  0  0  0  0  0  0  0
  145.9675  134.0110  150.2796 H   0  0  0  0  0  0  0  0  0  0  0  0
  145.4532  133.8073  152.0336 H   0  0  0  0  0  0  0  0  0  0  0  0
  1  2  1  0  0  0  0
  1 26  1  0  0  0  0
  1 27  1  0  0  0  0
  1 28  1  0  0  0  0
  2  3  1  0  0  0  0
  2 23  1  0  0  0  0
  2 29  1  0  0  0  0
  3  4  1  0  0  0  0
  3 30  1  0  0  0  0
  4  5  2  0  0  0  0
  4  6  1  0  0  0  0
  6  7  1  0  0  0  0
  6 31  1  0  0  0  0
  6 32  1  0  0  0  0
  7 21  1  0  0  0  0
  7  8  1  0  0  0  0
  8  9  2  0  0  0  0
  8 33  1  0  0  0  0
  9 10  1  0  0  0  0
  9 34  1  0  0  0  0
 10 11  2  0  0  0  0
 10 35  1  0  0  0  0
 11 12  1  0  0  0  0
 11 21  1  0  0  0  0
 12 13  2  0  0  0  0
 12 14  1  0  0  0  0
 14 15  1  0  0  0  0
 14 16  1  0  0  0  0
 15 36  1  0  0  0  0
 15 37  1  0  0  0  0
 15 38  1  0  0  0  0
 16 17  1  0  0  0  0
 16 18  1  0  0  0  0
 16 39  1  0  0  0  0
 17 40  1  0  0  0  0
 17 41  1  0  0  0  0
 17 42  1  0  0  0  0
 18 20  1  0  0  0  0
 18 19  1  0  0  0  0
 18 43  1  0  0  0  0
 19 20  1  0  0  0  0
 19 44  1  0  0  0  0
 19 45  1  0  0  0  0
 20 46  1  0  0  0  0
 20 47  1  0  0  0  0
 21 22  2  0  0  0  0
 23 25  1  0  0  0  0
 23 24  1  0  0  0  0
 23 48  1  0  0  0  0
 24 25  1  0  0  0  0
 24 49  1  0  0  0  0
 24 50  1  0  0  0  0
 25 51  1  0  0  0  0
 25 52  1  0  0  0  0
M  END
> <s_m_source_file>
AV-unprocessed.smi

> <i_m_source_file_index>
2862

> <i_lp_mmshare_version>
43012

> <i_f3d_flags>
0

> <s_epik_input>
W0NIMl0xW0NIMl1bQ0hdMVtDQEhdKFtDSDNdKVtOSF1DKD1PKVtDSDJdbjJbY0hdW2NIXVtjSF1jKGMyPU8pQyg9TylOKFtDSDNdKVtDQEhdKFtDSDNdKVtDSF0zW0NIMl1bQ0gyXTM=

> <s_epik_cmdline>
J2VwaWtfcHl0aG9uJywgJy1waCcsICc3LjAnLCAnLXRuJywgJzgnLCAnLW1hJywgJzIwMCcsICctbWV0YWxfYmluZGluZycsICctaW1hZScsICc8aW5maWxlLm1hZT4nLCAnLW9tYWUnLCAnPG91dGZpbGUubWFlPic=

> <r_lp_tautomer_probability>
1

> <r_epik_Ionization_Penalty>
4.00841e-08

> <r_epik_Ionization_Penalty_Charging>
2.07773e-08

> <r_epik_Ionization_Penalty_Neutral>
1.93069e-08

> <r_epik_State_Penalty>
-0

> <r_epik_Charging_Adjusted_Penalty>
2.07773e-08

> <i_epik_Tot_Q>
0

> <i_epik_Tot_abs_Q>
0

> <r_epik_Metal_State_Penalty>
-0

> <b_epik_Metal_Only>
0

> <s_lp_Force_Field>
OPLS_2005

> <r_lp_Energy>
63.2381

> <b_lp_Chiralities_Consistent>
1

> <s_lp_Variant>
AV-unprocessed.smi:2862-1

> <Gold.Version>
5.8.1

> <Gold.Id.Protein>
6NUR|6NUR_protein|mol2

> <Gold.PLP.Fitness>
47.2853

> <Gold.PLP.PLP>
-47.8528

> <Gold.PLP.part.hbond>
-1.0000

> <Gold.PLP.part.metal>
0.0000

> <Gold.PLP.part.buried>
-1.6316

> <Gold.PLP.part.nonpolar>
-46.6347

> <Gold.PLP.part.repulsive>
1.4832

> <Gold.PLP.ligand.clash>
1.1272

> <Gold.PLP.ligand.torsion>
3.6797

> <Gold.PLP.Chemscore.Hbond>
0.0000

> <Gold.PLP.Chemscore.CHOScore>
1.0344

> <Gold.PLP.Chemscore.Metal>
0.0000

> <Gold.Chemscore.Hbonds>
donor molecule, donor type, donor heavy atom, donor atom, acceptor molecule, acceptor atom, score
      L1  C     8    33       P1  7948  1.00

> <Gold.PLP.Chemscore.Internal.Correction>
4.8160

> <Gold.Rescore>
     Score         DG    S(hbond)    S(metal)    S(lipo)     H(rot)  DE(clash)    DE(int)     intcor
      8.30     -14.39       0.00        0.00     114.07       1.73       1.21       4.87       ----

> <Gold.Chemscore.Fitness>
8.3028

> <Gold.Chemscore.DG>
-14.3855

> <Gold.Chemscore.ZeroCoef>
-5.4800

> <Gold.Chemscore.Hbond>
0.0000

> <Gold.Chemscore.Metal>
0.0000

> <Gold.Chemscore.Lipo>
114.0737

> <Gold.Chemscore.Internal_Hbond>
0.0000

> <Gold.Chemscore.DEClash>
1.2147

> <Gold.Chemscore.DEInternal>
4.8679

> <Gold.Chemscore.Rot>
1.7348

> <Gold.Chemscore.Internal.Correction>
   9.000000E+99

> <Gold.Chemscore.Hbond.Weighted>
-0.0000

> <Gold.Chemscore.Metal.Weighted>
-0.0000

> <Gold.Chemscore.Lipo.Weighted>
-13.3466

> <Gold.Chemscore.Internal_Hbond.Weighted>
0.0000

> <Gold.Chemscore.DEClash.Weighted>
1.2147

> <Gold.Chemscore.DEInternal.Weighted>
4.8679

> <Gold.Chemscore.Rot.Weighted>
4.4412

> <Gold.Chemscore.Internal.Correction.Weighted>
   9.000000E+99

> <Gold.Protein.RotatedTorsions>
[ 6907 6896 6895 6894 ] final  -70.36 input  -60.11 | X-H torsion
[ 7974 7965 7964 7962 ] final  101.96 input  175.53 | X-H torsion
[ 8008 7997 7996 7995 ] final  113.21 input   59.86 | X-H torsion
[ 10167 10162 10161 10158 ] final  -21.51 input  -65.29 | X-H torsion
[ 10718 10713 10712 10709 ] final   40.30 input   66.30 | X-H torsion
[ 10763 10752 10751 10750 ] final  169.12 input  -60.55 | X-H torsion
[ 11005 11000 10999 10996 ] final   40.64 input  -57.11 | X-H torsion

> <Gold.Protein.ActiveResidues>
 VAL166  LYS551  ARG553  GLY616  TRP617  ASP618  TYR619  PRO620  LYS621  CYS622 
 ASP623  PHE694  ASN695  SER759  ASP760  ASP761  ALA762  ILE779  LEU786  VAL792 
 PHE793  MET794  SER795  GLU796  ALA797  LYS798  CYS799  TRP800  GLU811  SER814 

> <Gold.Protein.RotatedAtoms>
  150.7261  134.5464  159.5772 H   0  0  0  0  0  0  0  0  0  0  0  0  # atno 6907 bound_to 6896
  152.2962  134.7661  160.0376 H   0  0  0  0  0  0  0  0  0  0  0  0  # atno 6908 bound_to 6896
  151.8258  133.3365  159.3634 H   0  0  0  0  0  0  0  0  0  0  0  0  # atno 6909 bound_to 6896
  145.3654  139.2409  143.3484 H   0  0  0  0  0  0  0  0  0  0  0  0  # atno 7974 bound_to 7965
  156.2243  140.2984  156.0028 H   0  0  0  0  0  0  0  0  0  0  0  0  # atno 8008 bound_to 7997
  155.2399  140.0422  157.2990 H   0  0  0  0  0  0  0  0  0  0  0  0  # atno 8009 bound_to 7997
  154.5890  140.2396  155.7955 H   0  0  0  0  0  0  0  0  0  0  0  0  # atno 8010 bound_to 7997
  140.7282  143.4621  151.0366 H   0  0  0  0  0  0  0  0  0  0  0  0  # atno 10167 bound_to 10162
  157.3805  130.7751  149.7189 H   0  0  0  0  0  0  0  0  0  0  0  0  # atno 10718 bound_to 10713
  154.3785  135.2753  155.2225 H   0  0  0  0  0  0  0  0  0  0  0  0  # atno 10763 bound_to 10752
  154.4342  135.5970  153.6091 H   0  0  0  0  0  0  0  0  0  0  0  0  # atno 10764 bound_to 10752
  152.9835  135.6003  154.4025 H   0  0  0  0  0  0  0  0  0  0  0  0  # atno 10765 bound_to 10752
  140.1911  134.3986  155.8146 H   0  0  0  0  0  0  0  0  0  0  0  0  # atno 11005 bound_to 11000
  146.2909  140.4296  142.8740 LP  0  0  0  0  0  0  0  0  0  0  0  0  # atno 17320 bound_to 7965
  144.8615  140.7146  143.6104 LP  0  0  0  0  0  0  0  0  0  0  0  0  # atno 17321 bound_to 7965
  139.8306  143.7696  152.3179 LP  0  0  0  0  0  0  0  0  0  0  0  0  # atno 17342 bound_to 10162
  139.7811  144.7444  151.0088 LP  0  0  0  0  0  0  0  0  0  0  0  0  # atno 17343 bound_to 10162
  155.9775  130.4063  150.3710 LP  0  0  0  0  0  0  0  0  0  0  0  0  # atno 17370 bound_to 10713
  157.1813  131.0393  151.2747 LP  0  0  0  0  0  0  0  0  0  0  0  0  # atno 17371 bound_to 10713
  141.2226  133.7047  156.8096 LP  0  0  0  0  0  0  0  0  0  0  0  0  # atno 17394 bound_to 11000
  140.2159  134.8793  157.3325 LP  0  0  0  0  0  0  0  0  0  0  0  0  # atno 17395 bound_to 11000

$$$$
