AV-unprocessed.smi:3032|AV-procd|sdf|11558|dock1
  -GOLD-   2272016523D 1   1.00000     0.00000
 Structure written by MMmdl.
 37 38  0  0  0  0  0  0  0  0  1 V2000
  151.2964  145.2069  159.1437 C   0  0  0  0  0  0  0  0  0  0  0  0
  152.1814  144.1759  159.8585 C   0  0  1  0  0  0  0  0  0  0  0  0
  151.7815  144.0180  161.3381 C   0  0  0  0  0  0  0  0  0  0  0  0
  152.6582  142.9771  162.0527 C   0  0  0  0  0  0  0  0  0  0  0  0
  152.6181  141.6225  161.3283 C   0  0  0  0  0  0  0  0  0  0  0  0
  153.0362  141.7700  159.8508 C   0  0  1  0  0  0  0  0  0  0  0  0
  152.9753  140.4244  159.1173 C   0  0  0  0  0  0  0  0  0  0  0  0
  154.0135  139.8603  158.7708 O   0  0  0  0  0  0  0  0  0  0  0  0
  151.7520  139.9090  158.9133 N   0  0  0  0  0  0  0  0  0  0  0  0
  151.4718  138.5947  158.3391 C   0  0  0  0  0  0  0  0  0  0  0  0
  152.2385  138.3598  157.0227 C   0  0  0  0  0  0  0  0  0  0  0  0
  151.4898  138.7837  155.7978 C   0  0  0  0  0  0  0  0  0  0  0  0
  151.0763  140.0394  155.6133 N   0  0  0  0  0  0  0  0  0  0  0  0
  150.3960  140.1191  154.4510 N   0  0  0  0  0  0  0  0  0  0  0  0
  150.4567  138.8650  154.0069 C   0  0  0  0  0  0  0  0  0  0  0  0
  151.1304  137.9806  154.8022 N   0  0  0  0  0  0  0  0  0  0  0  0
  152.1439  142.8119  159.1428 C   0  0  0  0  0  0  0  0  0  0  0  0
  151.2167  140.8300  156.2261 H   0  0  0  0  0  0  0  0  0  0  0  0
  150.2499  144.9004  159.1464 H   0  0  0  0  0  0  0  0  0  0  0  0
  151.6029  145.3348  158.1052 H   0  0  0  0  0  0  0  0  0  0  0  0
  151.3595  146.1815  159.6281 H   0  0  0  0  0  0  0  0  0  0  0  0
  153.2074  144.5449  159.8249 H   0  0  0  0  0  0  0  0  0  0  0  0
  151.8625  144.9768  161.8516 H   0  0  0  0  0  0  0  0  0  0  0  0
  150.7348  143.7189  161.4075 H   0  0  0  0  0  0  0  0  0  0  0  0
  153.6871  143.3358  162.0999 H   0  0  0  0  0  0  0  0  0  0  0  0
  152.3249  142.8568  163.0839 H   0  0  0  0  0  0  0  0  0  0  0  0
  153.2767  140.9175  161.8374 H   0  0  0  0  0  0  0  0  0  0  0  0
  151.6104  141.2089  161.3969 H   0  0  0  0  0  0  0  0  0  0  0  0
  154.0667  142.1296  159.8244 H   0  0  0  0  0  0  0  0  0  0  0  0
  150.9565  140.4490  159.2218 H   0  0  0  0  0  0  0  0  0  0  0  0
  151.7565  137.8358  159.0680 H   0  0  0  0  0  0  0  0  0  0  0  0
  150.4009  138.4668  158.1724 H   0  0  0  0  0  0  0  0  0  0  0  0
  153.1897  138.8933  157.0527 H   0  0  0  0  0  0  0  0  0  0  0  0
  152.4863  137.3023  156.9275 H   0  0  0  0  0  0  0  0  0  0  0  0
  149.9981  138.5749  153.0731 H   0  0  0  0  0  0  0  0  0  0  0  0
  151.1134  142.4542  159.0991 H   0  0  0  0  0  0  0  0  0  0  0  0
  152.4689  142.9334  158.1083 H   0  0  0  0  0  0  0  0  0  0  0  0
  1  2  1  0  0  0  0
  1 19  1  0  0  0  0
  1 20  1  0  0  0  0
  1 21  1  0  0  0  0
  2 17  1  0  0  0  0
  2  3  1  0  0  0  0
  2 22  1  0  0  0  0
  3  4  1  0  0  0  0
  3 23  1  0  0  0  0
  3 24  1  0  0  0  0
  4  5  1  0  0  0  0
  4 25  1  0  0  0  0
  4 26  1  0  0  0  0
  5  6  1  0  0  0  0
  5 27  1  0  0  0  0
  5 28  1  0  0  0  0
  6  7  1  0  0  0  0
  6 17  1  0  0  0  0
  6 29  1  0  0  0  0
  7  8  2  0  0  0  0
  7  9  1  0  0  0  0
  9 10  1  0  0  0  0
  9 30  1  0  0  0  0
 10 11  1  0  0  0  0
 10 31  1  0  0  0  0
 10 32  1  0  0  0  0
 11 33  1  0  0  0  0
 11 34  1  0  0  0  0
 11 12  1  0  0  0  0
 12 16  2  0  0  0  0
 12 13  1  0  0  0  0
 13 18  1  0  0  0  0
 13 14  1  0  0  0  0
 14 15  2  0  0  0  0
 15 16  1  0  0  0  0
 15 35  1  0  0  0  0
 17 36  1  0  0  0  0
 17 37  1  0  0  0  0
M  END
> <s_m_source_file>
AV-unprocessed.smi

> <i_m_source_file_index>
3032

> <i_lp_mmshare_version>
43012

> <i_f3d_flags>
0

> <s_epik_input>
W0NIM11bQ0BASF0xW0NIMl1bQ0gyXVtDSDJdW0NASF0oW0NIMl0xKUMoPU8pW05IXVtDSDJdW0NIMl1jMm5uW2NIXVtuSF0y

> <s_epik_cmdline>
J2VwaWtfcHl0aG9uJywgJy1waCcsICc3LjAnLCAnLXRuJywgJzgnLCAnLW1hJywgJzIwMCcsICctbWV0YWxfYmluZGluZycsICctaW1hZScsICc8aW5maWxlLm1hZT4nLCAnLW9tYWUnLCAnPG91dGZpbGUubWFlPic=

> <r_lp_tautomer_probability>
0.948284

> <r_epik_Ionization_Penalty>
0.000474052

> <r_epik_Ionization_Penalty_Charging>
0

> <r_epik_Ionization_Penalty_Neutral>
0.000474052

> <r_epik_State_Penalty>
0.271807

> <r_epik_Charging_Adjusted_Penalty>
0.271807

> <i_epik_Tot_Q>
0

> <i_epik_Tot_abs_Q>
0

> <r_epik_Metal_State_Penalty>
0.397201

> <b_epik_Metal_Only>
0

> <s_lp_Force_Field>
OPLS_2005

> <r_lp_Energy>
10.7407

> <b_lp_Chiralities_Consistent>
1

> <s_lp_Variant>
AV-unprocessed.smi:3032-2

> <Gold.Version>
5.8.1

> <Gold.Id.Protein>
6NUR|6NUR_protein|mol2

> <Gold.PLP.Fitness>
46.2623

> <Gold.PLP.PLP>
-36.9453

> <Gold.PLP.part.hbond>
-2.0000

> <Gold.PLP.part.metal>
0.0000

> <Gold.PLP.part.buried>
-5.5426

> <Gold.PLP.part.nonpolar>
-30.0411

> <Gold.PLP.part.repulsive>
0.5070

> <Gold.PLP.ligand.clash>
0.0000

> <Gold.PLP.ligand.torsion>
0.3727

> <Gold.PLP.Chemscore.Hbond>
2.0000

> <Gold.PLP.Chemscore.CHOScore>
1.3474

> <Gold.PLP.Chemscore.Metal>
0.0000

> <Gold.Chemscore.Hbonds>
donor molecule, donor type, donor heavy atom, donor atom, acceptor molecule, acceptor atom, score
      P1  H  7989  7998       L1    14  0.95
      P1  H  7997  8008       L1     8  1.00
      L1  C    15    35       P1  7948  0.36
      L1  C    15    35       P1  7957  0.93

> <Gold.PLP.Chemscore.Internal.Correction>
0.0202

> <Gold.Rescore>
     Score         DG    S(hbond)    S(metal)    S(lipo)     H(rot)  DE(clash)    DE(int)     intcor
     14.94     -16.71       1.91        0.00      90.68       2.25       0.02       1.75       ----

> <Gold.Chemscore.Fitness>
14.9402

> <Gold.Chemscore.DG>
-16.7121

> <Gold.Chemscore.ZeroCoef>
-5.4800

> <Gold.Chemscore.Hbond>
1.9111

> <Gold.Chemscore.Metal>
0.0000

> <Gold.Chemscore.Lipo>
90.6800

> <Gold.Chemscore.Internal_Hbond>
0.0000

> <Gold.Chemscore.DEClash>
0.0183

> <Gold.Chemscore.DEInternal>
1.7536

> <Gold.Chemscore.Rot>
2.2501

> <Gold.Chemscore.Internal.Correction>
   9.000000E+99

> <Gold.Chemscore.Hbonds>
donor molecule, donor type, donor heavy atom, donor atom, acceptor molecule, acceptor atom, score
      P1  H  7989  7998       L1    14  0.06
      P1  H  7997  8008       L1     8  0.98

> <Gold.Chemscore.Hbond.Weighted>
-6.3829

> <Gold.Chemscore.Metal.Weighted>
-0.0000

> <Gold.Chemscore.Lipo.Weighted>
-10.6096

> <Gold.Chemscore.Internal_Hbond.Weighted>
0.0000

> <Gold.Chemscore.DEClash.Weighted>
0.0183

> <Gold.Chemscore.DEInternal.Weighted>
1.7536

> <Gold.Chemscore.Rot.Weighted>
5.7603

> <Gold.Chemscore.Internal.Correction.Weighted>
   9.000000E+99

> <Gold.Protein.RotatedTorsions>
[ 6907 6896 6895 6894 ] final   51.36 input  -60.11 | X-H torsion
[ 7974 7965 7964 7962 ] final   38.31 input  175.53 | X-H torsion
[ 8008 7997 7996 7995 ] final -112.08 input   59.86 | X-H torsion
[ 10167 10162 10161 10158 ] final  -30.13 input  -65.29 | X-H torsion
[ 10718 10713 10712 10709 ] final  -71.26 input   66.30 | X-H torsion
[ 10763 10752 10751 10750 ] final  -16.98 input  -60.55 | X-H torsion
[ 11005 11000 10999 10996 ] final  173.91 input  -57.11 | X-H torsion

> <Gold.Protein.ActiveResidues>
 VAL166  LYS551  ARG553  GLY616  TRP617  ASP618  TYR619  PRO620  LYS621  CYS622 
 ASP623  PHE694  ASN695  SER759  ASP760  ASP761  ALA762  ILE779  LEU786  VAL792 
 PHE793  MET794  SER795  GLU796  ALA797  LYS798  CYS799  TRP800  GLU811  SER814 

> <Gold.Protein.RotatedAtoms>
  152.3118  134.7488  160.0334 H   0  0  0  0  0  0  0  0  0  0  0  0  # atno 6907 bound_to 6896
  151.7966  133.3360  159.3522 H   0  0  0  0  0  0  0  0  0  0  0  0  # atno 6908 bound_to 6896
  150.7324  134.5723  159.5941 H   0  0  0  0  0  0  0  0  0  0  0  0  # atno 6909 bound_to 6896
  146.1071  139.5787  142.9376 H   0  0  0  0  0  0  0  0  0  0  0  0  # atno 7974 bound_to 7965
  154.9997  140.0394  157.2355 H   0  0  0  0  0  0  0  0  0  0  0  0  # atno 8008 bound_to 7997
  154.7554  140.2774  155.6235 H   0  0  0  0  0  0  0  0  0  0  0  0  # atno 8009 bound_to 7997
  156.2893  140.2639  156.2319 H   0  0  0  0  0  0  0  0  0  0  0  0  # atno 8010 bound_to 7997
  140.7253  143.3873  151.1492 H   0  0  0  0  0  0  0  0  0  0  0  0  # atno 10167 bound_to 10162
  156.0371  130.4348  150.2417 H   0  0  0  0  0  0  0  0  0  0  0  0  # atno 10718 bound_to 10713
  153.5669  135.7008  153.5522 H   0  0  0  0  0  0  0  0  0  0  0  0  # atno 10763 bound_to 10752
  153.3379  135.4029  155.1548 H   0  0  0  0  0  0  0  0  0  0  0  0  # atno 10764 bound_to 10752
  154.8639  135.3735  154.5189 H   0  0  0  0  0  0  0  0  0  0  0  0  # atno 10765 bound_to 10752
  140.3456  134.7239  157.4232 H   0  0  0  0  0  0  0  0  0  0  0  0  # atno 11005 bound_to 11000
  145.5738  141.0391  143.2159 LP  0  0  0  0  0  0  0  0  0  0  0  0  # atno 17320 bound_to 7965
  144.7480  139.7268  143.7284 LP  0  0  0  0  0  0  0  0  0  0  0  0  # atno 17321 bound_to 7965
  139.7473  143.8833  152.3067 LP  0  0  0  0  0  0  0  0  0  0  0  0  # atno 17342 bound_to 10162
  139.8674  144.7086  150.9027 LP  0  0  0  0  0  0  0  0  0  0  0  0  # atno 17343 bound_to 10162
  157.0515  131.0064  151.3252 LP  0  0  0  0  0  0  0  0  0  0  0  0  # atno 17370 bound_to 10713
  157.5137  130.7954  149.7732 LP  0  0  0  0  0  0  0  0  0  0  0  0  # atno 17371 bound_to 10713
  140.0745  134.5816  155.8606 LP  0  0  0  0  0  0  0  0  0  0  0  0  # atno 17394 bound_to 11000
  141.2026  133.6626  156.6018 LP  0  0  0  0  0  0  0  0  0  0  0  0  # atno 17395 bound_to 11000

$$$$
