#       Name:                AV-unprocessed.smi:2583
#       Creating user name   scv26
#       Creation time:       Fri Mar 27 14:14:56 2020


#       File generated by GOLD software.
#

@<TRIPOS>MOLECULE
AV-unprocessed.smi:2583
    58    60     1
SMALL
NO_CHARGES


@<TRIPOS>ATOM
      1 ****        -6.6019   5.7055   0.4013 C.3            1 S1                 0.0000
      2 ****        -6.6170   4.2214   0.1004 C.ar           1 S1                 0.0000
      3 ****        -7.8009   3.5746  -0.3102 C.ar           1 S1                 0.0000
      4 ****        -7.8687   2.2529  -0.5739 N.ar           1 S1                 0.0000
      5 ****        -6.7410   1.5229  -0.4402 C.ar           1 S1                 0.0000
      6 ****        -5.4984   2.0663  -0.0514 C.ar           1 S1                 0.0000
      7 ****        -4.3922   1.1837   0.0741 N.am           1 S1                 0.0000
      8 ****        -3.0820   1.4808   0.0448 C.2            1 S1                 0.0000
      9 ****        -2.6099   2.5943  -0.1847 O.2            1 S1                 0.0000
     10 ****        -2.3326   0.3935   0.2774 N.am           1 S1                 0.0000
     11 ****        -0.8735   0.3724   0.3226 C.3            1 S1                 0.0000
     12 ****        -0.2896   0.0683  -1.0649 C.3            1 S1                 0.0000
     13 ****         1.2424  -0.0385  -1.0031 C.3            1 S1                 0.0000
     14 ****         1.6896  -1.0775  -0.0307 N.4            1 S1                 1.0000
     15 ****         3.1698  -1.3095  -0.1017 C.3            1 S1                 0.0000
     16 ****         3.5177  -2.2154  -1.3056 C.3            1 S1                 0.0000
     17 ****         5.0309  -2.4682  -1.4213 C.3            1 S1                 0.0000
     18 ****         5.5707  -3.0628  -0.1753 N.4            1 S1                 1.0000
     19 ****         7.0016  -3.4175  -0.2935 C.3            1 S1                 0.0000
     20 ****         5.2960  -2.2066   1.0029 C.3            1 S1                 0.0000
     21 ****         3.7873  -1.9523   1.1658 C.3            1 S1                 0.0000
     22 ****         1.1418  -0.7974   1.3288 C.3            1 S1                 0.0000
     23 ****        -0.3934  -0.6955   1.3135 C.3            1 S1                 0.0000
     24 ****        -5.4441   3.4517   0.2348 C.ar           1 S1                 0.0000
     25 ****        -7.5460   6.1759   0.1246 H              1 S1                 0.0000
     26 ****        -5.8013   6.1967  -0.1524 H              1 S1                 0.0000
     27 ****        -6.4361   5.8719   1.4659 H              1 S1                 0.0000
     28 ****        -8.7213   4.1286  -0.4235 H              1 S1                 0.0000
     29 ****        -6.8344   0.4683  -0.6545 H              1 S1                 0.0000
     30 ****        -4.6277   0.2065   0.1678 H              1 S1                 0.0000
     31 ****        -2.8079  -0.4814   0.4441 H              1 S1                 0.0000
     32 ****        -0.5034   1.3422   0.6618 H              1 S1                 0.0000
     33 ****        -0.7056  -0.8637  -1.4512 H              1 S1                 0.0000
     34 ****        -0.5744   0.8500  -1.7707 H              1 S1                 0.0000
     35 ****         1.6115  -0.2600  -2.0031 H              1 S1                 0.0000
     36 ****         1.6673   0.9268  -0.7232 H              1 S1                 0.0000
     37 ****         3.6536  -0.3401  -0.2361 H              1 S1                 0.0000
     38 ****         2.9990  -3.1704  -1.2072 H              1 S1                 0.0000
     39 ****         3.1717  -1.7782  -2.2412 H              1 S1                 0.0000
     40 ****         5.2237  -3.1408  -2.2582 H              1 S1                 0.0000
     41 ****         5.5522  -1.5343  -1.6384 H              1 S1                 0.0000
     42 ****         7.6131  -2.5301  -0.4621 H              1 S1                 0.0000
     43 ****         7.1603  -4.1057  -1.1245 H              1 S1                 0.0000
     44 ****         7.3534  -3.9079   0.6147 H              1 S1                 0.0000
     45 ****         5.6816  -2.6897   1.9017 H              1 S1                 0.0000
     46 ****         5.8285  -1.2596   0.8996 H              1 S1                 0.0000
     47 ****         3.6534  -1.3046   2.0326 H              1 S1                 0.0000
     48 ****         3.2861  -2.8949   1.3913 H              1 S1                 0.0000
     49 ****         1.3959  -1.5981   2.0222 H              1 S1                 0.0000
     50 ****         1.5792   0.1228   1.7196 H              1 S1                 0.0000
     51 ****        -0.7554  -0.4637   2.3161 H              1 S1                 0.0000
     52 ****        -0.8173  -1.6657   1.0491 H              1 S1                 0.0000
     53 ****        -4.5365   3.9301   0.5694 H              1 S1                 0.0000
     54 ****         1.2595  -1.9457  -0.3168 H              1 S1                 0.0000
     55 ****         5.0746  -3.9304  -0.0268 H              1 S1                 0.0000
     56 ****        -8.7275   1.8275  -0.8594 LP             1 S1                 0.0000
     57 ****        -3.2176   3.3667  -0.3691 LP             1 S1                 0.0000
     58 ****        -1.6187   2.7264  -0.1867 LP             1 S1                 0.0000
@<TRIPOS>BOND
    1    1    2 1     
    2    1   25 1     
    3    1   26 1     
    4    1   27 1     
    5    2   24 ar    
    6    2    3 ar    
    7    3    4 ar    
    8    3   28 1     
    9    4    5 ar    
   10    5    6 ar    
   11    5   29 1     
   12    6    7 1     
   13    6   24 ar    
   14    7    8 am    
   15    7   30 1     
   16    8    9 2     
   17    8   10 am    
   18   10   11 1     
   19   10   31 1     
   20   11   23 1     
   21   11   12 1     
   22   11   32 1     
   23   12   13 1     
   24   12   33 1     
   25   12   34 1     
   26   13   14 1     
   27   13   35 1     
   28   13   36 1     
   29   14   15 1     
   30   14   22 1     
   31   14   54 1     
   32   15   21 1     
   33   15   16 1     
   34   15   37 1     
   35   16   17 1     
   36   16   38 1     
   37   16   39 1     
   38   17   18 1     
   39   17   40 1     
   40   17   41 1     
   41   18   19 1     
   42   18   20 1     
   43   18   55 1     
   44   19   42 1     
   45   19   43 1     
   46   19   44 1     
   47   20   21 1     
   48   20   45 1     
   49   20   46 1     
   50   21   47 1     
   51   21   48 1     
   52   22   23 1     
   53   22   49 1     
   54   22   50 1     
   55   23   51 1     
   56   23   52 1     
   57   24   53 1     
   58    4   56 1     
   59    9   57 1     
   60    9   58 1     
@<TRIPOS>SUBSTRUCTURE
      1 S1             1
@<TRIPOS>SET
LONE_PAIRS      STATIC     ATOMS    <user>   **** ""
3 56 57 58
DONOR_HYDROGENS      STATIC     ATOMS    <user>   **** ""
4 30 31 54 55
ATOM$BLUE        STATIC     ATOMS    COLORGROUP SYSTEM
3 56 57 58
ATOM$RED        STATIC     ATOMS    COLORGROUP SYSTEM
4 30 31 54 55
