AV-unprocessed.smi:754|AV-procd|sdf|3607|dock9
  -GOLD-   22720 1 03D 1   1.00000     0.00000
 Structure written by MMmdl.
 37 38  0  0  0  0  0  0  0  0  1 V2000
  153.6160  141.9923  160.6682 C   0  0  0  0  0  0  0  0  0  0  0  0
  152.2361  141.7844  160.0403 C   0  0  0  0  0  0  0  0  0  0  0  0
  152.3948  141.1531  158.7808 O   0  0  0  0  0  0  0  0  0  0  0  0
  151.2430  141.2643  157.9590 C   0  0  2  0  0  0  0  0  0  0  0  0
  151.5111  141.0911  156.4614 C   0  0  0  0  0  0  0  0  0  0  0  0
  150.5583  142.2674  156.2249 C   0  0  1  0  0  0  0  0  0  0  0  0
  149.1954  141.7951  155.9794 N   0  0  0  0  0  0  0  0  0  0  0  0
  148.7685  141.2690  154.8213 C   0  0  0  0  0  0  0  0  0  0  0  0
  149.4834  141.1492  153.8271 O   0  0  0  0  0  0  0  0  0  0  0  0
  147.3105  140.8120  154.7745 C   0  0  0  0  0  0  0  0  0  0  0  0
  146.4084  141.9480  154.7766 N   0  0  0  0  0  0  0  0  0  0  0  0
  146.2421  142.9378  153.8967 C   0  0  0  0  0  0  0  0  0  0  0  0
  145.3071  143.7894  154.2891 N   0  0  0  0  0  0  0  0  0  0  0  0
  144.8876  143.2603  155.4984 N   0  0  0  0  0  0  0  0  0  0  0  0
  145.5380  142.1681  155.7932 N   0  0  0  0  0  0  0  0  0  0  0  0
  150.8203  142.7283  157.6879 C   0  0  0  0  0  0  0  0  0  0  0  0
  149.6344  143.2438  158.5117 C   0  0  0  0  0  0  0  0  0  0  0  0
  151.9302  143.7804  157.8178 C   0  0  0  0  0  0  0  0  0  0  0  0
  153.5325  142.4775  161.6408 H   0  0  0  0  0  0  0  0  0  0  0  0
  154.2440  142.6187  160.0343 H   0  0  0  0  0  0  0  0  0  0  0  0
  154.1275  141.0404  160.8125 H   0  0  0  0  0  0  0  0  0  0  0  0
  151.6193  141.1709  160.6982 H   0  0  0  0  0  0  0  0  0  0  0  0
  151.7342  142.7451  159.9173 H   0  0  0  0  0  0  0  0  0  0  0  0
  150.4078  140.6532  158.3085 H   0  0  0  0  0  0  0  0  0  0  0  0
  152.5413  141.3191  156.1836 H   0  0  0  0  0  0  0  0  0  0  0  0
  151.1885  140.1345  156.0487 H   0  0  0  0  0  0  0  0  0  0  0  0
  150.9307  142.9620  155.4695 H   0  0  0  0  0  0  0  0  0  0  0  0
  148.5410  141.8641  156.7453 H   0  0  0  0  0  0  0  0  0  0  0  0
  147.1312  140.2188  153.8767 H   0  0  0  0  0  0  0  0  0  0  0  0
  147.0895  140.1742  155.6318 H   0  0  0  0  0  0  0  0  0  0  0  0
  146.8040  143.0351  152.9796 H   0  0  0  0  0  0  0  0  0  0  0  0
  149.2216  144.1592  158.0867 H   0  0  0  0  0  0  0  0  0  0  0  0
  149.9257  143.4598  159.5400 H   0  0  0  0  0  0  0  0  0  0  0  0
  148.8247  142.5156  158.5628 H   0  0  0  0  0  0  0  0  0  0  0  0
  151.6077  144.7480  157.4319 H   0  0  0  0  0  0  0  0  0  0  0  0
  152.8260  143.4985  157.2639 H   0  0  0  0  0  0  0  0  0  0  0  0
  152.2288  143.9247  158.8565 H   0  0  0  0  0  0  0  0  0  0  0  0
  1  2  1  0  0  0  0
  1 19  1  0  0  0  0
  1 20  1  0  0  0  0
  1 21  1  0  0  0  0
  2  3  1  0  0  0  0
  2 22  1  0  0  0  0
  2 23  1  0  0  0  0
  3  4  1  0  0  0  0
  4 16  1  0  0  0  0
  4  5  1  0  0  0  0
  4 24  1  0  0  0  0
  5  6  1  0  0  0  0
  5 25  1  0  0  0  0
  5 26  1  0  0  0  0
  6  7  1  0  0  0  0
  6 16  1  0  0  0  0
  6 27  1  0  0  0  0
  7  8  1  0  0  0  0
  7 28  1  0  0  0  0
  8  9  2  0  0  0  0
  8 10  1  0  0  0  0
 10 11  1  0  0  0  0
 10 29  1  0  0  0  0
 10 30  1  0  0  0  0
 11 15  1  0  0  0  0
 11 12  1  0  0  0  0
 12 13  2  0  0  0  0
 12 31  1  0  0  0  0
 13 14  1  0  0  0  0
 14 15  2  0  0  0  0
 16 17  1  0  0  0  0
 16 18  1  0  0  0  0
 17 32  1  0  0  0  0
 17 33  1  0  0  0  0
 17 34  1  0  0  0  0
 18 35  1  0  0  0  0
 18 36  1  0  0  0  0
 18 37  1  0  0  0  0
M  END
> <s_m_source_file>
AV-unprocessed.smi

> <i_m_source_file_index>
754

> <i_lp_mmshare_version>
43012

> <i_f3d_flags>
0

> <s_epik_input>
W0NIM11bQ0gyXU9bQ0BASF0oQzEoW0NIM10pW0NIM10pW0NIMl1bQ0BIXTFbTkhdQyg9TylbQ0gyXW4yW2NIXW5ubjI=

> <s_epik_cmdline>
J2VwaWtfcHl0aG9uJywgJy1waCcsICc3LjAnLCAnLXRuJywgJzgnLCAnLW1hJywgJzIwMCcsICctbWV0YWxfYmluZGluZycsICctaW1hZScsICc8aW5maWxlLm1hZT4nLCAnLW9tYWUnLCAnPG91dGZpbGUubWFlPic=

> <r_lp_tautomer_probability>
1

> <r_epik_Ionization_Penalty>
8.28422e-07

> <r_epik_Ionization_Penalty_Charging>
0

> <r_epik_Ionization_Penalty_Neutral>
8.28422e-07

> <r_epik_State_Penalty>
-0

> <r_epik_Charging_Adjusted_Penalty>
0

> <i_epik_Tot_Q>
0

> <i_epik_Tot_abs_Q>
0

> <r_epik_Metal_State_Penalty>
-0

> <b_epik_Metal_Only>
0

> <s_lp_Force_Field>
OPLS_2005

> <r_lp_Energy>
23.2797

> <b_lp_Chiralities_Consistent>
1

> <s_lp_Variant>
AV-unprocessed.smi:754-1

> <Gold.Version>
5.8.1

> <Gold.Id.Protein>
6NUR|6NUR_protein|mol2

> <Gold.PLP.Fitness>
34.9522

> <Gold.PLP.PLP>
-31.9717

> <Gold.PLP.part.hbond>
-3.0000

> <Gold.PLP.part.metal>
0.0000

> <Gold.PLP.part.buried>
-4.9635

> <Gold.PLP.part.nonpolar>
-26.2205

> <Gold.PLP.part.repulsive>
2.3125

> <Gold.PLP.ligand.clash>
0.0000

> <Gold.PLP.ligand.torsion>
0.4321

> <Gold.PLP.Chemscore.Hbond>
1.1632

> <Gold.PLP.Chemscore.CHOScore>
0.0000

> <Gold.PLP.Chemscore.Metal>
0.0000

> <Gold.Chemscore.Hbonds>
donor molecule, donor type, donor heavy atom, donor atom, acceptor molecule, acceptor atom, score
      P1  H  7989  7998       L1     9  0.22
      P1  H  8011  8017       L1     9  0.90

> <Gold.PLP.Chemscore.Internal.Correction>
0.3553

> <Gold.Rescore>
     Score         DG    S(hbond)    S(metal)    S(lipo)     H(rot)  DE(clash)    DE(int)     intcor
      9.32     -11.31       1.22        0.00      68.89       2.46       1.44       0.55       ----

> <Gold.Chemscore.Fitness>
9.3157

> <Gold.Chemscore.DG>
-11.3098

> <Gold.Chemscore.ZeroCoef>
-5.4800

> <Gold.Chemscore.Hbond>
1.2188

> <Gold.Chemscore.Metal>
0.0000

> <Gold.Chemscore.Lipo>
68.8948

> <Gold.Chemscore.Internal_Hbond>
0.0000

> <Gold.Chemscore.DEClash>
1.4439

> <Gold.Chemscore.DEInternal>
0.5502

> <Gold.Chemscore.Rot>
2.4616

> <Gold.Chemscore.Internal.Correction>
   9.000000E+99

> <Gold.Chemscore.Hbonds>
donor molecule, donor type, donor heavy atom, donor atom, acceptor molecule, acceptor atom, score
      P1  H  7989  7998       L1     9  0.22
      P1  H  8011  8017       L1     9  0.86

> <Gold.Chemscore.Hbond.Weighted>
-4.0708

> <Gold.Chemscore.Metal.Weighted>
-0.0000

> <Gold.Chemscore.Lipo.Weighted>
-8.0607

> <Gold.Chemscore.Internal_Hbond.Weighted>
0.0000

> <Gold.Chemscore.DEClash.Weighted>
1.4439

> <Gold.Chemscore.DEInternal.Weighted>
0.5502

> <Gold.Chemscore.Rot.Weighted>
6.3016

> <Gold.Chemscore.Internal.Correction.Weighted>
   9.000000E+99

> <Gold.Protein.RotatedTorsions>
[ 6907 6896 6895 6894 ] final    2.15 input  -60.11 | X-H torsion
[ 7974 7965 7964 7962 ] final -173.50 input  175.53 | X-H torsion
[ 8008 7997 7996 7995 ] final  -75.68 input   59.86 | X-H torsion
[ 10167 10162 10161 10158 ] final   75.92 input  -65.29 | X-H torsion
[ 10718 10713 10712 10709 ] final -165.92 input   66.30 | X-H torsion
[ 10763 10752 10751 10750 ] final   73.39 input  -60.55 | X-H torsion
[ 11005 11000 10999 10996 ] final  -71.67 input  -57.11 | X-H torsion

> <Gold.Protein.ActiveResidues>
 VAL166  LYS551  ARG553  GLY616  TRP617  ASP618  TYR619  PRO620  LYS621  CYS622 
 ASP623  PHE694  ASN695  SER759  ASP760  ASP761  ALA762  ILE779  LEU786  VAL792 
 PHE793  MET794  SER795  GLU796  ALA797  LYS798  CYS799  TRP800  GLU811  SER814 

> <Gold.Protein.RotatedAtoms>
  151.6042  135.1045  160.0066 H   0  0  0  0  0  0  0  0  0  0  0  0  # atno 6907 bound_to 6896
  152.4242  133.7163  159.6518 H   0  0  0  0  0  0  0  0  0  0  0  0  # atno 6908 bound_to 6896
  150.8130  133.8315  159.3195 H   0  0  0  0  0  0  0  0  0  0  0  0  # atno 6909 bound_to 6896
  144.7137  140.1613  143.6376 H   0  0  0  0  0  0  0  0  0  0  0  0  # atno 7974 bound_to 7965
  154.5438  140.0740  156.8555 H   0  0  0  0  0  0  0  0  0  0  0  0  # atno 8008 bound_to 7997
  155.3127  140.3391  155.4225 H   0  0  0  0  0  0  0  0  0  0  0  0  # atno 8009 bound_to 7997
  156.1899  140.1682  156.8098 H   0  0  0  0  0  0  0  0  0  0  0  0  # atno 8010 bound_to 7997
  139.9978  144.5709  150.7763 H   0  0  0  0  0  0  0  0  0  0  0  0  # atno 10167 bound_to 10162
  156.6603  130.9043  151.3028 H   0  0  0  0  0  0  0  0  0  0  0  0  # atno 10718 bound_to 10713
  153.0519  135.5064  154.7887 H   0  0  0  0  0  0  0  0  0  0  0  0  # atno 10763 bound_to 10752
  154.6743  135.2958  154.9702 H   0  0  0  0  0  0  0  0  0  0  0  0  # atno 10764 bound_to 10752
  154.0510  135.6704  153.4853 H   0  0  0  0  0  0  0  0  0  0  0  0  # atno 10765 bound_to 10752
  141.1596  133.6824  156.6941 H   0  0  0  0  0  0  0  0  0  0  0  0  # atno 11005 bound_to 11000
  145.9028  139.2440  143.1483 LP  0  0  0  0  0  0  0  0  0  0  0  0  # atno 17320 bound_to 7965
  145.9794  140.8695  143.0122 LP  0  0  0  0  0  0  0  0  0  0  0  0  # atno 17321 bound_to 7965
  140.7430  143.2840  151.3515 LP  0  0  0  0  0  0  0  0  0  0  0  0  # atno 17342 bound_to 10162
  139.6293  144.0751  152.2462 LP  0  0  0  0  0  0  0  0  0  0  0  0  # atno 17343 bound_to 10162
  157.7112  130.9442  150.1095 LP  0  0  0  0  0  0  0  0  0  0  0  0  # atno 17370 bound_to 10713
  156.2016  130.3660  149.8781 LP  0  0  0  0  0  0  0  0  0  0  0  0  # atno 17371 bound_to 10713
  140.3008  134.8165  157.4096 LP  0  0  0  0  0  0  0  0  0  0  0  0  # atno 17394 bound_to 11000
  140.1263  134.5153  155.8141 LP  0  0  0  0  0  0  0  0  0  0  0  0  # atno 17395 bound_to 11000

$$$$
