AV-unprocessed.smi:2789|AV-procd|sdf|10764|dock9
  -GOLD-   2272015193D 1   1.00000     0.00000
 Structure written by MMmdl.
 35 36  0  0  0  0  0  0  0  0  1 V2000
  146.8629  132.7524  151.8283 C   0  0  0  0  0  0  0  0  0  0  0  0
  147.5883  133.4126  152.8528 O   0  0  0  0  0  0  0  0  0  0  0  0
  148.4386  132.5484  153.6021 C   0  0  2  0  0  0  0  0  0  0  0  0
  147.5239  131.6412  154.4283 C   0  0  0  0  0  0  0  0  0  0  0  0
  147.2076  132.4584  155.6767 C   0  0  0  0  0  0  0  0  0  0  0  0
  148.5133  133.1893  155.9910 C   0  0  0  0  0  0  0  0  0  0  0  0
  149.2627  133.3344  154.6519 C   0  0  2  0  0  0  0  0  0  0  0  0
  149.4331  134.7441  154.3052 N   0  0  0  0  0  0  0  0  0  0  0  0
  150.1573  135.6296  155.0033 C   0  0  0  0  0  0  0  0  0  0  0  0
  150.7562  135.3488  156.0417 O   0  0  0  0  0  0  0  0  0  0  0  0
  150.1475  136.8353  154.4092 N   0  0  0  0  0  0  0  0  0  0  0  0
  150.7543  137.9851  154.8072 C   0  0  0  0  0  0  0  0  0  0  0  0
  151.9207  138.1408  155.5057 C   0  0  0  0  0  0  0  0  0  0  0  0
  152.0243  139.5564  155.6220 C   0  0  0  0  0  0  0  0  0  0  0  0
  151.0151  140.2003  155.0497 N   0  0  0  0  0  0  0  0  0  0  0  0
  150.2222  139.2304  154.5449 N   0  0  0  0  0  0  0  0  0  0  0  0
  149.0096  139.5998  153.8400 C   0  0  0  0  0  0  0  0  0  0  0  0
  146.2683  133.4783  151.2741 H   0  0  0  0  0  0  0  0  0  0  0  0
  146.1825  132.0104  152.2479 H   0  0  0  0  0  0  0  0  0  0  0  0
  147.5299  132.2547  151.1242 H   0  0  0  0  0  0  0  0  0  0  0  0
  149.0814  131.9515  152.9517 H   0  0  0  0  0  0  0  0  0  0  0  0
  146.6291  131.3322  153.8870 H   0  0  0  0  0  0  0  0  0  0  0  0
  148.0647  130.7381  154.7145 H   0  0  0  0  0  0  0  0  0  0  0  0
  146.4251  133.1836  155.4506 H   0  0  0  0  0  0  0  0  0  0  0  0
  146.8611  131.8419  156.5067 H   0  0  0  0  0  0  0  0  0  0  0  0
  148.3274  134.1427  156.4871 H   0  0  0  0  0  0  0  0  0  0  0  0
  149.1112  132.5861  156.6754 H   0  0  0  0  0  0  0  0  0  0  0  0
  150.2396  132.8603  154.7670 H   0  0  0  0  0  0  0  0  0  0  0  0
  148.9823  135.0582  153.4586 H   0  0  0  0  0  0  0  0  0  0  0  0
  149.6311  136.8991  153.5444 H   0  0  0  0  0  0  0  0  0  0  0  0
  152.5973  137.3874  155.8798 H   0  0  0  0  0  0  0  0  0  0  0  0
  152.7991  140.1342  156.1043 H   0  0  0  0  0  0  0  0  0  0  0  0
  148.3974  138.7207  153.6390 H   0  0  0  0  0  0  0  0  0  0  0  0
  149.2676  140.0746  152.8931 H   0  0  0  0  0  0  0  0  0  0  0  0
  148.4294  140.2987  154.4432 H   0  0  0  0  0  0  0  0  0  0  0  0
  1  2  1  0  0  0  0
  1 18  1  0  0  0  0
  1 19  1  0  0  0  0
  1 20  1  0  0  0  0
  2  3  1  0  0  0  0
  3  7  1  0  0  0  0
  3  4  1  0  0  0  0
  3 21  1  0  0  0  0
  4  5  1  0  0  0  0
  4 22  1  0  0  0  0
  4 23  1  0  0  0  0
  5  6  1  0  0  0  0
  5 24  1  0  0  0  0
  5 25  1  0  0  0  0
  6  7  1  0  0  0  0
  6 26  1  0  0  0  0
  6 27  1  0  0  0  0
  7  8  1  0  0  0  0
  7 28  1  0  0  0  0
  8  9  1  0  0  0  0
  8 29  1  0  0  0  0
  9 10  2  0  0  0  0
  9 11  1  0  0  0  0
 11 12  1  0  0  0  0
 11 30  1  0  0  0  0
 12 16  1  0  0  0  0
 12 13  2  0  0  0  0
 13 14  1  0  0  0  0
 13 31  1  0  0  0  0
 14 15  2  0  0  0  0
 14 32  1  0  0  0  0
 15 16  1  0  0  0  0
 16 17  1  0  0  0  0
 17 33  1  0  0  0  0
 17 34  1  0  0  0  0
 17 35  1  0  0  0  0
M  END
> <s_m_source_file>
AV-unprocessed.smi

> <i_m_source_file_index>
2789

> <i_lp_mmshare_version>
43012

> <i_f3d_flags>
0

> <s_epik_input>
W0NIM11PW0NAQEhdMVtDSDJdW0NIMl1bQ0gyXVtDQEhdMVtOSF1DKD1PKVtOSF1jMltjSF1bY0hdbm4yW0NIM10=

> <s_epik_cmdline>
J2VwaWtfcHl0aG9uJywgJy1waCcsICc3LjAnLCAnLXRuJywgJzgnLCAnLW1hJywgJzIwMCcsICctbWV0YWxfYmluZGluZycsICctaW1hZScsICc8aW5maWxlLm1hZT4nLCAnLW9tYWUnLCAnPG91dGZpbGUubWFlPic=

> <r_lp_tautomer_probability>
1

> <r_epik_Ionization_Penalty>
4.40608e-05

> <r_epik_Ionization_Penalty_Charging>
0

> <r_epik_Ionization_Penalty_Neutral>
4.40608e-05

> <r_epik_State_Penalty>
-0

> <r_epik_Charging_Adjusted_Penalty>
0

> <i_epik_Tot_Q>
0

> <i_epik_Tot_abs_Q>
0

> <r_epik_Metal_State_Penalty>
-0

> <b_epik_Metal_Only>
0

> <s_lp_Force_Field>
OPLS_2005

> <r_lp_Energy>
23.3685

> <b_lp_Chiralities_Consistent>
1

> <s_lp_Variant>
AV-unprocessed.smi:2789-3

> <Gold.Version>
5.8.1

> <Gold.Id.Protein>
6NUR|6NUR_protein|mol2

> <Gold.PLP.Fitness>
41.0071

> <Gold.PLP.PLP>
-30.0061

> <Gold.PLP.part.hbond>
-5.3039

> <Gold.PLP.part.metal>
0.0000

> <Gold.PLP.part.buried>
-0.2701

> <Gold.PLP.part.nonpolar>
-25.2642

> <Gold.PLP.part.repulsive>
0.3919

> <Gold.PLP.ligand.clash>
0.0000

> <Gold.PLP.ligand.torsion>
0.2412

> <Gold.PLP.Chemscore.Hbond>
3.8240

> <Gold.PLP.Chemscore.CHOScore>
0.0000

> <Gold.PLP.Chemscore.Metal>
0.0000

> <Gold.Chemscore.Hbonds>
donor molecule, donor type, donor heavy atom, donor atom, acceptor molecule, acceptor atom, score
      L1  H     8    29       P1  7948  0.99
      L1  H    11    30       P1  7948  1.00
      P1  H  7989  7998       L1    15  0.95

> <Gold.PLP.Chemscore.Internal.Correction>
0.0113

> <Gold.Rescore>
     Score         DG    S(hbond)    S(metal)    S(lipo)     H(rot)  DE(clash)    DE(int)     intcor
     13.44     -15.11       2.15        0.00      48.74       1.27       0.66       1.01       ----

> <Gold.Chemscore.Fitness>
13.4359

> <Gold.Chemscore.DG>
-15.1125

> <Gold.Chemscore.ZeroCoef>
-5.4800

> <Gold.Chemscore.Hbond>
2.1508

> <Gold.Chemscore.Metal>
0.0000

> <Gold.Chemscore.Lipo>
48.7443

> <Gold.Chemscore.Internal_Hbond>
0.0000

> <Gold.Chemscore.DEClash>
0.6636

> <Gold.Chemscore.DEInternal>
1.0130

> <Gold.Chemscore.Rot>
1.2712

> <Gold.Chemscore.Internal.Correction>
   9.000000E+99

> <Gold.Chemscore.Hbonds>
donor molecule, donor type, donor heavy atom, donor atom, acceptor molecule, acceptor atom, score
      L1  H     8    29       P1  7948  0.37
      L1  H    11    30       P1  7948  0.68
      P1  H  7989  7998       L1    15  0.13

> <Gold.Chemscore.Hbond.Weighted>
-7.1838

> <Gold.Chemscore.Metal.Weighted>
-0.0000

> <Gold.Chemscore.Lipo.Weighted>
-5.7031

> <Gold.Chemscore.Internal_Hbond.Weighted>
0.0000

> <Gold.Chemscore.DEClash.Weighted>
0.6636

> <Gold.Chemscore.DEInternal.Weighted>
1.0130

> <Gold.Chemscore.Rot.Weighted>
3.2544

> <Gold.Chemscore.Internal.Correction.Weighted>
   9.000000E+99

> <Gold.Protein.RotatedTorsions>
[ 6907 6896 6895 6894 ] final  -16.22 input  -60.11 | X-H torsion
[ 7974 7965 7964 7962 ] final  115.72 input  175.53 | X-H torsion
[ 8008 7997 7996 7995 ] final -173.68 input   59.86 | X-H torsion
[ 10167 10162 10161 10158 ] final -105.86 input  -65.29 | X-H torsion
[ 10718 10713 10712 10709 ] final -114.58 input   66.30 | X-H torsion
[ 10763 10752 10751 10750 ] final   81.67 input  -60.55 | X-H torsion
[ 11005 11000 10999 10996 ] final -117.79 input  -57.11 | X-H torsion

> <Gold.Protein.ActiveResidues>
 VAL166  LYS551  ARG553  GLY616  TRP617  ASP618  TYR619  PRO620  LYS621  CYS622 
 ASP623  PHE694  ASN695  SER759  ASP760  ASP761  ALA762  ILE779  LEU786  VAL792 
 PHE793  MET794  SER795  GLU796  ALA797  LYS798  CYS799  TRP800  GLU811  SER814 

> <Gold.Protein.RotatedAtoms>
  151.3120  135.0796  159.9275 H   0  0  0  0  0  0  0  0  0  0  0  0  # atno 6907 bound_to 6896
  152.5275  133.9726  159.7779 H   0  0  0  0  0  0  0  0  0  0  0  0  # atno 6908 bound_to 6896
  151.0032  133.5984  159.2722 H   0  0  0  0  0  0  0  0  0  0  0  0  # atno 6909 bound_to 6896
  145.1884  139.3013  143.4381 H   0  0  0  0  0  0  0  0  0  0  0  0  # atno 7974 bound_to 7965
  155.9605  140.1143  157.0900 H   0  0  0  0  0  0  0  0  0  0  0  0  # atno 8008 bound_to 7997
  154.4131  140.1183  156.5239 H   0  0  0  0  0  0  0  0  0  0  0  0  # atno 8009 bound_to 7997
  155.6727  140.3473  155.4827 H   0  0  0  0  0  0  0  0  0  0  0  0  # atno 8010 bound_to 7997
  140.1939  143.3870  152.1184 H   0  0  0  0  0  0  0  0  0  0  0  0  # atno 10167 bound_to 10162
  156.0839  130.6034  150.8794 H   0  0  0  0  0  0  0  0  0  0  0  0  # atno 10718 bound_to 10713
  153.1137  135.4757  154.9078 H   0  0  0  0  0  0  0  0  0  0  0  0  # atno 10763 bound_to 10752
  154.7506  135.3105  154.8566 H   0  0  0  0  0  0  0  0  0  0  0  0  # atno 10764 bound_to 10752
  153.9148  135.6861  153.4803 H   0  0  0  0  0  0  0  0  0  0  0  0  # atno 10765 bound_to 10752
  141.0331  133.9952  157.3113 H   0  0  0  0  0  0  0  0  0  0  0  0  # atno 11005 bound_to 11000
  146.3440  140.2089  142.8590 LP  0  0  0  0  0  0  0  0  0  0  0  0  # atno 17320 bound_to 7965
  145.0065  140.8677  143.5250 LP  0  0  0  0  0  0  0  0  0  0  0  0  # atno 17321 bound_to 7965
  139.5244  144.7084  151.5284 LP  0  0  0  0  0  0  0  0  0  0  0  0  # atno 17342 bound_to 10162
  140.6436  143.8838  150.6716 LP  0  0  0  0  0  0  0  0  0  0  0  0  # atno 17343 bound_to 10162
  157.5967  131.0943  150.9029 LP  0  0  0  0  0  0  0  0  0  0  0  0  # atno 17370 bound_to 10713
  156.9195  130.5310  149.5279 LP  0  0  0  0  0  0  0  0  0  0  0  0  # atno 17371 bound_to 10713
  139.9221  135.0201  156.8103 LP  0  0  0  0  0  0  0  0  0  0  0  0  # atno 17394 bound_to 11000
  140.6372  133.9852  155.7690 LP  0  0  0  0  0  0  0  0  0  0  0  0  # atno 17395 bound_to 11000

$$$$
