#       Name:                AV-unprocessed.smi:2777
#       Creating user name   scv26
#       Creation time:       Fri Mar 27 15:14:35 2020


#       File generated by GOLD software.
#

@<TRIPOS>MOLECULE
AV-unprocessed.smi:2777
    38    39     1
SMALL
NO_CHARGES


@<TRIPOS>ATOM
      1 ****        -1.0832   3.5367   0.4563 C.3            1 S1                 0.0000
      2 ****        -1.2191   2.0679   0.4328 N.am           1 S1                 0.0000
      3 ****        -0.0765   1.3115   0.4150 C.2            1 S1                 0.0000
      4 ****         1.0679   1.7656   0.4107 O.2            1 S1                 0.0000
      5 ****        -0.3219  -0.1345   0.3968 C.2            1 S1                 0.0000
      6 ****        -1.5670  -0.6693   0.3904 C.2            1 S1                 0.0000
      7 ****        -1.5227  -2.0586   0.3670 N.2            1 S1                 0.0000
      8 ****        -0.2103  -2.2943   0.3619 C.2            1 S1                 0.0000
      9 ****         0.5782  -1.2002   0.3783 N.pl3          1 S1                 0.0000
     10 ****         2.0335  -1.1961   0.3771 C.3            1 S1                 0.0000
     11 ****         2.6276  -1.2947  -1.0432 C.3            1 S1                 0.0000
     12 ****         2.1574  -0.2272  -1.8446 O.3            1 S1                 0.0000
     13 ****         4.1680  -1.2878  -1.0450 C.3            1 S1                 0.0000
     14 ****         4.6267  -1.4027  -2.2915 F              1 S1                 0.0000
     15 ****         4.6419  -0.1689  -0.4953 F              1 S1                 0.0000
     16 ****         4.6164  -2.3295  -0.3445 F              1 S1                 0.0000
     17 ****        -2.6829   0.2033   0.4061 N.am           1 S1                 0.0000
     18 ****        -4.0129  -0.4128   0.3960 C.3            1 S1                 0.0000
     19 ****        -2.5099   1.5662   0.4296 C.2            1 S1                 0.0000
     20 ****        -3.4833   2.3245   0.4467 O.2            1 S1                 0.0000
     21 ****        -0.0565   3.9041   0.4605 H              1 S1                 0.0000
     22 ****        -1.5618   3.9484   1.3463 H              1 S1                 0.0000
     23 ****        -1.5657   3.9774  -0.4177 H              1 S1                 0.0000
     24 ****         0.1920  -3.2966   0.3449 H              1 S1                 0.0000
     25 ****         2.3953  -0.3085   0.8940 H              1 S1                 0.0000
     26 ****         2.3704  -2.0438   0.9748 H              1 S1                 0.0000
     27 ****         2.2827  -2.2208  -1.5051 H              1 S1                 0.0000
     28 ****         1.2140  -0.2674  -1.8760 H              1 S1                 0.0000
     29 ****        -4.8397   0.2976   0.4166 H              1 S1                 0.0000
     30 ****        -4.1262  -1.0659   1.2620 H              1 S1                 0.0000
     31 ****        -4.1322  -1.0228  -0.5001 H              1 S1                 0.0000
     32 ****         1.2133   2.7549   0.4205 LP             1 S1                 0.0000
     33 ****         1.8520   1.1451   0.3973 LP             1 S1                 0.0000
     34 ****        -2.2795  -2.7122   0.3566 LP             1 S1                 0.0000
     35 ****         2.5292  -0.3107  -2.7692 LP             1 S1                 0.0000
     36 ****         2.4446   0.6444  -1.4473 LP             1 S1                 0.0000
     37 ****        -3.3454   3.3148   0.4631 LP             1 S1                 0.0000
     38 ****        -4.4100   1.9487   0.4441 LP             1 S1                 0.0000
@<TRIPOS>BOND
    1    1    2 1     
    2    1   21 1     
    3    1   22 1     
    4    1   23 1     
    5    2   19 am    
    6    2    3 am    
    7    3    4 2     
    8    3    5 1     
    9    5    9 1     
   10    5    6 2     
   11    6    7 1     
   12    6   17 1     
   13    7    8 2     
   14    8    9 1     
   15    8   24 1     
   16    9   10 1     
   17   10   11 1     
   18   10   25 1     
   19   10   26 1     
   20   11   12 1     
   21   11   13 1     
   22   11   27 1     
   23   12   28 1     
   24   13   14 1     
   25   13   15 1     
   26   13   16 1     
   27   17   18 1     
   28   17   19 am    
   29   18   29 1     
   30   18   30 1     
   31   18   31 1     
   32   19   20 2     
   33    4   32 1     
   34    4   33 1     
   35    7   34 1     
   36   12   35 1     
   37   12   36 1     
   38   20   37 1     
   39   20   38 1     
@<TRIPOS>SUBSTRUCTURE
      1 S1             1
@<TRIPOS>SET
LONE_PAIRS      STATIC     ATOMS    <user>   **** ""
7 32 33 34 35 36 37 38
DONOR_HYDROGENS      STATIC     ATOMS    <user>   **** ""
1 28
ATOM$BLUE        STATIC     ATOMS    COLORGROUP SYSTEM
7 32 33 34 35 36 37 38
ATOM$RED        STATIC     ATOMS    COLORGROUP SYSTEM
1 28
