#       Name:                AV-unprocessed.smi:44
#       Creating user name   scv26
#       Creation time:       Thu Mar 26 16:25:48 2020


#       File generated by GOLD software.
#

@<TRIPOS>MOLECULE
AV-unprocessed.smi:44
    37    39     1
SMALL
NO_CHARGES


@<TRIPOS>ATOM
      1 ****        -2.7022   4.3506  -1.0151 O.2            1 S1                 0.0000
      2 ****        -2.8301   3.1880  -0.6362 C.2            1 S1                 0.0000
      3 ****        -4.0226   2.5231  -0.5096 N.pl3          1 S1                -1.0000
      4 ****        -4.0318   1.2022  -0.0660 C.2            1 S1                 0.0000
      5 ****        -3.0189   0.4733   0.2595 N.2            1 S1                 0.0000
      6 ****        -1.8057   1.1186   0.1382 C.2            1 S1                 0.0000
      7 ****        -1.6119   2.4080  -0.2780 C.2            1 S1                 0.0000
      8 ****        -0.2624   2.7381  -0.2793 N.2            1 S1                 0.0000
      9 ****         0.3020   1.6069   0.1438 C.2            1 S1                 0.0000
     10 ****        -0.5488   0.5917   0.4060 N.pl3          1 S1                 0.0000
     11 ****        -0.2370  -0.7913   0.8901 C.3            1 S1                 0.0000
     12 ****        -0.3809  -1.7839  -0.2641 C.3            1 S1                 0.0000
     13 ****         1.0027  -1.7312  -0.8719 C.3            1 S1                 0.0000
     14 ****         1.8757  -1.6222   0.3782 C.3            1 S1                 0.0000
     15 ****         3.2462  -0.9816   0.1117 C.3            1 S1                 0.0000
     16 ****         4.1367  -1.2888   1.1623 O.3            1 S1                 0.0000
     17 ****         1.1058  -0.8269   1.2832 O.3            1 S1                 0.0000
     18 ****        -0.9233  -0.9561   1.7214 H              1 S1                 0.0000
     19 ****         1.9920  -2.6198   0.8062 H              1 S1                 0.0000
     20 ****        -5.0464   0.7997  -0.0115 H              1 S1                 0.0000
     21 ****         1.3705   1.5202   0.2651 H              1 S1                 0.0000
     22 ****        -0.5862  -2.7734   0.1462 H              1 S1                 0.0000
     23 ****        -1.1820  -1.5105  -0.9520 H              1 S1                 0.0000
     24 ****         1.2363  -2.6063  -1.4786 H              1 S1                 0.0000
     25 ****         1.1058  -0.8437  -1.4984 H              1 S1                 0.0000
     26 ****         3.6744  -1.3859  -0.8060 H              1 S1                 0.0000
     27 ****         3.1683   0.0976  -0.0171 H              1 S1                 0.0000
     28 ****         4.9745  -0.8957   0.9713 H              1 S1                 0.0000
     29 ****        -1.7914   4.7583  -1.0789 LP             1 S1                 0.0000
     30 ****        -3.5091   4.8884  -1.2596 LP             1 S1                 0.0000
     31 ****        -4.8812   2.9837  -0.7346 LP             1 S1                 0.0000
     32 ****        -3.1051  -0.4730   0.5713 LP             1 S1                 0.0000
     33 ****         0.1733   3.6018  -0.5326 LP             1 S1                 0.0000
     34 ****         4.2392  -2.2807   1.2381 LP             1 S1                 0.0000
     35 ****         3.7814  -0.9238   2.0229 LP             1 S1                 0.0000
     36 ****         1.1691  -1.2194   2.2007 LP             1 S1                 0.0000
     37 ****         1.4698   0.1044   1.2931 LP             1 S1                 0.0000
@<TRIPOS>BOND
    1    1    2 2     
    2    2    7 1     
    3    2    3 1     
    4    3    4 1     
    5    4    5 2     
    6    4   20 1     
    7    5    6 1     
    8    6   10 1     
    9    6    7 2     
   10    7    8 1     
   11    8    9 2     
   12    9   10 1     
   13    9   21 1     
   14   10   11 1     
   15   11   18 1     
   16   11   17 1     
   17   11   12 1     
   18   12   13 1     
   19   12   22 1     
   20   12   23 1     
   21   13   14 1     
   22   13   24 1     
   23   13   25 1     
   24   14   19 1     
   25   14   15 1     
   26   14   17 1     
   27   15   16 1     
   28   15   26 1     
   29   15   27 1     
   30   16   28 1     
   31    1   29 1     
   32    1   30 1     
   33    3   31 1     
   34    5   32 1     
   35    8   33 1     
   36   16   34 1     
   37   16   35 1     
   38   17   36 1     
   39   17   37 1     
@<TRIPOS>SUBSTRUCTURE
      1 S1             1
@<TRIPOS>SET
LONE_PAIRS      STATIC     ATOMS    <user>   **** ""
9 29 30 31 32 33 34 35 36 37
DONOR_HYDROGENS      STATIC     ATOMS    <user>   **** ""
1 28
ATOM$BLUE        STATIC     ATOMS    COLORGROUP SYSTEM
9 29 30 31 32 33 34 35 36 37
ATOM$RED        STATIC     ATOMS    COLORGROUP SYSTEM
1 28
