AV-unprocessed.smi:1824|AV-procd|sdf|7399|dock8
  -GOLD-   22720 9 73D 1   1.00000     0.00000
 Structure written by MMmdl.
 45 47  0  0  0  0  0  0  0  0  2 V2000
  150.2138  132.8188  154.5470 C   0  0  0  0  0  0  0  0  0  0  0  0
  149.4862  134.1608  154.4097 C   0  0  2  0  0  0  0  0  0  0  0  0
  150.4231  135.3545  154.6681 C   0  0  0  0  0  0  0  0  0  0  0  0
  149.6668  136.6267  154.6130 N   0  3  2  0  0  0  0  0  0  0  0  0
  150.5436  137.8186  154.7413 C   0  0  0  0  0  0  0  0  0  0  0  0
  149.7436  139.1265  154.9011 C   0  0  2  0  0  0  0  0  0  0  0  0
  148.8620  139.2586  153.8017 O   0  0  0  0  0  0  0  0  0  0  0  0
  150.6700  140.3560  154.9684 C   0  0  0  0  0  0  0  0  0  0  0  0
  151.4882  140.3740  156.1683 N   0  0  0  0  0  0  0  0  0  0  0  0
  152.3546  139.4249  156.5721 C   0  0  0  0  0  0  0  0  0  0  0  0
  153.0079  139.6402  157.7102 N   0  0  0  0  0  0  0  0  0  0  0  0
  152.5094  140.8746  158.0901 C   0  0  0  0  0  0  0  0  0  0  0  0
  152.7989  141.6729  159.2198 C   0  0  0  0  0  0  0  0  0  0  0  0
  152.1576  142.9163  159.4005 C   0  0  0  0  0  0  0  0  0  0  0  0
  152.4476  143.6692  160.4880 F   0  0  0  0  0  0  0  0  0  0  0  0
  151.2175  143.3788  158.4556 C   0  0  0  0  0  0  0  0  0  0  0  0
  150.6061  144.5735  158.6359 F   0  0  0  0  0  0  0  0  0  0  0  0
  150.9121  142.6005  157.3226 C   0  0  0  0  0  0  0  0  0  0  0  0
  151.5557  141.3615  157.1458 C   0  0  0  0  0  0  0  0  0  0  0  0
  148.5484  136.6025  155.5877 C   0  0  0  0  0  0  0  0  0  0  0  0
  147.6415  135.3774  155.3597 C   0  0  1  0  0  0  0  0  0  0  0  0
  146.7488  135.4977  154.1118 C   0  0  0  0  0  0  0  0  0  0  0  0
  148.4206  134.1810  155.3562 O   0  0  0  0  0  0  0  0  0  0  0  0
  151.0365  132.7422  153.8354 H   0  0  0  0  0  0  0  0  0  0  0  0
  149.5345  131.9869  154.3591 H   0  0  0  0  0  0  0  0  0  0  0  0
  150.6250  132.6920  155.5491 H   0  0  0  0  0  0  0  0  0  0  0  0
  149.0828  134.2236  153.3988 H   0  0  0  0  0  0  0  0  0  0  0  0
  150.9045  135.2583  155.6429 H   0  0  0  0  0  0  0  0  0  0  0  0
  151.2154  135.3635  153.9185 H   0  0  0  0  0  0  0  0  0  0  0  0
  151.2205  137.6767  155.5852 H   0  0  0  0  0  0  0  0  0  0  0  0
  151.1771  137.9069  153.8572 H   0  0  0  0  0  0  0  0  0  0  0  0
  149.1455  139.0962  155.8115 H   0  0  0  0  0  0  0  0  0  0  0  0
  149.2887  139.7680  153.1292 H   0  0  0  0  0  0  0  0  0  0  0  0
  151.3349  140.3728  154.1039 H   0  0  0  0  0  0  0  0  0  0  0  0
  150.0876  141.2776  154.9286 H   0  0  0  0  0  0  0  0  0  0  0  0
  152.5141  138.5236  155.9981 H   0  0  0  0  0  0  0  0  0  0  0  0
  153.5164  141.3291  159.9501 H   0  0  0  0  0  0  0  0  0  0  0  0
  150.1922  142.9535  156.5999 H   0  0  0  0  0  0  0  0  0  0  0  0
  148.9586  136.5682  156.5982 H   0  0  0  0  0  0  0  0  0  0  0  0
  147.9541  137.5134  155.5229 H   0  0  0  0  0  0  0  0  0  0  0  0
  146.9723  135.2975  156.2171 H   0  0  0  0  0  0  0  0  0  0  0  0
  146.0728  136.3485  154.2014 H   0  0  0  0  0  0  0  0  0  0  0  0
  146.1367  134.6044  153.9847 H   0  0  0  0  0  0  0  0  0  0  0  0
  147.3268  135.6403  153.1992 H   0  0  0  0  0  0  0  0  0  0  0  0
  149.2575  136.6735  153.6904 H   0  0  0  0  0  0  0  0  0  0  0  0
  1  2  1  0  0  0  0
  1 24  1  0  0  0  0
  1 25  1  0  0  0  0
  1 26  1  0  0  0  0
  2 23  1  0  0  0  0
  2  3  1  0  0  0  0
  2 27  1  0  0  0  0
  3  4  1  0  0  0  0
  3 28  1  0  0  0  0
  3 29  1  0  0  0  0
  4  5  1  0  0  0  0
  4 20  1  0  0  0  0
  4 45  1  0  0  0  0
  5  6  1  0  0  0  0
  5 30  1  0  0  0  0
  5 31  1  0  0  0  0
  6  7  1  0  0  0  0
  6  8  1  0  0  0  0
  6 32  1  0  0  0  0
  7 33  1  0  0  0  0
  8  9  1  0  0  0  0
  8 34  1  0  0  0  0
  8 35  1  0  0  0  0
  9 19  1  0  0  0  0
  9 10  1  0  0  0  0
 10 11  2  0  0  0  0
 10 36  1  0  0  0  0
 11 12  1  0  0  0  0
 12 19  2  0  0  0  0
 12 13  1  0  0  0  0
 13 14  2  0  0  0  0
 13 37  1  0  0  0  0
 14 15  1  0  0  0  0
 14 16  1  0  0  0  0
 16 17  1  0  0  0  0
 16 18  2  0  0  0  0
 18 19  1  0  0  0  0
 18 38  1  0  0  0  0
 20 21  1  0  0  0  0
 20 39  1  0  0  0  0
 20 40  1  0  0  0  0
 21 22  1  0  0  0  0
 21 23  1  0  0  0  0
 21 41  1  0  0  0  0
 22 42  1  0  0  0  0
 22 43  1  0  0  0  0
 22 44  1  0  0  0  0
M  CHG  1   4   1
M  END
> <s_m_source_file>
AV-unprocessed.smi

> <i_m_source_file_index>
1824

> <i_lp_mmshare_version>
43012

> <i_f3d_flags>
0

> <s_epik_input>
W0NIM11bQ0BASF0xW0NIMl1OKFtDSDJdW0NASF0oTzEpW0NIM10pW0NIMl1bQ0BIXShbT0hdKVtDSDJdbihbY0hdbjIpYyhjMjMpW2NIXWMoRiljKEYpW2NIXTM=

> <s_epik_cmdline>
J2VwaWtfcHl0aG9uJywgJy1waCcsICc3LjAnLCAnLXRuJywgJzgnLCAnLW1hJywgJzIwMCcsICctbWV0YWxfYmluZGluZycsICctaW1hZScsICc8aW5maWxlLm1hZT4nLCAnLW9tYWUnLCAnPG91dGZpbGUubWFlPic=

> <r_epik_Ionization_Penalty>
0.61967

> <r_epik_Ionization_Penalty_Charging>
0.608065

> <r_epik_Ionization_Penalty_Neutral>
0.0116057

> <r_epik_State_Penalty>
0.664205

> <r_epik_Charging_Adjusted_Penalty>
1.27227

> <i_epik_Tot_Q>
1

> <i_epik_Tot_abs_Q>
1

> <r_epik_Metal_State_Penalty>
0.654947

> <b_epik_Metal_Only>
0

> <s_lp_Force_Field>
OPLS_2005

> <r_lp_Energy>
23.0723

> <b_lp_Chiralities_Consistent>
1

> <s_lp_Variant>
AV-unprocessed.smi:1824-7

> <Gold.Version>
5.8.1

> <Gold.Id.Protein>
6NUR|6NUR_protein|mol2

> <Gold.PLP.Fitness>
52.0001

> <Gold.PLP.PLP>
-40.5030

> <Gold.PLP.part.hbond>
-3.0000

> <Gold.PLP.part.metal>
0.0000

> <Gold.PLP.part.buried>
-0.9770

> <Gold.PLP.part.nonpolar>
-35.6932

> <Gold.PLP.part.repulsive>
0.0670

> <Gold.PLP.ligand.clash>
0.0000

> <Gold.PLP.ligand.torsion>
0.1122

> <Gold.PLP.Chemscore.Hbond>
3.8940

> <Gold.PLP.Chemscore.CHOScore>
0.0000

> <Gold.PLP.Chemscore.Metal>
0.0000

> <Gold.Chemscore.Hbonds>
donor molecule, donor type, donor heavy atom, donor atom, acceptor molecule, acceptor atom, score
      L1  H     4    45       P1  7948  2.00
      L1  H     7    33       P1  7957  0.94
      P1  H  7997  8008       L1    11  1.00

> <Gold.PLP.Chemscore.Internal.Correction>
0.0394

> <Gold.Rescore>
     Score         DG    S(hbond)    S(metal)    S(lipo)     H(rot)  DE(clash)    DE(int)     intcor
     15.91     -16.93       2.00        0.00      91.49       2.33       0.87       0.14       ----

> <Gold.Chemscore.Fitness>
15.9142

> <Gold.Chemscore.DG>
-16.9259

> <Gold.Chemscore.ZeroCoef>
-5.4800

> <Gold.Chemscore.Hbond>
2.0042

> <Gold.Chemscore.Metal>
0.0000

> <Gold.Chemscore.Lipo>
91.4875

> <Gold.Chemscore.Internal_Hbond>
0.0000

> <Gold.Chemscore.DEClash>
0.8740

> <Gold.Chemscore.DEInternal>
0.1377

> <Gold.Chemscore.Rot>
2.3251

> <Gold.Chemscore.Internal.Correction>
   9.000000E+99

> <Gold.Chemscore.Hbonds>
donor molecule, donor type, donor heavy atom, donor atom, acceptor molecule, acceptor atom, score
      L1  H     4    45       P1  7948  0.96
      L1  H     7    33       P1  7957  0.87
      P1  H  7997  8008       L1    11  0.11

> <Gold.Chemscore.Hbond.Weighted>
-6.6942

> <Gold.Chemscore.Metal.Weighted>
-0.0000

> <Gold.Chemscore.Lipo.Weighted>
-10.7040

> <Gold.Chemscore.Internal_Hbond.Weighted>
0.0000

> <Gold.Chemscore.DEClash.Weighted>
0.8740

> <Gold.Chemscore.DEInternal.Weighted>
0.1377

> <Gold.Chemscore.Rot.Weighted>
5.9523

> <Gold.Chemscore.Internal.Correction.Weighted>
   9.000000E+99

> <Gold.Protein.RotatedTorsions>
[ 6907 6896 6895 6894 ] final  -89.59 input  -60.11 | X-H torsion
[ 7974 7965 7964 7962 ] final -163.12 input  175.53 | X-H torsion
[ 8008 7997 7996 7995 ] final  -92.92 input   59.86 | X-H torsion
[ 10167 10162 10161 10158 ] final  -53.36 input  -65.29 | X-H torsion
[ 10718 10713 10712 10709 ] final   18.61 input   66.30 | X-H torsion
[ 10763 10752 10751 10750 ] final   20.02 input  -60.55 | X-H torsion
[ 11005 11000 10999 10996 ] final   46.89 input  -57.11 | X-H torsion

> <Gold.Protein.ActiveResidues>
 VAL166  LYS551  ARG553  GLY616  TRP617  ASP618  TYR619  PRO620  LYS621  CYS622 
 ASP623  PHE694  ASN695  SER759  ASP760  ASP761  ALA762  ILE779  LEU786  VAL792 
 PHE793  MET794  SER795  GLU796  ALA797  LYS798  CYS799  TRP800  GLU811  SER814 

> <Gold.Protein.RotatedAtoms>
  150.6875  134.2564  159.4531 H   0  0  0  0  0  0  0  0  0  0  0  0  # atno 6907 bound_to 6896
  152.0497  134.9658  160.0584 H   0  0  0  0  0  0  0  0  0  0  0  0  # atno 6908 bound_to 6896
  152.1127  133.4275  159.4675 H   0  0  0  0  0  0  0  0  0  0  0  0  # atno 6909 bound_to 6896
  144.7336  140.3154  143.6180 H   0  0  0  0  0  0  0  0  0  0  0  0  # atno 7974 bound_to 7965
  154.7291  140.0504  157.0710 H   0  0  0  0  0  0  0  0  0  0  0  0  # atno 8008 bound_to 7997
  155.0325  140.3159  155.4734 H   0  0  0  0  0  0  0  0  0  0  0  0  # atno 8009 bound_to 7997
  156.2837  140.2147  156.5447 H   0  0  0  0  0  0  0  0  0  0  0  0  # atno 8010 bound_to 7997
  140.6489  143.2553  151.4781 H   0  0  0  0  0  0  0  0  0  0  0  0  # atno 10167 bound_to 10162
  157.0988  130.6459  149.5867 H   0  0  0  0  0  0  0  0  0  0  0  0  # atno 10718 bound_to 10713
  153.1113  135.6697  153.9496 H   0  0  0  0  0  0  0  0  0  0  0  0  # atno 10763 bound_to 10752
  153.9038  135.3033  155.3450 H   0  0  0  0  0  0  0  0  0  0  0  0  # atno 10764 bound_to 10752
  154.7532  135.5024  153.9404 H   0  0  0  0  0  0  0  0  0  0  0  0  # atno 10765 bound_to 10752
  140.1328  134.4683  155.8508 H   0  0  0  0  0  0  0  0  0  0  0  0  # atno 11005 bound_to 11000
  145.7623  139.1829  143.2260 LP  0  0  0  0  0  0  0  0  0  0  0  0  # atno 17320 bound_to 7965
  146.0977  140.7581  142.9564 LP  0  0  0  0  0  0  0  0  0  0  0  0  # atno 17321 bound_to 7965
  139.5702  144.1947  152.1825 LP  0  0  0  0  0  0  0  0  0  0  0  0  # atno 17342 bound_to 10162
  140.1241  144.5347  150.6844 LP  0  0  0  0  0  0  0  0  0  0  0  0  # atno 17343 bound_to 10162
  155.9879  130.4920  150.7145 LP  0  0  0  0  0  0  0  0  0  0  0  0  # atno 17370 bound_to 10713
  157.4658  131.0888  151.0696 LP  0  0  0  0  0  0  0  0  0  0  0  0  # atno 17371 bound_to 10713
  141.2173  133.6802  156.7102 LP  0  0  0  0  0  0  0  0  0  0  0  0  # atno 17394 bound_to 11000
  140.2820  134.8309  157.3941 LP  0  0  0  0  0  0  0  0  0  0  0  0  # atno 17395 bound_to 11000

$$$$
