AV-unprocessed.smi:916|AV-procd|sdf|4159|dock5
  -GOLD-   22720 2 63D 1   1.00000     0.00000
 Structure written by MMmdl.
 43 44  0  0  0  0  0  0  0  0  1 V2000
  153.2244  142.6086  162.7031 C   0  0  0  0  0  0  0  0  0  0  0  0
  153.4650  142.4025  161.2034 C   0  0  0  0  0  0  0  0  0  0  0  0
  152.5604  143.2491  160.3602 C   0  0  0  0  0  0  0  0  0  0  0  0
  152.2102  144.5583  160.5843 C   0  0  0  0  0  0  0  0  0  0  0  0
  151.1321  145.1669  159.3568 S   0  0  0  0  0  0  0  0  0  0  0  0
  151.1959  143.5944  158.5767 C   0  0  0  0  0  0  0  0  0  0  0  0
  150.4791  143.3180  157.3833 N   0  0  0  0  0  0  0  0  0  0  0  0
  150.3551  142.1423  156.7426 C   0  0  0  0  0  0  0  0  0  0  0  0
  150.8491  141.0753  157.1085 O   0  0  0  0  0  0  0  0  0  0  0  0
  149.6123  142.2688  155.6350 N   0  0  0  0  0  0  0  0  0  0  0  0
  149.3043  141.1752  154.7217 C   0  0  0  0  0  0  0  0  0  0  0  0
  147.8125  141.1827  154.3156 C   0  0  1  0  0  0  0  0  0  0  0  0
  147.5407  140.3388  153.0770 C   0  0  0  0  0  0  0  0  0  0  0  0
  147.3039  138.9369  153.6434 C   0  0  0  0  0  0  0  0  0  0  0  0
  147.0759  139.1080  155.0393 O   0  0  0  0  0  0  0  0  0  0  0  0
  146.8742  140.4876  155.3180 C   0  0  1  0  0  0  0  0  0  0  0  0
  147.0758  140.7974  156.8190 C   0  0  0  0  0  0  0  0  0  0  0  0
  146.2035  139.8815  157.6928 C   0  0  0  0  0  0  0  0  0  0  0  0
  146.7752  142.2708  157.1428 C   0  0  0  0  0  0  0  0  0  0  0  0
  151.9756  142.7109  159.2098 N   0  0  0  0  0  0  0  0  0  0  0  0
  153.8975  141.9866  163.2934 H   0  0  0  0  0  0  0  0  0  0  0  0
  152.2024  142.3459  162.9780 H   0  0  0  0  0  0  0  0  0  0  0  0
  153.3921  143.6471  162.9898 H   0  0  0  0  0  0  0  0  0  0  0  0
  154.5075  142.6264  160.9744 H   0  0  0  0  0  0  0  0  0  0  0  0
  153.3253  141.3491  160.9578 H   0  0  0  0  0  0  0  0  0  0  0  0
  152.5209  145.2000  161.3954 H   0  0  0  0  0  0  0  0  0  0  0  0
  150.0052  144.1073  156.9698 H   0  0  0  0  0  0  0  0  0  0  0  0
  149.2412  143.1786  155.4043 H   0  0  0  0  0  0  0  0  0  0  0  0
  149.9396  141.2437  153.8368 H   0  0  0  0  0  0  0  0  0  0  0  0
  149.5604  140.2429  155.2248 H   0  0  0  0  0  0  0  0  0  0  0  0
  147.4974  142.2139  154.1514 H   0  0  0  0  0  0  0  0  0  0  0  0
  146.6307  140.6917  152.5896 H   0  0  0  0  0  0  0  0  0  0  0  0
  148.3374  140.3625  152.3332 H   0  0  0  0  0  0  0  0  0  0  0  0
  146.4492  138.4552  153.1679 H   0  0  0  0  0  0  0  0  0  0  0  0
  148.1762  138.2983  153.5022 H   0  0  0  0  0  0  0  0  0  0  0  0
  145.8428  140.7246  155.0482 H   0  0  0  0  0  0  0  0  0  0  0  0
  148.1136  140.5954  157.0846 H   0  0  0  0  0  0  0  0  0  0  0  0
  145.1436  140.0172  157.4759 H   0  0  0  0  0  0  0  0  0  0  0  0
  146.3555  140.0881  158.7526 H   0  0  0  0  0  0  0  0  0  0  0  0
  146.4444  138.8306  157.5303 H   0  0  0  0  0  0  0  0  0  0  0  0
  145.7431  142.5255  156.8997 H   0  0  0  0  0  0  0  0  0  0  0  0
  147.4227  142.9479  156.5863 H   0  0  0  0  0  0  0  0  0  0  0  0
  146.9265  142.4779  158.2024 H   0  0  0  0  0  0  0  0  0  0  0  0
  1  2  1  0  0  0  0
  1 21  1  0  0  0  0
  1 22  1  0  0  0  0
  1 23  1  0  0  0  0
  2  3  1  0  0  0  0
  2 24  1  0  0  0  0
  2 25  1  0  0  0  0
  3 20  1  0  0  0  0
  3  4  2  0  0  0  0
  4  5  1  0  0  0  0
  4 26  1  0  0  0  0
  5  6  1  0  0  0  0
  6  7  1  0  0  0  0
  6 20  2  0  0  0  0
  7  8  1  0  0  0  0
  7 27  1  0  0  0  0
  8  9  2  0  0  0  0
  8 10  1  0  0  0  0
 10 11  1  0  0  0  0
 10 28  1  0  0  0  0
 11 12  1  0  0  0  0
 11 29  1  0  0  0  0
 11 30  1  0  0  0  0
 12 16  1  0  0  0  0
 12 13  1  0  0  0  0
 12 31  1  0  0  0  0
 13 14  1  0  0  0  0
 13 32  1  0  0  0  0
 13 33  1  0  0  0  0
 14 15  1  0  0  0  0
 14 34  1  0  0  0  0
 14 35  1  0  0  0  0
 15 16  1  0  0  0  0
 16 17  1  0  0  0  0
 16 36  1  0  0  0  0
 17 18  1  0  0  0  0
 17 19  1  0  0  0  0
 17 37  1  0  0  0  0
 18 38  1  0  0  0  0
 18 39  1  0  0  0  0
 18 40  1  0  0  0  0
 19 41  1  0  0  0  0
 19 42  1  0  0  0  0
 19 43  1  0  0  0  0
M  END
> <s_m_source_file>
AV-unprocessed.smi

> <i_m_source_file_index>
916

> <i_lp_mmshare_version>
43012

> <i_f3d_flags>
0

> <s_epik_input>
W0NIM11bQ0gyXWMxW2NIXXNjKG4xKVtOSF1DKD1PKVtOSF1bQ0gyXVtDQEBIXTJbQ0gyXVtDSDJdT1tDQEhdMltDSF0oW0NIM10pW0NIM10=

> <s_epik_cmdline>
J2VwaWtfcHl0aG9uJywgJy1waCcsICc3LjAnLCAnLXRuJywgJzgnLCAnLW1hJywgJzIwMCcsICctbWV0YWxfYmluZGluZycsICctaW1hZScsICc8aW5maWxlLm1hZT4nLCAnLW9tYWUnLCAnPG91dGZpbGUubWFlPic=

> <r_lp_tautomer_probability>
0.999

> <r_epik_Ionization_Penalty>
0.000518907

> <r_epik_Ionization_Penalty_Charging>
0

> <r_epik_Ionization_Penalty_Neutral>
0.000518907

> <r_epik_State_Penalty>
0.000177984

> <r_epik_Charging_Adjusted_Penalty>
0.000177984

> <i_epik_Tot_Q>
0

> <i_epik_Tot_abs_Q>
0

> <r_epik_Metal_State_Penalty>
-0

> <b_epik_Metal_Only>
0

> <s_lp_Force_Field>
OPLS_2005

> <r_lp_Energy>
19.5432

> <b_lp_Chiralities_Consistent>
1

> <s_lp_Variant>
AV-unprocessed.smi:916-2

> <Gold.Version>
5.8.1

> <Gold.Id.Protein>
6NUR|6NUR_protein|mol2

> <Gold.PLP.Fitness>
43.7488

> <Gold.PLP.PLP>
-39.0409

> <Gold.PLP.part.hbond>
-1.9630

> <Gold.PLP.part.metal>
0.0000

> <Gold.PLP.part.buried>
-3.5347

> <Gold.PLP.part.nonpolar>
-34.2566

> <Gold.PLP.part.repulsive>
0.2635

> <Gold.PLP.ligand.clash>
0.0000

> <Gold.PLP.ligand.torsion>
0.5965

> <Gold.PLP.Chemscore.Hbond>
1.9440

> <Gold.PLP.Chemscore.CHOScore>
0.0000

> <Gold.PLP.Chemscore.Metal>
0.0000

> <Gold.Chemscore.Hbonds>
donor molecule, donor type, donor heavy atom, donor atom, acceptor molecule, acceptor atom, score
      L1  H     7    27       P1  8028  0.98
      L1  H    10    28       P1  8028  1.00

> <Gold.PLP.Chemscore.Internal.Correction>
0.0689

> <Gold.Rescore>
     Score         DG    S(hbond)    S(metal)    S(lipo)     H(rot)  DE(clash)    DE(int)     intcor
     16.44     -18.23       1.83        0.00      90.11       1.52       0.06       1.73       ----

> <Gold.Chemscore.Fitness>
16.4435

> <Gold.Chemscore.DG>
-18.2318

> <Gold.Chemscore.ZeroCoef>
-5.4800

> <Gold.Chemscore.Hbond>
1.8293

> <Gold.Chemscore.Metal>
0.0000

> <Gold.Chemscore.Lipo>
90.1081

> <Gold.Chemscore.Internal_Hbond>
0.0000

> <Gold.Chemscore.DEClash>
0.0580

> <Gold.Chemscore.DEInternal>
1.7303

> <Gold.Chemscore.Rot>
1.5238

> <Gold.Chemscore.Internal.Correction>
   9.000000E+99

> <Gold.Chemscore.Hbonds>
donor molecule, donor type, donor heavy atom, donor atom, acceptor molecule, acceptor atom, score
      L1  H     7    27       P1  8028  0.85
      L1  H    10    28       P1  8028  0.97

> <Gold.Chemscore.Hbond.Weighted>
-6.1100

> <Gold.Chemscore.Metal.Weighted>
-0.0000

> <Gold.Chemscore.Lipo.Weighted>
-10.5427

> <Gold.Chemscore.Internal_Hbond.Weighted>
0.0000

> <Gold.Chemscore.DEClash.Weighted>
0.0580

> <Gold.Chemscore.DEInternal.Weighted>
1.7303

> <Gold.Chemscore.Rot.Weighted>
3.9008

> <Gold.Chemscore.Internal.Correction.Weighted>
   9.000000E+99

> <Gold.Protein.RotatedTorsions>
[ 6907 6896 6895 6894 ] final  115.16 input  -60.11 | X-H torsion
[ 7974 7965 7964 7962 ] final   28.91 input  175.53 | X-H torsion
[ 8008 7997 7996 7995 ] final -105.23 input   59.86 | X-H torsion
[ 10167 10162 10161 10158 ] final  -89.79 input  -65.29 | X-H torsion
[ 10718 10713 10712 10709 ] final   15.03 input   66.30 | X-H torsion
[ 10763 10752 10751 10750 ] final  136.31 input  -60.55 | X-H torsion
[ 11005 11000 10999 10996 ] final -124.73 input  -57.11 | X-H torsion

> <Gold.Protein.ActiveResidues>
 VAL166  LYS551  ARG553  GLY616  TRP617  ASP618  TYR619  PRO620  LYS621  CYS622 
 ASP623  PHE694  ASN695  SER759  ASP760  ASP761  ALA762  ILE779  LEU786  VAL792 
 PHE793  MET794  SER795  GLU796  ALA797  LYS798  CYS799  TRP800  GLU811  SER814 

> <Gold.Protein.RotatedAtoms>
  152.4758  133.8136  159.7016 H   0  0  0  0  0  0  0  0  0  0  0  0  # atno 6907 bound_to 6896
  150.8775  133.7409  159.2949 H   0  0  0  0  0  0  0  0  0  0  0  0  # atno 6908 bound_to 6896
  151.4924  135.1061  159.9859 H   0  0  0  0  0  0  0  0  0  0  0  0  # atno 6909 bound_to 6896
  146.1702  139.6993  142.8973 H   0  0  0  0  0  0  0  0  0  0  0  0  # atno 7974 bound_to 7965
  154.8969  140.0414  157.1870 H   0  0  0  0  0  0  0  0  0  0  0  0  # atno 8008 bound_to 7997
  154.8484  140.2925  155.5593 H   0  0  0  0  0  0  0  0  0  0  0  0  # atno 8009 bound_to 7997
  156.2995  140.2469  156.3438 H   0  0  0  0  0  0  0  0  0  0  0  0  # atno 8010 bound_to 7997
  140.3613  143.2840  151.9610 H   0  0  0  0  0  0  0  0  0  0  0  0  # atno 10167 bound_to 10162
  157.0477  130.6257  149.5762 H   0  0  0  0  0  0  0  0  0  0  0  0  # atno 10718 bound_to 10713
  153.8544  135.3075  155.3434 H   0  0  0  0  0  0  0  0  0  0  0  0  # atno 10763 bound_to 10752
  154.7877  135.4800  153.9985 H   0  0  0  0  0  0  0  0  0  0  0  0  # atno 10764 bound_to 10752
  153.1499  135.6841  153.8992 H   0  0  0  0  0  0  0  0  0  0  0  0  # atno 10765 bound_to 10752
  140.9818  134.0662  157.3756 H   0  0  0  0  0  0  0  0  0  0  0  0  # atno 11005 bound_to 11000
  145.4360  141.0419  143.2884 LP  0  0  0  0  0  0  0  0  0  0  0  0  # atno 17320 bound_to 7965
  144.8152  139.5890  143.7012 LP  0  0  0  0  0  0  0  0  0  0  0  0  # atno 17321 bound_to 7965
  139.4814  144.5990  151.7640 LP  0  0  0  0  0  0  0  0  0  0  0  0  # atno 17342 bound_to 10162
  140.5124  144.1005  150.5999 LP  0  0  0  0  0  0  0  0  0  0  0  0  # atno 17343 bound_to 10162
  156.0017  130.5098  150.7689 LP  0  0  0  0  0  0  0  0  0  0  0  0  # atno 17370 bound_to 10713
  157.5055  131.0922  151.0262 LP  0  0  0  0  0  0  0  0  0  0  0  0  # atno 17371 bound_to 10713
  139.8953  135.0140  156.6997 LP  0  0  0  0  0  0  0  0  0  0  0  0  # atno 17394 bound_to 11000
  140.7175  133.9170  155.8124 LP  0  0  0  0  0  0  0  0  0  0  0  0  # atno 17395 bound_to 11000

$$$$
