AV-unprocessed.smi:299|AV-procd|sdf|2268|dock6
  -GOLD-   2262022163D 1   1.00000     0.00000
 Structure written by MMmdl.
 42 43  0  0  0  0  0  0  0  0  2 V2000
  146.5980  133.5686  150.8297 C   0  0  0  0  0  0  0  0  0  0  0  0
  146.4647  132.3818  151.8070 C   0  0  1  0  0  0  0  0  0  0  0  0
  145.7035  131.2428  151.0924 C   0  0  0  0  0  0  0  0  0  0  0  0
  145.5147  130.0215  151.9945 C   0  0  0  0  0  0  0  0  0  0  0  0
  146.8776  129.5563  152.5054 C   0  0  0  0  0  0  0  0  0  0  0  0
  147.6086  130.7029  153.2177 C   0  0  0  0  0  0  0  0  0  0  0  0
  147.7824  131.8937  152.3347 N   0  3  2  0  0  0  0  0  0  0  0  0
  148.6035  132.9525  152.9916 C   0  0  0  0  0  0  0  0  0  0  0  0
  147.9648  133.5136  154.2794 C   0  0  0  0  0  0  0  0  0  0  0  0
  148.9558  134.2929  155.1656 C   0  0  0  0  0  0  0  0  0  0  0  0
  149.2329  135.6348  154.6622 N   0  0  0  0  0  0  0  0  0  0  0  0
  149.6456  136.6717  155.4089 C   0  0  0  0  0  0  0  0  0  0  0  0
  149.8098  136.6061  156.6265 O   0  0  0  0  0  0  0  0  0  0  0  0
  149.9060  137.9870  154.6731 C   0  0  0  0  0  0  0  0  0  0  0  0
  151.3040  138.3673  154.7526 N   0  0  0  0  0  0  0  0  0  0  0  0
  151.8896  139.4550  155.2580 C   0  0  0  0  0  0  0  0  0  0  0  0
  153.2056  139.4122  155.1171 N   0  0  0  0  0  0  0  0  0  0  0  0
  153.4141  138.2012  154.4779 N   0  0  0  0  0  0  0  0  0  0  0  0
  152.2897  137.5766  154.2595 N   0  0  0  0  0  0  0  0  0  0  0  0
  145.6478  133.7740  150.3356 H   0  0  0  0  0  0  0  0  0  0  0  0
  147.3337  133.3639  150.0511 H   0  0  0  0  0  0  0  0  0  0  0  0
  146.8770  134.4938  151.3325 H   0  0  0  0  0  0  0  0  0  0  0  0
  145.8644  132.7108  152.6572 H   0  0  0  0  0  0  0  0  0  0  0  0
  144.7258  131.5950  150.7611 H   0  0  0  0  0  0  0  0  0  0  0  0
  146.2437  130.9472  150.1914 H   0  0  0  0  0  0  0  0  0  0  0  0
  144.8661  130.2740  152.8344 H   0  0  0  0  0  0  0  0  0  0  0  0
  145.0215  129.2183  151.4462 H   0  0  0  0  0  0  0  0  0  0  0  0
  146.7507  128.7149  153.1873 H   0  0  0  0  0  0  0  0  0  0  0  0
  147.4823  129.1928  151.6732 H   0  0  0  0  0  0  0  0  0  0  0  0
  147.0612  130.9936  154.1158 H   0  0  0  0  0  0  0  0  0  0  0  0
  148.5717  130.3201  153.5493 H   0  0  0  0  0  0  0  0  0  0  0  0
  149.5702  132.5549  153.2897 H   0  0  0  0  0  0  0  0  0  0  0  0
  148.8056  133.7515  152.2767 H   0  0  0  0  0  0  0  0  0  0  0  0
  147.1260  134.1670  154.0449 H   0  0  0  0  0  0  0  0  0  0  0  0
  147.5525  132.6899  154.8634 H   0  0  0  0  0  0  0  0  0  0  0  0
  148.5755  134.3573  156.1864 H   0  0  0  0  0  0  0  0  0  0  0  0
  149.9012  133.7533  155.2263 H   0  0  0  0  0  0  0  0  0  0  0  0
  149.1283  135.7785  153.6681 H   0  0  0  0  0  0  0  0  0  0  0  0
  149.6241  137.8887  153.6239 H   0  0  0  0  0  0  0  0  0  0  0  0
  149.2943  138.7846  155.0977 H   0  0  0  0  0  0  0  0  0  0  0  0
  151.3565  140.2717  155.7217 H   0  0  0  0  0  0  0  0  0  0  0  0
  148.3078  131.5841  151.5294 H   0  0  0  0  0  0  0  0  0  0  0  0
  1  2  1  0  0  0  0
  1 20  1  0  0  0  0
  1 21  1  0  0  0  0
  1 22  1  0  0  0  0
  2  7  1  0  0  0  0
  2  3  1  0  0  0  0
  2 23  1  0  0  0  0
  3  4  1  0  0  0  0
  3 24  1  0  0  0  0
  3 25  1  0  0  0  0
  4  5  1  0  0  0  0
  4 26  1  0  0  0  0
  4 27  1  0  0  0  0
  5  6  1  0  0  0  0
  5 28  1  0  0  0  0
  5 29  1  0  0  0  0
  6  7  1  0  0  0  0
  6 30  1  0  0  0  0
  6 31  1  0  0  0  0
  7  8  1  0  0  0  0
  7 42  1  0  0  0  0
  8  9  1  0  0  0  0
  8 32  1  0  0  0  0
  8 33  1  0  0  0  0
  9 10  1  0  0  0  0
  9 34  1  0  0  0  0
  9 35  1  0  0  0  0
 10 11  1  0  0  0  0
 10 36  1  0  0  0  0
 10 37  1  0  0  0  0
 11 12  1  0  0  0  0
 11 38  1  0  0  0  0
 12 13  2  0  0  0  0
 12 14  1  0  0  0  0
 14 15  1  0  0  0  0
 14 39  1  0  0  0  0
 14 40  1  0  0  0  0
 15 19  1  0  0  0  0
 15 16  1  0  0  0  0
 16 17  2  0  0  0  0
 16 41  1  0  0  0  0
 17 18  1  0  0  0  0
 18 19  2  0  0  0  0
M  CHG  1   7   1
M  END
> <s_m_source_file>
AV-unprocessed.smi

> <i_m_source_file_index>
299

> <i_lp_mmshare_version>
43012

> <i_f3d_flags>
0

> <s_epik_input>
W0NIM11bQ0BASF0xW0NIMl1bQ0gyXVtDSDJdW0NIMl1OMVtDSDJdW0NIMl1bQ0gyXVtOSF1DKD1PKVtDSDJdbjJbY0hdbm5uMg==

> <s_epik_cmdline>
J2VwaWtfcHl0aG9uJywgJy1waCcsICc3LjAnLCAnLXRuJywgJzgnLCAnLW1hJywgJzIwMCcsICctbWV0YWxfYmluZGluZycsICctaW1hZScsICc8aW5maWxlLm1hZT4nLCAnLW9tYWUnLCAnPG91dGZpbGUubWFlPic=

> <r_lp_tautomer_probability>
1

> <r_epik_Ionization_Penalty>
0.000544863

> <r_epik_Ionization_Penalty_Charging>
0.000543475

> <r_epik_Ionization_Penalty_Neutral>
1.38784e-06

> <r_epik_State_Penalty>
0.000340025

> <r_epik_Charging_Adjusted_Penalty>
0.0008835

> <i_epik_Tot_Q>
1

> <i_epik_Tot_abs_Q>
1

> <r_epik_Metal_State_Penalty>
-0

> <b_epik_Metal_Only>
0

> <s_lp_Force_Field>
OPLS_2005

> <r_lp_Energy>
25.9803

> <b_lp_Chiralities_Consistent>
1

> <s_lp_Variant>
AV-unprocessed.smi:299-4

> <Gold.Version>
5.8.1

> <Gold.Id.Protein>
6NUR|6NUR_protein|mol2

> <Gold.PLP.Fitness>
47.2927

> <Gold.PLP.PLP>
-36.7969

> <Gold.PLP.part.hbond>
-5.0000

> <Gold.PLP.part.metal>
0.0000

> <Gold.PLP.part.buried>
-5.0069

> <Gold.PLP.part.nonpolar>
-26.2191

> <Gold.PLP.part.repulsive>
0.2033

> <Gold.PLP.ligand.clash>
0.0000

> <Gold.PLP.ligand.torsion>
0.3340

> <Gold.PLP.Chemscore.Hbond>
3.7040

> <Gold.PLP.Chemscore.CHOScore>
0.0000

> <Gold.PLP.Chemscore.Metal>
0.0000

> <Gold.Chemscore.Hbonds>
donor molecule, donor type, donor heavy atom, donor atom, acceptor molecule, acceptor atom, score
      L1  H     7    42       P1 10747  1.00
      L1  H    11    38       P1  7948  1.00
      P1  H  7997  8010       L1    17  1.00
      P1  H 10752 10763       L1    19  0.66

> <Gold.PLP.Chemscore.Internal.Correction>
0.0519

> <Gold.Rescore>
     Score         DG    S(hbond)    S(metal)    S(lipo)     H(rot)  DE(clash)    DE(int)     intcor
     15.12     -15.48       3.02        0.00      64.34       2.97       0.03       0.33       ----

> <Gold.Chemscore.Fitness>
15.1225

> <Gold.Chemscore.DG>
-15.4849

> <Gold.Chemscore.ZeroCoef>
-5.4800

> <Gold.Chemscore.Hbond>
3.0166

> <Gold.Chemscore.Metal>
0.0000

> <Gold.Chemscore.Lipo>
64.3376

> <Gold.Chemscore.Internal_Hbond>
0.0000

> <Gold.Chemscore.DEClash>
0.0331

> <Gold.Chemscore.DEInternal>
0.3293

> <Gold.Chemscore.Rot>
2.9680

> <Gold.Chemscore.Internal.Correction>
   9.000000E+99

> <Gold.Chemscore.Hbonds>
donor molecule, donor type, donor heavy atom, donor atom, acceptor molecule, acceptor atom, score
      L1  H     7    42       P1 10747  0.98
      L1  H    11    38       P1  7948  0.82
      P1  H  7997  8010       L1    17  0.88
      P1  H 10752 10763       L1    19  0.13

> <Gold.Chemscore.Hbond.Weighted>
-10.0753

> <Gold.Chemscore.Metal.Weighted>
-0.0000

> <Gold.Chemscore.Lipo.Weighted>
-7.5275

> <Gold.Chemscore.Internal_Hbond.Weighted>
0.0000

> <Gold.Chemscore.DEClash.Weighted>
0.0331

> <Gold.Chemscore.DEInternal.Weighted>
0.3293

> <Gold.Chemscore.Rot.Weighted>
7.5980

> <Gold.Chemscore.Internal.Correction.Weighted>
   9.000000E+99

> <Gold.Protein.RotatedTorsions>
[ 6907 6896 6895 6894 ] final  114.88 input  -60.11 | X-H torsion
[ 7974 7965 7964 7962 ] final -106.40 input  175.53 | X-H torsion
[ 8008 7997 7996 7995 ] final  122.65 input   59.86 | X-H torsion
[ 10167 10162 10161 10158 ] final  103.10 input  -65.29 | X-H torsion
[ 10718 10713 10712 10709 ] final   47.03 input   66.30 | X-H torsion
[ 10763 10752 10751 10750 ] final   29.06 input  -60.55 | X-H torsion
[ 11005 11000 10999 10996 ] final  109.56 input  -57.11 | X-H torsion

> <Gold.Protein.ActiveResidues>
 VAL166  LYS551  ARG553  GLY616  TRP617  ASP618  TYR619  PRO620  LYS621  CYS622 
 ASP623  PHE694  ASN695  SER759  ASP760  ASP761  ALA762  ILE779  LEU786  VAL792 
 PHE793  MET794  SER795  GLU796  ALA797  LYS798  CYS799  TRP800  GLU811  SER814 

> <Gold.Protein.RotatedAtoms>
  152.4776  133.8175  159.7035 H   0  0  0  0  0  0  0  0  0  0  0  0  # atno 6907 bound_to 6896
  150.8803  133.7372  159.2941 H   0  0  0  0  0  0  0  0  0  0  0  0  # atno 6908 bound_to 6896
  151.4879  135.1059  159.9847 H   0  0  0  0  0  0  0  0  0  0  0  0  # atno 6909 bound_to 6896
  145.2183  140.9124  143.3274 H   0  0  0  0  0  0  0  0  0  0  0  0  # atno 7974 bound_to 7965
  156.2736  140.2781  156.1502 H   0  0  0  0  0  0  0  0  0  0  0  0  # atno 8008 bound_to 7997
  155.0861  140.0388  157.2672 H   0  0  0  0  0  0  0  0  0  0  0  0  # atno 8009 bound_to 7997
  154.6925  140.2632  155.6804 H   0  0  0  0  0  0  0  0  0  0  0  0  # atno 8010 bound_to 7997
  139.7292  144.7040  151.0749 H   0  0  0  0  0  0  0  0  0  0  0  0  # atno 10167 bound_to 10162
  157.4543  130.8157  149.7820 H   0  0  0  0  0  0  0  0  0  0  0  0  # atno 10718 bound_to 10713
  153.0453  135.6498  154.0834 H   0  0  0  0  0  0  0  0  0  0  0  0  # atno 10763 bound_to 10752
  154.0532  135.2894  155.3338 H   0  0  0  0  0  0  0  0  0  0  0  0  # atno 10764 bound_to 10752
  154.6706  135.5357  153.8199 H   0  0  0  0  0  0  0  0  0  0  0  0  # atno 10765 bound_to 10752
  139.8864  134.9461  156.6145 H   0  0  0  0  0  0  0  0  0  0  0  0  # atno 11005 bound_to 11000
  144.9790  139.3803  143.6271 LP  0  0  0  0  0  0  0  0  0  0  0  0  # atno 17320 bound_to 7965
  146.3382  139.8922  142.8807 LP  0  0  0  0  0  0  0  0  0  0  0  0  # atno 17321 bound_to 7965
  140.7768  143.5065  150.9706 LP  0  0  0  0  0  0  0  0  0  0  0  0  # atno 17342 bound_to 10162
  139.8753  143.7140  152.3162 LP  0  0  0  0  0  0  0  0  0  0  0  0  # atno 17343 bound_to 10162
  156.0000  130.3885  150.2641 LP  0  0  0  0  0  0  0  0  0  0  0  0  # atno 17370 bound_to 10713
  157.0815  131.0144  151.3155 LP  0  0  0  0  0  0  0  0  0  0  0  0  # atno 17371 bound_to 10713
  140.7786  133.8679  155.8549 LP  0  0  0  0  0  0  0  0  0  0  0  0  # atno 17394 bound_to 11000
  140.9780  134.1443  157.4519 LP  0  0  0  0  0  0  0  0  0  0  0  0  # atno 17395 bound_to 11000

$$$$
