AV-unprocessed.smi:1787|AV-procd|sdf|7209|dock1
  -GOLD-   22720 8453D 1   1.00000     0.00000
 Structure written by MMmdl.
 45 47  0  0  0  0  0  0  0  0  2 V2000
  149.1251  140.4099  158.2268 O   0  0  0  0  0  0  0  0  0  0  0  0
  148.9456  141.3509  157.4558 C   0  0  0  0  0  0  0  0  0  0  0  0
  147.9570  141.3798  156.5508 N   0  0  0  0  0  0  0  0  0  0  0  0
  146.9462  140.3415  156.3475 C   0  0  0  0  0  0  0  0  0  0  0  0
  146.3938  140.2905  154.8879 C   0  0  2  0  0  0  0  0  0  0  0  0
  145.5180  141.4999  154.6686 N   0  3  0  0  0  0  0  0  0  0  0  0
  144.4591  141.6968  155.6984 C   0  0  0  0  0  0  0  0  0  0  0  0
  143.4831  142.8020  155.2683 C   0  0  0  0  0  0  0  0  0  0  0  0
  144.2063  144.0090  155.0758 O   0  0  0  0  0  0  0  0  0  0  0  0
  145.1634  143.8838  154.0340 C   0  0  0  0  0  0  0  0  0  0  0  0
  146.1941  142.7941  154.3811 C   0  0  0  0  0  0  0  0  0  0  0  0
  145.6661  138.9360  154.6520 C   0  0  0  0  0  0  0  0  0  0  0  0
  146.7170  137.8231  154.6056 C   0  0  0  0  0  0  0  0  0  0  0  0
  148.1897  138.5216  153.8217 S   0  0  0  0  0  0  0  0  0  0  0  0
  147.5664  140.2249  153.8807 C   0  0  0  0  0  0  0  0  0  0  0  0
  149.6951  142.4641  157.3858 N   0  0  0  0  0  0  0  0  0  0  0  0
  150.8439  142.8347  158.1390 C   0  0  0  0  0  0  0  0  0  0  0  0
  151.4865  142.0182  159.1029 C   0  0  0  0  0  0  0  0  0  0  0  0
  152.6185  142.5202  159.7735 C   0  0  0  0  0  0  0  0  0  0  0  0
  153.0684  143.8171  159.4597 C   0  0  0  0  0  0  0  0  0  0  0  0
  152.4683  144.6054  158.5438 N   0  0  0  0  0  0  0  0  0  0  0  0
  151.3840  144.1179  157.9050 C   0  0  0  0  0  0  0  0  0  0  0  0
  147.8858  142.1958  155.9601 H   0  0  0  0  0  0  0  0  0  0  0  0
  147.3438  139.3738  156.6543 H   0  0  0  0  0  0  0  0  0  0  0  0
  146.1470  140.5392  157.0607 H   0  0  0  0  0  0  0  0  0  0  0  0
  143.8995  140.7776  155.8640 H   0  0  0  0  0  0  0  0  0  0  0  0
  144.9059  141.9743  156.6536 H   0  0  0  0  0  0  0  0  0  0  0  0
  142.9496  142.5267  154.3572 H   0  0  0  0  0  0  0  0  0  0  0  0
  142.7317  142.9608  156.0420 H   0  0  0  0  0  0  0  0  0  0  0  0
  144.6611  143.6542  153.0927 H   0  0  0  0  0  0  0  0  0  0  0  0
  145.6637  144.8427  153.8988 H   0  0  0  0  0  0  0  0  0  0  0  0
  146.7949  143.0978  155.2394 H   0  0  0  0  0  0  0  0  0  0  0  0
  146.8582  142.7047  153.5224 H   0  0  0  0  0  0  0  0  0  0  0  0
  144.8912  138.7305  155.3910 H   0  0  0  0  0  0  0  0  0  0  0  0
  145.1838  138.9185  153.6751 H   0  0  0  0  0  0  0  0  0  0  0  0
  146.9762  137.4925  155.6114 H   0  0  0  0  0  0  0  0  0  0  0  0
  146.3625  136.9508  154.0559 H   0  0  0  0  0  0  0  0  0  0  0  0
  147.2185  140.4673  152.8758 H   0  0  0  0  0  0  0  0  0  0  0  0
  148.3743  140.9161  154.1231 H   0  0  0  0  0  0  0  0  0  0  0  0
  149.4051  143.1432  156.6971 H   0  0  0  0  0  0  0  0  0  0  0  0
  151.1469  141.0251  159.3475 H   0  0  0  0  0  0  0  0  0  0  0  0
  153.1311  141.9240  160.5140 H   0  0  0  0  0  0  0  0  0  0  0  0
  153.9328  144.2320  159.9566 H   0  0  0  0  0  0  0  0  0  0  0  0
  150.9308  144.7779  157.1796 H   0  0  0  0  0  0  0  0  0  0  0  0
  145.0190  141.2886  153.8158 H   0  0  0  0  0  0  0  0  0  0  0  0
  1  2  2  0  0  0  0
  2  3  1  0  0  0  0
  2 16  1  0  0  0  0
  3  4  1  0  0  0  0
  3 23  1  0  0  0  0
  4  5  1  0  0  0  0
  4 24  1  0  0  0  0
  4 25  1  0  0  0  0
  5 15  1  0  0  0  0
  5  6  1  0  0  0  0
  5 12  1  0  0  0  0
  6 11  1  0  0  0  0
  6  7  1  0  0  0  0
  6 45  1  0  0  0  0
  7  8  1  0  0  0  0
  7 26  1  0  0  0  0
  7 27  1  0  0  0  0
  8  9  1  0  0  0  0
  8 28  1  0  0  0  0
  8 29  1  0  0  0  0
  9 10  1  0  0  0  0
 10 11  1  0  0  0  0
 10 30  1  0  0  0  0
 10 31  1  0  0  0  0
 11 32  1  0  0  0  0
 11 33  1  0  0  0  0
 12 13  1  0  0  0  0
 12 34  1  0  0  0  0
 12 35  1  0  0  0  0
 13 14  1  0  0  0  0
 13 36  1  0  0  0  0
 13 37  1  0  0  0  0
 14 15  1  0  0  0  0
 15 38  1  0  0  0  0
 15 39  1  0  0  0  0
 16 17  1  0  0  0  0
 16 40  1  0  0  0  0
 17 22  1  0  0  0  0
 17 18  2  0  0  0  0
 18 19  1  0  0  0  0
 18 41  1  0  0  0  0
 19 20  2  0  0  0  0
 19 42  1  0  0  0  0
 20 21  1  0  0  0  0
 20 43  1  0  0  0  0
 21 22  2  0  0  0  0
 22 44  1  0  0  0  0
M  CHG  1   6   1
M  END
> <s_m_source_file>
AV-unprocessed.smi

> <i_m_source_file_index>
1787

> <i_lp_mmshare_version>
43012

> <i_f3d_flags>
0

> <s_epik_input>
W2NIXTFuW2NIXVtjSF1bY0hdYzFbTkhdQyg9TylbTkhdW0NIMl1bQ0BdMihbQ0gyXVtDSDJdU1tDSDJdMilOM1tDSDJdW0NIMl1PW0NIMl1bQ0gyXTM=

> <s_epik_cmdline>
J2VwaWtfcHl0aG9uJywgJy1waCcsICc3LjAnLCAnLXRuJywgJzgnLCAnLW1hJywgJzIwMCcsICctbWV0YWxfYmluZGluZycsICctaW1hZScsICc8aW5maWxlLm1hZT4nLCAnLW9tYWUnLCAnPG91dGZpbGUubWFlPic=

> <r_epik_Ionization_Penalty>
2.03633

> <r_epik_Ionization_Penalty_Charging>
2.03219

> <r_epik_Ionization_Penalty_Neutral>
0.00414252

> <r_epik_State_Penalty>
2.16328

> <r_epik_Charging_Adjusted_Penalty>
4.19546

> <i_epik_Tot_Q>
1

> <i_epik_Tot_abs_Q>
1

> <r_epik_Metal_State_Penalty>
2.16381

> <b_epik_Metal_Only>
0

> <s_lp_Force_Field>
OPLS_2005

> <r_lp_Energy>
44.9439

> <b_lp_Chiralities_Consistent>
1

> <s_lp_Variant>
AV-unprocessed.smi:1787-4

> <Gold.Version>
5.8.1

> <Gold.Id.Protein>
6NUR|6NUR_protein|mol2

> <Gold.PLP.Fitness>
41.4858

> <Gold.PLP.PLP>
-30.5902

> <Gold.PLP.part.hbond>
-2.0000

> <Gold.PLP.part.metal>
0.0000

> <Gold.PLP.part.buried>
-3.6018

> <Gold.PLP.part.nonpolar>
-26.2623

> <Gold.PLP.part.repulsive>
0.1882

> <Gold.PLP.ligand.clash>
0.0000

> <Gold.PLP.ligand.torsion>
0.6296

> <Gold.PLP.Chemscore.Hbond>
3.0000

> <Gold.PLP.Chemscore.CHOScore>
1.0000

> <Gold.PLP.Chemscore.Metal>
0.0000

> <Gold.Chemscore.Hbonds>
donor molecule, donor type, donor heavy atom, donor atom, acceptor molecule, acceptor atom, score
      L1  H     6    45       P1 10175  1.95
      L1  H    16    40       P1  8028  1.00
      L1  C    22    44       P1  8028  1.00

> <Gold.PLP.Chemscore.Internal.Correction>
0.1548

> <Gold.Rescore>
     Score         DG    S(hbond)    S(metal)    S(lipo)     H(rot)  DE(clash)    DE(int)     intcor
     15.71     -18.65       1.88        0.00      91.28       1.49       1.11       1.83       ----

> <Gold.Chemscore.Fitness>
15.7115

> <Gold.Chemscore.DG>
-18.6509

> <Gold.Chemscore.ZeroCoef>
-5.4800

> <Gold.Chemscore.Hbond>
1.8850

> <Gold.Chemscore.Metal>
0.0000

> <Gold.Chemscore.Lipo>
91.2763

> <Gold.Chemscore.Internal_Hbond>
0.0000

> <Gold.Chemscore.DEClash>
1.1118

> <Gold.Chemscore.DEInternal>
1.8277

> <Gold.Chemscore.Rot>
1.4860

> <Gold.Chemscore.Internal.Correction>
   9.000000E+99

> <Gold.Chemscore.Hbonds>
donor molecule, donor type, donor heavy atom, donor atom, acceptor molecule, acceptor atom, score
      L1  H     6    45       P1 10175  0.41
      L1  H    16    40       P1  8028  0.99

> <Gold.Chemscore.Hbond.Weighted>
-6.2958

> <Gold.Chemscore.Metal.Weighted>
-0.0000

> <Gold.Chemscore.Lipo.Weighted>
-10.6793

> <Gold.Chemscore.Internal_Hbond.Weighted>
0.0000

> <Gold.Chemscore.DEClash.Weighted>
1.1118

> <Gold.Chemscore.DEInternal.Weighted>
1.8277

> <Gold.Chemscore.Rot.Weighted>
3.8042

> <Gold.Chemscore.Internal.Correction.Weighted>
   9.000000E+99

> <Gold.Protein.RotatedTorsions>
[ 6907 6896 6895 6894 ] final  -86.89 input  -60.11 | X-H torsion
[ 7974 7965 7964 7962 ] final   54.44 input  175.53 | X-H torsion
[ 8008 7997 7996 7995 ] final  174.62 input   59.86 | X-H torsion
[ 10167 10162 10161 10158 ] final -109.39 input  -65.29 | X-H torsion
[ 10718 10713 10712 10709 ] final   12.62 input   66.30 | X-H torsion
[ 10763 10752 10751 10750 ] final -134.20 input  -60.55 | X-H torsion
[ 11005 11000 10999 10996 ] final  -86.54 input  -57.11 | X-H torsion

> <Gold.Protein.ActiveResidues>
 VAL166  LYS551  ARG553  GLY616  TRP617  ASP618  TYR619  PRO620  LYS621  CYS622 
 ASP623  PHE694  ASN695  SER759  ASP760  ASP761  ALA762  ILE779  LEU786  VAL792 
 PHE793  MET794  SER795  GLU796  ALA797  LYS798  CYS799  TRP800  GLU811  SER814 

> <Gold.Protein.RotatedAtoms>
  150.6866  134.2981  159.4694 H   0  0  0  0  0  0  0  0  0  0  0  0  # atno 6907 bound_to 6896
  152.0880  134.9424  160.0581 H   0  0  0  0  0  0  0  0  0  0  0  0  # atno 6908 bound_to 6896
  152.0751  133.4090  159.4513 H   0  0  0  0  0  0  0  0  0  0  0  0  # atno 6909 bound_to 6896
  145.9608  139.4057  143.0249 H   0  0  0  0  0  0  0  0  0  0  0  0  # atno 7974 bound_to 7965
  156.0955  140.1430  156.9536 H   0  0  0  0  0  0  0  0  0  0  0  0  # atno 8008 bound_to 7997
  154.4669  140.0923  156.7089 H   0  0  0  0  0  0  0  0  0  0  0  0  # atno 8009 bound_to 7997
  155.4848  140.3446  155.4347 H   0  0  0  0  0  0  0  0  0  0  0  0  # atno 8010 bound_to 7997
  140.1558  143.4161  152.1461 H   0  0  0  0  0  0  0  0  0  0  0  0  # atno 10167 bound_to 10162
  157.0128  130.6123  149.5710 H   0  0  0  0  0  0  0  0  0  0  0  0  # atno 10718 bound_to 10713
  154.8722  135.3742  154.4698 H   0  0  0  0  0  0  0  0  0  0  0  0  # atno 10763 bound_to 10752
  153.5359  135.7027  153.5665 H   0  0  0  0  0  0  0  0  0  0  0  0  # atno 10764 bound_to 10752
  153.3849  135.3987  155.1847 H   0  0  0  0  0  0  0  0  0  0  0  0  # atno 10765 bound_to 10752
  141.1629  133.7460  156.9176 H   0  0  0  0  0  0  0  0  0  0  0  0  # atno 11005 bound_to 11000
  145.8042  140.9756  143.0983 LP  0  0  0  0  0  0  0  0  0  0  0  0  # atno 17320 bound_to 7965
  144.6815  139.9839  143.7483 LP  0  0  0  0  0  0  0  0  0  0  0  0  # atno 17321 bound_to 7965
  139.5404  144.7251  151.4753 LP  0  0  0  0  0  0  0  0  0  0  0  0  # atno 17342 bound_to 10162
  140.6674  143.8368  150.6958 LP  0  0  0  0  0  0  0  0  0  0  0  0  # atno 17343 bound_to 10162
  156.0130  130.5223  150.8048 LP  0  0  0  0  0  0  0  0  0  0  0  0  # atno 17370 bound_to 10713
  157.5308  131.0936  150.9957 LP  0  0  0  0  0  0  0  0  0  0  0  0  # atno 17371 bound_to 10713
  140.1474  134.9253  157.2547 LP  0  0  0  0  0  0  0  0  0  0  0  0  # atno 17394 bound_to 11000
  140.2764  134.3401  155.7357 LP  0  0  0  0  0  0  0  0  0  0  0  0  # atno 17395 bound_to 11000

$$$$
