#       Name:                AV-unprocessed.smi:101
#       Creating user name   scv26
#       Creation time:       Thu Mar 26 17:42:10 2020


#       File generated by GOLD software.
#

@<TRIPOS>MOLECULE
AV-unprocessed.smi:101
    56    58     1
SMALL
NO_CHARGES


@<TRIPOS>ATOM
      1 ****        -1.6424   3.4147   3.1442 C.3            1 S1                 0.0000
      2 ****        -2.4754   2.5683   2.1962 C.2            1 S1                 0.0000
      3 ****        -2.0307   1.3891   1.6918 C.2            1 S1                 0.0000
      4 ****        -2.7691   0.5942   0.8263 N.am           1 S1                 0.0000
      5 ****        -2.2013  -0.7072   0.3007 C.3            1 S1                 0.0000
      6 ****        -0.8568  -0.4997   0.0032 O.3            1 S1                 0.0000
      7 ****        -0.1335  -1.6861   0.2871 C.3            1 S1                 0.0000
      8 ****         1.3453  -1.3480   0.5067 C.3            1 S1                 0.0000
      9 ****         1.9556  -1.0848  -0.7457 O.3            1 S1                 0.0000
     10 ****         3.2321  -0.6565  -0.7966 C.2            1 S1                 0.0000
     11 ****         3.9286  -0.4688   0.2029 O.2            1 S1                 0.0000
     12 ****         3.7145  -0.4325  -2.1898 C.ar           1 S1                 0.0000
     13 ****         5.0332   0.0341  -2.4000 C.ar           1 S1                 0.0000
     14 ****         5.5173   0.2541  -3.7041 C.ar           1 S1                 0.0000
     15 ****         4.6888   0.0093  -4.8144 C.ar           1 S1                 0.0000
     16 ****         3.3750  -0.4547  -4.6190 C.ar           1 S1                 0.0000
     17 ****         2.8889  -0.6747  -3.3154 C.ar           1 S1                 0.0000
     18 ****        -0.8262  -2.2331   1.5379 C.3            1 S1                 0.0000
     19 ****        -0.6627  -3.6356   1.6129 O.3            1 S1                 0.0000
     20 ****        -2.2914  -1.8708   1.3160 C.3            1 S1                 0.0000
     21 ****        -2.9138  -1.5348   2.5436 O.3            1 S1                 0.0000
     22 ****        -4.0645   1.0014   0.4463 C.2            1 S1                 0.0000
     23 ****        -4.7877   0.3359  -0.2937 O.2            1 S1                 0.0000
     24 ****        -4.5203   2.2140   0.9609 N.am           1 S1                 0.0000
     25 ****        -3.8083   3.0511   1.8238 C.2            1 S1                 0.0000
     26 ****        -4.3196   4.1010   2.2100 O.2            1 S1                 0.0000
     27 ****        -5.4461   2.5120   0.6900 H              1 S1                 0.0000
     28 ****        -0.6749   2.9565   3.3512 H              1 S1                 0.0000
     29 ****        -2.1607   3.5450   4.0948 H              1 S1                 0.0000
     30 ****        -1.4601   4.4006   2.7149 H              1 S1                 0.0000
     31 ****        -1.0498   1.0445   1.9873 H              1 S1                 0.0000
     32 ****        -2.7096  -0.9335  -0.6379 H              1 S1                 0.0000
     33 ****        -0.2580  -2.3804  -0.5467 H              1 S1                 0.0000
     34 ****         1.4447  -0.4927   1.1768 H              1 S1                 0.0000
     35 ****         1.8549  -2.1924   0.9725 H              1 S1                 0.0000
     36 ****         5.6882   0.2293  -1.5631 H              1 S1                 0.0000
     37 ****         6.5258   0.6112  -3.8519 H              1 S1                 0.0000
     38 ****         5.0604   0.1779  -5.8144 H              1 S1                 0.0000
     39 ****         2.7380  -0.6428  -5.4707 H              1 S1                 0.0000
     40 ****         1.8757  -1.0313  -3.2011 H              1 S1                 0.0000
     41 ****        -0.4336  -1.7466   2.4327 H              1 S1                 0.0000
     42 ****         0.2551  -3.8265   1.7331 H              1 S1                 0.0000
     43 ****        -2.8382  -2.6859   0.8392 H              1 S1                 0.0000
     44 ****        -3.7875  -1.2245   2.3597 H              1 S1                 0.0000
     45 ****        -0.5019   0.2510   0.5605 LP             1 S1                 0.0000
     46 ****        -0.7590  -0.2709  -0.9653 LP             1 S1                 0.0000
     47 ****         3.5512  -0.6355   1.1139 LP             1 S1                 0.0000
     48 ****         4.8711  -0.1498   0.1029 LP             1 S1                 0.0000
     49 ****        -0.9866  -4.0582   0.7665 LP             1 S1                 0.0000
     50 ****        -1.1855  -3.9948   2.3860 LP             1 S1                 0.0000
     51 ****        -2.3901  -0.8171   3.0026 LP             1 S1                 0.0000
     52 ****        -2.9589  -2.3424   3.1317 LP             1 S1                 0.0000
     53 ****        -4.4637  -0.5383  -0.6553 LP             1 S1                 0.0000
     54 ****        -5.6995   0.6692  -0.5335 LP             1 S1                 0.0000
     55 ****        -3.8171   4.7033   2.8303 LP             1 S1                 0.0000
     56 ****        -5.2378   4.3523   1.9038 LP             1 S1                 0.0000
@<TRIPOS>BOND
    1    1    2 1     
    2    1   28 1     
    3    1   29 1     
    4    1   30 1     
    5    2   25 1     
    6    2    3 2     
    7    3    4 1     
    8    3   31 1     
    9    4    5 1     
   10    4   22 1     
   11    5   20 1     
   12    5    6 1     
   13    5   32 1     
   14    6    7 1     
   15    7    8 1     
   16    7   18 1     
   17    7   33 1     
   18    8    9 1     
   19    8   34 1     
   20    8   35 1     
   21    9   10 1     
   22   10   11 2     
   23   10   12 1     
   24   12   17 ar    
   25   12   13 ar    
   26   13   14 ar    
   27   13   36 1     
   28   14   15 ar    
   29   14   37 1     
   30   15   16 ar    
   31   15   38 1     
   32   16   17 ar    
   33   16   39 1     
   34   17   40 1     
   35   18   19 1     
   36   18   20 1     
   37   18   41 1     
   38   19   42 1     
   39   20   21 1     
   40   20   43 1     
   41   21   44 1     
   42   22   23 2     
   43   22   24 1     
   44   24   27 1     
   45   24   25 1     
   46   25   26 2     
   47    6   45 1     
   48    6   46 1     
   49   11   47 1     
   50   11   48 1     
   51   19   49 1     
   52   19   50 1     
   53   21   51 1     
   54   21   52 1     
   55   23   53 1     
   56   23   54 1     
   57   26   55 1     
   58   26   56 1     
@<TRIPOS>SUBSTRUCTURE
      1 S1             1
@<TRIPOS>SET
LONE_PAIRS      STATIC     ATOMS    <user>   **** ""
12 45 46 47 48 49 50 51 52 53 54 55 56
DONOR_HYDROGENS      STATIC     ATOMS    <user>   **** ""
3 42 44 27
ATOM$BLUE        STATIC     ATOMS    COLORGROUP SYSTEM
12 45 46 47 48 49 50 51 52 53 54 55 56
ATOM$RED        STATIC     ATOMS    COLORGROUP SYSTEM
3 42 44 27
