#       Name:                AV-unprocessed.smi:2140
#       Creating user name   scv26
#       Creation time:       Fri Mar 27 11:48:10 2020


#       File generated by GOLD software.
#

@<TRIPOS>MOLECULE
AV-unprocessed.smi:2140
    45    46     1
SMALL
NO_CHARGES


@<TRIPOS>ATOM
      1 ****        -1.5721   1.5816  -0.7840 C.3            1 S1                 0.0000
      2 ****        -0.8456   0.2477  -1.0847 C.3            1 S1                 0.0000
      3 ****         0.6855   0.4869  -1.1830 C.3            1 S1                 0.0000
      4 ****         1.2509   1.0807   0.0254 N.am           1 S1                 0.0000
      5 ****         1.4621   0.4220   1.1738 C.2            1 S1                 0.0000
      6 ****         1.2010  -0.7712   1.3237 O.2            1 S1                 0.0000
      7 ****         1.9665   1.2374   2.1157 N.am           1 S1                 0.0000
      8 ****         2.3030   0.9423   3.4652 C.ar           1 S1                 0.0000
      9 ****         2.5057  -0.3629   3.9771 C.ar           1 S1                 0.0000
     10 ****         2.8488  -0.5151   5.3344 C.ar           1 S1                 0.0000
     11 ****         2.9846   0.6400   6.1285 C.ar           1 S1                 0.0000
     12 ****         2.8061   1.8898   5.6520 N.ar           1 S1                 0.0000
     13 ****         2.4770   2.0280   4.3500 C.ar           1 S1                 0.0000
     14 ****        -1.3494  -0.4406  -2.3185 N.4            1 S1                 1.0000
     15 ****        -0.9790  -1.8823  -2.3585 C.3            1 S1                 0.0000
     16 ****        -1.4332  -2.5352  -3.6737 C.3            1 S1                 0.0000
     17 ****        -2.8382  -2.3875  -3.8128 O.3            1 S1                 0.0000
     18 ****        -3.2132  -1.0198  -3.8787 C.3            1 S1                 0.0000
     19 ****        -2.8088  -0.2995  -2.5805 C.3            1 S1                 0.0000
     20 ****        -1.1628   2.0756   0.0968 H              1 S1                 0.0000
     21 ****        -2.6302   1.4321  -0.5691 H              1 S1                 0.0000
     22 ****        -1.4865   2.2793  -1.6176 H              1 S1                 0.0000
     23 ****        -1.0467  -0.4145  -0.2411 H              1 S1                 0.0000
     24 ****         1.2337  -0.4312  -1.3890 H              1 S1                 0.0000
     25 ****         0.8995   1.1574  -2.0158 H              1 S1                 0.0000
     26 ****         1.4904   2.0609  -0.0146 H              1 S1                 0.0000
     27 ****         2.0696   2.2063   1.8516 H              1 S1                 0.0000
     28 ****         2.4191  -1.2450   3.3628 H              1 S1                 0.0000
     29 ****         3.0089  -1.4962   5.7564 H              1 S1                 0.0000
     30 ****         3.2483   0.5579   7.1724 H              1 S1                 0.0000
     31 ****         2.3446   3.0427   4.0037 H              1 S1                 0.0000
     32 ****         0.0959  -2.0192  -2.2613 H              1 S1                 0.0000
     33 ****        -1.4385  -2.4000  -1.5148 H              1 S1                 0.0000
     34 ****        -0.9173  -2.0950  -4.5287 H              1 S1                 0.0000
     35 ****        -1.1904  -3.5981  -3.6682 H              1 S1                 0.0000
     36 ****        -2.7529  -0.5452  -4.7468 H              1 S1                 0.0000
     37 ****        -4.2924  -0.9588  -4.0200 H              1 S1                 0.0000
     38 ****        -3.3729  -0.7019  -1.7374 H              1 S1                 0.0000
     39 ****        -3.0858   0.7485  -2.6911 H              1 S1                 0.0000
     40 ****        -0.8871   0.0038  -3.0988 H              1 S1                 0.0000
     41 ****         0.8118  -1.2968   0.5672 LP             1 S1                 0.0000
     42 ****         1.3781  -1.2153   2.2020 LP             1 S1                 0.0000
     43 ****         2.9142   2.6881   6.2444 LP             1 S1                 0.0000
     44 ****        -3.2888  -2.8106  -3.0268 LP             1 S1                 0.0000
     45 ****        -3.1317  -2.8458  -4.6518 LP             1 S1                 0.0000
@<TRIPOS>BOND
    1    1    2 1     
    2    1   20 1     
    3    1   21 1     
    4    1   22 1     
    5    2    3 1     
    6    2   14 1     
    7    2   23 1     
    8    3    4 1     
    9    3   24 1     
   10    3   25 1     
   11    4    5 am    
   12    4   26 1     
   13    5    6 2     
   14    5    7 am    
   15    7    8 1     
   16    7   27 1     
   17    8   13 ar    
   18    8    9 ar    
   19    9   10 ar    
   20    9   28 1     
   21   10   11 ar    
   22   10   29 1     
   23   11   12 ar    
   24   11   30 1     
   25   12   13 ar    
   26   13   31 1     
   27   14   19 1     
   28   14   15 1     
   29   14   40 1     
   30   15   16 1     
   31   15   32 1     
   32   15   33 1     
   33   16   17 1     
   34   16   34 1     
   35   16   35 1     
   36   17   18 1     
   37   18   19 1     
   38   18   36 1     
   39   18   37 1     
   40   19   38 1     
   41   19   39 1     
   42    6   41 1     
   43    6   42 1     
   44   12   43 1     
   45   17   44 1     
   46   17   45 1     
@<TRIPOS>SUBSTRUCTURE
      1 S1             1
@<TRIPOS>SET
LONE_PAIRS      STATIC     ATOMS    <user>   **** ""
5 41 42 43 44 45
DONOR_HYDROGENS      STATIC     ATOMS    <user>   **** ""
3 26 27 40
ATOM$BLUE        STATIC     ATOMS    COLORGROUP SYSTEM
5 41 42 43 44 45
ATOM$RED        STATIC     ATOMS    COLORGROUP SYSTEM
3 26 27 40
