AV-unprocessed.smi:2702|AV-procd|sdf|10433|dock4
  -GOLD-   2272014473D 1   1.00000     0.00000
 Structure written by MMmdl.
 47 48  0  0  0  0  0  0  0  0  1 V2000
  151.0208  143.1977  157.8401 C   0  0  0  0  0  0  0  0  0  0  0  0
  150.3946  142.0728  157.2495 O   0  0  0  0  0  0  0  0  0  0  0  0
  150.9901  141.7039  156.0168 C   0  0  0  0  0  0  0  0  0  0  0  0
  150.7732  140.2294  155.7418 C   0  0  0  0  0  0  0  0  0  0  0  0
  150.9106  139.2904  156.7069 C   0  0  0  0  0  0  0  0  0  0  0  0
  150.6938  137.8752  156.4071 C   0  0  0  0  0  0  0  0  0  0  0  0
  150.8094  136.9916  157.2572 O   0  0  0  0  0  0  0  0  0  0  0  0
  150.3550  137.6071  155.1112 N   0  0  0  0  0  0  0  0  0  0  0  0
  150.1097  136.2262  154.6569 C   0  0  0  0  0  0  0  0  0  0  0  0
  148.7011  135.7265  155.0061 C   0  0  0  0  0  0  0  0  0  0  0  0
  148.3454  135.6320  156.1813 O   0  0  0  0  0  0  0  0  0  0  0  0
  147.9117  135.4195  153.9654 N   0  0  0  0  0  0  0  0  0  0  0  0
  146.5478  134.8909  154.0391 C   0  0  1  0  0  0  0  0  0  0  0  0
  145.5372  136.0091  153.7239 C   0  0  0  0  0  0  0  0  0  0  0  0
  145.5828  136.4234  152.2459 C   0  0  0  0  0  0  0  0  0  0  0  0
  145.3709  135.2117  151.3287 C   0  0  0  0  0  0  0  0  0  0  0  0
  146.3911  134.0877  151.6042 C   0  0  2  0  0  0  0  0  0  0  0  0
  146.1403  132.9114  150.6441 C   0  0  0  0  0  0  0  0  0  0  0  0
  146.3534  133.6687  153.1008 C   0  0  1  0  0  0  0  0  0  0  0  0
  147.3408  132.5315  153.4342 C   0  0  0  0  0  0  0  0  0  0  0  0
  150.2130  138.6258  154.1480 C   0  0  0  0  0  0  0  0  0  0  0  0
  150.4106  139.8722  154.4392 N   0  0  0  0  0  0  0  0  0  0  0  0
  150.5289  143.4376  158.7827 H   0  0  0  0  0  0  0  0  0  0  0  0
  150.9525  144.0725  157.1921 H   0  0  0  0  0  0  0  0  0  0  0  0
  152.0724  142.9986  158.0509 H   0  0  0  0  0  0  0  0  0  0  0  0
  150.5711  142.3016  155.2054 H   0  0  0  0  0  0  0  0  0  0  0  0
  152.0630  141.9010  156.0434 H   0  0  0  0  0  0  0  0  0  0  0  0
  151.1877  139.5798  157.7103 H   0  0  0  0  0  0  0  0  0  0  0  0
  150.2476  136.1244  153.5792 H   0  0  0  0  0  0  0  0  0  0  0  0
  150.8538  135.5610  155.0995 H   0  0  0  0  0  0  0  0  0  0  0  0
  148.2956  135.5364  153.0388 H   0  0  0  0  0  0  0  0  0  0  0  0
  146.3471  134.5653  155.0612 H   0  0  0  0  0  0  0  0  0  0  0  0
  144.5319  135.6614  153.9654 H   0  0  0  0  0  0  0  0  0  0  0  0
  145.7193  136.8750  154.3617 H   0  0  0  0  0  0  0  0  0  0  0  0
  144.8181  137.1753  152.0491 H   0  0  0  0  0  0  0  0  0  0  0  0
  146.5404  136.8932  152.0190 H   0  0  0  0  0  0  0  0  0  0  0  0
  144.3581  134.8295  151.4645 H   0  0  0  0  0  0  0  0  0  0  0  0
  145.4398  135.5318  150.2883 H   0  0  0  0  0  0  0  0  0  0  0  0
  147.3851  134.4786  151.3824 H   0  0  0  0  0  0  0  0  0  0  0  0
  145.1905  132.4202  150.8571 H   0  0  0  0  0  0  0  0  0  0  0  0
  146.9288  132.1621  150.7084 H   0  0  0  0  0  0  0  0  0  0  0  0
  146.1121  133.2515  149.6085 H   0  0  0  0  0  0  0  0  0  0  0  0
  145.3544  133.2784  153.3018 H   0  0  0  0  0  0  0  0  0  0  0  0
  148.3577  132.7777  153.1276 H   0  0  0  0  0  0  0  0  0  0  0  0
  147.0626  131.6003  152.9417 H   0  0  0  0  0  0  0  0  0  0  0  0
  147.3573  132.3293  154.5055 H   0  0  0  0  0  0  0  0  0  0  0  0
  149.9232  138.2921  153.1504 H   0  0  0  0  0  0  0  0  0  0  0  0
  1  2  1  0  0  0  0
  1 23  1  0  0  0  0
  1 24  1  0  0  0  0
  1 25  1  0  0  0  0
  2  3  1  0  0  0  0
  3  4  1  0  0  0  0
  3 26  1  0  0  0  0
  3 27  1  0  0  0  0
  4 22  1  0  0  0  0
  4  5  2  0  0  0  0
  5  6  1  0  0  0  0
  5 28  1  0  0  0  0
  6  7  2  0  0  0  0
  6  8  1  0  0  0  0
  8  9  1  0  0  0  0
  8 21  1  0  0  0  0
  9 10  1  0  0  0  0
  9 29  1  0  0  0  0
  9 30  1  0  0  0  0
 10 11  2  0  0  0  0
 10 12  1  0  0  0  0
 12 13  1  0  0  0  0
 12 31  1  0  0  0  0
 13 19  1  0  0  0  0
 13 14  1  0  0  0  0
 13 32  1  0  0  0  0
 14 15  1  0  0  0  0
 14 33  1  0  0  0  0
 14 34  1  0  0  0  0
 15 16  1  0  0  0  0
 15 35  1  0  0  0  0
 15 36  1  0  0  0  0
 16 17  1  0  0  0  0
 16 37  1  0  0  0  0
 16 38  1  0  0  0  0
 17 18  1  0  0  0  0
 17 19  1  0  0  0  0
 17 39  1  0  0  0  0
 18 40  1  0  0  0  0
 18 41  1  0  0  0  0
 18 42  1  0  0  0  0
 19 20  1  0  0  0  0
 19 43  1  0  0  0  0
 20 44  1  0  0  0  0
 20 45  1  0  0  0  0
 20 46  1  0  0  0  0
 21 22  2  0  0  0  0
 21 47  1  0  0  0  0
M  END
> <s_m_source_file>
AV-unprocessed.smi

> <i_m_source_file_index>
2702

> <i_lp_mmshare_version>
43012

> <i_f3d_flags>
0

> <s_epik_input>
W0NIM11PW0NIMl1jMVtjSF1jKD1PKW4oW2NIXW4xKVtDSDJdQyg9TylbTkhdW0NAQEhdMltDSDJdW0NIMl1bQ0gyXVtDQEBIXShbQ0gzXSlbQ0BIXTJbQ0gzXQ==

> <s_epik_cmdline>
J2VwaWtfcHl0aG9uJywgJy1waCcsICc3LjAnLCAnLXRuJywgJzgnLCAnLW1hJywgJzIwMCcsICctbWV0YWxfYmluZGluZycsICctaW1hZScsICc8aW5maWxlLm1hZT4nLCAnLW9tYWUnLCAnPG91dGZpbGUubWFlPic=

> <r_lp_tautomer_probability>
1

> <r_epik_Ionization_Penalty>
1.22164e-06

> <r_epik_Ionization_Penalty_Charging>
3.17988e-07

> <r_epik_Ionization_Penalty_Neutral>
9.03656e-07

> <r_epik_State_Penalty>
-0

> <r_epik_Charging_Adjusted_Penalty>
3.17988e-07

> <i_epik_Tot_Q>
0

> <i_epik_Tot_abs_Q>
0

> <r_epik_Metal_State_Penalty>
-0

> <b_epik_Metal_Only>
0

> <s_lp_Force_Field>
OPLS_2005

> <r_lp_Energy>
16.6041

> <b_lp_Chiralities_Consistent>
1

> <s_lp_Variant>
AV-unprocessed.smi:2702-4

> <Gold.Version>
5.8.1

> <Gold.Id.Protein>
6NUR|6NUR_protein|mol2

> <Gold.PLP.Fitness>
36.9766

> <Gold.PLP.PLP>
-28.3526

> <Gold.PLP.part.hbond>
-1.8490

> <Gold.PLP.part.metal>
0.0000

> <Gold.PLP.part.buried>
-3.6043

> <Gold.PLP.part.nonpolar>
-23.6321

> <Gold.PLP.part.repulsive>
0.2406

> <Gold.PLP.ligand.clash>
0.0000

> <Gold.PLP.ligand.torsion>
0.8566

> <Gold.PLP.Chemscore.Hbond>
1.9913

> <Gold.PLP.Chemscore.CHOScore>
1.4486

> <Gold.PLP.Chemscore.Metal>
0.0000

> <Gold.Chemscore.Hbonds>
donor molecule, donor type, donor heavy atom, donor atom, acceptor molecule, acceptor atom, score
      L1  H    12    31       P1  7948  0.93
      P1  H  7989  7998       L1    22  1.00
      L1  C    21    47       P1  7948  0.90
      L1  C    21    47       P1  7957  0.59

> <Gold.PLP.Chemscore.Internal.Correction>
0.0177

> <Gold.Rescore>
     Score         DG    S(hbond)    S(metal)    S(lipo)     H(rot)  DE(clash)    DE(int)     intcor
     12.96     -13.80       1.62        0.00      66.92       1.93       0.06       0.78       ----

> <Gold.Chemscore.Fitness>
12.9614

> <Gold.Chemscore.DG>
-13.8000

> <Gold.Chemscore.ZeroCoef>
-5.4800

> <Gold.Chemscore.Hbond>
1.6249

> <Gold.Chemscore.Metal>
0.0000

> <Gold.Chemscore.Lipo>
66.9184

> <Gold.Chemscore.Internal_Hbond>
0.0000

> <Gold.Chemscore.DEClash>
0.0597

> <Gold.Chemscore.DEInternal>
0.7788

> <Gold.Chemscore.Rot>
1.9284

> <Gold.Chemscore.Internal.Correction>
   9.000000E+99

> <Gold.Chemscore.Hbonds>
donor molecule, donor type, donor heavy atom, donor atom, acceptor molecule, acceptor atom, score
      L1  H    12    31       P1  7948  0.88
      P1  H  7989  7998       L1    22  0.25

> <Gold.Chemscore.Hbond.Weighted>
-5.4273

> <Gold.Chemscore.Metal.Weighted>
-0.0000

> <Gold.Chemscore.Lipo.Weighted>
-7.8294

> <Gold.Chemscore.Internal_Hbond.Weighted>
0.0000

> <Gold.Chemscore.DEClash.Weighted>
0.0597

> <Gold.Chemscore.DEInternal.Weighted>
0.7788

> <Gold.Chemscore.Rot.Weighted>
4.9368

> <Gold.Chemscore.Internal.Correction.Weighted>
   9.000000E+99

> <Gold.Protein.RotatedTorsions>
[ 6907 6896 6895 6894 ] final   81.29 input  -60.11 | X-H torsion
[ 7974 7965 7964 7962 ] final   54.05 input  175.53 | X-H torsion
[ 8008 7997 7996 7995 ] final   77.88 input   59.86 | X-H torsion
[ 10167 10162 10161 10158 ] final   36.94 input  -65.29 | X-H torsion
[ 10718 10713 10712 10709 ] final   50.06 input   66.30 | X-H torsion
[ 10763 10752 10751 10750 ] final -154.29 input  -60.55 | X-H torsion
[ 11005 11000 10999 10996 ] final  -73.60 input  -57.11 | X-H torsion

> <Gold.Protein.ActiveResidues>
 VAL166  LYS551  ARG553  GLY616  TRP617  ASP618  TYR619  PRO620  LYS621  CYS622 
 ASP623  PHE694  ASN695  SER759  ASP760  ASP761  ALA762  ILE779  LEU786  VAL792 
 PHE793  MET794  SER795  GLU796  ALA797  LYS798  CYS799  TRP800  GLU811  SER814 

> <Gold.Protein.RotatedAtoms>
  152.5263  134.3226  159.9153 H   0  0  0  0  0  0  0  0  0  0  0  0  # atno 6907 bound_to 6896
  151.3175  133.4047  159.2659 H   0  0  0  0  0  0  0  0  0  0  0  0  # atno 6908 bound_to 6896
  150.9987  134.9321  159.7998 H   0  0  0  0  0  0  0  0  0  0  0  0  # atno 6909 bound_to 6896
  145.9648  139.4093  143.0226 H   0  0  0  0  0  0  0  0  0  0  0  0  # atno 7974 bound_to 7965
  155.8478  140.3459  155.5674 H   0  0  0  0  0  0  0  0  0  0  0  0  # atno 8008 bound_to 7997
  155.8070  140.0893  157.1945 H   0  0  0  0  0  0  0  0  0  0  0  0  # atno 8009 bound_to 7997
  154.4007  140.1455  156.3329 H   0  0  0  0  0  0  0  0  0  0  0  0  # atno 8010 bound_to 7997
  140.4080  144.1632  150.6137 H   0  0  0  0  0  0  0  0  0  0  0  0  # atno 10167 bound_to 10162
  157.4847  130.8338  149.8134 H   0  0  0  0  0  0  0  0  0  0  0  0  # atno 10718 bound_to 10713
  154.7869  135.3193  154.7867 H   0  0  0  0  0  0  0  0  0  0  0  0  # atno 10763 bound_to 10752
  153.8565  135.6857  153.4791 H   0  0  0  0  0  0  0  0  0  0  0  0  # atno 10764 bound_to 10752
  153.1523  135.4694  154.9594 H   0  0  0  0  0  0  0  0  0  0  0  0  # atno 10765 bound_to 10752
  141.1625  133.6883  156.7236 H   0  0  0  0  0  0  0  0  0  0  0  0  # atno 11005 bound_to 11000
  145.7989  140.9780  143.1009 LP  0  0  0  0  0  0  0  0  0  0  0  0  # atno 17320 bound_to 7965
  144.6823  139.9776  143.7483 LP  0  0  0  0  0  0  0  0  0  0  0  0  # atno 17321 bound_to 7965
  140.4668  143.2428  151.9144 LP  0  0  0  0  0  0  0  0  0  0  0  0  # atno 17342 bound_to 10162
  139.4783  144.5411  151.8527 LP  0  0  0  0  0  0  0  0  0  0  0  0  # atno 17343 bound_to 10162
  156.0140  130.3821  150.2169 LP  0  0  0  0  0  0  0  0  0  0  0  0  # atno 17370 bound_to 10713
  157.0356  131.0020  151.3299 LP  0  0  0  0  0  0  0  0  0  0  0  0  # atno 17371 bound_to 10713
  140.2797  134.8326  157.3922 LP  0  0  0  0  0  0  0  0  0  0  0  0  # atno 17394 bound_to 11000
  140.1444  134.4930  155.8007 LP  0  0  0  0  0  0  0  0  0  0  0  0  # atno 17395 bound_to 11000

$$$$
