AV-unprocessed.smi:993|AV-procd|sdf|4337|dock3
  -GOLD-   22720 2233D 1   1.00000     0.00000
 Structure written by MMmdl.
 31 32  0  0  0  0  0  0  0  0  2 V2000
  152.6084  138.6133  157.8491 C   0  0  0  0  0  0  0  0  0  0  0  0
  151.8949  139.9280  157.5911 C   0  0  0  0  0  0  0  0  0  0  0  0
  152.0954  140.8957  158.5123 N   0  0  0  0  0  0  0  0  0  0  0  0
  151.4851  142.0692  158.3189 C   0  0  0  0  0  0  0  0  0  0  0  0
  151.6991  143.0611  159.2713 N   0  0  0  0  0  0  0  0  0  0  0  0
  152.6259  142.9512  160.3894 C   0  0  0  0  0  0  0  0  0  0  0  0
  152.3115  144.1378  161.3023 C   0  0  0  0  0  0  0  0  0  0  0  0
  151.7558  145.1853  160.3407 C   0  0  0  0  0  0  0  0  0  0  0  0
  151.0170  144.3479  159.2951 C   0  0  0  0  0  0  0  0  0  0  0  0
  150.6849  142.3712  157.2912 N   0  0  0  0  0  0  0  0  0  0  0  0
  150.4698  141.4185  156.3590 C   0  0  0  0  0  0  0  0  0  0  0  0
  149.6508  141.7277  155.3120 O   0  0  0  0  0  0  0  0  0  0  0  0
  151.0665  140.1381  156.4608 C   0  0  0  0  0  0  0  0  0  0  0  0
  150.8347  139.0566  155.4082 C   0  0  0  0  0  0  0  0  0  0  0  0
  152.1911  138.6085  154.8558 C   0  0  0  0  0  0  0  0  0  0  0  0
  152.3383  137.3861  154.6376 O   0  0  0  0  0  0  0  0  0  0  0  0
  153.0552  139.4904  154.6545 O   0  5  0  0  0  0  0  0  0  0  0  0
  149.2539  142.5798  155.4023 H   0  0  0  0  0  0  0  0  0  0  0  0
  151.8864  137.8077  157.9816 H   0  0  0  0  0  0  0  0  0  0  0  0
  153.2235  138.6635  158.7483 H   0  0  0  0  0  0  0  0  0  0  0  0
  153.2604  138.3611  157.0132 H   0  0  0  0  0  0  0  0  0  0  0  0
  153.6461  143.0145  160.0091 H   0  0  0  0  0  0  0  0  0  0  0  0
  152.5153  142.0032  160.9172 H   0  0  0  0  0  0  0  0  0  0  0  0
  151.5406  143.8552  162.0206 H   0  0  0  0  0  0  0  0  0  0  0  0
  153.1809  144.4866  161.8598 H   0  0  0  0  0  0  0  0  0  0  0  0
  151.1126  145.9172  160.8294 H   0  0  0  0  0  0  0  0  0  0  0  0
  152.5795  145.7218  159.8680 H   0  0  0  0  0  0  0  0  0  0  0  0
  149.9782  144.1913  159.5879 H   0  0  0  0  0  0  0  0  0  0  0  0
  151.0284  144.8315  158.3178 H   0  0  0  0  0  0  0  0  0  0  0  0
  150.2162  139.4305  154.5921 H   0  0  0  0  0  0  0  0  0  0  0  0
  150.2972  138.2102  155.8361 H   0  0  0  0  0  0  0  0  0  0  0  0
  1 19  1  0  0  0  0
  1 20  1  0  0  0  0
  1 21  1  0  0  0  0
  1  2  1  0  0  0  0
  2 13  2  0  0  0  0
  2  3  1  0  0  0  0
  3  4  2  0  0  0  0
  4  5  1  0  0  0  0
  4 10  1  0  0  0  0
  5  9  1  0  0  0  0
  5  6  1  0  0  0  0
  6  7  1  0  0  0  0
  6 22  1  0  0  0  0
  6 23  1  0  0  0  0
  7  8  1  0  0  0  0
  7 24  1  0  0  0  0
  7 25  1  0  0  0  0
  8  9  1  0  0  0  0
  8 26  1  0  0  0  0
  8 27  1  0  0  0  0
  9 28  1  0  0  0  0
  9 29  1  0  0  0  0
 10 11  2  0  0  0  0
 11 12  1  0  0  0  0
 11 13  1  0  0  0  0
 12 18  1  0  0  0  0
 13 14  1  0  0  0  0
 14 15  1  0  0  0  0
 14 30  1  0  0  0  0
 14 31  1  0  0  0  0
 15 16  2  0  0  0  0
 15 17  1  0  0  0  0
M  CHG  1  17  -1
M  END
> <s_m_source_file>
AV-unprocessed.smi

> <i_m_source_file_index>
993

> <i_lp_mmshare_version>
43012

> <i_f3d_flags>
0

> <s_epik_input>
W0NIMl0xW0NIMl1bQ0gyXVtDSDJdTjFjKG5jMltDSDNdKVtuSF1jKD1PKWMyW0NIMl1DKD1PKVtPSF0=

> <s_epik_cmdline>
J2VwaWtfcHl0aG9uJywgJy1waCcsICc3LjAnLCAnLXRuJywgJzgnLCAnLW1hJywgJzIwMCcsICctbWV0YWxfYmluZGluZycsICctaW1hZScsICc8aW5maWxlLm1hZT4nLCAnLW9tYWUnLCAnPG91dGZpbGUubWFlPic=

> <r_lp_tautomer_probability>
0.0131408

> <r_epik_Ionization_Penalty>
7.69819

> <r_epik_Ionization_Penalty_Charging>
0.000581328

> <r_epik_Ionization_Penalty_Neutral>
7.69761

> <r_epik_State_Penalty>
2.72329

> <r_epik_Charging_Adjusted_Penalty>
2.72387

> <i_epik_Tot_Q>
-1

> <i_epik_Tot_abs_Q>
1

> <r_epik_Metal_State_Penalty>
2.93318

> <b_epik_Metal_Only>
0

> <s_lp_Force_Field>
OPLS_2005

> <r_lp_Energy>
12.7556

> <b_lp_Chiralities_Consistent>
1

> <s_lp_Variant>
AV-unprocessed.smi:993-3

> <Gold.Version>
5.8.1

> <Gold.Id.Protein>
6NUR|6NUR_protein|mol2

> <Gold.PLP.Fitness>
53.0613

> <Gold.PLP.PLP>
-39.6695

> <Gold.PLP.part.hbond>
-5.3261

> <Gold.PLP.part.metal>
0.0000

> <Gold.PLP.part.buried>
-4.8567

> <Gold.PLP.part.nonpolar>
-30.5339

> <Gold.PLP.part.repulsive>
0.2637

> <Gold.PLP.ligand.clash>
0.0000

> <Gold.PLP.ligand.torsion>
0.3104

> <Gold.PLP.Chemscore.Hbond>
4.6697

> <Gold.PLP.Chemscore.CHOScore>
0.0000

> <Gold.PLP.Chemscore.Metal>
0.0000

> <Gold.Chemscore.Hbonds>
donor molecule, donor type, donor heavy atom, donor atom, acceptor molecule, acceptor atom, score
      L1  H    12    18       P1  8028  0.62
      P1  H  7989  7998       L1    17  0.13
      P1  H  7997  8009       L1    17  2.00
      P1  H 10752 10765       L1    16  1.44

> <Gold.PLP.Chemscore.Internal.Correction>
0.0036

> <Gold.Rescore>
     Score         DG    S(hbond)    S(metal)    S(lipo)     H(rot)  DE(clash)    DE(int)     intcor
     15.84     -17.32       2.77        0.00      68.01       2.10       0.14       1.33       ----

> <Gold.Chemscore.Fitness>
15.8414

> <Gold.Chemscore.DG>
-17.3156

> <Gold.Chemscore.ZeroCoef>
-5.4800

> <Gold.Chemscore.Hbond>
2.7721

> <Gold.Chemscore.Metal>
0.0000

> <Gold.Chemscore.Lipo>
68.0143

> <Gold.Chemscore.Internal_Hbond>
0.0000

> <Gold.Chemscore.DEClash>
0.1438

> <Gold.Chemscore.DEInternal>
1.3304

> <Gold.Chemscore.Rot>
2.1020

> <Gold.Chemscore.Internal.Correction>
   9.000000E+99

> <Gold.Chemscore.Hbonds>
donor molecule, donor type, donor heavy atom, donor atom, acceptor molecule, acceptor atom, score
      L1  H    12    18       P1  8028  0.63
      P1  H  7989  7998       L1    17  0.02
      P1  H  7997  8009       L1    17  0.97
      P1  H 10752 10765       L1    16  0.72

> <Gold.Chemscore.Hbond.Weighted>
-9.2590

> <Gold.Chemscore.Metal.Weighted>
-0.0000

> <Gold.Chemscore.Lipo.Weighted>
-7.9577

> <Gold.Chemscore.Internal_Hbond.Weighted>
0.0000

> <Gold.Chemscore.DEClash.Weighted>
0.1438

> <Gold.Chemscore.DEInternal.Weighted>
1.3304

> <Gold.Chemscore.Rot.Weighted>
5.3810

> <Gold.Chemscore.Internal.Correction.Weighted>
   9.000000E+99

> <Gold.Protein.RotatedTorsions>
[ 6907 6896 6895 6894 ] final   97.26 input  -60.11 | X-H torsion
[ 7974 7965 7964 7962 ] final  122.55 input  175.53 | X-H torsion
[ 8008 7997 7996 7995 ] final -132.08 input   59.86 | X-H torsion
[ 10167 10162 10161 10158 ] final -141.71 input  -65.29 | X-H torsion
[ 10718 10713 10712 10709 ] final   27.13 input   66.30 | X-H torsion
[ 10763 10752 10751 10750 ] final  166.41 input  -60.55 | X-H torsion
[ 11005 11000 10999 10996 ] final  127.89 input  -57.11 | X-H torsion

> <Gold.Protein.ActiveResidues>
 VAL166  LYS551  ARG553  GLY616  TRP617  ASP618  TYR619  PRO620  LYS621  CYS622 
 ASP623  PHE694  ASN695  SER759  ASP760  ASP761  ALA762  ILE779  LEU786  VAL792 
 PHE793  MET794  SER795  GLU796  ALA797  LYS798  CYS799  TRP800  GLU811  SER814 

> <Gold.Protein.RotatedAtoms>
  152.5425  134.0760  159.8214 H   0  0  0  0  0  0  0  0  0  0  0  0  # atno 6907 bound_to 6896
  151.0868  133.5339  159.2624 H   0  0  0  0  0  0  0  0  0  0  0  0  # atno 6908 bound_to 6896
  151.2145  135.0503  159.8979 H   0  0  0  0  0  0  0  0  0  0  0  0  # atno 6909 bound_to 6896
  145.1062  139.3484  143.4786 H   0  0  0  0  0  0  0  0  0  0  0  0  # atno 7974 bound_to 7965
  155.3229  140.0463  157.3040 H   0  0  0  0  0  0  0  0  0  0  0  0  # atno 8008 bound_to 7997
  154.5370  140.2275  155.8672 H   0  0  0  0  0  0  0  0  0  0  0  0  # atno 8009 bound_to 7997
  156.1844  140.3066  155.9217 H   0  0  0  0  0  0  0  0  0  0  0  0  # atno 8010 bound_to 7997
  139.8158  143.7640  152.2665 H   0  0  0  0  0  0  0  0  0  0  0  0  # atno 10167 bound_to 10162
  157.2161  130.6957  149.6249 H   0  0  0  0  0  0  0  0  0  0  0  0  # atno 10718 bound_to 10713
  154.3386  135.2754  155.2434 H   0  0  0  0  0  0  0  0  0  0  0  0  # atno 10763 bound_to 10752
  154.4714  135.5882  153.6328 H   0  0  0  0  0  0  0  0  0  0  0  0  # atno 10764 bound_to 10752
  152.9859  135.6089  154.3585 H   0  0  0  0  0  0  0  0  0  0  0  0  # atno 10765 bound_to 10752
  139.9531  134.9618  156.8921 H   0  0  0  0  0  0  0  0  0  0  0  0  # atno 11005 bound_to 11000
  146.3528  140.0961  142.8610 LP  0  0  0  0  0  0  0  0  0  0  0  0  # atno 17320 bound_to 7965
  145.0898  140.9277  143.4775 LP  0  0  0  0  0  0  0  0  0  0  0  0  # atno 17321 bound_to 7965
  139.7803  144.7446  151.0098 LP  0  0  0  0  0  0  0  0  0  0  0  0  # atno 17342 bound_to 10162
  140.7816  143.4549  151.0360 LP  0  0  0  0  0  0  0  0  0  0  0  0  # atno 17343 bound_to 10162
  155.9686  130.4535  150.5815 LP  0  0  0  0  0  0  0  0  0  0  0  0  # atno 17370 bound_to 10713
  157.3623  131.0752  151.1626 LP  0  0  0  0  0  0  0  0  0  0  0  0  # atno 17371 bound_to 10713
  140.5672  134.0478  155.7418 LP  0  0  0  0  0  0  0  0  0  0  0  0  # atno 17394 bound_to 11000
  141.1198  133.9480  157.2752 LP  0  0  0  0  0  0  0  0  0  0  0  0  # atno 17395 bound_to 11000

$$$$
