AV-unprocessed.smi:2167|AV-procd|sdf|8816|dock3
  -GOLD-   2272012 03D 1   1.00000     0.00000
 Structure written by MMmdl.
 41 42  0  0  0  0  0  0  0  0  1 V2000
  151.5462  144.7288  160.4532 C   0  0  0  0  0  0  0  0  0  0  0  0
  152.2550  144.1104  159.2395 C   0  0  0  0  0  0  0  0  0  0  0  0
  151.5109  144.3516  157.9184 C   0  0  0  0  0  0  0  0  0  0  0  0
  152.5704  142.6630  159.4502 C   0  0  0  0  0  0  0  0  0  0  0  0
  152.1207  141.6835  158.6600 N   0  0  0  0  0  0  0  0  0  0  0  0
  152.5613  140.4180  159.0614 C   0  0  0  0  0  0  0  0  0  0  0  0
  152.1570  139.2005  158.2827 C   0  0  0  0  0  0  0  0  0  0  0  0
  151.1243  139.5741  157.2189 C   0  0  0  0  0  0  0  0  0  0  0  0
  151.3015  140.5637  156.5085 O   0  0  0  0  0  0  0  0  0  0  0  0
  150.0511  138.7723  157.1185 N   0  0  0  0  0  0  0  0  0  0  0  0
  148.9485  138.9396  156.1692 C   0  0  2  0  0  0  0  0  0  0  0  0
  148.0875  137.6566  156.2246 C   0  0  0  0  0  0  0  0  0  0  0  0
  146.6438  137.8568  155.7313 C   0  0  0  0  0  0  0  0  0  0  0  0
  146.5094  138.2150  154.2432 C   0  0  0  0  0  0  0  0  0  0  0  0
  147.1736  139.5499  153.8645 C   0  0  0  0  0  0  0  0  0  0  0  0
  148.6212  139.4301  153.7498 N   0  0  0  0  0  0  0  0  0  0  0  0
  149.4854  139.1295  154.7310 C   0  0  0  0  0  0  0  0  0  0  0  0
  150.6849  139.0035  154.4850 O   0  0  0  0  0  0  0  0  0  0  0  0
  153.3509  140.4528  160.1839 C   0  0  0  0  0  0  0  0  0  0  0  0
  153.5778  142.0775  160.7697 S   0  0  0  0  0  0  0  0  0  0  0  0
  152.1471  144.6175  161.3565 H   0  0  0  0  0  0  0  0  0  0  0  0
  150.5814  144.2538  160.6340 H   0  0  0  0  0  0  0  0  0  0  0  0
  151.3690  145.7941  160.3038 H   0  0  0  0  0  0  0  0  0  0  0  0
  153.2137  144.6230  159.1497 H   0  0  0  0  0  0  0  0  0  0  0  0
  152.0839  143.9739  157.0711 H   0  0  0  0  0  0  0  0  0  0  0  0
  151.3388  145.4155  157.7528 H   0  0  0  0  0  0  0  0  0  0  0  0
  150.5407  143.8536  157.9130 H   0  0  0  0  0  0  0  0  0  0  0  0
  153.0244  138.7496  157.7987 H   0  0  0  0  0  0  0  0  0  0  0  0
  151.7405  138.4359  158.9401 H   0  0  0  0  0  0  0  0  0  0  0  0
  149.9944  137.9818  157.7441 H   0  0  0  0  0  0  0  0  0  0  0  0
  148.3535  139.8053  156.4653 H   0  0  0  0  0  0  0  0  0  0  0  0
  148.5638  136.8411  155.6773 H   0  0  0  0  0  0  0  0  0  0  0  0
  148.0258  137.3146  157.2593 H   0  0  0  0  0  0  0  0  0  0  0  0
  146.0843  136.9393  155.9169 H   0  0  0  0  0  0  0  0  0  0  0  0
  146.1592  138.6256  156.3343 H   0  0  0  0  0  0  0  0  0  0  0  0
  146.9041  137.4088  153.6235 H   0  0  0  0  0  0  0  0  0  0  0  0
  145.4470  138.2801  154.0064 H   0  0  0  0  0  0  0  0  0  0  0  0
  146.8015  139.8712  152.8916 H   0  0  0  0  0  0  0  0  0  0  0  0
  146.9085  140.3388  154.5698 H   0  0  0  0  0  0  0  0  0  0  0  0
  149.0063  139.5602  152.8255 H   0  0  0  0  0  0  0  0  0  0  0  0
  153.8152  139.6232  160.6964 H   0  0  0  0  0  0  0  0  0  0  0  0
  1  2  1  0  0  0  0
  1 21  1  0  0  0  0
  1 22  1  0  0  0  0
  1 23  1  0  0  0  0
  2  3  1  0  0  0  0
  2  4  1  0  0  0  0
  2 24  1  0  0  0  0
  3 25  1  0  0  0  0
  3 26  1  0  0  0  0
  3 27  1  0  0  0  0
  4 20  1  0  0  0  0
  4  5  2  0  0  0  0
  5  6  1  0  0  0  0
  6  7  1  0  0  0  0
  6 19  2  0  0  0  0
  7  8  1  0  0  0  0
  7 28  1  0  0  0  0
  7 29  1  0  0  0  0
  8  9  2  0  0  0  0
  8 10  1  0  0  0  0
 10 11  1  0  0  0  0
 10 30  1  0  0  0  0
 11 17  1  0  0  0  0
 11 12  1  0  0  0  0
 11 31  1  0  0  0  0
 12 13  1  0  0  0  0
 12 32  1  0  0  0  0
 12 33  1  0  0  0  0
 13 14  1  0  0  0  0
 13 34  1  0  0  0  0
 13 35  1  0  0  0  0
 14 15  1  0  0  0  0
 14 36  1  0  0  0  0
 14 37  1  0  0  0  0
 15 16  1  0  0  0  0
 15 38  1  0  0  0  0
 15 39  1  0  0  0  0
 16 17  1  0  0  0  0
 16 40  1  0  0  0  0
 17 18  2  0  0  0  0
 19 20  1  0  0  0  0
 19 41  1  0  0  0  0
M  END
> <s_m_source_file>
AV-unprocessed.smi

> <i_m_source_file_index>
2167

> <i_lp_mmshare_version>
43012

> <i_f3d_flags>
0

> <s_epik_input>
W0NIM11bQ0hdKFtDSDNdKWMxbmMoW2NIXXMxKVtDSDJdQyg9TylbTkhdW0NAQEhdMltDSDJdW0NIMl1bQ0gyXVtDSDJdW05IXUMyPU8=

> <s_epik_cmdline>
J2VwaWtfcHl0aG9uJywgJy1waCcsICc3LjAnLCAnLXRuJywgJzgnLCAnLW1hJywgJzIwMCcsICctbWV0YWxfYmluZGluZycsICctaW1hZScsICc8aW5maWxlLm1hZT4nLCAnLW9tYWUnLCAnPG91dGZpbGUubWFlPic=

> <r_lp_tautomer_probability>
1

> <r_epik_Ionization_Penalty>
3.1619e-05

> <r_epik_Ionization_Penalty_Charging>
0

> <r_epik_Ionization_Penalty_Neutral>
3.1619e-05

> <r_epik_State_Penalty>
-0

> <r_epik_Charging_Adjusted_Penalty>
0

> <i_epik_Tot_Q>
0

> <i_epik_Tot_abs_Q>
0

> <r_epik_Metal_State_Penalty>
-0

> <b_epik_Metal_Only>
0

> <s_lp_Force_Field>
OPLS_2005

> <r_lp_Energy>
2.42102

> <b_lp_Chiralities_Consistent>
1

> <s_lp_Variant>
AV-unprocessed.smi:2167-1

> <Gold.Version>
5.8.1

> <Gold.Id.Protein>
6NUR|6NUR_protein|mol2

> <Gold.PLP.Fitness>
43.6021

> <Gold.PLP.PLP>
-38.2823

> <Gold.PLP.part.hbond>
-1.8180

> <Gold.PLP.part.metal>
0.0000

> <Gold.PLP.part.buried>
-5.5202

> <Gold.PLP.part.nonpolar>
-30.8216

> <Gold.PLP.part.repulsive>
0.3316

> <Gold.PLP.ligand.clash>
0.0000

> <Gold.PLP.ligand.torsion>
0.3745

> <Gold.PLP.Chemscore.Hbond>
1.9913

> <Gold.PLP.Chemscore.CHOScore>
0.0000

> <Gold.PLP.Chemscore.Metal>
0.0000

> <Gold.Chemscore.Hbonds>
donor molecule, donor type, donor heavy atom, donor atom, acceptor molecule, acceptor atom, score
      L1  H    16    40       P1  7957  1.00
      P1  H  7989  7998       L1    18  0.31

> <Gold.PLP.Chemscore.Internal.Correction>
0.0951

> <Gold.Rescore>
     Score         DG    S(hbond)    S(metal)    S(lipo)     H(rot)  DE(clash)    DE(int)     intcor
     16.17     -18.89       1.93        0.00      93.80       1.57       0.04       2.68       ----

> <Gold.Chemscore.Fitness>
16.1673

> <Gold.Chemscore.DG>
-18.8899

> <Gold.Chemscore.ZeroCoef>
-5.4800

> <Gold.Chemscore.Hbond>
1.9350

> <Gold.Chemscore.Metal>
0.0000

> <Gold.Chemscore.Lipo>
93.8012

> <Gold.Chemscore.Internal_Hbond>
0.0000

> <Gold.Chemscore.DEClash>
0.0395

> <Gold.Chemscore.DEInternal>
2.6832

> <Gold.Chemscore.Rot>
1.5733

> <Gold.Chemscore.Internal.Correction>
   9.000000E+99

> <Gold.Chemscore.Hbonds>
donor molecule, donor type, donor heavy atom, donor atom, acceptor molecule, acceptor atom, score
      L1  H    16    40       P1  7957  1.00
      P1  H  7989  7998       L1    18  0.27

> <Gold.Chemscore.Hbond.Weighted>
-6.4627

> <Gold.Chemscore.Metal.Weighted>
-0.0000

> <Gold.Chemscore.Lipo.Weighted>
-10.9747

> <Gold.Chemscore.Internal_Hbond.Weighted>
0.0000

> <Gold.Chemscore.DEClash.Weighted>
0.0395

> <Gold.Chemscore.DEInternal.Weighted>
2.6832

> <Gold.Chemscore.Rot.Weighted>
4.0276

> <Gold.Chemscore.Internal.Correction.Weighted>
   9.000000E+99

> <Gold.Protein.RotatedTorsions>
[ 6907 6896 6895 6894 ] final -152.55 input  -60.11 | X-H torsion
[ 7974 7965 7964 7962 ] final -160.42 input  175.53 | X-H torsion
[ 8008 7997 7996 7995 ] final -175.92 input   59.86 | X-H torsion
[ 10167 10162 10161 10158 ] final  104.84 input  -65.29 | X-H torsion
[ 10718 10713 10712 10709 ] final  -60.28 input   66.30 | X-H torsion
[ 10763 10752 10751 10750 ] final  156.30 input  -60.55 | X-H torsion
[ 11005 11000 10999 10996 ] final   -1.55 input  -57.11 | X-H torsion

> <Gold.Protein.ActiveResidues>
 VAL166  LYS551  ARG553  GLY616  TRP617  ASP618  TYR619  PRO620  LYS621  CYS622 
 ASP623  PHE694  ASN695  SER759  ASP760  ASP761  ALA762  ILE779  LEU786  VAL792 
 PHE793  MET794  SER795  GLU796  ALA797  LYS798  CYS799  TRP800  GLU811  SER814 

> <Gold.Protein.RotatedAtoms>
  151.2294  133.4458  159.2603 H   0  0  0  0  0  0  0  0  0  0  0  0  # atno 6907 bound_to 6896
  151.0808  134.9857  159.8365 H   0  0  0  0  0  0  0  0  0  0  0  0  # atno 6908 bound_to 6896
  152.5424  134.2234  159.8849 H   0  0  0  0  0  0  0  0  0  0  0  0  # atno 6909 bound_to 6896
  144.7428  140.3545  143.6109 H   0  0  0  0  0  0  0  0  0  0  0  0  # atno 7974 bound_to 7965
  155.9886  140.1196  157.0660 H   0  0  0  0  0  0  0  0  0  0  0  0  # atno 8008 bound_to 7997
  154.4204  140.1130  156.5602 H   0  0  0  0  0  0  0  0  0  0  0  0  # atno 8009 bound_to 7997
  155.6374  140.3473  155.4705 H   0  0  0  0  0  0  0  0  0  0  0  0  # atno 8010 bound_to 7997
  139.7143  144.7071  151.0975 H   0  0  0  0  0  0  0  0  0  0  0  0  # atno 10167 bound_to 10162
  156.1002  130.4187  150.0831 H   0  0  0  0  0  0  0  0  0  0  0  0  # atno 10718 bound_to 10713
  154.1821  135.2799  155.3048 H   0  0  0  0  0  0  0  0  0  0  0  0  # atno 10763 bound_to 10752
  154.5994  135.5534  153.7362 H   0  0  0  0  0  0  0  0  0  0  0  0  # atno 10764 bound_to 10752
  153.0135  135.6388  154.1960 H   0  0  0  0  0  0  0  0  0  0  0  0  # atno 10765 bound_to 10752
  140.6486  133.9425  155.8367 H   0  0  0  0  0  0  0  0  0  0  0  0  # atno 11005 bound_to 11000
  145.7242  139.1718  143.2467 LP  0  0  0  0  0  0  0  0  0  0  0  0  # atno 17320 bound_to 7965
  146.1255  140.7254  142.9437 LP  0  0  0  0  0  0  0  0  0  0  0  0  # atno 17321 bound_to 7965
  140.7740  143.5251  150.9490 LP  0  0  0  0  0  0  0  0  0  0  0  0  # atno 17342 bound_to 10162
  139.8936  143.6922  152.3142 LP  0  0  0  0  0  0  0  0  0  0  0  0  # atno 17343 bound_to 10162
  156.8821  130.9560  151.3598 LP  0  0  0  0  0  0  0  0  0  0  0  0  # atno 17370 bound_to 10713
  157.6171  130.8626  149.9046 LP  0  0  0  0  0  0  0  0  0  0  0  0  # atno 17371 bound_to 10713
  141.0554  134.0424  157.3730 LP  0  0  0  0  0  0  0  0  0  0  0  0  # atno 17394 bound_to 11000
  139.9054  135.0178  156.7461 LP  0  0  0  0  0  0  0  0  0  0  0  0  # atno 17395 bound_to 11000

$$$$
