#       Name:                AV-unprocessed.smi:1754
#       Creating user name   scv26
#       Creation time:       Fri Mar 27 08:28:16 2020


#       File generated by GOLD software.
#

@<TRIPOS>MOLECULE
AV-unprocessed.smi:1754
    47    48     1
SMALL
NO_CHARGES


@<TRIPOS>ATOM
      1 ****        -4.6682  -2.4137  -0.4546 C.3            1 S1                 0.0000
      2 ****        -4.9738  -1.0962   0.2755 C.3            1 S1                 0.0000
      3 ****        -4.2307   0.0454  -0.2629 N.pl3          1 S1                 0.0000
      4 ****        -4.8968   1.3471  -0.2298 C.3            1 S1                 0.0000
      5 ****        -5.0009   1.9280   1.1887 C.3            1 S1                 0.0000
      6 ****        -2.8271   0.0825  -0.1012 C.ar           1 S1                 0.0000
      7 ****        -2.0027   0.9306  -0.8776 C.ar           1 S1                 0.0000
      8 ****        -0.6084   0.9350  -0.6713 C.ar           1 S1                 0.0000
      9 ****        -0.0423   0.1015   0.3154 C.ar           1 S1                 0.0000
     10 ****         1.3695   0.1299   0.4713 N.am           1 S1                 0.0000
     11 ****         2.1175  -0.3228   1.4969 C.2            1 S1                 0.0000
     12 ****         1.6645  -0.7930   2.5379 O.2            1 S1                 0.0000
     13 ****         3.4436  -0.1851   1.3144 N.am           1 S1                 0.0000
     14 ****         4.5261  -0.5694   2.2223 C.3            1 S1                 0.0000
     15 ****         4.6859   0.4262   3.3909 C.3            1 S1                 0.0000
     16 ****         6.0450   0.1946   4.0641 C.3            1 S1                 0.0000
     17 ****         7.1521  -0.4856   2.7704 S.o2           1 S1                 0.0000
     18 ****         8.1350   0.5323   2.3696 O.2            1 S1                 0.0000
     19 ****         7.5783  -1.8336   3.1759 O.2            1 S1                 0.0000
     20 ****         5.8646  -0.6236   1.4756 C.3            1 S1                 0.0000
     21 ****        -0.9066  -0.7353   1.0608 C.ar           1 S1                 0.0000
     22 ****        -2.2368  -0.7090   0.8279 N.pl3          1 S1                 1.0000
     23 ****        -5.2780  -3.2228  -0.0527 H              1 S1                 0.0000
     24 ****        -3.6247  -2.7110  -0.3538 H              1 S1                 0.0000
     25 ****        -4.8909  -2.3319  -1.5188 H              1 S1                 0.0000
     26 ****        -6.0419  -0.8930   0.1908 H              1 S1                 0.0000
     27 ****        -4.7729  -1.1999   1.3424 H              1 S1                 0.0000
     28 ****        -4.3951   2.0596  -0.8834 H              1 S1                 0.0000
     29 ****        -5.8986   1.2307  -0.6448 H              1 S1                 0.0000
     30 ****        -5.5185   2.8875   1.1736 H              1 S1                 0.0000
     31 ****        -4.0157   2.0916   1.6264 H              1 S1                 0.0000
     32 ****        -5.5569   1.2648   1.8520 H              1 S1                 0.0000
     33 ****        -2.4227   1.5674  -1.6416 H              1 S1                 0.0000
     34 ****         0.0203   1.5778  -1.2702 H              1 S1                 0.0000
     35 ****         1.8775   0.5757  -0.2785 H              1 S1                 0.0000
     36 ****         3.7304   0.2874   0.4690 H              1 S1                 0.0000
     37 ****         4.3404  -1.5647   2.6301 H              1 S1                 0.0000
     38 ****         4.6645   1.4432   2.9968 H              1 S1                 0.0000
     39 ****         3.8699   0.3495   4.1100 H              1 S1                 0.0000
     40 ****         6.4700   1.1082   4.4800 H              1 S1                 0.0000
     41 ****         5.9655  -0.5453   4.8608 H              1 S1                 0.0000
     42 ****         6.0033  -1.5407   0.9028 H              1 S1                 0.0000
     43 ****         5.9782   0.2283   0.8040 H              1 S1                 0.0000
     44 ****        -0.5954  -1.4330   1.8233 H              1 S1                 0.0000
     45 ****        -2.8312  -1.3238   1.3841 H              1 S1                 0.0000
     46 ****         0.6751  -0.8597   2.6674 LP             1 S1                 0.0000
     47 ****         2.2851  -1.1089   3.2555 LP             1 S1                 0.0000
@<TRIPOS>BOND
    1    1    2 1     
    2    1   23 1     
    3    1   24 1     
    4    1   25 1     
    5    2    3 1     
    6    2   26 1     
    7    2   27 1     
    8    3    4 1     
    9    3    6 1     
   10    4    5 1     
   11    4   28 1     
   12    4   29 1     
   13    5   30 1     
   14    5   31 1     
   15    5   32 1     
   16    6   22 ar    
   17    6    7 ar    
   18    7    8 ar    
   19    7   33 1     
   20    8    9 ar    
   21    8   34 1     
   22    9   10 1     
   23    9   21 ar    
   24   10   11 am    
   25   10   35 1     
   26   11   12 2     
   27   11   13 am    
   28   13   14 1     
   29   13   36 1     
   30   14   20 1     
   31   14   15 1     
   32   14   37 1     
   33   15   16 1     
   34   15   38 1     
   35   15   39 1     
   36   16   17 1     
   37   16   40 1     
   38   16   41 1     
   39   17   18 2     
   40   17   19 2     
   41   17   20 1     
   42   20   42 1     
   43   20   43 1     
   44   21   22 ar    
   45   21   44 1     
   46   22   45 1     
   47   12   46 1     
   48   12   47 1     
@<TRIPOS>SUBSTRUCTURE
      1 S1             1
@<TRIPOS>SET
LONE_PAIRS      STATIC     ATOMS    <user>   **** ""
4 46 47 18 19
DONOR_HYDROGENS      STATIC     ATOMS    <user>   **** ""
3 35 36 45
ATOM$BLUE        STATIC     ATOMS    COLORGROUP SYSTEM
4 46 47 18 19
ATOM$RED        STATIC     ATOMS    COLORGROUP SYSTEM
3 35 36 45
