AV-unprocessed.smi:245|AV-procd|sdf|1876|dock1
  -GOLD-   2262020513D 1   1.00000     0.00000
 Structure written by MMmdl.
 54 58  0  0  0  0  0  0  0  0  1 V2000
  154.1203  141.3005  160.9807 O   0  0  0  0  0  0  0  0  0  0  0  0
  153.5443  141.8159  160.0255 C   0  0  0  0  0  0  0  0  0  0  0  0
  153.0091  140.9240  158.8912 C   0  0  0  0  0  0  0  0  0  0  0  0
  152.2037  141.6010  157.8565 N   0  0  0  0  0  0  0  0  0  0  0  0
  151.6430  140.8398  156.8614 C   0  0  0  0  0  0  0  0  0  0  0  0
  152.3084  139.7281  156.4425 N   0  0  0  0  0  0  0  0  0  0  0  0
  151.8218  138.9445  155.4792 C   0  0  0  0  0  0  0  0  0  0  0  0
  150.6878  139.0771  154.7958 N   0  0  0  0  0  0  0  0  0  0  0  0
  149.9963  140.1806  155.1977 C   0  0  0  0  0  0  0  0  0  0  0  0
  150.3928  141.1065  156.2108 C   0  0  0  0  0  0  0  0  0  0  0  0
  149.4157  142.0921  156.3251 N   0  0  0  0  0  0  0  0  0  0  0  0
  148.5104  141.7730  155.4436 C   0  0  0  0  0  0  0  0  0  0  0  0
  148.7774  140.6363  154.7190 N   0  0  0  0  0  0  0  0  0  0  0  0
  147.9483  140.0664  153.6931 C   0  0  0  0  0  0  0  0  0  0  0  0
  146.5027  139.6538  153.9792 C   0  0  0  0  0  0  0  0  0  0  0  0
  146.6592  138.4206  153.0610 C   0  0  0  0  0  0  0  0  0  0  0  0
  146.1700  137.0947  153.6637 C   0  0  0  0  0  0  0  0  0  0  0  0
  146.6037  135.9864  152.9012 O   0  0  0  0  0  0  0  0  0  0  0  0
  146.0628  138.5262  151.6405 C   0  0  0  0  0  0  0  0  0  0  0  0
  146.6390  137.6131  150.7278 O   0  0  0  0  0  0  0  0  0  0  0  0
  148.1845  138.6443  153.1778 C   0  0  0  0  0  0  0  0  0  0  0  0
  151.6369  142.9237  158.1730 C   0  0  1  0  0  0  0  0  0  0  0  0
  150.3785  142.8025  159.0680 C   0  0  0  0  0  0  0  0  0  0  0  0
  149.8262  144.1805  159.4624 C   0  0  0  0  0  0  0  0  0  0  0  0
  150.9023  145.0320  160.1516 C   0  0  0  0  0  0  0  0  0  0  0  0
  152.1429  145.1797  159.2559 C   0  0  0  0  0  0  0  0  0  0  0  0
  152.7183  143.8156  158.8260 C   0  0  1  0  0  0  0  0  0  0  0  0
  153.3552  143.1412  159.9511 N   0  0  0  0  0  0  0  0  0  0  0  0
  153.8892  140.4844  158.4227 H   0  0  0  0  0  0  0  0  0  0  0  0
  152.4262  140.1179  159.3392 H   0  0  0  0  0  0  0  0  0  0  0  0
  152.4283  138.0895  155.2200 H   0  0  0  0  0  0  0  0  0  0  0  0
  147.6176  142.3641  155.2999 H   0  0  0  0  0  0  0  0  0  0  0  0
  147.9707  140.7674  152.8575 H   0  0  0  0  0  0  0  0  0  0  0  0
  146.3360  139.3849  155.0231 H   0  0  0  0  0  0  0  0  0  0  0  0
  145.7581  140.3773  153.6456 H   0  0  0  0  0  0  0  0  0  0  0  0
  146.5171  136.9757  154.6908 H   0  0  0  0  0  0  0  0  0  0  0  0
  145.0804  137.0645  153.7015 H   0  0  0  0  0  0  0  0  0  0  0  0
  147.4782  136.1611  152.5879 H   0  0  0  0  0  0  0  0  0  0  0  0
  144.9879  138.3434  151.6584 H   0  0  0  0  0  0  0  0  0  0  0  0
  146.2029  139.5271  151.2309 H   0  0  0  0  0  0  0  0  0  0  0  0
  147.0512  136.9187  151.2186 H   0  0  0  0  0  0  0  0  0  0  0  0
  148.7268  138.5978  152.2330 H   0  0  0  0  0  0  0  0  0  0  0  0
  148.6546  137.9976  153.9194 H   0  0  0  0  0  0  0  0  0  0  0  0
  151.3566  143.4464  157.2575 H   0  0  0  0  0  0  0  0  0  0  0  0
  149.6020  142.2385  158.5508 H   0  0  0  0  0  0  0  0  0  0  0  0
  150.6087  142.2387  159.9724 H   0  0  0  0  0  0  0  0  0  0  0  0
  149.4624  144.6973  158.5734 H   0  0  0  0  0  0  0  0  0  0  0  0
  148.9677  144.0599  160.1238 H   0  0  0  0  0  0  0  0  0  0  0  0
  150.4989  146.0163  160.3910 H   0  0  0  0  0  0  0  0  0  0  0  0
  151.1813  144.5740  161.1012 H   0  0  0  0  0  0  0  0  0  0  0  0
  151.8727  145.7493  158.3658 H   0  0  0  0  0  0  0  0  0  0  0  0
  152.9058  145.7660  159.7695 H   0  0  0  0  0  0  0  0  0  0  0  0
  153.5069  143.9970  158.0937 H   0  0  0  0  0  0  0  0  0  0  0  0
  153.6967  143.7180  160.7062 H   0  0  0  0  0  0  0  0  0  0  0  0
  1  2  2  0  0  0  0
  2 28  1  0  0  0  0
  2  3  1  0  0  0  0
  3  4  1  0  0  0  0
  3 29  1  0  0  0  0
  3 30  1  0  0  0  0
  4  5  1  0  0  0  0
  4 22  1  0  0  0  0
  5 10  1  0  0  0  0
  5  6  2  0  0  0  0
  6  7  1  0  0  0  0
  7  8  2  0  0  0  0
  7 31  1  0  0  0  0
  8  9  1  0  0  0  0
  9 13  1  0  0  0  0
  9 10  2  0  0  0  0
 10 11  1  0  0  0  0
 11 12  2  0  0  0  0
 12 13  1  0  0  0  0
 12 32  1  0  0  0  0
 13 14  1  0  0  0  0
 14 21  1  0  0  0  0
 14 15  1  0  0  0  0
 14 33  1  0  0  0  0
 15 16  1  0  0  0  0
 15 34  1  0  0  0  0
 15 35  1  0  0  0  0
 16 17  1  0  0  0  0
 16 19  1  0  0  0  0
 16 21  1  0  0  0  0
 17 18  1  0  0  0  0
 17 36  1  0  0  0  0
 17 37  1  0  0  0  0
 18 38  1  0  0  0  0
 19 20  1  0  0  0  0
 19 39  1  0  0  0  0
 19 40  1  0  0  0  0
 20 41  1  0  0  0  0
 21 42  1  0  0  0  0
 21 43  1  0  0  0  0
 22 27  1  0  0  0  0
 22 23  1  0  0  0  0
 22 44  1  0  0  0  0
 23 24  1  0  0  0  0
 23 45  1  0  0  0  0
 23 46  1  0  0  0  0
 24 25  1  0  0  0  0
 24 47  1  0  0  0  0
 24 48  1  0  0  0  0
 25 26  1  0  0  0  0
 25 49  1  0  0  0  0
 25 50  1  0  0  0  0
 26 27  1  0  0  0  0
 26 51  1  0  0  0  0
 26 52  1  0  0  0  0
 27 28  1  0  0  0  0
 27 53  1  0  0  0  0
 28 54  1  0  0  0  0
M  END
> <s_m_source_file>
AV-unprocessed.smi

> <i_m_source_file_index>
245

> <i_lp_mmshare_version>
43012

> <i_f3d_flags>
0

> <s_epik_input>
W0NIMl0xW0NIMl1bQ0gyXVtDSDJdW0NASF0oW0NASF0xMilbTkhdQyg9TylbQ0gyXU4yYyhuW2NIXW4zKWMoYzM0KW5bY0hdbjRbQ0hdKFtDSDJdNSlbQ0gyXUM1KFtDSDJdW09IXSlbQ0gyXVtPSF0=

> <s_epik_cmdline>
J2VwaWtfcHl0aG9uJywgJy1waCcsICc3LjAnLCAnLXRuJywgJzgnLCAnLW1hJywgJzIwMCcsICctbWV0YWxfYmluZGluZycsICctaW1hZScsICc8aW5maWxlLm1hZT4nLCAnLW9tYWUnLCAnPG91dGZpbGUubWFlPic=

> <r_lp_tautomer_probability>
1

> <r_epik_Ionization_Penalty>
0.000702616

> <r_epik_Ionization_Penalty_Charging>
0

> <r_epik_Ionization_Penalty_Neutral>
0.000702616

> <r_epik_State_Penalty>
0.000343985

> <r_epik_Charging_Adjusted_Penalty>
0.000343985

> <i_epik_Tot_Q>
0

> <i_epik_Tot_abs_Q>
0

> <r_epik_Metal_State_Penalty>
-0

> <b_epik_Metal_Only>
0

> <s_lp_Force_Field>
OPLS_2005

> <r_lp_Energy>
53.0031

> <b_lp_Chiralities_Consistent>
1

> <s_lp_Variant>
AV-unprocessed.smi:245-1

> <Gold.Version>
5.8.1

> <Gold.Id.Protein>
6NUR|6NUR_protein|mol2

> <Gold.PLP.Fitness>
54.5417

> <Gold.PLP.PLP>
-43.3189

> <Gold.PLP.part.hbond>
-4.1422

> <Gold.PLP.part.metal>
0.0000

> <Gold.PLP.part.buried>
1.4036

> <Gold.PLP.part.nonpolar>
-43.0766

> <Gold.PLP.part.repulsive>
2.4723

> <Gold.PLP.ligand.clash>
0.0000

> <Gold.PLP.ligand.torsion>
0.6094

> <Gold.PLP.Chemscore.Hbond>
3.6793

> <Gold.PLP.Chemscore.CHOScore>
0.2919

> <Gold.PLP.Chemscore.Metal>
0.0000

> <Gold.Chemscore.Hbonds>
donor molecule, donor type, donor heavy atom, donor atom, acceptor molecule, acceptor atom, score
      L1  H    18    38       P1  7948  1.00
      L1  H    20    41       P1  7948  0.72
      P1  H  7954  7966       L1    20  0.45
      P1  H  7997  8009       L1     6  0.93
      L1  C    12    32       P1  8028  0.20

> <Gold.PLP.Chemscore.Internal.Correction>
0.5281

> <Gold.Rescore>
     Score         DG    S(hbond)    S(metal)    S(lipo)     H(rot)  DE(clash)    DE(int)     intcor
     13.89     -19.43       2.76        0.00     104.33       2.91       1.61       3.94       ----

> <Gold.Chemscore.Fitness>
13.8859

> <Gold.Chemscore.DG>
-19.4326

> <Gold.Chemscore.ZeroCoef>
-5.4800

> <Gold.Chemscore.Hbond>
2.7567

> <Gold.Chemscore.Metal>
0.0000

> <Gold.Chemscore.Lipo>
104.3337

> <Gold.Chemscore.Internal_Hbond>
0.0000

> <Gold.Chemscore.DEClash>
1.6084

> <Gold.Chemscore.DEInternal>
3.9383

> <Gold.Chemscore.Rot>
2.9147

> <Gold.Chemscore.Internal.Correction>
   9.000000E+99

> <Gold.Chemscore.Hbonds>
donor molecule, donor type, donor heavy atom, donor atom, acceptor molecule, acceptor atom, score
      L1  H    18    38       P1  7948  1.00
      L1  H    20    41       P1  7948  0.70
      P1  H  7954  7966       L1    20  0.02
      P1  H  7997  8009       L1     6  0.59

> <Gold.Chemscore.Hbond.Weighted>
-9.2072

> <Gold.Chemscore.Metal.Weighted>
-0.0000

> <Gold.Chemscore.Lipo.Weighted>
-12.2070

> <Gold.Chemscore.Internal_Hbond.Weighted>
0.0000

> <Gold.Chemscore.DEClash.Weighted>
1.6084

> <Gold.Chemscore.DEInternal.Weighted>
3.9383

> <Gold.Chemscore.Rot.Weighted>
7.4617

> <Gold.Chemscore.Internal.Correction.Weighted>
   9.000000E+99

> <Gold.Protein.RotatedTorsions>
[ 6907 6896 6895 6894 ] final -157.44 input  -60.11 | X-H torsion
[ 7974 7965 7964 7962 ] final  -80.70 input  175.53 | X-H torsion
[ 8008 7997 7996 7995 ] final -166.47 input   59.86 | X-H torsion
[ 10167 10162 10161 10158 ] final   20.84 input  -65.29 | X-H torsion
[ 10718 10713 10712 10709 ] final  -12.86 input   66.30 | X-H torsion
[ 10763 10752 10751 10750 ] final  -34.70 input  -60.55 | X-H torsion
[ 11005 11000 10999 10996 ] final  164.21 input  -57.11 | X-H torsion

> <Gold.Protein.ActiveResidues>
 VAL166  LYS551  ARG553  GLY616  TRP617  ASP618  TYR619  PRO620  LYS621  CYS622 
 ASP623  PHE694  ASN695  SER759  ASP760  ASP761  ALA762  ILE779  LEU786  VAL792 
 PHE793  MET794  SER795  GLU796  ALA797  LYS798  CYS799  TRP800  GLU811  SER814 

> <Gold.Protein.RotatedAtoms>
  151.3029  133.4114  159.2640 H   0  0  0  0  0  0  0  0  0  0  0  0  # atno 6907 bound_to 6896
  151.0180  134.9448  159.8054 H   0  0  0  0  0  0  0  0  0  0  0  0  # atno 6908 bound_to 6896
  152.5317  134.2993  159.9125 H   0  0  0  0  0  0  0  0  0  0  0  0  # atno 6909 bound_to 6896
  145.5565  140.9489  143.1470 H   0  0  0  0  0  0  0  0  0  0  0  0  # atno 7974 bound_to 7965
  155.8643  140.0983  157.1593 H   0  0  0  0  0  0  0  0  0  0  0  0  # atno 8008 bound_to 7997
  154.3992  140.1359  156.4062 H   0  0  0  0  0  0  0  0  0  0  0  0  # atno 8009 bound_to 7997
  155.7822  140.3458  155.5306 H   0  0  0  0  0  0  0  0  0  0  0  0  # atno 8010 bound_to 7997
  140.5473  143.9572  150.6555 H   0  0  0  0  0  0  0  0  0  0  0  0  # atno 10167 bound_to 10162
  156.6386  130.4921  149.6103 H   0  0  0  0  0  0  0  0  0  0  0  0  # atno 10718 bound_to 10713
  153.8510  135.6849  153.4792 H   0  0  0  0  0  0  0  0  0  0  0  0  # atno 10763 bound_to 10752
  153.1397  135.4662  154.9475 H   0  0  0  0  0  0  0  0  0  0  0  0  # atno 10764 bound_to 10752
  154.7802  135.3266  154.7953 H   0  0  0  0  0  0  0  0  0  0  0  0  # atno 10765 bound_to 10752
  140.2436  134.8032  157.3434 H   0  0  0  0  0  0  0  0  0  0  0  0  # atno 11005 bound_to 11000
  144.7504  139.7210  143.7275 LP  0  0  0  0  0  0  0  0  0  0  0  0  # atno 17320 bound_to 7965
  146.1881  139.5106  142.9823 LP  0  0  0  0  0  0  0  0  0  0  0  0  # atno 17321 bound_to 7965
  140.2989  143.3274  152.0991 LP  0  0  0  0  0  0  0  0  0  0  0  0  # atno 17342 bound_to 10162
  139.5012  144.6709  151.6244 LP  0  0  0  0  0  0  0  0  0  0  0  0  # atno 17343 bound_to 10162
  156.2177  130.6718  151.1336 LP  0  0  0  0  0  0  0  0  0  0  0  0  # atno 17370 bound_to 10713
  157.7178  131.0700  150.6258 LP  0  0  0  0  0  0  0  0  0  0  0  0  # atno 17371 bound_to 10713
  140.1628  134.4707  155.7883 LP  0  0  0  0  0  0  0  0  0  0  0  0  # atno 17394 bound_to 11000
  141.2208  133.6908  156.7574 LP  0  0  0  0  0  0  0  0  0  0  0  0  # atno 17395 bound_to 11000

$$$$
