#       Name:                AV-unprocessed.smi:657
#       Creating user name   scv26
#       Creation time:       Fri Mar 27 00:16:19 2020


#       File generated by GOLD software.
#

@<TRIPOS>MOLECULE
AV-unprocessed.smi:657
    50    51     1
SMALL
NO_CHARGES


@<TRIPOS>ATOM
      1 ****        -1.9141   3.9872   0.4097 C.3            1 S1                 0.0000
      2 ****        -1.7671   2.5105   0.0019 C.3            1 S1                 0.0000
      3 ****        -2.4416   2.2279  -1.3550 C.3            1 S1                 0.0000
      4 ****        -2.2101   1.5858   1.1006 N.4            1 S1                 1.0000
      5 ****        -3.6853   1.6176   1.3314 C.3            1 S1                 0.0000
      6 ****        -4.0882   0.8346   2.5872 C.3            1 S1                 0.0000
      7 ****        -3.6302  -0.6193   2.4724 C.3            1 S1                 0.0000
      8 ****        -2.1173  -0.6534   2.2455 C.3            1 S1                 0.0000
      9 ****        -1.6885   0.1781   1.0114 C.3            1 S1                 0.0000
     10 ****        -0.1553   0.0933   0.9169 C.2            1 S1                 0.0000
     11 ****         0.5507   0.8267   1.6099 O.2            1 S1                 0.0000
     12 ****         0.3423  -0.8180   0.0687 N.am           1 S1                 0.0000
     13 ****         1.7632  -1.0417  -0.1570 C.3            1 S1                 0.0000
     14 ****         1.9771  -2.1352  -1.2116 C.3            1 S1                 0.0000
     15 ****         3.4381  -2.3652  -1.4783 C.2            1 S1                 0.0000
     16 ****         4.3554  -3.1392  -0.7115 C.2            1 S1                 0.0000
     17 ****         5.5776  -3.1394  -1.2181 N.2            1 S1                 0.0000
     18 ****         5.4838  -2.3701  -2.3221 N.pl3          1 S1                 0.0000
     19 ****         6.6574  -2.1496  -3.1396 C.3            1 S1                 0.0000
     20 ****         4.2054  -1.8882  -2.5035 C.2            1 S1                 0.0000
     21 ****        -1.4252   4.6370  -0.3169 H              1 S1                 0.0000
     22 ****        -1.4504   4.1763   1.3784 H              1 S1                 0.0000
     23 ****        -2.9554   4.3027   0.4663 H              1 S1                 0.0000
     24 ****        -0.6977   2.3863  -0.1559 H              1 S1                 0.0000
     25 ****        -2.0107   2.8580  -2.1337 H              1 S1                 0.0000
     26 ****        -3.5113   2.4362  -1.3335 H              1 S1                 0.0000
     27 ****        -2.3035   1.1934  -1.6684 H              1 S1                 0.0000
     28 ****        -4.0371   2.6420   1.4423 H              1 S1                 0.0000
     29 ****        -4.2056   1.1969   0.4704 H              1 S1                 0.0000
     30 ****        -3.6493   1.2978   3.4721 H              1 S1                 0.0000
     31 ****        -5.1700   0.8733   2.7197 H              1 S1                 0.0000
     32 ****        -3.8893  -1.1701   3.3771 H              1 S1                 0.0000
     33 ****        -4.1437  -1.1108   1.6451 H              1 S1                 0.0000
     34 ****        -1.6198  -0.2763   3.1413 H              1 S1                 0.0000
     35 ****        -1.7959  -1.6901   2.1329 H              1 S1                 0.0000
     36 ****        -2.1191  -0.2829   0.1209 H              1 S1                 0.0000
     37 ****        -0.3020  -1.3910  -0.4571 H              1 S1                 0.0000
     38 ****         2.2273  -0.1101  -0.4850 H              1 S1                 0.0000
     39 ****         2.2392  -1.3275   0.7825 H              1 S1                 0.0000
     40 ****         1.5036  -3.0584  -0.8751 H              1 S1                 0.0000
     41 ****         1.4612  -1.8559  -2.1313 H              1 S1                 0.0000
     42 ****         4.1694  -3.6971   0.1945 H              1 S1                 0.0000
     43 ****         6.3919  -1.5777  -4.0291 H              1 S1                 0.0000
     44 ****         7.0792  -3.1070  -3.4473 H              1 S1                 0.0000
     45 ****         7.4038  -1.5950  -2.5705 H              1 S1                 0.0000
     46 ****         3.9493  -1.2523  -3.3385 H              1 S1                 0.0000
     47 ****        -1.7914   1.9603   1.9402 H              1 S1                 0.0000
     48 ****         0.1278   1.4806   2.2372 LP             1 S1                 0.0000
     49 ****         1.5469   0.7683   1.5453 LP             1 S1                 0.0000
     50 ****         6.3881  -3.6049  -0.8627 LP             1 S1                 0.0000
@<TRIPOS>BOND
    1    1    2 1     
    2    1   21 1     
    3    1   22 1     
    4    1   23 1     
    5    2    3 1     
    6    2    4 1     
    7    2   24 1     
    8    3   25 1     
    9    3   26 1     
   10    3   27 1     
   11    4    9 1     
   12    4    5 1     
   13    4   47 1     
   14    5    6 1     
   15    5   28 1     
   16    5   29 1     
   17    6    7 1     
   18    6   30 1     
   19    6   31 1     
   20    7    8 1     
   21    7   32 1     
   22    7   33 1     
   23    8    9 1     
   24    8   34 1     
   25    8   35 1     
   26    9   10 1     
   27    9   36 1     
   28   10   11 2     
   29   10   12 am    
   30   12   13 1     
   31   12   37 1     
   32   13   14 1     
   33   13   38 1     
   34   13   39 1     
   35   14   15 1     
   36   14   40 1     
   37   14   41 1     
   38   15   20 2     
   39   15   16 1     
   40   16   17 2     
   41   16   42 1     
   42   17   18 1     
   43   18   19 1     
   44   18   20 1     
   45   19   43 1     
   46   19   44 1     
   47   19   45 1     
   48   20   46 1     
   49   11   48 1     
   50   11   49 1     
   51   17   50 1     
@<TRIPOS>SUBSTRUCTURE
      1 S1             1
@<TRIPOS>SET
LONE_PAIRS      STATIC     ATOMS    <user>   **** ""
3 48 49 50
DONOR_HYDROGENS      STATIC     ATOMS    <user>   **** ""
2 47 37
ATOM$BLUE        STATIC     ATOMS    COLORGROUP SYSTEM
3 48 49 50
ATOM$RED        STATIC     ATOMS    COLORGROUP SYSTEM
2 47 37
