AV-unprocessed.smi:170|AV-procd|sdf|1412|dock9
  -GOLD-   2262019173D 1   1.00000     0.00000
 Structure written by MMmdl.
 57 61  0  0  0  0  0  0  0  0  1 V2000
  144.4982  138.6805  154.5912 O   0  0  0  0  0  0  0  0  0  0  0  0
  145.4407  138.0442  153.7479 C   0  0  2  0  0  0  0  0  0  0  0  0
  146.5033  139.0464  153.2559 C   0  0  0  0  0  0  0  0  0  0  0  0
  147.5884  139.2087  154.2070 N   0  0  0  0  0  0  0  0  0  0  0  0
  148.9158  138.9074  154.0003 C   0  0  0  0  0  0  0  0  0  0  0  0
  149.7024  139.1309  155.0179 N   0  0  0  0  0  0  0  0  0  0  0  0
  148.8501  139.6228  155.9988 C   0  0  0  0  0  0  0  0  0  0  0  0
  149.0339  140.0514  157.3398 C   0  0  0  0  0  0  0  0  0  0  0  0
  150.2541  140.0523  157.9272 N   0  0  0  0  0  0  0  0  0  0  0  0
  150.9099  138.7671  157.7107 C   0  0  0  0  0  0  0  0  0  0  0  0
  152.2135  138.6867  158.5145 C   0  0  0  0  0  0  0  0  0  0  0  0
  153.0472  139.7755  158.1444 O   0  0  0  0  0  0  0  0  0  0  0  0
  152.4505  141.0278  158.4594 C   0  0  0  0  0  0  0  0  0  0  0  0
  151.1227  141.2138  157.6859 C   0  0  2  0  0  0  0  0  0  0  0  0
  150.4340  142.5499  158.0726 C   0  0  0  0  0  0  0  0  0  0  0  0
  151.3114  143.4933  158.8938 C   0  0  0  0  0  0  0  0  0  0  0  0
  150.6987  144.7602  159.5091 C   0  0  0  0  0  0  0  0  0  0  0  0
  152.0333  145.4694  159.2614 C   0  0  0  0  0  0  0  0  0  0  0  0
  152.3174  144.4154  158.1877 C   0  0  0  0  0  0  0  0  0  0  0  0
  147.9430  140.4972  158.0187 N   0  0  0  0  0  0  0  0  0  0  0  0
  146.7441  140.5021  157.4276 C   0  0  0  0  0  0  0  0  0  0  0  0
  146.4213  140.1190  156.1899 N   0  0  0  0  0  0  0  0  0  0  0  0
  147.5178  139.6843  155.5044 C   0  0  0  0  0  0  0  0  0  0  0  0
  144.7188  137.3160  152.5957 C   0  0  1  0  0  0  0  0  0  0  0  0
  145.6285  136.5411  151.6270 C   0  0  0  0  0  0  0  0  0  0  0  0
  145.1937  135.0993  151.8080 C   0  0  0  0  0  0  0  0  0  0  0  0
  143.7428  135.2509  152.2442 C   0  0  0  0  0  0  0  0  0  0  0  0
  143.7808  136.3734  153.1108 O   0  0  0  0  0  0  0  0  0  0  0  0
  144.2069  139.4733  154.1666 H   0  0  0  0  0  0  0  0  0  0  0  0
  145.9388  137.2900  154.3586 H   0  0  0  0  0  0  0  0  0  0  0  0
  146.9265  138.7118  152.3080 H   0  0  0  0  0  0  0  0  0  0  0  0
  146.0555  140.0233  153.0692 H   0  0  0  0  0  0  0  0  0  0  0  0
  149.2831  138.5082  153.0659 H   0  0  0  0  0  0  0  0  0  0  0  0
  150.2487  137.9505  158.0051 H   0  0  0  0  0  0  0  0  0  0  0  0
  151.1222  138.6419  156.6476 H   0  0  0  0  0  0  0  0  0  0  0  0
  152.0157  138.7056  159.5875 H   0  0  0  0  0  0  0  0  0  0  0  0
  152.7310  137.7518  158.2996 H   0  0  0  0  0  0  0  0  0  0  0  0
  152.2885  141.1000  159.5364 H   0  0  0  0  0  0  0  0  0  0  0  0
  153.1646  141.8065  158.1935 H   0  0  0  0  0  0  0  0  0  0  0  0
  151.3593  141.2372  156.6211 H   0  0  0  0  0  0  0  0  0  0  0  0
  150.1130  143.0782  157.1754 H   0  0  0  0  0  0  0  0  0  0  0  0
  149.5177  142.3344  158.6233 H   0  0  0  0  0  0  0  0  0  0  0  0
  151.8312  142.9516  159.6863 H   0  0  0  0  0  0  0  0  0  0  0  0
  149.8861  145.1751  158.9102 H   0  0  0  0  0  0  0  0  0  0  0  0
  150.4177  144.6685  160.5587 H   0  0  0  0  0  0  0  0  0  0  0  0
  151.9470  146.4905  158.8891 H   0  0  0  0  0  0  0  0  0  0  0  0
  152.7136  145.4020  160.1119 H   0  0  0  0  0  0  0  0  0  0  0  0
  153.3422  144.0430  158.1698 H   0  0  0  0  0  0  0  0  0  0  0  0
  151.9845  144.7244  157.1954 H   0  0  0  0  0  0  0  0  0  0  0  0
  145.9267  140.8660  158.0327 H   0  0  0  0  0  0  0  0  0  0  0  0
  144.1528  138.0502  152.0203 H   0  0  0  0  0  0  0  0  0  0  0  0
  145.4337  136.8621  150.6027 H   0  0  0  0  0  0  0  0  0  0  0  0
  146.6933  136.6802  151.8164 H   0  0  0  0  0  0  0  0  0  0  0  0
  145.3085  134.5002  150.9044 H   0  0  0  0  0  0  0  0  0  0  0  0
  145.7736  134.6321  152.6051 H   0  0  0  0  0  0  0  0  0  0  0  0
  143.0999  135.4698  151.3900 H   0  0  0  0  0  0  0  0  0  0  0  0
  143.3578  134.3650  152.7497 H   0  0  0  0  0  0  0  0  0  0  0  0
  1  2  1  0  0  0  0
  1 29  1  0  0  0  0
  2  3  1  0  0  0  0
  2 24  1  0  0  0  0
  2 30  1  0  0  0  0
  3  4  1  0  0  0  0
  3 31  1  0  0  0  0
  3 32  1  0  0  0  0
  4 23  1  0  0  0  0
  4  5  1  0  0  0  0
  5  6  2  0  0  0  0
  5 33  1  0  0  0  0
  6  7  1  0  0  0  0
  7 23  2  0  0  0  0
  7  8  1  0  0  0  0
  8  9  1  0  0  0  0
  8 20  2  0  0  0  0
  9 14  1  0  0  0  0
  9 10  1  0  0  0  0
 10 11  1  0  0  0  0
 10 34  1  0  0  0  0
 10 35  1  0  0  0  0
 11 12  1  0  0  0  0
 11 36  1  0  0  0  0
 11 37  1  0  0  0  0
 12 13  1  0  0  0  0
 13 14  1  0  0  0  0
 13 38  1  0  0  0  0
 13 39  1  0  0  0  0
 14 15  1  0  0  0  0
 14 40  1  0  0  0  0
 15 16  1  0  0  0  0
 15 41  1  0  0  0  0
 15 42  1  0  0  0  0
 16 19  1  0  0  0  0
 16 17  1  0  0  0  0
 16 43  1  0  0  0  0
 17 18  1  0  0  0  0
 17 44  1  0  0  0  0
 17 45  1  0  0  0  0
 18 19  1  0  0  0  0
 18 46  1  0  0  0  0
 18 47  1  0  0  0  0
 19 48  1  0  0  0  0
 19 49  1  0  0  0  0
 20 21  1  0  0  0  0
 21 22  2  0  0  0  0
 21 50  1  0  0  0  0
 22 23  1  0  0  0  0
 24 28  1  0  0  0  0
 24 25  1  0  0  0  0
 24 51  1  0  0  0  0
 25 26  1  0  0  0  0
 25 52  1  0  0  0  0
 25 53  1  0  0  0  0
 26 27  1  0  0  0  0
 26 54  1  0  0  0  0
 26 55  1  0  0  0  0
 27 28  1  0  0  0  0
 27 56  1  0  0  0  0
 27 57  1  0  0  0  0
M  END
> <s_m_source_file>
AV-unprocessed.smi

> <i_m_source_file_index>
170

> <i_lp_mmshare_version>
43012

> <i_f3d_flags>
0

> <s_epik_input>
TzFbQ0gyXVtDSDJdW0NIMl1bQ0BIXTFbQ0BIXShbT0hdKVtDSDJdbihbY0hdbjIpYyhjMjMpbltjSF1uYzNONFtDSDJdW0NIMl1PW0NIMl1bQ0BIXTRbQ0gyXVtDSF01W0NIMl1bQ0gyXVtDSDJdNQ==

> <s_epik_cmdline>
J2VwaWtfcHl0aG9uJywgJy1waCcsICc3LjAnLCAnLXRuJywgJzgnLCAnLW1hJywgJzIwMCcsICctbWV0YWxfYmluZGluZycsICctaW1hZScsICc8aW5maWxlLm1hZT4nLCAnLW9tYWUnLCAnPG91dGZpbGUubWFlPic=

> <r_lp_tautomer_probability>
1

> <r_epik_Ionization_Penalty>
4.98275e-05

> <r_epik_Ionization_Penalty_Charging>
0

> <r_epik_Ionization_Penalty_Neutral>
4.98275e-05

> <r_epik_State_Penalty>
-0

> <r_epik_Charging_Adjusted_Penalty>
0

> <i_epik_Tot_Q>
0

> <i_epik_Tot_abs_Q>
0

> <r_epik_Metal_State_Penalty>
-0

> <b_epik_Metal_Only>
0

> <s_lp_Force_Field>
OPLS_2005

> <r_lp_Energy>
52.9545

> <b_lp_Chiralities_Consistent>
1

> <s_lp_Variant>
AV-unprocessed.smi:170-7

> <Gold.Version>
5.8.1

> <Gold.Id.Protein>
6NUR|6NUR_protein|mol2

> <Gold.PLP.Fitness>
47.5666

> <Gold.PLP.PLP>
-39.2445

> <Gold.PLP.part.hbond>
-2.8921

> <Gold.PLP.part.metal>
0.0000

> <Gold.PLP.part.buried>
-5.7938

> <Gold.PLP.part.nonpolar>
-31.6539

> <Gold.PLP.part.repulsive>
0.2005

> <Gold.PLP.ligand.clash>
0.0000

> <Gold.PLP.ligand.torsion>
1.6137

> <Gold.PLP.Chemscore.Hbond>
2.0000

> <Gold.PLP.Chemscore.CHOScore>
1.7453

> <Gold.PLP.Chemscore.Metal>
0.0000

> <Gold.Chemscore.Hbonds>
donor molecule, donor type, donor heavy atom, donor atom, acceptor molecule, acceptor atom, score
      L1  H     1    29       P1 10175  1.00
      P1  H  7997  8009       L1    12  1.00
      L1  C     5    33       P1  7948  0.93
      L1  C     5    33       P1  7957  0.80

> <Gold.PLP.Chemscore.Internal.Correction>
0.3138

> <Gold.Rescore>
     Score         DG    S(hbond)    S(metal)    S(lipo)     H(rot)  DE(clash)    DE(int)     intcor
     14.03     -17.37       1.94        0.00     103.46       2.61       0.18       3.16       ----

> <Gold.Chemscore.Fitness>
14.0271

> <Gold.Chemscore.DG>
-17.3655

> <Gold.Chemscore.ZeroCoef>
-5.4800

> <Gold.Chemscore.Hbond>
1.9382

> <Gold.Chemscore.Metal>
0.0000

> <Gold.Chemscore.Lipo>
103.4592

> <Gold.Chemscore.Internal_Hbond>
0.0000

> <Gold.Chemscore.DEClash>
0.1786

> <Gold.Chemscore.DEInternal>
3.1597

> <Gold.Chemscore.Rot>
2.6144

> <Gold.Chemscore.Internal.Correction>
   9.000000E+99

> <Gold.Chemscore.Hbonds>
donor molecule, donor type, donor heavy atom, donor atom, acceptor molecule, acceptor atom, score
      L1  H     1    29       P1 10175  0.89
      P1  H  7997  8009       L1    12  0.75

> <Gold.Chemscore.Hbond.Weighted>
-6.4737

> <Gold.Chemscore.Metal.Weighted>
-0.0000

> <Gold.Chemscore.Lipo.Weighted>
-12.1047

> <Gold.Chemscore.Internal_Hbond.Weighted>
0.0000

> <Gold.Chemscore.DEClash.Weighted>
0.1786

> <Gold.Chemscore.DEInternal.Weighted>
3.1597

> <Gold.Chemscore.Rot.Weighted>
6.6929

> <Gold.Chemscore.Internal.Correction.Weighted>
   9.000000E+99

> <Gold.Protein.RotatedTorsions>
[ 6907 6896 6895 6894 ] final  -24.92 input  -60.11 | X-H torsion
[ 7974 7965 7964 7962 ] final  120.55 input  175.53 | X-H torsion
[ 8008 7997 7996 7995 ] final  144.67 input   59.86 | X-H torsion
[ 10167 10162 10161 10158 ] final   59.56 input  -65.29 | X-H torsion
[ 10718 10713 10712 10709 ] final  106.31 input   66.30 | X-H torsion
[ 10763 10752 10751 10750 ] final  120.47 input  -60.55 | X-H torsion
[ 11005 11000 10999 10996 ] final   50.70 input  -57.11 | X-H torsion

> <Gold.Protein.ActiveResidues>
 VAL166  LYS551  ARG553  GLY616  TRP617  ASP618  TYR619  PRO620  LYS621  CYS622 
 ASP623  PHE694  ASN695  SER759  ASP760  ASP761  ALA762  ILE779  LEU786  VAL792 
 PHE793  MET794  SER795  GLU796  ALA797  LYS798  CYS799  TRP800  GLU811  SER814 

> <Gold.Protein.RotatedAtoms>
  151.1825  135.0367  159.8798 H   0  0  0  0  0  0  0  0  0  0  0  0  # atno 6907 bound_to 6896
  152.5444  134.1046  159.8343 H   0  0  0  0  0  0  0  0  0  0  0  0  # atno 6908 bound_to 6896
  151.1165  133.5088  159.2636 H   0  0  0  0  0  0  0  0  0  0  0  0  # atno 6909 bound_to 6896
  145.1299  139.3334  143.4670 H   0  0  0  0  0  0  0  0  0  0  0  0  # atno 7974 bound_to 7965
  156.2902  140.2229  156.5090 H   0  0  0  0  0  0  0  0  0  0  0  0  # atno 8008 bound_to 7997
  154.7625  140.0472  157.1006 H   0  0  0  0  0  0  0  0  0  0  0  0  # atno 8009 bound_to 7997
  154.9974  140.3097  155.4884 H   0  0  0  0  0  0  0  0  0  0  0  0  # atno 8010 bound_to 7997
  140.1751  144.4238  150.6642 H   0  0  0  0  0  0  0  0  0  0  0  0  # atno 10167 bound_to 10162
  157.6673  131.0848  150.5987 H   0  0  0  0  0  0  0  0  0  0  0  0  # atno 10718 bound_to 10713
  153.5990  135.3451  155.2938 H   0  0  0  0  0  0  0  0  0  0  0  0  # atno 10763 bound_to 10752
  154.8639  135.4223  154.2433 H   0  0  0  0  0  0  0  0  0  0  0  0  # atno 10764 bound_to 10752
  153.3257  135.7041  153.7062 H   0  0  0  0  0  0  0  0  0  0  0  0  # atno 10765 bound_to 10752
  140.0995  134.5100  155.8776 H   0  0  0  0  0  0  0  0  0  0  0  0  # atno 11005 bound_to 11000
  146.3515  140.1293  142.8597 LP  0  0  0  0  0  0  0  0  0  0  0  0  # atno 17320 bound_to 7965
  145.0647  140.9113  143.4918 LP  0  0  0  0  0  0  0  0  0  0  0  0  # atno 17321 bound_to 7965
  140.6556  143.2237  151.5975 LP  0  0  0  0  0  0  0  0  0  0  0  0  # atno 17342 bound_to 10162
  139.5321  144.2887  152.1170 LP  0  0  0  0  0  0  0  0  0  0  0  0  # atno 17343 bound_to 10162
  156.6288  130.4426  149.5794 LP  0  0  0  0  0  0  0  0  0  0  0  0  # atno 17370 bound_to 10713
  156.2298  130.6788  151.1452 LP  0  0  0  0  0  0  0  0  0  0  0  0  # atno 17371 bound_to 10713
  141.2101  133.6691  156.6489 LP  0  0  0  0  0  0  0  0  0  0  0  0  # atno 17394 bound_to 11000
  140.3240  134.7984  157.4274 LP  0  0  0  0  0  0  0  0  0  0  0  0  # atno 17395 bound_to 11000

$$$$
