AV-unprocessed.smi:1010|AV-procd|sdf|4417|dock5
  -GOLD-   22720 2363D 1   1.00000     0.00000
 Structure written by MMmdl.
 54 56  0  0  0  0  0  0  0  0  1 V2000
  149.3909  135.7993  155.9815 C   0  0  0  0  0  0  0  0  0  0  0  0
  150.3610  136.8741  155.7672 N   0  0  0  0  0  0  0  0  0  0  0  0
  151.3760  136.3629  154.8441 C   0  0  0  0  0  0  0  0  0  0  0  0
  149.8134  138.2169  155.4214 C   0  0  0  0  0  0  0  0  0  0  0  0
  151.0197  139.1693  155.1455 C   0  0  0  0  0  0  0  0  0  0  0  0
  151.4949  139.8273  156.3582 N   0  0  0  0  0  0  0  0  0  0  0  0
  151.1526  141.0637  156.7379 C   0  0  0  0  0  0  0  0  0  0  0  0
  150.3755  141.7785  156.1050 O   0  0  0  0  0  0  0  0  0  0  0  0
  151.7826  141.4100  157.8723 N   0  0  0  0  0  0  0  0  0  0  0  0
  151.7329  142.6496  158.5701 C   0  0  0  0  0  0  0  0  0  0  0  0
  151.0421  143.7706  158.0477 C   0  0  0  0  0  0  0  0  0  0  0  0
  151.0416  144.9778  158.7673 C   0  0  0  0  0  0  0  0  0  0  0  0
  151.7306  145.0221  159.9903 C   0  0  0  0  0  0  0  0  0  0  0  0
  152.3751  143.9593  160.5115 N   0  0  0  0  0  0  0  0  0  0  0  0
  152.3725  142.7829  159.8367 C   0  0  0  0  0  0  0  0  0  0  0  0
  153.0506  141.7000  160.4430 N   0  0  0  0  0  0  0  0  0  0  0  0
  154.1050  140.9904  159.7265 C   0  0  0  0  0  0  0  0  0  0  0  0
  154.8288  140.1752  160.7941 C   0  0  0  0  0  0  0  0  0  0  0  0
  154.7631  141.0970  162.0081 C   0  0  0  0  0  0  0  0  0  0  0  0
  153.4142  141.8076  161.8526 C   0  0  0  0  0  0  0  0  0  0  0  0
  148.8865  138.1523  154.1755 C   0  0  0  0  0  0  0  0  0  0  0  0
  148.1283  139.4724  153.9337 C   0  0  0  0  0  0  0  0  0  0  0  0
  147.3905  139.8445  155.0907 O   0  0  0  0  0  0  0  0  0  0  0  0
  148.2159  140.0777  156.2248 C   0  0  0  0  0  0  0  0  0  0  0  0
  148.9576  138.7810  156.5967 C   0  0  0  0  0  0  0  0  0  0  0  0
  148.7531  135.9930  156.8424 H   0  0  0  0  0  0  0  0  0  0  0  0
  149.9026  134.8616  156.2014 H   0  0  0  0  0  0  0  0  0  0  0  0
  148.7625  135.6323  155.1071 H   0  0  0  0  0  0  0  0  0  0  0  0
  152.2076  137.0516  154.7123 H   0  0  0  0  0  0  0  0  0  0  0  0
  150.9529  136.1395  153.8646 H   0  0  0  0  0  0  0  0  0  0  0  0
  151.8072  135.4394  155.2319 H   0  0  0  0  0  0  0  0  0  0  0  0
  151.8477  138.6396  154.6747 H   0  0  0  0  0  0  0  0  0  0  0  0
  150.7545  139.9460  154.4300 H   0  0  0  0  0  0  0  0  0  0  0  0
  152.1464  139.3099  156.9302 H   0  0  0  0  0  0  0  0  0  0  0  0
  152.4615  140.7486  158.2192 H   0  0  0  0  0  0  0  0  0  0  0  0
  150.5070  143.7229  157.1117 H   0  0  0  0  0  0  0  0  0  0  0  0
  150.5271  145.8486  158.3888 H   0  0  0  0  0  0  0  0  0  0  0  0
  151.7587  145.9324  160.5704 H   0  0  0  0  0  0  0  0  0  0  0  0
  153.6937  140.3557  158.9412 H   0  0  0  0  0  0  0  0  0  0  0  0
  154.8041  141.6930  159.2710 H   0  0  0  0  0  0  0  0  0  0  0  0
  154.2813  139.2534  160.9958 H   0  0  0  0  0  0  0  0  0  0  0  0
  155.8479  139.9117  160.5104 H   0  0  0  0  0  0  0  0  0  0  0  0
  154.8532  140.5628  162.9542 H   0  0  0  0  0  0  0  0  0  0  0  0
  155.5714  141.8277  161.9562 H   0  0  0  0  0  0  0  0  0  0  0  0
  153.4690  142.8449  162.1857 H   0  0  0  0  0  0  0  0  0  0  0  0
  152.6580  141.2986  162.4504 H   0  0  0  0  0  0  0  0  0  0  0  0
  149.4550  137.9064  153.2784 H   0  0  0  0  0  0  0  0  0  0  0  0
  148.1449  137.3626  154.2926 H   0  0  0  0  0  0  0  0  0  0  0  0
  148.8064  140.2766  153.6464 H   0  0  0  0  0  0  0  0  0  0  0  0
  147.4303  139.3487  153.1055 H   0  0  0  0  0  0  0  0  0  0  0  0
  148.8990  140.9064  156.0389 H   0  0  0  0  0  0  0  0  0  0  0  0
  147.5796  140.3870  157.0541 H   0  0  0  0  0  0  0  0  0  0  0  0
  148.1725  138.0827  156.8808 H   0  0  0  0  0  0  0  0  0  0  0  0
  149.5647  138.9366  157.4890 H   0  0  0  0  0  0  0  0  0  0  0  0
  1  2  1  0  0  0  0
  1 26  1  0  0  0  0
  1 27  1  0  0  0  0
  1 28  1  0  0  0  0
  2  3  1  0  0  0  0
  2  4  1  0  0  0  0
  3 29  1  0  0  0  0
  3 30  1  0  0  0  0
  3 31  1  0  0  0  0
  4 25  1  0  0  0  0
  4  5  1  0  0  0  0
  4 21  1  0  0  0  0
  5  6  1  0  0  0  0
  5 32  1  0  0  0  0
  5 33  1  0  0  0  0
  6  7  1  0  0  0  0
  6 34  1  0  0  0  0
  7  8  2  0  0  0  0
  7  9  1  0  0  0  0
  9 10  1  0  0  0  0
  9 35  1  0  0  0  0
 10 15  1  0  0  0  0
 10 11  2  0  0  0  0
 11 12  1  0  0  0  0
 11 36  1  0  0  0  0
 12 13  2  0  0  0  0
 12 37  1  0  0  0  0
 13 14  1  0  0  0  0
 13 38  1  0  0  0  0
 14 15  2  0  0  0  0
 15 16  1  0  0  0  0
 16 20  1  0  0  0  0
 16 17  1  0  0  0  0
 17 18  1  0  0  0  0
 17 39  1  0  0  0  0
 17 40  1  0  0  0  0
 18 19  1  0  0  0  0
 18 41  1  0  0  0  0
 18 42  1  0  0  0  0
 19 20  1  0  0  0  0
 19 43  1  0  0  0  0
 19 44  1  0  0  0  0
 20 45  1  0  0  0  0
 20 46  1  0  0  0  0
 21 22  1  0  0  0  0
 21 47  1  0  0  0  0
 21 48  1  0  0  0  0
 22 23  1  0  0  0  0
 22 49  1  0  0  0  0
 22 50  1  0  0  0  0
 23 24  1  0  0  0  0
 24 25  1  0  0  0  0
 24 51  1  0  0  0  0
 24 52  1  0  0  0  0
 25 53  1  0  0  0  0
 25 54  1  0  0  0  0
M  END
> <s_m_source_file>
AV-unprocessed.smi

> <i_m_source_file_index>
1010

> <i_lp_mmshare_version>
43012

> <i_f3d_flags>
0

> <s_epik_input>
W0NIMl0xW0NIMl1PW0NIMl1bQ0gyXUMxKE4oW0NIM10pW0NIM10pW0NIMl1bTkhdQyg9TylbTkhdYzJbY0hdW2NIXVtjSF1uYzJOM1tDSDJdW0NIMl1bQ0gyXVtDSDJdMw==

> <s_epik_cmdline>
J2VwaWtfcHl0aG9uJywgJy1waCcsICc3LjAnLCAnLXRuJywgJzgnLCAnLW1hJywgJzIwMCcsICctbWV0YWxfYmluZGluZycsICctaW1hZScsICc8aW5maWxlLm1hZT4nLCAnLW9tYWUnLCAnPG91dGZpbGUubWFlPic=

> <r_lp_tautomer_probability>
1

> <r_epik_Ionization_Penalty>
2.38232

> <r_epik_Ionization_Penalty_Charging>
0

> <r_epik_Ionization_Penalty_Neutral>
2.38232

> <r_epik_State_Penalty>
2.49988

> <r_epik_Charging_Adjusted_Penalty>
2.49988

> <i_epik_Tot_Q>
0

> <i_epik_Tot_abs_Q>
0

> <r_epik_Metal_State_Penalty>
2.47138

> <b_epik_Metal_Only>
0

> <s_lp_Force_Field>
OPLS_2005

> <r_lp_Energy>
56.3274

> <b_lp_Chiralities_Consistent>
1

> <s_lp_Variant>
AV-unprocessed.smi:1010-3

> <Gold.Version>
5.8.1

> <Gold.Id.Protein>
6NUR|6NUR_protein|mol2

> <Gold.PLP.Fitness>
39.7188

> <Gold.PLP.PLP>
-41.3202

> <Gold.PLP.part.hbond>
0.0000

> <Gold.PLP.part.metal>
0.0000

> <Gold.PLP.part.buried>
-2.8566

> <Gold.PLP.part.nonpolar>
-39.8337

> <Gold.PLP.part.repulsive>
1.9756

> <Gold.PLP.ligand.clash>
0.0000

> <Gold.PLP.ligand.torsion>
1.0029

> <Gold.PLP.Chemscore.Hbond>
0.0000

> <Gold.PLP.Chemscore.CHOScore>
0.0000

> <Gold.PLP.Chemscore.Metal>
0.0000

> <Gold.PLP.Chemscore.Internal.Correction>
0.4045

> <Gold.Rescore>
     Score         DG    S(hbond)    S(metal)    S(lipo)     H(rot)  DE(clash)    DE(int)     intcor
     10.33     -15.67       0.00        0.00     120.69       1.54       2.83       2.51       ----

> <Gold.Chemscore.Fitness>
10.3314

> <Gold.Chemscore.DG>
-15.6685

> <Gold.Chemscore.ZeroCoef>
-5.4800

> <Gold.Chemscore.Hbond>
0.0000

> <Gold.Chemscore.Metal>
0.0000

> <Gold.Chemscore.Lipo>
120.6928

> <Gold.Chemscore.Internal_Hbond>
0.0000

> <Gold.Chemscore.DEClash>
2.8319

> <Gold.Chemscore.DEInternal>
2.5052

> <Gold.Chemscore.Rot>
1.5362

> <Gold.Chemscore.Internal.Correction>
   9.000000E+99

> <Gold.Chemscore.Hbond.Weighted>
-0.0000

> <Gold.Chemscore.Metal.Weighted>
-0.0000

> <Gold.Chemscore.Lipo.Weighted>
-14.1211

> <Gold.Chemscore.Internal_Hbond.Weighted>
0.0000

> <Gold.Chemscore.DEClash.Weighted>
2.8319

> <Gold.Chemscore.DEInternal.Weighted>
2.5052

> <Gold.Chemscore.Rot.Weighted>
3.9326

> <Gold.Chemscore.Internal.Correction.Weighted>
   9.000000E+99

> <Gold.Protein.RotatedTorsions>
[ 6907 6896 6895 6894 ] final   97.35 input  -60.11 | X-H torsion
[ 7974 7965 7964 7962 ] final  -46.71 input  175.53 | X-H torsion
[ 8008 7997 7996 7995 ] final  -60.49 input   59.86 | X-H torsion
[ 10167 10162 10161 10158 ] final  127.04 input  -65.29 | X-H torsion
[ 10718 10713 10712 10709 ] final  -96.74 input   66.30 | X-H torsion
[ 10763 10752 10751 10750 ] final  177.32 input  -60.55 | X-H torsion
[ 11005 11000 10999 10996 ] final -149.35 input  -57.11 | X-H torsion

> <Gold.Protein.ActiveResidues>
 VAL166  LYS551  ARG553  GLY616  TRP617  ASP618  TYR619  PRO620  LYS621  CYS622 
 ASP623  PHE694  ASN695  SER759  ASP760  ASP761  ALA762  ILE779  LEU786  VAL792 
 PHE793  MET794  SER795  GLU796  ALA797  LYS798  CYS799  TRP800  GLU811  SER814 

> <Gold.Protein.RotatedAtoms>
  152.5424  134.0746  159.8208 H   0  0  0  0  0  0  0  0  0  0  0  0  # atno 6907 bound_to 6896
  151.0856  133.5348  159.2625 H   0  0  0  0  0  0  0  0  0  0  0  0  # atno 6908 bound_to 6896
  151.2159  135.0508  159.8984 H   0  0  0  0  0  0  0  0  0  0  0  0  # atno 6909 bound_to 6896
  145.9691  140.7402  142.9419 H   0  0  0  0  0  0  0  0  0  0  0  0  # atno 7974 bound_to 7965
  154.4401  140.1038  156.6282 H   0  0  0  0  0  0  0  0  0  0  0  0  # atno 8008 bound_to 7997
  155.5634  140.3488  155.4478 H   0  0  0  0  0  0  0  0  0  0  0  0  # atno 8009 bound_to 7997
  156.0443  140.1289  157.0110 H   0  0  0  0  0  0  0  0  0  0  0  0  # atno 8010 bound_to 7997
  139.5599  144.6874  151.4073 H   0  0  0  0  0  0  0  0  0  0  0  0  # atno 10167 bound_to 10162
  156.0068  130.5164  150.6271 H   0  0  0  0  0  0  0  0  0  0  0  0  # atno 10718 bound_to 10713
  154.4930  135.2780  155.1482 H   0  0  0  0  0  0  0  0  0  0  0  0  # atno 10763 bound_to 10752
  154.3146  135.6222  153.5484 H   0  0  0  0  0  0  0  0  0  0  0  0  # atno 10764 bound_to 10752
  152.9891  135.5728  154.5355 H   0  0  0  0  0  0  0  0  0  0  0  0  # atno 10765 bound_to 10752
  140.7516  134.3400  157.5124 H   0  0  0  0  0  0  0  0  0  0  0  0  # atno 11005 bound_to 11000
  144.6832  140.2718  143.7305 LP  0  0  0  0  0  0  0  0  0  0  0  0  # atno 17320 bound_to 7965
  145.7932  139.1935  143.2091 LP  0  0  0  0  0  0  0  0  0  0  0  0  # atno 17321 bound_to 7965
  140.6877  143.7934  150.7210 LP  0  0  0  0  0  0  0  0  0  0  0  0  # atno 17342 bound_to 10162
  140.1407  143.4444  152.2195 LP  0  0  0  0  0  0  0  0  0  0  0  0  # atno 17343 bound_to 10162
  157.4076  131.0819  151.1251 LP  0  0  0  0  0  0  0  0  0  0  0  0  # atno 17370 bound_to 10713
  157.1893  130.6344  149.5698 LP  0  0  0  0  0  0  0  0  0  0  0  0  # atno 17371 bound_to 10713
  139.8786  134.9146  156.3110 LP  0  0  0  0  0  0  0  0  0  0  0  0  # atno 17394 bound_to 11000
  140.9745  133.7306  156.0583 LP  0  0  0  0  0  0  0  0  0  0  0  0  # atno 17395 bound_to 11000

$$$$
