AV-unprocessed.smi:992|AV-procd|sdf|4334|dock4
  -GOLD-   22720 2233D 1   1.00000     0.00000
 Structure written by MMmdl.
 33 34  0  0  0  0  0  0  0  0  2 V2000
  151.2325  145.0366  158.7609 C   0  0  0  0  0  0  0  0  0  0  0  0
  150.7274  143.6958  159.3227 C   0  0  1  0  0  0  0  0  0  0  0  0
  150.1973  142.7329  158.2411 C   0  0  0  0  0  0  0  0  0  0  0  0
  151.2975  142.1439  157.4891 N   0  0  0  0  0  0  0  0  0  0  0  0
  150.8667  141.3436  156.4230 C   0  0  0  0  0  0  0  0  0  0  0  0
  151.2495  139.9916  156.2572 C   0  0  0  0  0  0  0  0  0  0  0  0
  150.7648  139.2669  155.1485 C   0  0  0  0  0  0  0  0  0  0  0  0
  149.9075  139.9049  154.2276 C   0  0  0  0  0  0  0  0  0  0  0  0
  149.4156  139.2138  153.1220 N   0  0  0  0  0  0  0  0  0  0  0  0
  149.5555  141.2533  154.4417 C   0  0  0  0  0  0  0  0  0  0  0  0
  150.0410  141.9124  155.5164 N   0  3  0  0  0  0  0  0  0  0  0  0
  152.2696  141.4865  158.3508 C   0  0  0  0  0  0  0  0  0  0  0  0
  152.8089  142.4841  159.3911 C   0  0  2  0  0  0  0  0  0  0  0  0
  153.7574  141.8133  160.3901 C   0  0  0  0  0  0  0  0  0  0  0  0
  151.7158  143.0404  160.1222 O   0  0  0  0  0  0  0  0  0  0  0  0
  150.4263  145.5743  158.2613 H   0  0  0  0  0  0  0  0  0  0  0  0
  152.0337  144.9073  158.0338 H   0  0  0  0  0  0  0  0  0  0  0  0
  151.6069  145.6756  159.5610 H   0  0  0  0  0  0  0  0  0  0  0  0
  149.8996  143.9285  159.9931 H   0  0  0  0  0  0  0  0  0  0  0  0
  149.6228  141.9365  158.7165 H   0  0  0  0  0  0  0  0  0  0  0  0
  149.5179  143.2562  157.5668 H   0  0  0  0  0  0  0  0  0  0  0  0
  151.9057  139.5110  156.9679 H   0  0  0  0  0  0  0  0  0  0  0  0
  151.0502  138.2342  155.0099 H   0  0  0  0  0  0  0  0  0  0  0  0
  149.6571  138.2476  152.9519 H   0  0  0  0  0  0  0  0  0  0  0  0
  148.7657  139.6404  152.4769 H   0  0  0  0  0  0  0  0  0  0  0  0
  148.9061  141.8233  153.7927 H   0  0  0  0  0  0  0  0  0  0  0  0
  151.8025  140.6395  158.8550 H   0  0  0  0  0  0  0  0  0  0  0  0
  153.0891  141.0922  157.7483 H   0  0  0  0  0  0  0  0  0  0  0  0
  153.3576  143.2797  158.8865 H   0  0  0  0  0  0  0  0  0  0  0  0
  154.6172  141.3759  159.8819 H   0  0  0  0  0  0  0  0  0  0  0  0
  153.2539  141.0186  160.9413 H   0  0  0  0  0  0  0  0  0  0  0  0
  154.1327  142.5354  161.1158 H   0  0  0  0  0  0  0  0  0  0  0  0
  149.7725  142.8878  155.6487 H   0  0  0  0  0  0  0  0  0  0  0  0
  1  2  1  0  0  0  0
  1 16  1  0  0  0  0
  1 17  1  0  0  0  0
  1 18  1  0  0  0  0
  2 15  1  0  0  0  0
  2  3  1  0  0  0  0
  2 19  1  0  0  0  0
  3  4  1  0  0  0  0
  3 20  1  0  0  0  0
  3 21  1  0  0  0  0
  4  5  1  0  0  0  0
  4 12  1  0  0  0  0
  5 11  1  0  0  0  0
  5  6  2  0  0  0  0
  6  7  1  0  0  0  0
  6 22  1  0  0  0  0
  7  8  2  0  0  0  0
  7 23  1  0  0  0  0
  8  9  1  0  0  0  0
  8 10  1  0  0  0  0
  9 24  1  0  0  0  0
  9 25  1  0  0  0  0
 10 11  2  0  0  0  0
 10 26  1  0  0  0  0
 11 33  1  0  0  0  0
 12 13  1  0  0  0  0
 12 27  1  0  0  0  0
 12 28  1  0  0  0  0
 13 14  1  0  0  0  0
 13 15  1  0  0  0  0
 13 29  1  0  0  0  0
 14 30  1  0  0  0  0
 14 31  1  0  0  0  0
 14 32  1  0  0  0  0
M  CHG  1  11   1
M  END
> <s_m_source_file>
AV-unprocessed.smi

> <i_m_source_file_index>
992

> <i_lp_mmshare_version>
43012

> <i_f3d_flags>
0

> <s_epik_input>
W0NIM11bQ0BASF0xW0NIMl1OKFtDSDJdW0NASF0oTzEpW0NIM10pYzJbY0hdW2NIXWMoW05IMl0pW2NIXW4y

> <s_epik_cmdline>
J2VwaWtfcHl0aG9uJywgJy1waCcsICc3LjAnLCAnLXRuJywgJzgnLCAnLW1hJywgJzIwMCcsICctbWV0YWxfYmluZGluZycsICctaW1hZScsICc8aW5maWxlLm1hZT4nLCAnLW9tYWUnLCAnPG91dGZpbGUubWFlPic=

> <r_lp_tautomer_probability>
0.999846

> <r_epik_Ionization_Penalty>
2.28753

> <r_epik_Ionization_Penalty_Charging>
2.28753

> <r_epik_Ionization_Penalty_Neutral>
1.09395e-07

> <r_epik_State_Penalty>
2.43729

> <r_epik_Charging_Adjusted_Penalty>
4.72482

> <i_epik_Tot_Q>
1

> <i_epik_Tot_abs_Q>
1

> <r_epik_Metal_State_Penalty>
6.52028

> <b_epik_Metal_Only>
0

> <s_lp_Force_Field>
OPLS_2005

> <r_lp_Energy>
28.0905

> <b_lp_Chiralities_Consistent>
1

> <s_lp_Variant>
AV-unprocessed.smi:992-6

> <Gold.Version>
5.8.1

> <Gold.Id.Protein>
6NUR|6NUR_protein|mol2

> <Gold.PLP.Fitness>
40.0342

> <Gold.PLP.PLP>
-32.9319

> <Gold.PLP.part.hbond>
-1.9393

> <Gold.PLP.part.metal>
0.0000

> <Gold.PLP.part.buried>
-4.4929

> <Gold.PLP.part.nonpolar>
-26.7110

> <Gold.PLP.part.repulsive>
0.3530

> <Gold.PLP.ligand.clash>
0.0000

> <Gold.PLP.ligand.torsion>
0.0454

> <Gold.PLP.Chemscore.Hbond>
2.3674

> <Gold.PLP.Chemscore.CHOScore>
0.0000

> <Gold.PLP.Chemscore.Metal>
0.0000

> <Gold.Chemscore.Hbonds>
donor molecule, donor type, donor heavy atom, donor atom, acceptor molecule, acceptor atom, score
      L1  H     9    24       P1  7948  0.17
      L1  H     9    25       P1  7957  0.14
      L1  H    11    33       P1  8028  1.98

> <Gold.PLP.Chemscore.Internal.Correction>
0.0908

> <Gold.Rescore>
     Score         DG    S(hbond)    S(metal)    S(lipo)     H(rot)  DE(clash)    DE(int)     intcor
     17.88     -18.33       1.64        0.00      84.88       1.00       0.41       0.05       ----

> <Gold.Chemscore.Fitness>
17.8814

> <Gold.Chemscore.DG>
-18.3336

> <Gold.Chemscore.ZeroCoef>
-5.4800

> <Gold.Chemscore.Hbond>
1.6416

> <Gold.Chemscore.Metal>
0.0000

> <Gold.Chemscore.Lipo>
84.8788

> <Gold.Chemscore.Internal_Hbond>
0.0000

> <Gold.Chemscore.DEClash>
0.4051

> <Gold.Chemscore.DEInternal>
0.0472

> <Gold.Chemscore.Rot>
1.0000

> <Gold.Chemscore.Internal.Correction>
   9.000000E+99

> <Gold.Chemscore.Hbonds>
donor molecule, donor type, donor heavy atom, donor atom, acceptor molecule, acceptor atom, score
      L1  H     9    24       P1  7948  0.14
      L1  H     9    25       P1  7957  0.15
      L1  H    11    33       P1  8028  0.92

> <Gold.Chemscore.Hbond.Weighted>
-5.4828

> <Gold.Chemscore.Metal.Weighted>
-0.0000

> <Gold.Chemscore.Lipo.Weighted>
-9.9308

> <Gold.Chemscore.Internal_Hbond.Weighted>
0.0000

> <Gold.Chemscore.DEClash.Weighted>
0.4051

> <Gold.Chemscore.DEInternal.Weighted>
0.0472

> <Gold.Chemscore.Rot.Weighted>
2.5600

> <Gold.Chemscore.Internal.Correction.Weighted>
   9.000000E+99

> <Gold.Protein.RotatedTorsions>
[ 6907 6896 6895 6894 ] final   15.38 input  -60.11 | X-H torsion
[ 7974 7965 7964 7962 ] final   20.45 input  175.53 | X-H torsion
[ 8008 7997 7996 7995 ] final  -85.62 input   59.86 | X-H torsion
[ 10167 10162 10161 10158 ] final  -82.86 input  -65.29 | X-H torsion
[ 10718 10713 10712 10709 ] final -179.53 input   66.30 | X-H torsion
[ 10763 10752 10751 10750 ] final  -39.22 input  -60.55 | X-H torsion
[ 11005 11000 10999 10996 ] final  -52.46 input  -57.11 | X-H torsion

> <Gold.Protein.ActiveResidues>
 VAL166  LYS551  ARG553  GLY616  TRP617  ASP618  TYR619  PRO620  LYS621  CYS622 
 ASP623  PHE694  ASN695  SER759  ASP760  ASP761  ALA762  ILE779  LEU786  VAL792 
 PHE793  MET794  SER795  GLU796  ALA797  LYS798  CYS799  TRP800  GLU811  SER814 

> <Gold.Protein.RotatedAtoms>
  151.8171  135.0663  160.0420 H   0  0  0  0  0  0  0  0  0  0  0  0  # atno 6907 bound_to 6896
  152.2978  133.5620  159.5607 H   0  0  0  0  0  0  0  0  0  0  0  0  # atno 6908 bound_to 6896
  150.7259  134.0251  159.3756 H   0  0  0  0  0  0  0  0  0  0  0  0  # atno 6909 bound_to 6896
  146.2111  139.8167  142.8688 H   0  0  0  0  0  0  0  0  0  0  0  0  # atno 7974 bound_to 7965
  154.6428  140.0589  156.9865 H   0  0  0  0  0  0  0  0  0  0  0  0  # atno 8008 bound_to 7997
  155.1491  140.3272  155.4417 H   0  0  0  0  0  0  0  0  0  0  0  0  # atno 8009 bound_to 7997
  156.2539  140.1950  156.6603 H   0  0  0  0  0  0  0  0  0  0  0  0  # atno 8010 bound_to 7997
  140.4281  143.2559  151.8798 H   0  0  0  0  0  0  0  0  0  0  0  0  # atno 10167 bound_to 10162
  156.8604  130.9749  151.3084 H   0  0  0  0  0  0  0  0  0  0  0  0  # atno 10718 bound_to 10713
  153.9257  135.6777  153.4746 H   0  0  0  0  0  0  0  0  0  0  0  0  # atno 10763 bound_to 10752
  153.1005  135.4830  154.8855 H   0  0  0  0  0  0  0  0  0  0  0  0  # atno 10764 bound_to 10752
  154.7454  135.3171  154.8610 H   0  0  0  0  0  0  0  0  0  0  0  0  # atno 10765 bound_to 10752
  141.0925  133.6630  156.4027 H   0  0  0  0  0  0  0  0  0  0  0  0  # atno 11005 bound_to 11000
  145.3139  141.0227  143.3539 LP  0  0  0  0  0  0  0  0  0  0  0  0  # atno 17320 bound_to 7965
  144.8916  139.4767  143.6675 LP  0  0  0  0  0  0  0  0  0  0  0  0  # atno 17321 bound_to 7965
  139.4784  144.5365  151.8591 LP  0  0  0  0  0  0  0  0  0  0  0  0  # atno 17342 bound_to 10162
  140.4459  144.1923  150.5894 LP  0  0  0  0  0  0  0  0  0  0  0  0  # atno 17343 bound_to 10162
  157.6253  130.8687  149.9179 LP  0  0  0  0  0  0  0  0  0  0  0  0  # atno 17370 bound_to 10713
  156.0780  130.3676  150.0639 LP  0  0  0  0  0  0  0  0  0  0  0  0  # atno 17371 bound_to 10713
  140.5218  134.6297  157.5320 LP  0  0  0  0  0  0  0  0  0  0  0  0  # atno 17394 bound_to 11000
  139.9754  134.7224  155.9959 LP  0  0  0  0  0  0  0  0  0  0  0  0  # atno 17395 bound_to 11000

$$$$
