#       Name:                AV-unprocessed.smi:2026
#       Creating user name   scv26
#       Creation time:       Fri Mar 27 10:45:55 2020


#       File generated by GOLD software.
#

@<TRIPOS>MOLECULE
AV-unprocessed.smi:2026
    53    55     1
SMALL
NO_CHARGES


@<TRIPOS>ATOM
      1 ****        -1.8709   4.8315   1.7937 C.3            1 S1                 0.0000
      2 ****        -1.5504   3.7456   0.7821 C.ar           1 S1                 0.0000
      3 ****        -1.7776   3.9959  -0.5907 C.ar           1 S1                 0.0000
      4 ****        -1.4895   3.0131  -1.5634 C.ar           1 S1                 0.0000
      5 ****        -1.6277   3.0387  -2.9413 N.2            1 S1                 0.0000
      6 ****        -1.1909   1.8276  -3.2781 C.2            1 S1                 0.0000
      7 ****        -0.7872   1.0204  -2.2787 N.pl3          1 S1                 0.0000
      8 ****        -0.2804  -0.3342  -2.3794 C.3            1 S1                 0.0000
      9 ****         1.2491  -0.3920  -2.1895 C.3            1 S1                 0.0000
     10 ****         1.8826   0.2320  -3.2878 O.3            1 S1                 0.0000
     11 ****         1.8060  -1.8237  -2.0446 C.3            1 S1                 0.0000
     12 ****         1.3168  -2.4929  -0.8325 N.am           1 S1                 0.0000
     13 ****         0.3835  -3.4618  -0.8190 C.2            1 S1                 0.0000
     14 ****        -0.1892  -3.9412  -1.7963 O.2            1 S1                 0.0000
     15 ****         0.1662  -3.8197   0.4534 N.am           1 S1                 0.0000
     16 ****         0.9727  -3.0699   1.3971 C.3            1 S1                 0.0000
     17 ****         0.0835  -2.2321   2.3339 C.3            1 S1                 0.0000
     18 ****         1.9222  -4.0020   2.1707 C.3            1 S1                 0.0000
     19 ****         1.7263  -2.1943   0.4083 C.2            1 S1                 0.0000
     20 ****         2.5624  -1.3513   0.7338 O.2            1 S1                 0.0000
     21 ****        -0.9665   1.7644  -1.1194 C.ar           1 S1                 0.0000
     22 ****        -0.7371   1.5026   0.2422 C.ar           1 S1                 0.0000
     23 ****        -1.0297   2.4944   1.2006 C.ar           1 S1                 0.0000
     24 ****        -0.7756   2.2006   2.6687 C.3            1 S1                 0.0000
     25 ****        -2.1875   5.7523   1.3032 H              1 S1                 0.0000
     26 ****        -0.9948   5.0620   2.4002 H              1 S1                 0.0000
     27 ****        -2.6752   4.5086   2.4551 H              1 S1                 0.0000
     28 ****        -2.1753   4.9483  -0.9092 H              1 S1                 0.0000
     29 ****        -1.1620   1.5091  -4.3099 H              1 S1                 0.0000
     30 ****        -0.7872  -0.9228  -1.6151 H              1 S1                 0.0000
     31 ****        -0.5707  -0.7582  -3.3416 H              1 S1                 0.0000
     32 ****         1.5229   0.1816  -1.3035 H              1 S1                 0.0000
     33 ****         1.6708  -0.2508  -4.0719 H              1 S1                 0.0000
     34 ****         1.5661  -2.4083  -2.9345 H              1 S1                 0.0000
     35 ****         2.8963  -1.7910  -2.0017 H              1 S1                 0.0000
     36 ****        -0.4949  -4.5270   0.7401 H              1 S1                 0.0000
     37 ****         0.6844  -1.6389   3.0242 H              1 S1                 0.0000
     38 ****        -0.5676  -2.8712   2.9310 H              1 S1                 0.0000
     39 ****        -0.5543  -1.5436   1.7779 H              1 S1                 0.0000
     40 ****         2.5320  -3.4435   2.8819 H              1 S1                 0.0000
     41 ****         2.6004  -4.5347   1.5025 H              1 S1                 0.0000
     42 ****         1.3630  -4.7494   2.7343 H              1 S1                 0.0000
     43 ****        -0.3345   0.5471   0.5440 H              1 S1                 0.0000
     44 ****        -0.4398   1.1733   2.8160 H              1 S1                 0.0000
     45 ****        -1.6857   2.3408   3.2522 H              1 S1                 0.0000
     46 ****        -0.0056   2.8648   3.0615 H              1 S1                 0.0000
     47 ****        -1.9665   3.7738  -3.5285 LP             1 S1                 0.0000
     48 ****         2.8730   0.2326  -3.1497 LP             1 S1                 0.0000
     49 ****         1.5575   1.1737  -3.3738 LP             1 S1                 0.0000
     50 ****         0.0269  -3.6099  -2.7148 LP             1 S1                 0.0000
     51 ****        -0.8709  -4.6623  -1.6724 LP             1 S1                 0.0000
     52 ****         3.0164  -0.8008   0.0332 LP             1 S1                 0.0000
     53 ****         2.7876  -1.2170   1.6988 LP             1 S1                 0.0000
@<TRIPOS>BOND
    1    1    2 1     
    2    1   25 1     
    3    1   26 1     
    4    1   27 1     
    5    2   23 ar    
    6    2    3 ar    
    7    3    4 ar    
    8    3   28 1     
    9    4   21 ar    
   10    4    5 1     
   11    5    6 2     
   12    6    7 1     
   13    6   29 1     
   14    7    8 1     
   15    7   21 1     
   16    8    9 1     
   17    8   30 1     
   18    8   31 1     
   19    9   10 1     
   20    9   11 1     
   21    9   32 1     
   22   10   33 1     
   23   11   12 1     
   24   11   34 1     
   25   11   35 1     
   26   12   19 am    
   27   12   13 am    
   28   13   14 2     
   29   13   15 am    
   30   15   16 1     
   31   15   36 1     
   32   16   17 1     
   33   16   18 1     
   34   16   19 1     
   35   17   37 1     
   36   17   38 1     
   37   17   39 1     
   38   18   40 1     
   39   18   41 1     
   40   18   42 1     
   41   19   20 2     
   42   21   22 ar    
   43   22   23 ar    
   44   22   43 1     
   45   23   24 1     
   46   24   44 1     
   47   24   45 1     
   48   24   46 1     
   49    5   47 1     
   50   10   48 1     
   51   10   49 1     
   52   14   50 1     
   53   14   51 1     
   54   20   52 1     
   55   20   53 1     
@<TRIPOS>SUBSTRUCTURE
      1 S1             1
@<TRIPOS>SET
LONE_PAIRS      STATIC     ATOMS    <user>   **** ""
7 47 48 49 50 51 52 53
DONOR_HYDROGENS      STATIC     ATOMS    <user>   **** ""
2 33 36
ATOM$BLUE        STATIC     ATOMS    COLORGROUP SYSTEM
7 47 48 49 50 51 52 53
ATOM$RED        STATIC     ATOMS    COLORGROUP SYSTEM
2 33 36
