AV-unprocessed.smi:2846|AV-procd|sdf|10951|dock4
  -GOLD-   2272015403D 1   1.00000     0.00000
 Structure written by MMmdl.
 48 50  0  0  0  0  0  0  0  0  1 V2000
  151.9106  138.8014  159.3723 O   0  0  0  0  0  0  0  0  0  0  0  0
  151.8395  139.8075  158.6657 C   0  0  0  0  0  0  0  0  0  0  0  0
  152.8939  140.9123  158.7682 C   0  0  0  0  0  0  0  0  0  0  0  0
  152.4202  142.2480  159.3177 C   0  0  0  0  0  0  0  0  0  0  0  0
  152.7972  142.6981  160.5303 C   0  0  0  0  0  0  0  0  0  0  0  0
  152.3630  144.0294  161.1173 C   0  0  0  0  0  0  0  0  0  0  0  0
  151.7456  144.9605  160.0602 C   0  0  0  0  0  0  0  0  0  0  0  0
  150.7782  144.1971  159.1467 C   0  0  0  0  0  0  0  0  0  0  0  0
  151.4869  143.0438  158.4132 C   0  0  0  0  0  0  0  0  0  0  0  0
  150.8639  140.0109  157.7679 N   0  0  0  0  0  0  0  0  0  0  0  0
  149.7637  139.0913  157.4842 C   0  0  0  0  0  0  0  0  0  0  0  0
  149.4028  139.0147  155.9741 C   0  0  0  0  0  0  0  0  0  0  0  0
  148.0542  139.7075  155.7249 C   0  0  0  0  0  0  0  0  0  0  0  0
  146.9418  138.9668  155.2635 C   0  0  0  0  0  0  0  0  0  0  0  0
  145.7141  139.6290  155.0662 C   0  0  0  0  0  0  0  0  0  0  0  0
  145.5349  140.9452  155.3024 N   0  0  0  0  0  0  0  0  0  0  0  0
  146.5923  141.6512  155.7536 C   0  0  0  0  0  0  0  0  0  0  0  0
  147.8618  141.0853  155.9839 C   0  0  0  0  0  0  0  0  0  0  0  0
  150.5393  139.5681  155.0846 C   0  0  0  0  0  0  0  0  0  0  0  0
  151.5953  138.4628  154.9989 C   0  0  0  0  0  0  0  0  0  0  0  0
  150.8389  137.1493  155.2243 C   0  0  0  0  0  0  0  0  0  0  0  0
  149.3844  137.5411  155.5159 C   0  0  0  0  0  0  0  0  0  0  0  0
  153.6901  140.5398  159.4146 H   0  0  0  0  0  0  0  0  0  0  0  0
  153.3500  141.0721  157.7903 H   0  0  0  0  0  0  0  0  0  0  0  0
  153.4398  142.0910  161.1512 H   0  0  0  0  0  0  0  0  0  0  0  0
  151.6421  143.8282  161.9102 H   0  0  0  0  0  0  0  0  0  0  0  0
  153.2211  144.5143  161.5832 H   0  0  0  0  0  0  0  0  0  0  0  0
  151.2341  145.7909  160.5476 H   0  0  0  0  0  0  0  0  0  0  0  0
  152.5385  145.3996  159.4533 H   0  0  0  0  0  0  0  0  0  0  0  0
  149.9612  143.7964  159.7484 H   0  0  0  0  0  0  0  0  0  0  0  0
  150.3245  144.8747  158.4230 H   0  0  0  0  0  0  0  0  0  0  0  0
  152.0758  143.4352  157.5831 H   0  0  0  0  0  0  0  0  0  0  0  0
  150.7398  142.3760  157.9827 H   0  0  0  0  0  0  0  0  0  0  0  0
  150.8892  140.8650  157.2296 H   0  0  0  0  0  0  0  0  0  0  0  0
  149.9712  138.1014  157.8930 H   0  0  0  0  0  0  0  0  0  0  0  0
  148.9011  139.4587  158.0412 H   0  0  0  0  0  0  0  0  0  0  0  0
  147.0172  137.9079  155.0660 H   0  0  0  0  0  0  0  0  0  0  0  0
  144.8511  139.0841  154.7129 H   0  0  0  0  0  0  0  0  0  0  0  0
  146.4209  142.7004  155.9430 H   0  0  0  0  0  0  0  0  0  0  0  0
  148.6600  141.7078  156.3590 H   0  0  0  0  0  0  0  0  0  0  0  0
  150.1610  139.7364  154.0748 H   0  0  0  0  0  0  0  0  0  0  0  0
  150.9512  140.5166  155.4283 H   0  0  0  0  0  0  0  0  0  0  0  0
  152.1177  138.4784  154.0420 H   0  0  0  0  0  0  0  0  0  0  0  0
  152.3430  138.5987  155.7815 H   0  0  0  0  0  0  0  0  0  0  0  0
  150.9029  136.4902  154.3580 H   0  0  0  0  0  0  0  0  0  0  0  0
  151.2674  136.6149  156.0729 H   0  0  0  0  0  0  0  0  0  0  0  0
  148.9075  136.8710  156.2318 H   0  0  0  0  0  0  0  0  0  0  0  0
  148.8234  137.4601  154.5832 H   0  0  0  0  0  0  0  0  0  0  0  0
  1  2  2  0  0  0  0
  2  3  1  0  0  0  0
  2 10  1  0  0  0  0
  3  4  1  0  0  0  0
  3 23  1  0  0  0  0
  3 24  1  0  0  0  0
  4  9  1  0  0  0  0
  4  5  2  0  0  0  0
  5  6  1  0  0  0  0
  5 25  1  0  0  0  0
  6  7  1  0  0  0  0
  6 26  1  0  0  0  0
  6 27  1  0  0  0  0
  7  8  1  0  0  0  0
  7 28  1  0  0  0  0
  7 29  1  0  0  0  0
  8  9  1  0  0  0  0
  8 30  1  0  0  0  0
  8 31  1  0  0  0  0
  9 32  1  0  0  0  0
  9 33  1  0  0  0  0
 10 11  1  0  0  0  0
 10 34  1  0  0  0  0
 11 12  1  0  0  0  0
 11 35  1  0  0  0  0
 11 36  1  0  0  0  0
 12 22  1  0  0  0  0
 12 13  1  0  0  0  0
 12 19  1  0  0  0  0
 13 18  1  0  0  0  0
 13 14  2  0  0  0  0
 14 15  1  0  0  0  0
 14 37  1  0  0  0  0
 15 16  2  0  0  0  0
 15 38  1  0  0  0  0
 16 17  1  0  0  0  0
 17 18  2  0  0  0  0
 17 39  1  0  0  0  0
 18 40  1  0  0  0  0
 19 20  1  0  0  0  0
 19 41  1  0  0  0  0
 19 42  1  0  0  0  0
 20 21  1  0  0  0  0
 20 43  1  0  0  0  0
 20 44  1  0  0  0  0
 21 22  1  0  0  0  0
 21 45  1  0  0  0  0
 21 46  1  0  0  0  0
 22 47  1  0  0  0  0
 22 48  1  0  0  0  0
M  END
> <s_m_source_file>
AV-unprocessed.smi

> <i_m_source_file_index>
2846

> <i_lp_mmshare_version>
43012

> <i_f3d_flags>
0

> <s_epik_input>
W0NIMl0xW0NIMl1bQ0gyXVtDSDJdW0NIXT1DMVtDSDJdQyg9TylbTkhdW0NIMl1DMihbQ0gyXVtDSDJdW0NIMl1bQ0gyXTIpYzNbY0hdW2NIXW5bY0hdW2NIXTM=

> <s_epik_cmdline>
J2VwaWtfcHl0aG9uJywgJy1waCcsICc3LjAnLCAnLXRuJywgJzgnLCAnLW1hJywgJzIwMCcsICctbWV0YWxfYmluZGluZycsICctaW1hZScsICc8aW5maWxlLm1hZT4nLCAnLW9tYWUnLCAnPG91dGZpbGUubWFlPic=

> <r_epik_Ionization_Penalty>
0.0617419

> <r_epik_Ionization_Penalty_Charging>
0

> <r_epik_Ionization_Penalty_Neutral>
0.0617419

> <r_epik_State_Penalty>
0.0536117

> <r_epik_Charging_Adjusted_Penalty>
0.0536117

> <i_epik_Tot_Q>
0

> <i_epik_Tot_abs_Q>
0

> <r_epik_Metal_State_Penalty>
0.0485218

> <b_epik_Metal_Only>
0

> <s_lp_Force_Field>
OPLS_2005

> <r_lp_Energy>
29.944

> <b_lp_Chiralities_Consistent>
1

> <s_lp_Variant>
AV-unprocessed.smi:2846-1

> <Gold.Version>
5.8.1

> <Gold.Id.Protein>
6NUR|6NUR_protein|mol2

> <Gold.PLP.Fitness>
48.3218

> <Gold.PLP.PLP>
-45.3988

> <Gold.PLP.part.hbond>
0.0000

> <Gold.PLP.part.metal>
0.0000

> <Gold.PLP.part.buried>
-0.9516

> <Gold.PLP.part.nonpolar>
-45.1711

> <Gold.PLP.part.repulsive>
0.2482

> <Gold.PLP.ligand.clash>
0.4007

> <Gold.PLP.ligand.torsion>
1.3388

> <Gold.PLP.Chemscore.Hbond>
0.0000

> <Gold.PLP.Chemscore.CHOScore>
1.9502

> <Gold.PLP.Chemscore.Metal>
0.0000

> <Gold.Chemscore.Hbonds>
donor molecule, donor type, donor heavy atom, donor atom, acceptor molecule, acceptor atom, score
      L1  C    15    38       P1 10175  0.08

> <Gold.PLP.Chemscore.Internal.Correction>
0.1506

> <Gold.Rescore>
     Score         DG    S(hbond)    S(metal)    S(lipo)     H(rot)  DE(clash)    DE(int)     intcor
     17.05     -19.47       0.00        0.00     149.70       1.38       1.07       1.35       ----

> <Gold.Chemscore.Fitness>
17.0474

> <Gold.Chemscore.DG>
-19.4655

> <Gold.Chemscore.ZeroCoef>
-5.4800

> <Gold.Chemscore.Hbond>
0.0000

> <Gold.Chemscore.Metal>
0.0000

> <Gold.Chemscore.Lipo>
149.7048

> <Gold.Chemscore.Internal_Hbond>
0.0000

> <Gold.Chemscore.DEClash>
1.0718

> <Gold.Chemscore.DEInternal>
1.3464

> <Gold.Chemscore.Rot>
1.3789

> <Gold.Chemscore.Internal.Correction>
   9.000000E+99

> <Gold.Chemscore.Hbond.Weighted>
-0.0000

> <Gold.Chemscore.Metal.Weighted>
-0.0000

> <Gold.Chemscore.Lipo.Weighted>
-17.5155

> <Gold.Chemscore.Internal_Hbond.Weighted>
0.0000

> <Gold.Chemscore.DEClash.Weighted>
1.0718

> <Gold.Chemscore.DEInternal.Weighted>
1.3464

> <Gold.Chemscore.Rot.Weighted>
3.5299

> <Gold.Chemscore.Internal.Correction.Weighted>
   9.000000E+99

> <Gold.Protein.RotatedTorsions>
[ 6907 6896 6895 6894 ] final   35.55 input  -60.11 | X-H torsion
[ 7974 7965 7964 7962 ] final  -71.24 input  175.53 | X-H torsion
[ 8008 7997 7996 7995 ] final  -58.47 input   59.86 | X-H torsion
[ 10167 10162 10161 10158 ] final  102.00 input  -65.29 | X-H torsion
[ 10718 10713 10712 10709 ] final -115.32 input   66.30 | X-H torsion
[ 10763 10752 10751 10750 ] final -165.38 input  -60.55 | X-H torsion
[ 11005 11000 10999 10996 ] final   80.76 input  -57.11 | X-H torsion

> <Gold.Protein.ActiveResidues>
 VAL166  LYS551  ARG553  GLY616  TRP617  ASP618  TYR619  PRO620  LYS621  CYS622 
 ASP623  PHE694  ASN695  SER759  ASP760  ASP761  ALA762  ILE779  LEU786  VAL792 
 PHE793  MET794  SER795  GLU796  ALA797  LYS798  CYS799  TRP800  GLU811  SER814 

> <Gold.Protein.RotatedAtoms>
  152.1177  134.9228  160.0564 H   0  0  0  0  0  0  0  0  0  0  0  0  # atno 6907 bound_to 6896
  152.0381  133.3961  159.4333 H   0  0  0  0  0  0  0  0  0  0  0  0  # atno 6908 bound_to 6896
  150.6847  134.3366  159.4893 H   0  0  0  0  0  0  0  0  0  0  0  0  # atno 6909 bound_to 6896
  145.6806  140.9189  143.0834 H   0  0  0  0  0  0  0  0  0  0  0  0  # atno 7974 bound_to 7965
  154.4310  140.1083  156.5962 H   0  0  0  0  0  0  0  0  0  0  0  0  # atno 8008 bound_to 7997
  155.5959  140.3492  155.4561 H   0  0  0  0  0  0  0  0  0  0  0  0  # atno 8009 bound_to 7997
  156.0211  140.1240  157.0346 H   0  0  0  0  0  0  0  0  0  0  0  0  # atno 8010 bound_to 7997
  139.7389  144.7016  151.0606 H   0  0  0  0  0  0  0  0  0  0  0  0  # atno 10167 bound_to 10162
  156.0888  130.6074  150.8890 H   0  0  0  0  0  0  0  0  0  0  0  0  # atno 10718 bound_to 10713
  154.6938  135.2975  154.9441 H   0  0  0  0  0  0  0  0  0  0  0  0  # atno 10763 bound_to 10752
  154.0396  135.6659  153.4792 H   0  0  0  0  0  0  0  0  0  0  0  0  # atno 10764 bound_to 10752
  153.0631  135.5104  154.8044 H   0  0  0  0  0  0  0  0  0  0  0  0  # atno 10765 bound_to 10752
  139.9123  134.7945  156.1951 H   0  0  0  0  0  0  0  0  0  0  0  0  # atno 11005 bound_to 11000
  144.7027  139.8692  143.7439 LP  0  0  0  0  0  0  0  0  0  0  0  0  # atno 17320 bound_to 7965
  146.0967  139.3960  143.0372 LP  0  0  0  0  0  0  0  0  0  0  0  0  # atno 17321 bound_to 7965
  140.7783  143.4950  150.9845 LP  0  0  0  0  0  0  0  0  0  0  0  0  # atno 17342 bound_to 10162
  139.8638  143.7280  152.3171 LP  0  0  0  0  0  0  0  0  0  0  0  0  # atno 17343 bound_to 10162
  157.6031  131.0940  150.8927 LP  0  0  0  0  0  0  0  0  0  0  0  0  # atno 17370 bound_to 10713
  156.9080  130.5270  149.5281 LP  0  0  0  0  0  0  0  0  0  0  0  0  # atno 17371 bound_to 10713
  141.0559  133.6865  156.1860 LP  0  0  0  0  0  0  0  0  0  0  0  0  # atno 17394 bound_to 11000
  140.6737  134.4840  157.5588 LP  0  0  0  0  0  0  0  0  0  0  0  0  # atno 17395 bound_to 11000

$$$$
