AV-unprocessed.smi:1525|AV-procd|sdf|6141|dock4
  -GOLD-   22720 6283D 1   1.00000     0.00000
 Structure written by MMmdl.
 48 50  0  0  0  0  0  0  0  0  1 V2000
  152.7232  139.5078  156.8134 O   0  0  0  0  0  0  0  0  0  0  0  0
  151.7706  140.2246  157.1195 C   0  0  0  0  0  0  0  0  0  0  0  0
  150.7517  140.4985  156.2923 N   0  0  0  0  0  0  0  0  0  0  0  0
  150.6363  140.0352  154.9130 C   0  0  0  0  0  0  0  0  0  0  0  0
  149.1654  139.9787  154.4549 C   0  0  0  0  0  0  0  0  0  0  0  0
  148.3591  141.1568  154.7749 N   0  0  0  0  0  0  0  0  0  0  0  0
  147.3658  141.4581  153.7464 C   0  0  0  0  0  0  0  0  0  0  0  0
  146.5316  142.6995  154.1063 C   0  0  0  0  0  0  0  0  0  0  0  0
  145.9082  142.5058  155.3720 O   0  0  0  0  0  0  0  0  0  0  0  0
  146.8457  142.2470  156.4122 C   0  0  0  0  0  0  0  0  0  0  0  0
  147.6805  141.0043  156.0565 C   0  0  0  0  0  0  0  0  0  0  0  0
  151.6152  140.8493  158.2990 N   0  0  0  0  0  0  0  0  0  0  0  0
  152.5075  140.8926  159.4088 C   0  0  0  0  0  0  0  0  0  0  0  0
  153.2543  139.7598  159.8175 C   0  0  0  0  0  0  0  0  0  0  0  0
  154.1396  139.8710  160.9032 C   0  0  0  0  0  0  0  0  0  0  0  0
  154.2461  141.1134  161.5489 C   0  0  0  0  0  0  0  0  0  0  0  0
  153.5272  142.1947  161.1878 N   0  0  0  0  0  0  0  0  0  0  0  0
  152.6580  142.0995  160.1515 C   0  0  0  0  0  0  0  0  0  0  0  0
  151.9142  143.2597  159.8347 N   0  0  0  0  0  0  0  0  0  0  0  0
  151.8448  144.3217  160.8340 C   0  0  0  0  0  0  0  0  0  0  0  0
  151.8765  145.6456  160.0628 C   0  0  0  0  0  0  0  0  0  0  0  0
  151.4180  145.2569  158.6610 C   0  0  0  0  0  0  0  0  0  0  0  0
  152.0013  143.8557  158.5055 C   0  0  0  0  0  0  0  0  0  0  0  0
  150.0144  141.0987  156.6312 H   0  0  0  0  0  0  0  0  0  0  0  0
  151.2508  140.6327  154.2390 H   0  0  0  0  0  0  0  0  0  0  0  0
  151.0545  139.0291  154.8758 H   0  0  0  0  0  0  0  0  0  0  0  0
  149.1330  139.8004  153.3791 H   0  0  0  0  0  0  0  0  0  0  0  0
  148.7097  139.0995  154.9127 H   0  0  0  0  0  0  0  0  0  0  0  0
  147.8499  141.6312  152.7862 H   0  0  0  0  0  0  0  0  0  0  0  0
  146.7016  140.6032  153.6107 H   0  0  0  0  0  0  0  0  0  0  0  0
  147.1604  143.5910  154.1343 H   0  0  0  0  0  0  0  0  0  0  0  0
  145.7636  142.8724  153.3523 H   0  0  0  0  0  0  0  0  0  0  0  0
  147.4896  143.1161  156.5558 H   0  0  0  0  0  0  0  0  0  0  0  0
  146.3073  142.0884  157.3467 H   0  0  0  0  0  0  0  0  0  0  0  0
  147.0309  140.1279  156.0300 H   0  0  0  0  0  0  0  0  0  0  0  0
  148.4129  140.8269  156.8449 H   0  0  0  0  0  0  0  0  0  0  0  0
  150.8180  141.4645  158.3681 H   0  0  0  0  0  0  0  0  0  0  0  0
  153.1602  138.8052  159.3238 H   0  0  0  0  0  0  0  0  0  0  0  0
  154.7247  139.0240  161.2303 H   0  0  0  0  0  0  0  0  0  0  0  0
  154.9199  141.2416  162.3828 H   0  0  0  0  0  0  0  0  0  0  0  0
  150.9033  144.2318  161.3759 H   0  0  0  0  0  0  0  0  0  0  0  0
  152.6596  144.2616  161.5568 H   0  0  0  0  0  0  0  0  0  0  0  0
  151.2531  146.4157  160.5173 H   0  0  0  0  0  0  0  0  0  0  0  0
  152.8995  146.0218  160.0209 H   0  0  0  0  0  0  0  0  0  0  0  0
  150.3286  145.2152  158.6231 H   0  0  0  0  0  0  0  0  0  0  0  0
  151.7599  145.9483  157.8903 H   0  0  0  0  0  0  0  0  0  0  0  0
  153.0394  143.9313  158.1794 H   0  0  0  0  0  0  0  0  0  0  0  0
  151.4516  143.2677  157.7702 H   0  0  0  0  0  0  0  0  0  0  0  0
  1  2  2  0  0  0  0
  2  3  1  0  0  0  0
  2 12  1  0  0  0  0
  3  4  1  0  0  0  0
  3 24  1  0  0  0  0
  4  5  1  0  0  0  0
  4 25  1  0  0  0  0
  4 26  1  0  0  0  0
  5  6  1  0  0  0  0
  5 27  1  0  0  0  0
  5 28  1  0  0  0  0
  6 11  1  0  0  0  0
  6  7  1  0  0  0  0
  7  8  1  0  0  0  0
  7 29  1  0  0  0  0
  7 30  1  0  0  0  0
  8  9  1  0  0  0  0
  8 31  1  0  0  0  0
  8 32  1  0  0  0  0
  9 10  1  0  0  0  0
 10 11  1  0  0  0  0
 10 33  1  0  0  0  0
 10 34  1  0  0  0  0
 11 35  1  0  0  0  0
 11 36  1  0  0  0  0
 12 13  1  0  0  0  0
 12 37  1  0  0  0  0
 13 18  1  0  0  0  0
 13 14  2  0  0  0  0
 14 15  1  0  0  0  0
 14 38  1  0  0  0  0
 15 16  2  0  0  0  0
 15 39  1  0  0  0  0
 16 17  1  0  0  0  0
 16 40  1  0  0  0  0
 17 18  2  0  0  0  0
 18 19  1  0  0  0  0
 19 23  1  0  0  0  0
 19 20  1  0  0  0  0
 20 21  1  0  0  0  0
 20 41  1  0  0  0  0
 20 42  1  0  0  0  0
 21 22  1  0  0  0  0
 21 43  1  0  0  0  0
 21 44  1  0  0  0  0
 22 23  1  0  0  0  0
 22 45  1  0  0  0  0
 22 46  1  0  0  0  0
 23 47  1  0  0  0  0
 23 48  1  0  0  0  0
M  END
> <s_m_source_file>
AV-unprocessed.smi

> <i_m_source_file_index>
1525

> <i_lp_mmshare_version>
43012

> <i_f3d_flags>
0

> <s_epik_input>
W0NIMl0xW0NIMl1PW0NIMl1bQ0gyXU4xW0NIMl1bQ0gyXVtOSF1DKD1PKVtOSF1jMltjSF1bY0hdW2NIXW5jMk4zW0NIMl1bQ0gyXVtDSDJdW0NIMl0z

> <s_epik_cmdline>
J2VwaWtfcHl0aG9uJywgJy1waCcsICc3LjAnLCAnLXRuJywgJzgnLCAnLW1hJywgJzIwMCcsICctbWV0YWxfYmluZGluZycsICctaW1hZScsICc8aW5maWxlLm1hZT4nLCAnLW9tYWUnLCAnPG91dGZpbGUubWFlPic=

> <r_lp_tautomer_probability>
1

> <r_epik_Ionization_Penalty>
0.363951

> <r_epik_Ionization_Penalty_Charging>
0

> <r_epik_Ionization_Penalty_Neutral>
0.363951

> <r_epik_State_Penalty>
0.349372

> <r_epik_Charging_Adjusted_Penalty>
0.349372

> <i_epik_Tot_Q>
0

> <i_epik_Tot_abs_Q>
0

> <r_epik_Metal_State_Penalty>
0.33306

> <b_epik_Metal_Only>
0

> <s_lp_Force_Field>
OPLS_2005

> <r_lp_Energy>
53.9404

> <b_lp_Chiralities_Consistent>
1

> <s_lp_Variant>
AV-unprocessed.smi:1525-1

> <Gold.Version>
5.8.1

> <Gold.Id.Protein>
6NUR|6NUR_protein|mol2

> <Gold.PLP.Fitness>
48.4862

> <Gold.PLP.PLP>
-47.4537

> <Gold.PLP.part.hbond>
-1.0000

> <Gold.PLP.part.metal>
0.0000

> <Gold.PLP.part.buried>
-4.9190

> <Gold.PLP.part.nonpolar>
-40.5048

> <Gold.PLP.part.repulsive>
0.4845

> <Gold.PLP.ligand.clash>
0.0000

> <Gold.PLP.ligand.torsion>
1.1809

> <Gold.PLP.Chemscore.Hbond>
1.0000

> <Gold.PLP.Chemscore.CHOScore>
0.0000

> <Gold.PLP.Chemscore.Metal>
0.0000

> <Gold.Chemscore.Hbonds>
donor molecule, donor type, donor heavy atom, donor atom, acceptor molecule, acceptor atom, score
      P1  H  7997  8008       L1     1  1.00

> <Gold.PLP.Chemscore.Internal.Correction>
0.3942

> <Gold.Rescore>
     Score         DG    S(hbond)    S(metal)    S(lipo)     H(rot)  DE(clash)    DE(int)     intcor
     15.78     -17.83       0.98        0.00     112.66       1.60       0.02       2.03       ----

> <Gold.Chemscore.Fitness>
15.7792

> <Gold.Chemscore.DG>
-17.8313

> <Gold.Chemscore.ZeroCoef>
-5.4800

> <Gold.Chemscore.Hbond>
0.9779

> <Gold.Chemscore.Metal>
0.0000

> <Gold.Chemscore.Lipo>
112.6551

> <Gold.Chemscore.Internal_Hbond>
0.0000

> <Gold.Chemscore.DEClash>
0.0233

> <Gold.Chemscore.DEInternal>
2.0289

> <Gold.Chemscore.Rot>
1.5998

> <Gold.Chemscore.Internal.Correction>
   9.000000E+99

> <Gold.Chemscore.Hbonds>
donor molecule, donor type, donor heavy atom, donor atom, acceptor molecule, acceptor atom, score
      P1  H  7997  8008       L1     1  0.99

> <Gold.Chemscore.Hbond.Weighted>
-3.2663

> <Gold.Chemscore.Metal.Weighted>
-0.0000

> <Gold.Chemscore.Lipo.Weighted>
-13.1806

> <Gold.Chemscore.Internal_Hbond.Weighted>
0.0000

> <Gold.Chemscore.DEClash.Weighted>
0.0233

> <Gold.Chemscore.DEInternal.Weighted>
2.0289

> <Gold.Chemscore.Rot.Weighted>
4.0956

> <Gold.Chemscore.Internal.Correction.Weighted>
   9.000000E+99

> <Gold.Protein.RotatedTorsions>
[ 6907 6896 6895 6894 ] final  134.53 input  -60.11 | X-H torsion
[ 7974 7965 7964 7962 ] final  -72.10 input  175.53 | X-H torsion
[ 8008 7997 7996 7995 ] final  -44.39 input   59.86 | X-H torsion
[ 10167 10162 10161 10158 ] final   42.96 input  -65.29 | X-H torsion
[ 10718 10713 10712 10709 ] final -146.03 input   66.30 | X-H torsion
[ 10763 10752 10751 10750 ] final   86.04 input  -60.55 | X-H torsion
[ 11005 11000 10999 10996 ] final -173.72 input  -57.11 | X-H torsion

> <Gold.Protein.ActiveResidues>
 VAL166  LYS551  ARG553  GLY616  TRP617  ASP618  TYR619  PRO620  LYS621  CYS622 
 ASP623  PHE694  ASN695  SER759  ASP760  ASP761  ALA762  ILE779  LEU786  VAL792 
 PHE793  MET794  SER795  GLU796  ALA797  LYS798  CYS799  TRP800  GLU811  SER814 

> <Gold.Protein.RotatedAtoms>
  152.3103  133.5746  159.5676 H   0  0  0  0  0  0  0  0  0  0  0  0  # atno 6907 bound_to 6896
  150.7320  134.0161  159.3695 H   0  0  0  0  0  0  0  0  0  0  0  0  # atno 6908 bound_to 6896
  151.8055  135.0697  160.0457 H   0  0  0  0  0  0  0  0  0  0  0  0  # atno 6909 bound_to 6896
  145.6695  140.9226  143.0890 H   0  0  0  0  0  0  0  0  0  0  0  0  # atno 7974 bound_to 7965
  154.3997  140.1423  156.3676 H   0  0  0  0  0  0  0  0  0  0  0  0  # atno 8008 bound_to 7997
  155.8123  140.3472  155.5444 H   0  0  0  0  0  0  0  0  0  0  0  0  # atno 8009 bound_to 7997
  155.8374  140.0921  157.1746 H   0  0  0  0  0  0  0  0  0  0  0  0  # atno 8010 bound_to 7997
  140.3491  144.2373  150.6147 H   0  0  0  0  0  0  0  0  0  0  0  0  # atno 10167 bound_to 10162
  156.3898  130.7880  151.2081 H   0  0  0  0  0  0  0  0  0  0  0  0  # atno 10718 bound_to 10713
  153.1533  135.4595  154.9667 H   0  0  0  0  0  0  0  0  0  0  0  0  # atno 10763 bound_to 10752
  154.7841  135.3198  154.7927 H   0  0  0  0  0  0  0  0  0  0  0  0  # atno 10764 bound_to 10752
  153.8428  135.6928  153.4855 H   0  0  0  0  0  0  0  0  0  0  0  0  # atno 10765 bound_to 10752
  140.4826  134.6061  157.4925 H   0  0  0  0  0  0  0  0  0  0  0  0  # atno 11005 bound_to 11000
  144.7061  139.8554  143.7429 LP  0  0  0  0  0  0  0  0  0  0  0  0  # atno 17320 bound_to 7965
  146.1057  139.4057  143.0319 LP  0  0  0  0  0  0  0  0  0  0  0  0  # atno 17321 bound_to 7965
  140.5236  143.2260  151.8350 LP  0  0  0  0  0  0  0  0  0  0  0  0  # atno 17342 bound_to 10162
  139.4829  144.4807  151.9310 LP  0  0  0  0  0  0  0  0  0  0  0  0  # atno 17343 bound_to 10162
  157.7498  131.0319  150.4202 LP  0  0  0  0  0  0  0  0  0  0  0  0  # atno 17370 bound_to 10713
  156.4462  130.4002  149.6665 LP  0  0  0  0  0  0  0  0  0  0  0  0  # atno 17371 bound_to 10713
  139.9817  134.7126  155.9847 LP  0  0  0  0  0  0  0  0  0  0  0  0  # atno 17394 bound_to 11000
  141.1524  133.6547  156.4053 LP  0  0  0  0  0  0  0  0  0  0  0  0  # atno 17395 bound_to 11000

$$$$
