AV-unprocessed.smi:1196|AV-procd|sdf|5002|dock4
  -GOLD-   22720 4 13D 1   1.00000     0.00000
 Structure written by MMmdl.
 36 37  0  0  0  0  0  0  0  0  2 V2000
  152.4371  140.4909  159.1977 C   0  0  0  0  0  0  0  0  0  0  0  0
  153.0048  141.3108  160.3669 C   0  0  2  0  0  0  0  0  0  0  0  0
  153.6858  142.6013  159.8712 C   0  0  0  0  0  0  0  0  0  0  0  0
  152.7257  143.6208  159.4864 N   0  0  0  0  0  0  0  0  0  0  0  0
  152.1668  144.6104  160.2673 C   0  0  0  0  0  0  0  0  0  0  0  0
  151.3133  145.3212  159.4734 C   0  0  0  0  0  0  0  0  0  0  0  0
  151.4195  144.6820  158.2066 C   0  0  0  0  0  0  0  0  0  0  0  0
  152.2666  143.6655  158.2171 N   0  0  0  0  0  0  0  0  0  0  0  0
  153.9569  140.5047  161.1285 N   0  0  0  0  0  0  0  0  0  0  0  0
  155.0436  139.8999  160.6256 C   0  0  0  0  0  0  0  0  0  0  0  0
  155.3797  139.9912  159.4442 O   0  0  0  0  0  0  0  0  0  0  0  0
  155.8621  139.0725  161.6217 C   0  0  0  0  0  0  0  0  0  0  0  0
  155.0966  138.7200  162.9127 C   0  0  0  0  0  0  0  0  0  0  0  0
  154.3229  137.3887  162.8107 C   0  0  1  0  0  0  0  0  0  0  0  0
  153.7717  137.1940  161.4807 N   0  5  0  0  0  0  0  0  0  0  0  0
  154.2778  136.0468  160.9697 C   0  0  0  0  0  0  0  0  0  0  0  0
  154.0441  135.5454  159.8724 O   0  0  0  0  0  0  0  0  0  0  0  0
  155.1193  135.4735  161.8363 N   0  0  0  0  0  0  0  0  0  0  0  0
  155.2335  136.1842  162.9536 C   0  0  0  0  0  0  0  0  0  0  0  0
  155.9366  135.9327  163.9313 O   0  0  0  0  0  0  0  0  0  0  0  0
  151.7150  141.0741  158.6262 H   0  0  0  0  0  0  0  0  0  0  0  0
  151.9252  139.5960  159.5527 H   0  0  0  0  0  0  0  0  0  0  0  0
  153.2258  140.1747  158.5141 H   0  0  0  0  0  0  0  0  0  0  0  0
  152.1747  141.5942  161.0171 H   0  0  0  0  0  0  0  0  0  0  0  0
  154.3418  143.0110  160.6408 H   0  0  0  0  0  0  0  0  0  0  0  0
  154.3176  142.3858  159.0082 H   0  0  0  0  0  0  0  0  0  0  0  0
  152.4170  144.7219  161.3119 H   0  0  0  0  0  0  0  0  0  0  0  0
  150.7042  146.1671  159.7553 H   0  0  0  0  0  0  0  0  0  0  0  0
  150.9096  144.9250  157.2861 H   0  0  0  0  0  0  0  0  0  0  0  0
  153.7611  140.3764  162.1106 H   0  0  0  0  0  0  0  0  0  0  0  0
  156.1900  138.1583  161.1261 H   0  0  0  0  0  0  0  0  0  0  0  0
  156.7634  139.6346  161.8699 H   0  0  0  0  0  0  0  0  0  0  0  0
  155.7876  138.6856  163.7573 H   0  0  0  0  0  0  0  0  0  0  0  0
  154.3917  139.5240  163.1316 H   0  0  0  0  0  0  0  0  0  0  0  0
  153.5615  137.3368  163.5902 H   0  0  0  0  0  0  0  0  0  0  0  0
  155.6155  134.6133  161.6582 H   0  0  0  0  0  0  0  0  0  0  0  0
  1  2  1  0  0  0  0
  1 21  1  0  0  0  0
  1 22  1  0  0  0  0
  1 23  1  0  0  0  0
  2  3  1  0  0  0  0
  2  9  1  0  0  0  0
  2 24  1  0  0  0  0
  3  4  1  0  0  0  0
  3 25  1  0  0  0  0
  3 26  1  0  0  0  0
  4  8  1  0  0  0  0
  4  5  1  0  0  0  0
  5  6  2  0  0  0  0
  5 27  1  0  0  0  0
  6  7  1  0  0  0  0
  6 28  1  0  0  0  0
  7  8  2  0  0  0  0
  7 29  1  0  0  0  0
  9 10  1  0  0  0  0
  9 30  1  0  0  0  0
 10 11  2  0  0  0  0
 10 12  1  0  0  0  0
 12 13  1  0  0  0  0
 12 31  1  0  0  0  0
 12 32  1  0  0  0  0
 13 14  1  0  0  0  0
 13 33  1  0  0  0  0
 13 34  1  0  0  0  0
 14 19  1  0  0  0  0
 14 15  1  0  0  0  0
 14 35  1  0  0  0  0
 15 16  1  0  0  0  0
 16 17  2  0  0  0  0
 16 18  1  0  0  0  0
 18 19  1  0  0  0  0
 18 36  1  0  0  0  0
 19 20  2  0  0  0  0
M  CHG  1  15  -1
M  END
> <s_m_source_file>
AV-unprocessed.smi

> <i_m_source_file_index>
1196

> <i_lp_mmshare_version>
43012

> <i_f3d_flags>
0

> <s_epik_input>
bjFbY0hdW2NIXVtjSF1uMVtDSDJdW0NAQEhdKFtDSDNdKVtOSF1DKD1PKVtDSDJdW0NIMl1bQ0BASF0yW05IXUMoPU8pW05IXUMyPU8=

> <s_epik_cmdline>
J2VwaWtfcHl0aG9uJywgJy1waCcsICc3LjAnLCAnLXRuJywgJzgnLCAnLW1hJywgJzIwMCcsICctbWV0YWxfYmluZGluZycsICctaW1hZScsICc8aW5maWxlLm1hZT4nLCAnLW9tYWUnLCAnPG91dGZpbGUubWFlPic=

> <r_lp_tautomer_probability>
1

> <r_epik_Ionization_Penalty>
5.79547

> <r_epik_Ionization_Penalty_Charging>
5.79516

> <r_epik_Ionization_Penalty_Neutral>
0.000313087

> <r_epik_State_Penalty>
5.80096

> <r_epik_Charging_Adjusted_Penalty>
11.5961

> <i_epik_Tot_Q>
-1

> <i_epik_Tot_abs_Q>
1

> <r_epik_Metal_State_Penalty>
2.14443

> <b_epik_Metal_Only>
1

> <s_lp_Force_Field>
OPLS_2005

> <r_lp_Energy>
10.7967

> <b_lp_Chiralities_Consistent>
1

> <s_lp_Variant>
AV-unprocessed.smi:1196-7

> <Gold.Version>
5.8.1

> <Gold.Id.Protein>
6NUR|6NUR_protein|mol2

> <Gold.PLP.Fitness>
45.2609

> <Gold.PLP.PLP>
-38.4954

> <Gold.PLP.part.hbond>
-2.0000

> <Gold.PLP.part.metal>
0.0000

> <Gold.PLP.part.buried>
-6.1406

> <Gold.PLP.part.nonpolar>
-29.9341

> <Gold.PLP.part.repulsive>
0.1328

> <Gold.PLP.ligand.clash>
0.0000

> <Gold.PLP.ligand.torsion>
1.1617

> <Gold.PLP.Chemscore.Hbond>
2.0000

> <Gold.PLP.Chemscore.CHOScore>
1.0000

> <Gold.PLP.Chemscore.Metal>
0.0000

> <Gold.Chemscore.Hbonds>
donor molecule, donor type, donor heavy atom, donor atom, acceptor molecule, acceptor atom, score
      P1  H  6896  6907       L1    17  1.00
      P1  H  7997  8010       L1    11  0.89
      L1  C     7    29       P1  8028  0.93

> <Gold.PLP.Chemscore.Internal.Correction>
0.0889

> <Gold.Rescore>
     Score         DG    S(hbond)    S(metal)    S(lipo)     H(rot)  DE(clash)    DE(int)     intcor
     12.12     -14.07       1.98        0.00      80.24       2.89       0.00       1.94       ----

> <Gold.Chemscore.Fitness>
12.1219

> <Gold.Chemscore.DG>
-14.0661

> <Gold.Chemscore.ZeroCoef>
-5.4800

> <Gold.Chemscore.Hbond>
1.9784

> <Gold.Chemscore.Metal>
0.0000

> <Gold.Chemscore.Lipo>
80.2435

> <Gold.Chemscore.Internal_Hbond>
0.0000

> <Gold.Chemscore.DEClash>
0.0000

> <Gold.Chemscore.DEInternal>
1.9442

> <Gold.Chemscore.Rot>
2.8946

> <Gold.Chemscore.Internal.Correction>
   9.000000E+99

> <Gold.Chemscore.Hbonds>
donor molecule, donor type, donor heavy atom, donor atom, acceptor molecule, acceptor atom, score
      P1  H  6896  6907       L1    17  0.44
      P1  H  7997  8010       L1    11  0.84

> <Gold.Chemscore.Hbond.Weighted>
-6.6077

> <Gold.Chemscore.Metal.Weighted>
-0.0000

> <Gold.Chemscore.Lipo.Weighted>
-9.3885

> <Gold.Chemscore.Internal_Hbond.Weighted>
0.0000

> <Gold.Chemscore.DEClash.Weighted>
0.0000

> <Gold.Chemscore.DEInternal.Weighted>
1.9442

> <Gold.Chemscore.Rot.Weighted>
7.4101

> <Gold.Chemscore.Internal.Correction.Weighted>
   9.000000E+99

> <Gold.Protein.RotatedTorsions>
[ 6907 6896 6895 6894 ] final   45.97 input  -60.11 | X-H torsion
[ 7974 7965 7964 7962 ] final -142.81 input  175.53 | X-H torsion
[ 8008 7997 7996 7995 ] final  -12.64 input   59.86 | X-H torsion
[ 10167 10162 10161 10158 ] final  -58.06 input  -65.29 | X-H torsion
[ 10718 10713 10712 10709 ] final  113.26 input   66.30 | X-H torsion
[ 10763 10752 10751 10750 ] final   35.89 input  -60.55 | X-H torsion
[ 11005 11000 10999 10996 ] final -166.02 input  -57.11 | X-H torsion

> <Gold.Protein.ActiveResidues>
 VAL166  LYS551  ARG553  GLY616  TRP617  ASP618  TYR619  PRO620  LYS621  CYS622 
 ASP623  PHE694  ASN695  SER759  ASP760  ASP761  ALA762  ILE779  LEU786  VAL792 
 PHE793  MET794  SER795  GLU796  ALA797  LYS798  CYS799  TRP800  GLU811  SER814 

> <Gold.Protein.RotatedAtoms>
  152.2508  134.8134  160.0445 H   0  0  0  0  0  0  0  0  0  0  0  0  # atno 6907 bound_to 6896
  151.8815  133.3491  159.3776 H   0  0  0  0  0  0  0  0  0  0  0  0  # atno 6908 bound_to 6896
  150.7083  134.4940  159.5573 H   0  0  0  0  0  0  0  0  0  0  0  0  # atno 6909 bound_to 6896
  144.8415  140.5912  143.5449 H   0  0  0  0  0  0  0  0  0  0  0  0  # atno 7974 bound_to 7965
  154.5360  140.2270  155.8722 H   0  0  0  0  0  0  0  0  0  0  0  0  # atno 8008 bound_to 7997
  156.1811  140.3100  155.9114 H   0  0  0  0  0  0  0  0  0  0  0  0  # atno 8009 bound_to 7997
  155.3354  140.0447  157.3034 H   0  0  0  0  0  0  0  0  0  0  0  0  # atno 8010 bound_to 7997
  140.6220  143.2423  151.5456 H   0  0  0  0  0  0  0  0  0  0  0  0  # atno 10167 bound_to 10162
  157.6348  131.0981  150.7015 H   0  0  0  0  0  0  0  0  0  0  0  0  # atno 10718 bound_to 10713
  153.0100  135.6321  154.1898 H   0  0  0  0  0  0  0  0  0  0  0  0  # atno 10763 bound_to 10752
  154.1641  135.2822  155.3102 H   0  0  0  0  0  0  0  0  0  0  0  0  # atno 10764 bound_to 10752
  154.5959  135.5603  153.7385 H   0  0  0  0  0  0  0  0  0  0  0  0  # atno 10765 bound_to 10752
  140.5691  134.5255  157.5158 H   0  0  0  0  0  0  0  0  0  0  0  0  # atno 11005 bound_to 11000
  145.4683  139.1506  143.3828 LP  0  0  0  0  0  0  0  0  0  0  0  0  # atno 17320 bound_to 7965
  146.2707  140.4816  142.8815 LP  0  0  0  0  0  0  0  0  0  0  0  0  # atno 17321 bound_to 7965
  139.5447  144.2553  152.1419 LP  0  0  0  0  0  0  0  0  0  0  0  0  # atno 17342 bound_to 10162
  140.1775  144.4876  150.6546 LP  0  0  0  0  0  0  0  0  0  0  0  0  # atno 17343 bound_to 10162
  156.7348  130.4721  149.5491 LP  0  0  0  0  0  0  0  0  0  0  0  0  # atno 17370 bound_to 10713
  156.1578  130.6354  151.0680 LP  0  0  0  0  0  0  0  0  0  0  0  0  # atno 17371 bound_to 10713
  139.9370  134.7856  156.0776 LP  0  0  0  0  0  0  0  0  0  0  0  0  # atno 17394 bound_to 11000
  141.1067  133.6657  156.2881 LP  0  0  0  0  0  0  0  0  0  0  0  0  # atno 17395 bound_to 11000

$$$$
