#       Name:                AV-unprocessed.smi:2035
#       Creating user name   scv26
#       Creation time:       Fri Mar 27 10:54:16 2020


#       File generated by GOLD software.
#

@<TRIPOS>MOLECULE
AV-unprocessed.smi:2035
    39    40     1
SMALL
NO_CHARGES


@<TRIPOS>ATOM
      1 ****         1.1833   0.9481  -0.3526 O.2            1 S1                 0.0000
      2 ****         0.8700  -0.1557   0.0908 C.2            1 S1                 0.0000
      3 ****         1.7148  -1.1747   0.3288 N.am           1 S1                 0.0000
      4 ****         3.1236  -1.2536   0.1393 C.ar           1 S1                 0.0000
      5 ****         3.7606  -2.4405   0.5663 C.ar           1 S1                 0.0000
      6 ****         5.1533  -2.5846   0.4033 C.ar           1 S1                 0.0000
      7 ****         5.8700  -1.5900  -0.1612 N.pl3          1 S1                 1.0000
      8 ****         5.3087  -0.4388  -0.5880 C.ar           1 S1                 0.0000
      9 ****         3.9198  -0.2376  -0.4514 C.ar           1 S1                 0.0000
     10 ****        -0.3894  -0.4931   0.4047 N.am           1 S1                 0.0000
     11 ****        -1.5625   0.3762   0.2940 C.3            1 S1                 0.0000
     12 ****        -2.1177   0.3371  -1.1475 C.3            1 S1                 0.0000
     13 ****        -2.9636   1.5635  -1.5257 C.3            1 S1                 0.0000
     14 ****        -4.2463   1.7433  -0.7001 C.3            1 S1                 0.0000
     15 ****        -3.9883   2.0366   0.7879 C.3            1 S1                 0.0000
     16 ****        -3.6613   0.8363   1.5476 N.am           1 S1                 0.0000
     17 ****        -2.5991   0.0335   1.3808 C.2            1 S1                 0.0000
     18 ****        -2.4570  -0.9679   2.0824 O.2            1 S1                 0.0000
     19 ****         1.2901  -2.0073   0.7104 H              1 S1                 0.0000
     20 ****         3.1885  -3.2384   1.0177 H              1 S1                 0.0000
     21 ****         5.7106  -3.4595   0.7047 H              1 S1                 0.0000
     22 ****         5.9829   0.2831  -1.0256 H              1 S1                 0.0000
     23 ****         3.5050   0.6913  -0.8082 H              1 S1                 0.0000
     24 ****        -0.5574  -1.4192   0.7708 H              1 S1                 0.0000
     25 ****        -1.2257   1.3926   0.5066 H              1 S1                 0.0000
     26 ****        -1.2898   0.2866  -1.8560 H              1 S1                 0.0000
     27 ****        -2.6928  -0.5769  -1.3031 H              1 S1                 0.0000
     28 ****        -2.3525   2.4637  -1.4503 H              1 S1                 0.0000
     29 ****        -3.2389   1.4804  -2.5776 H              1 S1                 0.0000
     30 ****        -4.8012   2.5818  -1.1222 H              1 S1                 0.0000
     31 ****        -4.8944   0.8725  -0.8091 H              1 S1                 0.0000
     32 ****        -3.2106   2.7914   0.9133 H              1 S1                 0.0000
     33 ****        -4.8930   2.4547   1.2298 H              1 S1                 0.0000
     34 ****        -4.3162   0.5801   2.2724 H              1 S1                 0.0000
     35 ****         6.8770  -1.7134  -0.2713 H              1 S1                 0.0000
     36 ****         2.1392   1.1472  -0.5685 LP             1 S1                 0.0000
     37 ****         0.4821   1.6462  -0.4972 LP             1 S1                 0.0000
     38 ****        -1.6654  -1.5641   1.9484 LP             1 S1                 0.0000
     39 ****        -3.1332  -1.1853   2.7863 LP             1 S1                 0.0000
@<TRIPOS>BOND
    1    1    2 2     
    2    2    3 am    
    3    2   10 am    
    4    3    4 1     
    5    3   19 1     
    6    4    9 ar    
    7    4    5 ar    
    8    5    6 ar    
    9    5   20 1     
   10    6    7 ar    
   11    6   21 1     
   12    7    8 ar    
   13    7   35 1     
   14    8    9 ar    
   15    8   22 1     
   16    9   23 1     
   17   10   11 1     
   18   10   24 1     
   19   11   17 1     
   20   11   12 1     
   21   11   25 1     
   22   12   13 1     
   23   12   26 1     
   24   12   27 1     
   25   13   14 1     
   26   13   28 1     
   27   13   29 1     
   28   14   15 1     
   29   14   30 1     
   30   14   31 1     
   31   15   16 1     
   32   15   32 1     
   33   15   33 1     
   34   16   17 am    
   35   16   34 1     
   36   17   18 2     
   37    1   36 1     
   38    1   37 1     
   39   18   38 1     
   40   18   39 1     
@<TRIPOS>SUBSTRUCTURE
      1 S1             1
@<TRIPOS>SET
LONE_PAIRS      STATIC     ATOMS    <user>   **** ""
4 36 37 38 39
DONOR_HYDROGENS      STATIC     ATOMS    <user>   **** ""
4 19 35 24 34
ATOM$BLUE        STATIC     ATOMS    COLORGROUP SYSTEM
4 36 37 38 39
ATOM$RED        STATIC     ATOMS    COLORGROUP SYSTEM
4 19 35 24 34
