AV-unprocessed.smi:682|AV-procd|sdf|3327|dock4
  -GOLD-   22720 0293D 1   1.00000     0.00000
 Structure written by MMmdl.
 41 42  0  0  0  0  0  0  0  0  1 V2000
  146.1535  142.7275  154.5888 C   0  0  0  0  0  0  0  0  0  0  0  0
  146.6168  141.4672  155.0576 O   0  0  0  0  0  0  0  0  0  0  0  0
  147.6822  140.8439  154.3271 C   0  0  2  0  0  0  0  0  0  0  0  0
  148.9390  141.7229  154.3505 C   0  0  0  0  0  0  0  0  0  0  0  0
  147.1607  140.3072  152.9799 C   0  0  0  0  0  0  0  0  0  0  0  0
  146.6873  139.0701  153.7404 C   0  0  1  0  0  0  0  0  0  0  0  0
  146.8637  137.8373  152.9801 N   0  0  0  0  0  0  0  0  0  0  0  0
  145.8575  137.0505  152.5759 C   0  0  0  0  0  0  0  0  0  0  0  0
  144.6711  137.3009  152.7892 O   0  0  0  0  0  0  0  0  0  0  0  0
  146.3139  135.9674  151.9261 N   0  0  0  0  0  0  0  0  0  0  0  0
  145.5473  134.9104  151.3732 C   0  0  0  0  0  0  0  0  0  0  0  0
  144.4730  135.0799  150.4616 C   0  0  0  0  0  0  0  0  0  0  0  0
  143.9478  133.9136  150.1172 N   0  0  0  0  0  0  0  0  0  0  0  0
  144.6704  132.9898  150.7964 N   0  0  0  0  0  0  0  0  0  0  0  0
  144.3514  131.5868  150.6410 C   0  0  0  0  0  0  0  0  0  0  0  0
  145.6557  133.5634  151.5751 C   0  0  0  0  0  0  0  0  0  0  0  0
  147.7926  139.3541  154.7903 C   0  0  0  0  0  0  0  0  0  0  0  0
  149.1572  138.6765  154.5610 C   0  0  0  0  0  0  0  0  0  0  0  0
  147.4226  139.0592  156.2482 C   0  0  0  0  0  0  0  0  0  0  0  0
  145.2455  142.9953  155.1288 H   0  0  0  0  0  0  0  0  0  0  0  0
  145.9138  142.7142  153.5260 H   0  0  0  0  0  0  0  0  0  0  0  0
  146.8822  143.5166  154.7741 H   0  0  0  0  0  0  0  0  0  0  0  0
  149.7884  141.2280  153.8811 H   0  0  0  0  0  0  0  0  0  0  0  0
  149.2290  141.9716  155.3714 H   0  0  0  0  0  0  0  0  0  0  0  0
  148.7957  142.6555  153.8053 H   0  0  0  0  0  0  0  0  0  0  0  0
  146.3589  140.8781  152.5127 H   0  0  0  0  0  0  0  0  0  0  0  0
  147.9615  140.1027  152.2669 H   0  0  0  0  0  0  0  0  0  0  0  0
  145.6783  139.2048  154.1374 H   0  0  0  0  0  0  0  0  0  0  0  0
  147.8101  137.5618  152.7624 H   0  0  0  0  0  0  0  0  0  0  0  0
  147.3148  135.8845  151.8253 H   0  0  0  0  0  0  0  0  0  0  0  0
  144.0658  135.9897  150.0456 H   0  0  0  0  0  0  0  0  0  0  0  0
  145.0189  130.9809  151.2543 H   0  0  0  0  0  0  0  0  0  0  0  0
  144.4684  131.2953  149.5970 H   0  0  0  0  0  0  0  0  0  0  0  0
  143.3222  131.4049  150.9518 H   0  0  0  0  0  0  0  0  0  0  0  0
  146.3242  132.9722  152.1833 H   0  0  0  0  0  0  0  0  0  0  0  0
  149.1096  137.6022  154.7422 H   0  0  0  0  0  0  0  0  0  0  0  0
  149.9200  139.0807  155.2272 H   0  0  0  0  0  0  0  0  0  0  0  0
  149.5184  138.8108  153.5413 H   0  0  0  0  0  0  0  0  0  0  0  0
  147.4570  137.9906  156.4626 H   0  0  0  0  0  0  0  0  0  0  0  0
  146.4128  139.3919  156.4889 H   0  0  0  0  0  0  0  0  0  0  0  0
  148.1021  139.5574  156.9402 H   0  0  0  0  0  0  0  0  0  0  0  0
  1  2  1  0  0  0  0
  1 20  1  0  0  0  0
  1 21  1  0  0  0  0
  1 22  1  0  0  0  0
  2  3  1  0  0  0  0
  3 17  1  0  0  0  0
  3  4  1  0  0  0  0
  3  5  1  0  0  0  0
  4 23  1  0  0  0  0
  4 24  1  0  0  0  0
  4 25  1  0  0  0  0
  5  6  1  0  0  0  0
  5 26  1  0  0  0  0
  5 27  1  0  0  0  0
  6  7  1  0  0  0  0
  6 17  1  0  0  0  0
  6 28  1  0  0  0  0
  7  8  1  0  0  0  0
  7 29  1  0  0  0  0
  8  9  2  0  0  0  0
  8 10  1  0  0  0  0
 10 11  1  0  0  0  0
 10 30  1  0  0  0  0
 11 16  2  0  0  0  0
 11 12  1  0  0  0  0
 12 13  2  0  0  0  0
 12 31  1  0  0  0  0
 13 14  1  0  0  0  0
 14 15  1  0  0  0  0
 14 16  1  0  0  0  0
 15 32  1  0  0  0  0
 15 33  1  0  0  0  0
 15 34  1  0  0  0  0
 16 35  1  0  0  0  0
 17 18  1  0  0  0  0
 17 19  1  0  0  0  0
 18 36  1  0  0  0  0
 18 37  1  0  0  0  0
 18 38  1  0  0  0  0
 19 39  1  0  0  0  0
 19 40  1  0  0  0  0
 19 41  1  0  0  0  0
M  END
> <s_m_source_file>
AV-unprocessed.smi

> <i_m_source_file_index>
682

> <i_lp_mmshare_version>
43012

> <i_f3d_flags>
0

> <s_epik_input>
W0NIM11PW0NAQF0xKFtDSDNdKVtDSDJdW0NASF0oQzEoW0NIM10pW0NIM10pW05IXUMoPU8pW05IXWMyW2NIXW5uKFtDSDNdKVtjSF0y

> <s_epik_cmdline>
J2VwaWtfcHl0aG9uJywgJy1waCcsICc3LjAnLCAnLXRuJywgJzgnLCAnLW1hJywgJzIwMCcsICctbWV0YWxfYmluZGluZycsICctaW1hZScsICc8aW5maWxlLm1hZT4nLCAnLW9tYWUnLCAnPG91dGZpbGUubWFlPic=

> <r_lp_tautomer_probability>
1

> <r_epik_Ionization_Penalty>
0.000192302

> <r_epik_Ionization_Penalty_Charging>
0

> <r_epik_Ionization_Penalty_Neutral>
0.000192302

> <r_epik_State_Penalty>
-0

> <r_epik_Charging_Adjusted_Penalty>
0

> <i_epik_Tot_Q>
0

> <i_epik_Tot_abs_Q>
0

> <r_epik_Metal_State_Penalty>
-0

> <b_epik_Metal_Only>
0

> <s_lp_Force_Field>
OPLS_2005

> <r_lp_Energy>
24.7984

> <b_lp_Chiralities_Consistent>
1

> <s_lp_Variant>
AV-unprocessed.smi:682-2

> <Gold.Version>
5.8.1

> <Gold.Id.Protein>
6NUR|6NUR_protein|mol2

> <Gold.PLP.Fitness>
36.6971

> <Gold.PLP.PLP>
-29.0304

> <Gold.PLP.part.hbond>
-2.0000

> <Gold.PLP.part.metal>
0.0000

> <Gold.PLP.part.buried>
-2.6805

> <Gold.PLP.part.nonpolar>
-26.2931

> <Gold.PLP.part.repulsive>
1.2711

> <Gold.PLP.ligand.clash>
0.0000

> <Gold.PLP.ligand.torsion>
0.7458

> <Gold.PLP.Chemscore.Hbond>
1.9280

> <Gold.PLP.Chemscore.CHOScore>
1.0000

> <Gold.PLP.Chemscore.Metal>
0.0000

> <Gold.Chemscore.Hbonds>
donor molecule, donor type, donor heavy atom, donor atom, acceptor molecule, acceptor atom, score
      L1  H     7    29       P1  7948  0.93
      L1  H    10    30       P1  7948  1.00
      L1  C    12    31       P1 10171  0.85

> <Gold.PLP.Chemscore.Internal.Correction>
0.3744

> <Gold.Rescore>
     Score         DG    S(hbond)    S(metal)    S(lipo)     H(rot)  DE(clash)    DE(int)     intcor
     15.81     -16.87       1.93        0.00      69.36       1.23       0.27       0.80       ----

> <Gold.Chemscore.Fitness>
15.8065

> <Gold.Chemscore.DG>
-16.8742

> <Gold.Chemscore.ZeroCoef>
-5.4800

> <Gold.Chemscore.Hbond>
1.9274

> <Gold.Chemscore.Metal>
0.0000

> <Gold.Chemscore.Lipo>
69.3557

> <Gold.Chemscore.Internal_Hbond>
0.0000

> <Gold.Chemscore.DEClash>
0.2676

> <Gold.Chemscore.DEInternal>
0.8001

> <Gold.Chemscore.Rot>
1.2336

> <Gold.Chemscore.Internal.Correction>
   9.000000E+99

> <Gold.Chemscore.Hbonds>
donor molecule, donor type, donor heavy atom, donor atom, acceptor molecule, acceptor atom, score
      L1  H     7    29       P1  7948  0.88
      L1  H    10    30       P1  7948  1.00

> <Gold.Chemscore.Hbond.Weighted>
-6.4377

> <Gold.Chemscore.Metal.Weighted>
-0.0000

> <Gold.Chemscore.Lipo.Weighted>
-8.1146

> <Gold.Chemscore.Internal_Hbond.Weighted>
0.0000

> <Gold.Chemscore.DEClash.Weighted>
0.2676

> <Gold.Chemscore.DEInternal.Weighted>
0.8001

> <Gold.Chemscore.Rot.Weighted>
3.1581

> <Gold.Chemscore.Internal.Correction.Weighted>
   9.000000E+99

> <Gold.Protein.RotatedTorsions>
[ 6907 6896 6895 6894 ] final  171.03 input  -60.11 | X-H torsion
[ 7974 7965 7964 7962 ] final   85.42 input  175.53 | X-H torsion
[ 8008 7997 7996 7995 ] final -161.66 input   59.86 | X-H torsion
[ 10167 10162 10161 10158 ] final -105.57 input  -65.29 | X-H torsion
[ 10718 10713 10712 10709 ] final  -72.67 input   66.30 | X-H torsion
[ 10763 10752 10751 10750 ] final  -56.95 input  -60.55 | X-H torsion
[ 11005 11000 10999 10996 ] final -150.06 input  -57.11 | X-H torsion

> <Gold.Protein.ActiveResidues>
 VAL166  LYS551  ARG553  GLY616  TRP617  ASP618  TYR619  PRO620  LYS621  CYS622 
 ASP623  PHE694  ASN695  SER759  ASP760  ASP761  ALA762  ILE779  LEU786  VAL792 
 PHE793  MET794  SER795  GLU796  ALA797  LYS798  CYS799  TRP800  GLU811  SER814 

> <Gold.Protein.RotatedAtoms>
  151.8067  133.3376  159.3542 H   0  0  0  0  0  0  0  0  0  0  0  0  # atno 6907 bound_to 6896
  150.7340  134.5702  159.5896 H   0  0  0  0  0  0  0  0  0  0  0  0  # atno 6908 bound_to 6896
  152.3104  134.7505  160.0389 H   0  0  0  0  0  0  0  0  0  0  0  0  # atno 6909 bound_to 6896
  145.5857  139.2331  143.2327 H   0  0  0  0  0  0  0  0  0  0  0  0  # atno 7974 bound_to 7965
  155.7955  140.0884  157.1986 H   0  0  0  0  0  0  0  0  0  0  0  0  # atno 8008 bound_to 7997
  154.3984  140.1482  156.3271 H   0  0  0  0  0  0  0  0  0  0  0  0  # atno 8009 bound_to 7997
  155.8516  140.3434  155.5699 H   0  0  0  0  0  0  0  0  0  0  0  0  # atno 8010 bound_to 7997
  140.1971  143.3847  152.1159 H   0  0  0  0  0  0  0  0  0  0  0  0  # atno 10167 bound_to 10162
  156.0311  130.4377  150.2628 H   0  0  0  0  0  0  0  0  0  0  0  0  # atno 10718 bound_to 10713
  154.2147  135.6388  153.5126 H   0  0  0  0  0  0  0  0  0  0  0  0  # atno 10763 bound_to 10752
  152.9982  135.5482  154.6178 H   0  0  0  0  0  0  0  0  0  0  0  0  # atno 10764 bound_to 10752
  154.5623  135.2910  155.0881 H   0  0  0  0  0  0  0  0  0  0  0  0  # atno 10765 bound_to 10752
  140.7442  134.3480  157.5141 H   0  0  0  0  0  0  0  0  0  0  0  0  # atno 11005 bound_to 11000
  146.1683  140.6684  142.9245 LP  0  0  0  0  0  0  0  0  0  0  0  0  # atno 17320 bound_to 7965
  144.7373  140.4846  143.6894 LP  0  0  0  0  0  0  0  0  0  0  0  0  # atno 17321 bound_to 7965
  139.5232  144.7068  151.5328 LP  0  0  0  0  0  0  0  0  0  0  0  0  # atno 17342 bound_to 10162
  140.6416  143.8878  150.6697 LP  0  0  0  0  0  0  0  0  0  0  0  0  # atno 17343 bound_to 10162
  157.0730  131.0122  151.3183 LP  0  0  0  0  0  0  0  0  0  0  0  0  # atno 17370 bound_to 10713
  157.4985  130.7865  149.7580 LP  0  0  0  0  0  0  0  0  0  0  0  0  # atno 17371 bound_to 10713
  139.8800  134.9100  156.3004 LP  0  0  0  0  0  0  0  0  0  0  0  0  # atno 17394 bound_to 11000
  140.9810  133.7267  156.0672 LP  0  0  0  0  0  0  0  0  0  0  0  0  # atno 17395 bound_to 11000

$$$$
