#       Name:                AV-unprocessed.smi:107
#       Creating user name   scv26
#       Creation time:       Thu Mar 26 18:01:29 2020


#       File generated by GOLD software.
#

@<TRIPOS>MOLECULE
AV-unprocessed.smi:107
    41    42     1
SMALL
NO_CHARGES


@<TRIPOS>ATOM
      1 ****        -3.3818   1.5885  -0.1626 C.3            1 S1                 0.0000
      2 ****        -2.7303   0.2256   0.0022 C.2            1 S1                 0.0000
      3 ****        -1.3838   0.0559  -0.0217 C.2            1 S1                 0.0000
      4 ****        -0.7581  -1.1729   0.1297 N.am           1 S1                 0.0000
      5 ****         0.7491  -1.2671   0.1044 C.3            1 S1                 0.0000
      6 ****         1.2987  -1.0327  -1.3094 C.3            1 S1                 0.0000
      7 ****         2.2108   0.1729  -1.1329 C.3            1 S1                 0.0000
      8 ****         1.5725   1.3507  -1.5910 O.3            1 S1                 0.0000
      9 ****         2.4768   0.2054   0.3802 C.3            1 S1                 0.0000
     10 ****         2.8489   1.5812   0.9609 C.3            1 S1                 0.0000
     11 ****         3.4970   1.4234   2.2049 O.3            1 S1                 0.0000
     12 ****         1.2595  -0.2730   0.9358 O.3            1 S1                 0.0000
     13 ****        -1.5421  -2.3291   0.3261 C.2            1 S1                 0.0000
     14 ****        -1.0635  -3.4543   0.4622 O.2            1 S1                 0.0000
     15 ****        -2.9251  -2.1558   0.3505 N.am           1 S1                 0.0000
     16 ****        -3.5966  -0.9399   0.1991 C.2            1 S1                 0.0000
     17 ****        -4.8258  -0.9163   0.2370 O.2            1 S1                 0.0000
     18 ****        -3.4909  -2.9807   0.4873 H              1 S1                 0.0000
     19 ****        -2.6420   2.3728  -0.3250 H              1 S1                 0.0000
     20 ****        -3.9535   1.8472   0.7293 H              1 S1                 0.0000
     21 ****        -4.0604   1.5876  -1.0163 H              1 S1                 0.0000
     22 ****        -0.7619   0.9276  -0.1643 H              1 S1                 0.0000
     23 ****         1.0430  -2.2354   0.5115 H              1 S1                 0.0000
     24 ****         1.8678  -1.9141  -1.6071 H              1 S1                 0.0000
     25 ****         0.5031  -0.8750  -2.0397 H              1 S1                 0.0000
     26 ****         3.1383   0.0559  -1.6942 H              1 S1                 0.0000
     27 ****         2.1598   2.0802  -1.4653 H              1 S1                 0.0000
     28 ****         3.2619  -0.5207   0.6012 H              1 S1                 0.0000
     29 ****         3.5445   2.0938   0.2958 H              1 S1                 0.0000
     30 ****         1.9704   2.2182   1.0695 H              1 S1                 0.0000
     31 ****         3.7145   2.2790   2.5419 H              1 S1                 0.0000
     32 ****         0.7314   1.5019  -1.0716 LP             1 S1                 0.0000
     33 ****         1.3525   1.2588  -2.5622 LP             1 S1                 0.0000
     34 ****         4.3320   0.8866   2.0841 LP             1 S1                 0.0000
     35 ****         2.8885   0.9540   2.8447 LP             1 S1                 0.0000
     36 ****         1.4304  -0.6505   1.8459 LP             1 S1                 0.0000
     37 ****         0.6029   0.4781   1.0045 LP             1 S1                 0.0000
     38 ****        -0.0721  -3.5824   0.4362 LP             1 S1                 0.0000
     39 ****        -1.6659  -4.2407   0.5988 LP             1 S1                 0.0000
     40 ****        -5.3129  -0.0496   0.1286 LP             1 S1                 0.0000
     41 ****        -5.3381  -1.7637   0.3762 LP             1 S1                 0.0000
@<TRIPOS>BOND
    1    1    2 1     
    2    1   19 1     
    3    1   20 1     
    4    1   21 1     
    5    2   16 1     
    6    2    3 2     
    7    3    4 1     
    8    3   22 1     
    9    4    5 1     
   10    4   13 1     
   11    5   12 1     
   12    5    6 1     
   13    5   23 1     
   14    6    7 1     
   15    6   24 1     
   16    6   25 1     
   17    7    8 1     
   18    7    9 1     
   19    7   26 1     
   20    8   27 1     
   21    9   10 1     
   22    9   12 1     
   23    9   28 1     
   24   10   11 1     
   25   10   29 1     
   26   10   30 1     
   27   11   31 1     
   28   13   14 2     
   29   13   15 1     
   30   15   18 1     
   31   15   16 1     
   32   16   17 2     
   33    8   32 1     
   34    8   33 1     
   35   11   34 1     
   36   11   35 1     
   37   12   36 1     
   38   12   37 1     
   39   14   38 1     
   40   14   39 1     
   41   17   40 1     
   42   17   41 1     
@<TRIPOS>SUBSTRUCTURE
      1 S1             1
@<TRIPOS>SET
LONE_PAIRS      STATIC     ATOMS    <user>   **** ""
10 32 33 34 35 36 37 38 39 40 41
DONOR_HYDROGENS      STATIC     ATOMS    <user>   **** ""
3 27 31 18
ATOM$BLUE        STATIC     ATOMS    COLORGROUP SYSTEM
10 32 33 34 35 36 37 38 39 40 41
ATOM$RED        STATIC     ATOMS    COLORGROUP SYSTEM
3 27 31 18
