#       Name:                AV-unprocessed.smi:3241
#       Creating user name   scv26
#       Creation time:       Fri Mar 27 18:25:06 2020


#       File generated by GOLD software.
#

@<TRIPOS>MOLECULE
AV-unprocessed.smi:3241
    47    48     1
SMALL
NO_CHARGES


@<TRIPOS>ATOM
      1 ****        -2.5416   1.6500   2.6120 C.3            1 S1                 0.0000
      2 ****        -2.9830   1.3248   1.1755 C.3            1 S1                 0.0000
      3 ****        -4.5046   1.5196   1.0185 C.3            1 S1                 0.0000
      4 ****        -4.9765   1.1983  -0.4073 C.3            1 S1                 0.0000
      5 ****        -4.5697  -0.2244  -0.8142 C.3            1 S1                 0.0000
      6 ****        -3.0540  -0.4261  -0.6728 C.3            1 S1                 0.0000
      7 ****        -2.5687  -0.1047   0.7574 C.3            1 S1                 0.0000
      8 ****        -1.1488  -0.1785   0.8110 O.3            1 S1                 0.0000
      9 ****        -0.6288  -1.4916   0.9590 C.3            1 S1                 0.0000
     10 ****         0.8979  -1.4018   1.0476 C.3            1 S1                 0.0000
     11 ****         1.4788  -0.9682  -0.2382 N.4            1 S1                 1.0000
     12 ****         2.9474  -0.8289  -0.2167 C.3            1 S1                 0.0000
     13 ****         3.4759  -0.3555  -1.5783 C.3            1 S1                 0.0000
     14 ****         4.9168  -0.1940  -1.5693 N.pl3          1 S1                 0.0000
     15 ****         5.6504   0.9738  -1.5796 C.2            1 S1                 0.0000
     16 ****         6.9703   0.6240  -1.5678 C.2            1 S1                 0.0000
     17 ****         6.9431  -0.7986  -1.5535 C.2            1 S1                 0.0000
     18 ****         5.7121  -1.2851  -1.5555 N.2            1 S1                 0.0000
     19 ****        -2.9945   0.9658   3.3302 H              1 S1                 0.0000
     20 ****        -2.8308   2.6636   2.8906 H              1 S1                 0.0000
     21 ****        -1.4593   1.5793   2.7222 H              1 S1                 0.0000
     22 ****        -2.4861   2.0311   0.5085 H              1 S1                 0.0000
     23 ****        -5.0332   0.8803   1.7272 H              1 S1                 0.0000
     24 ****        -4.7773   2.5456   1.2680 H              1 S1                 0.0000
     25 ****        -6.0591   1.3093  -0.4746 H              1 S1                 0.0000
     26 ****        -4.5477   1.9173  -1.1066 H              1 S1                 0.0000
     27 ****        -5.0956  -0.9487  -0.1908 H              1 S1                 0.0000
     28 ****        -4.8769  -0.4191  -1.8422 H              1 S1                 0.0000
     29 ****        -2.8056  -1.4520  -0.9433 H              1 S1                 0.0000
     30 ****        -2.5358   0.2151  -1.3871 H              1 S1                 0.0000
     31 ****        -3.0098  -0.8120   1.4626 H              1 S1                 0.0000
     32 ****        -1.0191  -1.9379   1.8748 H              1 S1                 0.0000
     33 ****        -0.9230  -2.1349   0.1295 H              1 S1                 0.0000
     34 ****         1.1874  -0.7100   1.8397 H              1 S1                 0.0000
     35 ****         1.3079  -2.3786   1.3073 H              1 S1                 0.0000
     36 ****         1.2283  -1.6406  -0.9491 H              1 S1                 0.0000
     37 ****         3.2295  -0.1162   0.5596 H              1 S1                 0.0000
     38 ****         3.3925  -1.7889   0.0484 H              1 S1                 0.0000
     39 ****         3.2119  -1.0674  -2.3618 H              1 S1                 0.0000
     40 ****         3.0224   0.5985  -1.8506 H              1 S1                 0.0000
     41 ****         5.1790   1.9454  -1.5940 H              1 S1                 0.0000
     42 ****         7.8254   1.2835  -1.5708 H              1 S1                 0.0000
     43 ****         7.7753  -1.4869  -1.5426 H              1 S1                 0.0000
     44 ****         1.0756  -0.0746  -0.4819 H              1 S1                 0.0000
     45 ****        -0.8373   0.3694   1.5874 LP             1 S1                 0.0000
     46 ****        -0.7844   0.2073  -0.0366 LP             1 S1                 0.0000
     47 ****         5.4336  -2.2455  -1.5484 LP             1 S1                 0.0000
@<TRIPOS>BOND
    1    1    2 1     
    2    1   19 1     
    3    1   20 1     
    4    1   21 1     
    5    2    7 1     
    6    2    3 1     
    7    2   22 1     
    8    3    4 1     
    9    3   23 1     
   10    3   24 1     
   11    4    5 1     
   12    4   25 1     
   13    4   26 1     
   14    5    6 1     
   15    5   27 1     
   16    5   28 1     
   17    6    7 1     
   18    6   29 1     
   19    6   30 1     
   20    7    8 1     
   21    7   31 1     
   22    8    9 1     
   23    9   10 1     
   24    9   32 1     
   25    9   33 1     
   26   10   11 1     
   27   10   34 1     
   28   10   35 1     
   29   11   12 1     
   30   11   36 1     
   31   11   44 1     
   32   12   13 1     
   33   12   37 1     
   34   12   38 1     
   35   13   14 1     
   36   13   39 1     
   37   13   40 1     
   38   14   18 1     
   39   14   15 1     
   40   15   16 2     
   41   15   41 1     
   42   16   17 1     
   43   16   42 1     
   44   17   18 2     
   45   17   43 1     
   46    8   45 1     
   47    8   46 1     
   48   18   47 1     
@<TRIPOS>SUBSTRUCTURE
      1 S1             1
@<TRIPOS>SET
LONE_PAIRS      STATIC     ATOMS    <user>   **** ""
3 45 46 47
DONOR_HYDROGENS      STATIC     ATOMS    <user>   **** ""
2 36 44
ATOM$BLUE        STATIC     ATOMS    COLORGROUP SYSTEM
3 45 46 47
ATOM$RED        STATIC     ATOMS    COLORGROUP SYSTEM
2 36 44
