AV-unprocessed.smi:1103|AV-procd|sdf|4774|dock5
  -GOLD-   22720 3313D 1   1.00000     0.00000
 Structure written by MMmdl.
 44 45  0  0  0  0  0  0  0  0  2 V2000
  144.1908  137.2081  153.0004 C   0  0  0  0  0  0  0  0  0  0  0  0
  144.5502  137.8773  154.3350 C   0  0  0  0  0  0  0  0  0  0  0  0
  145.5063  139.0027  154.1755 N   0  3  2  0  0  0  0  0  0  0  0  0
  146.6153  138.6625  153.2482 C   0  0  0  0  0  0  0  0  0  0  0  0
  147.5099  139.8830  152.9868 C   0  0  0  0  0  0  0  0  0  0  0  0
  148.0605  140.4475  154.3018 C   0  0  0  0  0  0  0  0  0  0  0  0
  146.9119  140.7749  155.2718 C   0  0  2  0  0  0  0  0  0  0  0  0
  147.4654  141.3404  156.5980 C   0  0  0  0  0  0  0  0  0  0  0  0
  148.6821  142.1207  156.3951 N   0  0  0  0  0  0  0  0  0  0  0  0
  149.8943  141.8127  156.8820 C   0  0  0  0  0  0  0  0  0  0  0  0
  150.1357  140.7807  157.5077 O   0  0  0  0  0  0  0  0  0  0  0  0
  150.9924  142.8544  156.6741 C   0  0  0  0  0  0  0  0  0  0  0  0
  151.4944  143.3169  157.9552 N   0  0  0  0  0  0  0  0  0  0  0  0
  151.9242  142.5647  159.0275 C   0  0  0  0  0  0  0  0  0  0  0  0
  152.2793  143.4315  160.0217 C   0  0  0  0  0  0  0  0  0  0  0  0
  152.7997  143.1190  161.3945 C   0  0  0  0  0  0  0  0  0  0  0  0
  152.0305  144.7115  159.4500 C   0  0  0  0  0  0  0  0  0  0  0  0
  151.5555  144.6405  158.2176 N   0  0  0  0  0  0  0  0  0  0  0  0
  146.0174  139.5281  155.4701 C   0  0  0  0  0  0  0  0  0  0  0  0
  143.5776  136.3227  153.1691 H   0  0  0  0  0  0  0  0  0  0  0  0
  145.0842  136.8922  152.4610 H   0  0  0  0  0  0  0  0  0  0  0  0
  143.6208  137.8713  152.3519 H   0  0  0  0  0  0  0  0  0  0  0  0
  143.6503  138.2206  154.8468 H   0  0  0  0  0  0  0  0  0  0  0  0
  144.9984  137.1168  154.9761 H   0  0  0  0  0  0  0  0  0  0  0  0
  147.2041  137.8449  153.6675 H   0  0  0  0  0  0  0  0  0  0  0  0
  146.2101  138.3082  152.2996 H   0  0  0  0  0  0  0  0  0  0  0  0
  148.3333  139.6068  152.3273 H   0  0  0  0  0  0  0  0  0  0  0  0
  146.9395  140.6526  152.4651 H   0  0  0  0  0  0  0  0  0  0  0  0
  148.7367  139.7220  154.7565 H   0  0  0  0  0  0  0  0  0  0  0  0
  148.6525  141.3412  154.1001 H   0  0  0  0  0  0  0  0  0  0  0  0
  146.3001  141.5531  154.8120 H   0  0  0  0  0  0  0  0  0  0  0  0
  146.7012  141.9287  157.1090 H   0  0  0  0  0  0  0  0  0  0  0  0
  147.7138  140.5194  157.2712 H   0  0  0  0  0  0  0  0  0  0  0  0
  148.5856  142.9913  155.8920 H   0  0  0  0  0  0  0  0  0  0  0  0
  151.8168  142.4197  156.1074 H   0  0  0  0  0  0  0  0  0  0  0  0
  150.6166  143.7028  156.0996 H   0  0  0  0  0  0  0  0  0  0  0  0
  151.9349  141.4849  158.9963 H   0  0  0  0  0  0  0  0  0  0  0  0
  152.9152  144.0188  161.9989 H   0  0  0  0  0  0  0  0  0  0  0  0
  153.7736  142.6309  161.3536 H   0  0  0  0  0  0  0  0  0  0  0  0
  152.1273  142.4532  161.9358 H   0  0  0  0  0  0  0  0  0  0  0  0
  152.1740  145.6851  159.8948 H   0  0  0  0  0  0  0  0  0  0  0  0
  145.1716  139.7904  156.1031 H   0  0  0  0  0  0  0  0  0  0  0  0
  146.5713  138.7451  155.9909 H   0  0  0  0  0  0  0  0  0  0  0  0
  144.9929  139.7536  153.7366 H   0  0  0  0  0  0  0  0  0  0  0  0
  1  2  1  0  0  0  0
  1 20  1  0  0  0  0
  1 21  1  0  0  0  0
  1 22  1  0  0  0  0
  2  3  1  0  0  0  0
  2 23  1  0  0  0  0
  2 24  1  0  0  0  0
  3 19  1  0  0  0  0
  3  4  1  0  0  0  0
  3 44  1  0  0  0  0
  4  5  1  0  0  0  0
  4 25  1  0  0  0  0
  4 26  1  0  0  0  0
  5  6  1  0  0  0  0
  5 27  1  0  0  0  0
  5 28  1  0  0  0  0
  6  7  1  0  0  0  0
  6 29  1  0  0  0  0
  6 30  1  0  0  0  0
  7  8  1  0  0  0  0
  7 19  1  0  0  0  0
  7 31  1  0  0  0  0
  8  9  1  0  0  0  0
  8 32  1  0  0  0  0
  8 33  1  0  0  0  0
  9 10  1  0  0  0  0
  9 34  1  0  0  0  0
 10 11  2  0  0  0  0
 10 12  1  0  0  0  0
 12 13  1  0  0  0  0
 12 35  1  0  0  0  0
 12 36  1  0  0  0  0
 13 18  1  0  0  0  0
 13 14  1  0  0  0  0
 14 15  2  0  0  0  0
 14 37  1  0  0  0  0
 15 16  1  0  0  0  0
 15 17  1  0  0  0  0
 16 38  1  0  0  0  0
 16 39  1  0  0  0  0
 16 40  1  0  0  0  0
 17 18  2  0  0  0  0
 17 41  1  0  0  0  0
 19 42  1  0  0  0  0
 19 43  1  0  0  0  0
M  CHG  1   3   1
M  END
> <s_m_source_file>
AV-unprocessed.smi

> <i_m_source_file_index>
1103

> <i_lp_mmshare_version>
43012

> <i_f3d_flags>
0

> <s_epik_input>
W0NIM11bQ0gyXU4xW0NIMl1bQ0gyXVtDSDJdW0NASF0oW0NIMl0xKVtDSDJdW05IXUMoPU8pW0NIMl1uMltjSF1jKFtDSDNdKVtjSF1uMg==

> <s_epik_cmdline>
J2VwaWtfcHl0aG9uJywgJy1waCcsICc3LjAnLCAnLXRuJywgJzgnLCAnLW1hJywgJzIwMCcsICctbWV0YWxfYmluZGluZycsICctaW1hZScsICc8aW5maWxlLm1hZT4nLCAnLW9tYWUnLCAnPG91dGZpbGUubWFlPic=

> <r_lp_tautomer_probability>
1

> <r_epik_Ionization_Penalty>
0.000672456

> <r_epik_Ionization_Penalty_Charging>
0.000647327

> <r_epik_Ionization_Penalty_Neutral>
2.51297e-05

> <r_epik_State_Penalty>
0.000409793

> <r_epik_Charging_Adjusted_Penalty>
0.00105712

> <i_epik_Tot_Q>
1

> <i_epik_Tot_abs_Q>
1

> <r_epik_Metal_State_Penalty>
-0

> <b_epik_Metal_Only>
0

> <s_lp_Force_Field>
OPLS_2005

> <r_lp_Energy>
16.1771

> <b_lp_Chiralities_Consistent>
1

> <s_lp_Variant>
AV-unprocessed.smi:1103-4

> <Gold.Version>
5.8.1

> <Gold.Id.Protein>
6NUR|6NUR_protein|mol2

> <Gold.PLP.Fitness>
40.4107

> <Gold.PLP.PLP>
-32.2622

> <Gold.PLP.part.hbond>
-2.0000

> <Gold.PLP.part.metal>
0.0000

> <Gold.PLP.part.buried>
-0.9029

> <Gold.PLP.part.nonpolar>
-29.7273

> <Gold.PLP.part.repulsive>
0.1452

> <Gold.PLP.ligand.clash>
0.0000

> <Gold.PLP.ligand.torsion>
0.4420

> <Gold.PLP.Chemscore.Hbond>
3.0000

> <Gold.PLP.Chemscore.CHOScore>
0.0000

> <Gold.PLP.Chemscore.Metal>
0.0000

> <Gold.Chemscore.Hbonds>
donor molecule, donor type, donor heavy atom, donor atom, acceptor molecule, acceptor atom, score
      L1  H     3    44       P1 10175  2.00
      L1  H     9    34       P1  8028  1.00

> <Gold.PLP.Chemscore.Internal.Correction>
0.0324

> <Gold.Rescore>
     Score         DG    S(hbond)    S(metal)    S(lipo)     H(rot)  DE(clash)    DE(int)     intcor
     16.42     -17.57       1.90        0.00      85.84       1.68       0.69       0.46       ----

> <Gold.Chemscore.Fitness>
16.4217

> <Gold.Chemscore.DG>
-17.5749

> <Gold.Chemscore.ZeroCoef>
-5.4800

> <Gold.Chemscore.Hbond>
1.9037

> <Gold.Chemscore.Metal>
0.0000

> <Gold.Chemscore.Lipo>
85.8378

> <Gold.Chemscore.Internal_Hbond>
0.0000

> <Gold.Chemscore.DEClash>
0.6899

> <Gold.Chemscore.DEInternal>
0.4633

> <Gold.Chemscore.Rot>
1.6823

> <Gold.Chemscore.Internal.Correction>
   9.000000E+99

> <Gold.Chemscore.Hbonds>
donor molecule, donor type, donor heavy atom, donor atom, acceptor molecule, acceptor atom, score
      L1  H     3    44       P1 10175  0.96
      L1  H     9    34       P1  8028  0.97

> <Gold.Chemscore.Hbond.Weighted>
-6.3585

> <Gold.Chemscore.Metal.Weighted>
-0.0000

> <Gold.Chemscore.Lipo.Weighted>
-10.0430

> <Gold.Chemscore.Internal_Hbond.Weighted>
0.0000

> <Gold.Chemscore.DEClash.Weighted>
0.6899

> <Gold.Chemscore.DEInternal.Weighted>
0.4633

> <Gold.Chemscore.Rot.Weighted>
4.3066

> <Gold.Chemscore.Internal.Correction.Weighted>
   9.000000E+99

> <Gold.Protein.RotatedTorsions>
[ 6907 6896 6895 6894 ] final -111.40 input  -60.11 | X-H torsion
[ 7974 7965 7964 7962 ] final   91.86 input  175.53 | X-H torsion
[ 8008 7997 7996 7995 ] final   66.54 input   59.86 | X-H torsion
[ 10167 10162 10161 10158 ] final -164.27 input  -65.29 | X-H torsion
[ 10718 10713 10712 10709 ] final  -82.99 input   66.30 | X-H torsion
[ 10763 10752 10751 10750 ] final  -98.31 input  -60.55 | X-H torsion
[ 11005 11000 10999 10996 ] final -133.41 input  -57.11 | X-H torsion

> <Gold.Protein.ActiveResidues>
 VAL166  LYS551  ARG553  GLY616  TRP617  ASP618  TYR619  PRO620  LYS621  CYS622 
 ASP623  PHE694  ASN695  SER759  ASP760  ASP761  ALA762  ILE779  LEU786  VAL792 
 PHE793  MET794  SER795  GLU796  ALA797  LYS798  CYS799  TRP800  GLU811  SER814 

> <Gold.Protein.RotatedAtoms>
  150.7688  133.9241  159.3406 H   0  0  0  0  0  0  0  0  0  0  0  0  # atno 6907 bound_to 6896
  151.7132  135.0907  160.0281 H   0  0  0  0  0  0  0  0  0  0  0  0  # atno 6908 bound_to 6896
  152.3696  133.6364  159.6112 H   0  0  0  0  0  0  0  0  0  0  0  0  # atno 6909 bound_to 6896
  145.5000  139.2276  143.2782 H   0  0  0  0  0  0  0  0  0  0  0  0  # atno 7974 bound_to 7965
  155.6790  140.3496  155.4848 H   0  0  0  0  0  0  0  0  0  0  0  0  # atno 8008 bound_to 7997
  155.9623  140.1139  157.0908 H   0  0  0  0  0  0  0  0  0  0  0  0  # atno 8009 bound_to 7997
  154.4146  140.1173  156.5181 H   0  0  0  0  0  0  0  0  0  0  0  0  # atno 8010 bound_to 7997
  139.6262  144.0528  152.1976 H   0  0  0  0  0  0  0  0  0  0  0  0  # atno 10167 bound_to 10162
  156.0025  130.4651  150.4189 H   0  0  0  0  0  0  0  0  0  0  0  0  # atno 10718 bound_to 10713
  154.7403  135.5014  153.9112 H   0  0  0  0  0  0  0  0  0  0  0  0  # atno 10763 bound_to 10752
  153.1037  135.6691  153.9634 H   0  0  0  0  0  0  0  0  0  0  0  0  # atno 10764 bound_to 10752
  153.9413  135.3067  155.3421 H   0  0  0  0  0  0  0  0  0  0  0  0  # atno 10765 bound_to 10752
  140.9083  134.1600  157.4408 H   0  0  0  0  0  0  0  0  0  0  0  0  # atno 11005 bound_to 11000
  146.2232  140.5800  142.9008 LP  0  0  0  0  0  0  0  0  0  0  0  0  # atno 17320 bound_to 7965
  144.7785  140.5791  143.6621 LP  0  0  0  0  0  0  0  0  0  0  0  0  # atno 17321 bound_to 7965
  140.0182  144.6173  150.7589 LP  0  0  0  0  0  0  0  0  0  0  0  0  # atno 17342 bound_to 10162
  140.7412  143.2815  151.3585 LP  0  0  0  0  0  0  0  0  0  0  0  0  # atno 17343 bound_to 10162
  157.2246  131.0490  151.2527 LP  0  0  0  0  0  0  0  0  0  0  0  0  # atno 17370 bound_to 10713
  157.3768  130.7210  149.6603 LP  0  0  0  0  0  0  0  0  0  0  0  0  # atno 17371 bound_to 10713
  139.8753  134.9926  156.5603 LP  0  0  0  0  0  0  0  0  0  0  0  0  # atno 17394 bound_to 11000
  140.8142  133.8405  155.8837 LP  0  0  0  0  0  0  0  0  0  0  0  0  # atno 17395 bound_to 11000

$$$$
