AV-unprocessed.smi:3187|AV-procd|sdf|12177|dock1
  -GOLD-   2272018 13D 1   1.00000     0.00000
 Structure written by MMmdl.
 41 42  0  0  0  0  0  0  0  0  2 V2000
  152.4026  139.5183  158.5432 C   0  0  0  0  0  0  0  0  0  0  0  0
  152.4542  140.9442  159.0667 C   0  0  0  0  0  0  0  0  0  0  0  0
  153.0946  141.2079  160.2219 C   0  0  0  0  0  0  0  0  0  0  0  0
  153.2744  142.5922  160.8009 C   0  0  0  0  0  0  0  0  0  0  0  0
  153.0985  143.6656  159.7242 C   0  0  0  0  0  0  0  0  0  0  0  0
  151.8099  143.4442  158.9152 C   0  0  1  0  0  0  0  0  0  0  0  0
  151.6293  144.6033  157.9156 C   0  0  0  0  0  0  0  0  0  0  0  0
  151.7795  142.0461  158.2233 C   0  0  2  0  0  0  0  0  0  0  0  0
  150.3273  141.6839  157.8124 C   0  0  0  0  0  0  0  0  0  0  0  0
  149.9785  142.1571  156.4568 N   0  3  0  0  0  0  0  0  0  0  0  0
  149.0513  141.2710  155.7274 C   0  0  0  0  0  0  0  0  0  0  0  0
  149.6765  140.7837  154.4136 C   0  0  0  0  0  0  0  0  0  0  0  0
  150.4556  139.5784  154.6114 N   0  0  0  0  0  0  0  0  0  0  0  0
  150.4269  138.4259  153.8371 C   0  0  0  0  0  0  0  0  0  0  0  0
  151.3328  137.5536  154.3973 C   0  0  0  0  0  0  0  0  0  0  0  0
  151.9279  138.1462  155.5086 N   0  0  0  0  0  0  0  0  0  0  0  0
  151.3578  139.3422  155.5738 C   0  0  0  0  0  0  0  0  0  0  0  0
  152.7382  139.4793  157.5067 H   0  0  0  0  0  0  0  0  0  0  0  0
  151.3917  139.1163  158.6063 H   0  0  0  0  0  0  0  0  0  0  0  0
  153.0496  138.8596  159.1239 H   0  0  0  0  0  0  0  0  0  0  0  0
  153.5340  140.4015  160.7913 H   0  0  0  0  0  0  0  0  0  0  0  0
  152.5555  142.7299  161.6090 H   0  0  0  0  0  0  0  0  0  0  0  0
  154.2698  142.6704  161.2392 H   0  0  0  0  0  0  0  0  0  0  0  0
  153.0916  144.6498  160.1945 H   0  0  0  0  0  0  0  0  0  0  0  0
  153.9581  143.6514  159.0523 H   0  0  0  0  0  0  0  0  0  0  0  0
  150.9820  143.4878  159.6249 H   0  0  0  0  0  0  0  0  0  0  0  0
  152.4175  144.6019  157.1622 H   0  0  0  0  0  0  0  0  0  0  0  0
  151.6666  145.5665  158.4255 H   0  0  0  0  0  0  0  0  0  0  0  0
  150.6740  144.5614  157.3950 H   0  0  0  0  0  0  0  0  0  0  0  0
  152.3809  142.1244  157.3162 H   0  0  0  0  0  0  0  0  0  0  0  0
  150.1869  140.6036  157.8726 H   0  0  0  0  0  0  0  0  0  0  0  0
  149.6027  142.1234  158.4959 H   0  0  0  0  0  0  0  0  0  0  0  0
  149.5591  143.0728  156.5335 H   0  0  0  0  0  0  0  0  0  0  0  0
  148.8000  140.4179  156.3594 H   0  0  0  0  0  0  0  0  0  0  0  0
  148.1236  141.8089  155.5257 H   0  0  0  0  0  0  0  0  0  0  0  0
  148.9024  140.5800  153.6722 H   0  0  0  0  0  0  0  0  0  0  0  0
  150.3274  141.5509  153.9922 H   0  0  0  0  0  0  0  0  0  0  0  0
  149.7831  138.3226  152.9759 H   0  0  0  0  0  0  0  0  0  0  0  0
  151.6010  136.5541  154.0882 H   0  0  0  0  0  0  0  0  0  0  0  0
  151.6046  140.0640  156.3387 H   0  0  0  0  0  0  0  0  0  0  0  0
  150.8311  142.2367  155.9209 H   0  0  0  0  0  0  0  0  0  0  0  0
  1  2  1  0  0  0  0
  1 18  1  0  0  0  0
  1 19  1  0  0  0  0
  1 20  1  0  0  0  0
  2  8  1  0  0  0  0
  2  3  2  0  0  0  0
  3  4  1  0  0  0  0
  3 21  1  0  0  0  0
  4  5  1  0  0  0  0
  4 22  1  0  0  0  0
  4 23  1  0  0  0  0
  5  6  1  0  0  0  0
  5 24  1  0  0  0  0
  5 25  1  0  0  0  0
  6  7  1  0  0  0  0
  6  8  1  0  0  0  0
  6 26  1  0  0  0  0
  7 27  1  0  0  0  0
  7 28  1  0  0  0  0
  7 29  1  0  0  0  0
  8  9  1  0  0  0  0
  8 30  1  0  0  0  0
  9 10  1  0  0  0  0
  9 31  1  0  0  0  0
  9 32  1  0  0  0  0
 10 11  1  0  0  0  0
 10 33  1  0  0  0  0
 10 41  1  0  0  0  0
 11 12  1  0  0  0  0
 11 34  1  0  0  0  0
 11 35  1  0  0  0  0
 12 13  1  0  0  0  0
 12 36  1  0  0  0  0
 12 37  1  0  0  0  0
 13 17  1  0  0  0  0
 13 14  1  0  0  0  0
 14 15  2  0  0  0  0
 14 38  1  0  0  0  0
 15 16  1  0  0  0  0
 15 39  1  0  0  0  0
 16 17  2  0  0  0  0
 17 40  1  0  0  0  0
M  CHG  1  10   1
M  END
> <s_m_source_file>
AV-unprocessed.smi

> <i_m_source_file_index>
3187

> <i_lp_mmshare_version>
43012

> <i_f3d_flags>
0

> <s_epik_input>
W0NIM11DMT1bQ0hdW0NIMl1bQ0gyXVtDQEBIXShbQ0gzXSlbQ0BIXTFbQ0gyXVtOSF1bQ0gyXVtDSDJdbjJbY0hdW2NIXW5bY0hdMg==

> <s_epik_cmdline>
J2VwaWtfcHl0aG9uJywgJy1waCcsICc3LjAnLCAnLXRuJywgJzgnLCAnLW1hJywgJzIwMCcsICctbWV0YWxfYmluZGluZycsICctaW1hZScsICc8aW5maWxlLm1hZT4nLCAnLW9tYWUnLCAnPG91dGZpbGUubWFlPic=

> <r_lp_tautomer_probability>
1

> <r_epik_Ionization_Penalty>
0.0501625

> <r_epik_Ionization_Penalty_Charging>
0.0501625

> <r_epik_Ionization_Penalty_Neutral>
0

> <r_epik_State_Penalty>
0.0972392

> <r_epik_Charging_Adjusted_Penalty>
0.147402

> <i_epik_Tot_Q>
1

> <i_epik_Tot_abs_Q>
1

> <r_epik_Metal_State_Penalty>
0.000104376

> <b_epik_Metal_Only>
0

> <s_lp_Force_Field>
OPLS_2005

> <r_lp_Energy>
17.2086

> <b_lp_Chiralities_Consistent>
1

> <s_lp_Variant>
AV-unprocessed.smi:3187-3

> <Gold.Version>
5.8.1

> <Gold.Id.Protein>
6NUR|6NUR_protein|mol2

> <Gold.PLP.Fitness>
50.4503

> <Gold.PLP.PLP>
-40.1693

> <Gold.PLP.part.hbond>
-1.0000

> <Gold.PLP.part.metal>
0.0000

> <Gold.PLP.part.buried>
-0.9555

> <Gold.PLP.part.nonpolar>
-36.9032

> <Gold.PLP.part.repulsive>
0.0810

> <Gold.PLP.ligand.clash>
0.0000

> <Gold.PLP.ligand.torsion>
1.3467

> <Gold.PLP.Chemscore.Hbond>
1.9840

> <Gold.PLP.Chemscore.CHOScore>
2.2914

> <Gold.PLP.Chemscore.Metal>
0.0000

> <Gold.Chemscore.Hbonds>
donor molecule, donor type, donor heavy atom, donor atom, acceptor molecule, acceptor atom, score
      L1  H    10    33       P1  8028  1.98
      L1  C    14    38       P1  7948  0.98
      L1  C    14    38       P1  7957  0.88
      L1  C    15    39       P1  7949  0.43

> <Gold.PLP.Chemscore.Internal.Correction>
0.1480

> <Gold.Rescore>
     Score         DG    S(hbond)    S(metal)    S(lipo)     H(rot)  DE(clash)    DE(int)     intcor
     16.12     -17.51       0.94        0.00     117.11       1.89       0.10       1.28       ----

> <Gold.Chemscore.Fitness>
16.1238

> <Gold.Chemscore.DG>
-17.5079

> <Gold.Chemscore.ZeroCoef>
-5.4800

> <Gold.Chemscore.Hbond>
0.9439

> <Gold.Chemscore.Metal>
0.0000

> <Gold.Chemscore.Lipo>
117.1079

> <Gold.Chemscore.Internal_Hbond>
0.0000

> <Gold.Chemscore.DEClash>
0.1034

> <Gold.Chemscore.DEInternal>
1.2807

> <Gold.Chemscore.Rot>
1.8853

> <Gold.Chemscore.Internal.Correction>
   9.000000E+99

> <Gold.Chemscore.Hbonds>
donor molecule, donor type, donor heavy atom, donor atom, acceptor molecule, acceptor atom, score
      L1  H    10    33       P1  8028  0.92

> <Gold.Chemscore.Hbond.Weighted>
-3.1525

> <Gold.Chemscore.Metal.Weighted>
-0.0000

> <Gold.Chemscore.Lipo.Weighted>
-13.7016

> <Gold.Chemscore.Internal_Hbond.Weighted>
0.0000

> <Gold.Chemscore.DEClash.Weighted>
0.1034

> <Gold.Chemscore.DEInternal.Weighted>
1.2807

> <Gold.Chemscore.Rot.Weighted>
4.8263

> <Gold.Chemscore.Internal.Correction.Weighted>
   9.000000E+99

> <Gold.Protein.RotatedTorsions>
[ 6907 6896 6895 6894 ] final -118.14 input  -60.11 | X-H torsion
[ 7974 7965 7964 7962 ] final  133.47 input  175.53 | X-H torsion
[ 8008 7997 7996 7995 ] final  170.99 input   59.86 | X-H torsion
[ 10167 10162 10161 10158 ] final  -28.91 input  -65.29 | X-H torsion
[ 10718 10713 10712 10709 ] final  -90.43 input   66.30 | X-H torsion
[ 10763 10752 10751 10750 ] final  -83.73 input  -60.55 | X-H torsion
[ 11005 11000 10999 10996 ] final  -29.93 input  -57.11 | X-H torsion

> <Gold.Protein.ActiveResidues>
 VAL166  LYS551  ARG553  GLY616  TRP617  ASP618  TYR619  PRO620  LYS621  CYS622 
 ASP623  PHE694  ASN695  SER759  ASP760  ASP761  ALA762  ILE779  LEU786  VAL792 
 PHE793  MET794  SER795  GLU796  ALA797  LYS798  CYS799  TRP800  GLU811  SER814 

> <Gold.Protein.RotatedAtoms>
  150.8195  133.8278  159.3145 H   0  0  0  0  0  0  0  0  0  0  0  0  # atno 6907 bound_to 6896
  151.6040  135.1043  160.0076 H   0  0  0  0  0  0  0  0  0  0  0  0  # atno 6908 bound_to 6896
  152.4285  133.7195  159.6582 H   0  0  0  0  0  0  0  0  0  0  0  0  # atno 6909 bound_to 6896
  144.9862  139.4453  143.5362 H   0  0  0  0  0  0  0  0  0  0  0  0  # atno 7974 bound_to 7965
  156.1314  140.1523  156.9060 H   0  0  0  0  0  0  0  0  0  0  0  0  # atno 8008 bound_to 7997
  154.4912  140.0851  156.7638 H   0  0  0  0  0  0  0  0  0  0  0  0  # atno 8009 bound_to 7997
  155.4249  140.3424  155.4277 H   0  0  0  0  0  0  0  0  0  0  0  0  # atno 8010 bound_to 7997
  140.7265  143.3971  151.1328 H   0  0  0  0  0  0  0  0  0  0  0  0  # atno 10167 bound_to 10162
  155.9988  130.4909  150.5322 H   0  0  0  0  0  0  0  0  0  0  0  0  # atno 10718 bound_to 10713
  154.5912  135.5545  153.7280 H   0  0  0  0  0  0  0  0  0  0  0  0  # atno 10763 bound_to 10752
  153.0117  135.6344  154.1846 H   0  0  0  0  0  0  0  0  0  0  0  0  # atno 10764 bound_to 10752
  154.1787  135.2888  155.3039 H   0  0  0  0  0  0  0  0  0  0  0  0  # atno 10765 bound_to 10752
  140.9339  133.7321  156.0977 H   0  0  0  0  0  0  0  0  0  0  0  0  # atno 11005 bound_to 11000
  146.3420  139.9165  142.8772 LP  0  0  0  0  0  0  0  0  0  0  0  0  # atno 17320 bound_to 7965
  145.2350  140.9988  143.3968 LP  0  0  0  0  0  0  0  0  0  0  0  0  # atno 17321 bound_to 7965
  139.7585  143.8670  152.3094 LP  0  0  0  0  0  0  0  0  0  0  0  0  # atno 17342 bound_to 10162
  139.8548  144.7146  150.9170 LP  0  0  0  0  0  0  0  0  0  0  0  0  # atno 17343 bound_to 10162
  157.3269  131.0692  151.1890 LP  0  0  0  0  0  0  0  0  0  0  0  0  # atno 17370 bound_to 10713
  157.2784  130.6738  149.6053 LP  0  0  0  0  0  0  0  0  0  0  0  0  # atno 17371 bound_to 10713
  140.7825  134.3709  157.5484 LP  0  0  0  0  0  0  0  0  0  0  0  0  # atno 17394 bound_to 11000
  139.8803  134.9090  156.2982 LP  0  0  0  0  0  0  0  0  0  0  0  0  # atno 17395 bound_to 11000

$$$$
