AV-unprocessed.smi:1878|AV-procd|sdf|7628|dock1
  -GOLD-   22720 9353D 1   1.00000     0.00000
 Structure written by MMmdl.
 34 35  0  0  0  0  0  0  0  0  2 V2000
  148.7986  141.6954  153.7468 O   0  0  0  0  0  0  0  0  0  0  0  0
  149.0975  140.7572  154.4890 C   0  0  0  0  0  0  0  0  0  0  0  0
  148.1328  140.0464  155.0859 N   0  0  0  0  0  0  0  0  0  0  0  0
  146.7024  140.2865  154.9382 C   0  0  0  0  0  0  0  0  0  0  0  0
  146.1610  141.1452  156.0899 C   0  0  0  0  0  0  0  0  0  0  0  0
  146.7108  142.3576  156.0312 F   0  0  0  0  0  0  0  0  0  0  0  0
  144.8373  141.2711  155.9929 F   0  0  0  0  0  0  0  0  0  0  0  0
  146.4657  140.5939  157.2648 F   0  0  0  0  0  0  0  0  0  0  0  0
  150.3491  140.3388  154.7884 N   0  5  0  0  0  0  0  0  0  0  0  0
  150.9332  140.7264  155.9329 C   0  0  0  0  0  0  0  0  0  0  0  0
  150.5424  141.9059  156.6020 C   0  0  0  0  0  0  0  0  0  0  0  0
  151.1781  142.2749  157.8025 C   0  0  0  0  0  0  0  0  0  0  0  0
  152.1979  141.4438  158.3205 C   0  0  0  0  0  0  0  0  0  0  0  0
  152.8662  141.7740  159.5165 N   0  0  0  0  0  0  0  0  0  0  0  0
  153.4695  140.7576  160.3643 C   0  0  0  0  0  0  0  0  0  0  0  0
  153.9586  141.5218  161.5935 C   0  0  0  0  0  0  0  0  0  0  0  0
  152.9347  142.6486  161.7311 C   0  0  0  0  0  0  0  0  0  0  0  0
  152.5248  142.9614  160.2871 C   0  0  0  0  0  0  0  0  0  0  0  0
  152.5804  140.3113  157.6861 N   0  0  0  0  0  0  0  0  0  0  0  0
  151.9633  139.9703  156.5349 C   0  0  0  0  0  0  0  0  0  0  0  0
  148.4127  139.2851  155.6870 H   0  0  0  0  0  0  0  0  0  0  0  0
  146.5199  140.7842  153.9847 H   0  0  0  0  0  0  0  0  0  0  0  0
  146.1748  139.3318  154.9089 H   0  0  0  0  0  0  0  0  0  0  0  0
  149.7613  142.5315  156.1949 H   0  0  0  0  0  0  0  0  0  0  0  0
  150.8810  143.1862  158.2989 H   0  0  0  0  0  0  0  0  0  0  0  0
  152.7146  140.0211  160.6432 H   0  0  0  0  0  0  0  0  0  0  0  0
  154.2864  140.2423  159.8578 H   0  0  0  0  0  0  0  0  0  0  0  0
  154.0287  140.8953  162.4828 H   0  0  0  0  0  0  0  0  0  0  0  0
  154.9455  141.9433  161.3977 H   0  0  0  0  0  0  0  0  0  0  0  0
  152.0684  142.2852  162.2855 H   0  0  0  0  0  0  0  0  0  0  0  0
  153.3274  143.5192  162.2571 H   0  0  0  0  0  0  0  0  0  0  0  0
  153.0920  143.8073  159.8981 H   0  0  0  0  0  0  0  0  0  0  0  0
  151.4630  143.2021  160.2274 H   0  0  0  0  0  0  0  0  0  0  0  0
  152.3088  139.0557  156.0750 H   0  0  0  0  0  0  0  0  0  0  0  0
  1  2  2  0  0  0  0
  2  3  1  0  0  0  0
  2  9  1  0  0  0  0
  3  4  1  0  0  0  0
  3 21  1  0  0  0  0
  4  5  1  0  0  0  0
  4 22  1  0  0  0  0
  4 23  1  0  0  0  0
  5  6  1  0  0  0  0
  5  7  1  0  0  0  0
  5  8  1  0  0  0  0
  9 10  1  0  0  0  0
 10 20  1  0  0  0  0
 10 11  2  0  0  0  0
 11 12  1  0  0  0  0
 11 24  1  0  0  0  0
 12 13  2  0  0  0  0
 12 25  1  0  0  0  0
 13 14  1  0  0  0  0
 13 19  1  0  0  0  0
 14 18  1  0  0  0  0
 14 15  1  0  0  0  0
 15 16  1  0  0  0  0
 15 26  1  0  0  0  0
 15 27  1  0  0  0  0
 16 17  1  0  0  0  0
 16 28  1  0  0  0  0
 16 29  1  0  0  0  0
 17 18  1  0  0  0  0
 17 30  1  0  0  0  0
 17 31  1  0  0  0  0
 18 32  1  0  0  0  0
 18 33  1  0  0  0  0
 19 20  2  0  0  0  0
 20 34  1  0  0  0  0
M  CHG  1   9  -1
M  END
> <s_m_source_file>
AV-unprocessed.smi

> <i_m_source_file_index>
1878

> <i_lp_mmshare_version>
43012

> <i_f3d_flags>
0

> <s_epik_input>
RkMoRikoRilbQ0gyXVtOSF1DKD1PKVtOSF1jMVtjSF1bY0hdYyhuW2NIXTEpTjJbQ0gyXVtDSDJdW0NIMl1bQ0gyXTI=

> <s_epik_cmdline>
J2VwaWtfcHl0aG9uJywgJy1waCcsICc3LjAnLCAnLXRuJywgJzgnLCAnLW1hJywgJzIwMCcsICctbWV0YWxfYmluZGluZycsICctaW1hZScsICc8aW5maWxlLm1hZT4nLCAnLW9tYWUnLCAnPG91dGZpbGUubWFlPic=

> <r_lp_tautomer_probability>
1

> <r_epik_Ionization_Penalty>
8.41125

> <r_epik_Ionization_Penalty_Charging>
6.79601

> <r_epik_Ionization_Penalty_Neutral>
1.61524

> <r_epik_State_Penalty>
6.86553

> <r_epik_Charging_Adjusted_Penalty>
13.6615

> <i_epik_Tot_Q>
-1

> <i_epik_Tot_abs_Q>
1

> <r_epik_Metal_State_Penalty>
2.85642

> <b_epik_Metal_Only>
1

> <s_lp_Force_Field>
OPLS_2005

> <r_lp_Energy>
22.1987

> <b_lp_Chiralities_Consistent>
1

> <s_lp_Variant>
AV-unprocessed.smi:1878-3

> <Gold.Version>
5.8.1

> <Gold.Id.Protein>
6NUR|6NUR_protein|mol2

> <Gold.PLP.Fitness>
44.0285

> <Gold.PLP.PLP>
-38.8240

> <Gold.PLP.part.hbond>
-3.0000

> <Gold.PLP.part.metal>
0.0000

> <Gold.PLP.part.buried>
-4.2644

> <Gold.PLP.part.nonpolar>
-32.0048

> <Gold.PLP.part.repulsive>
0.2938

> <Gold.PLP.ligand.clash>
0.0000

> <Gold.PLP.ligand.torsion>
1.1987

> <Gold.PLP.Chemscore.Hbond>
2.2798

> <Gold.PLP.Chemscore.CHOScore>
0.0000

> <Gold.PLP.Chemscore.Metal>
0.0000

> <Gold.Chemscore.Hbonds>
donor molecule, donor type, donor heavy atom, donor atom, acceptor molecule, acceptor atom, score
      P1  H  7989  7998       L1     9  1.00
      P1  H  7997  8008       L1    19  0.57
      P1  H  8011  8017       L1     1  0.62

> <Gold.PLP.Chemscore.Internal.Correction>
0.7625

> <Gold.Rescore>
     Score         DG    S(hbond)    S(metal)    S(lipo)     H(rot)  DE(clash)    DE(int)     intcor
     14.62     -15.90       1.16        0.00      77.71       1.00       0.06       1.21       ----

> <Gold.Chemscore.Fitness>
14.6246

> <Gold.Chemscore.DG>
-15.8962

> <Gold.Chemscore.ZeroCoef>
-5.4800

> <Gold.Chemscore.Hbond>
1.1628

> <Gold.Chemscore.Metal>
0.0000

> <Gold.Chemscore.Lipo>
77.7117

> <Gold.Chemscore.Internal_Hbond>
0.0000

> <Gold.Chemscore.DEClash>
0.0580

> <Gold.Chemscore.DEInternal>
1.2136

> <Gold.Chemscore.Rot>
1.0000

> <Gold.Chemscore.Internal.Correction>
   9.000000E+99

> <Gold.Chemscore.Hbonds>
donor molecule, donor type, donor heavy atom, donor atom, acceptor molecule, acceptor atom, score
      P1  H  7989  7998       L1     9  0.28
      P1  H  7997  8008       L1    19  0.06
      P1  H  8011  8017       L1     1  0.62

> <Gold.Chemscore.Hbond.Weighted>
-3.8839

> <Gold.Chemscore.Metal.Weighted>
-0.0000

> <Gold.Chemscore.Lipo.Weighted>
-9.0923

> <Gold.Chemscore.Internal_Hbond.Weighted>
0.0000

> <Gold.Chemscore.DEClash.Weighted>
0.0580

> <Gold.Chemscore.DEInternal.Weighted>
1.2136

> <Gold.Chemscore.Rot.Weighted>
2.5600

> <Gold.Chemscore.Internal.Correction.Weighted>
   9.000000E+99

> <Gold.Protein.RotatedTorsions>
[ 6907 6896 6895 6894 ] final -120.15 input  -60.11 | X-H torsion
[ 7974 7965 7964 7962 ] final  -87.84 input  175.53 | X-H torsion
[ 8008 7997 7996 7995 ] final  -76.74 input   59.86 | X-H torsion
[ 10167 10162 10161 10158 ] final   79.66 input  -65.29 | X-H torsion
[ 10718 10713 10712 10709 ] final  107.60 input   66.30 | X-H torsion
[ 10763 10752 10751 10750 ] final  -50.94 input  -60.55 | X-H torsion
[ 11005 11000 10999 10996 ] final  -26.90 input  -57.11 | X-H torsion

> <Gold.Protein.ActiveResidues>
 VAL166  LYS551  ARG553  GLY616  TRP617  ASP618  TYR619  PRO620  LYS621  CYS622 
 ASP623  PHE694  ASN695  SER759  ASP760  ASP761  ALA762  ILE779  LEU786  VAL792 
 PHE793  MET794  SER795  GLU796  ALA797  LYS798  CYS799  TRP800  GLU811  SER814 

> <Gold.Protein.RotatedAtoms>
  150.8368  133.8001  159.3076 H   0  0  0  0  0  0  0  0  0  0  0  0  # atno 6907 bound_to 6896
  151.5714  135.1060  160.0005 H   0  0  0  0  0  0  0  0  0  0  0  0  # atno 6908 bound_to 6896
  152.4439  133.7457  159.6722 H   0  0  0  0  0  0  0  0  0  0  0  0  # atno 6909 bound_to 6896
  145.4611  140.9561  143.1969 H   0  0  0  0  0  0  0  0  0  0  0  0  # atno 7974 bound_to 7965
  154.5533  140.0722  156.8702 H   0  0  0  0  0  0  0  0  0  0  0  0  # atno 8008 bound_to 7997
  155.2951  140.3380  155.4232 H   0  0  0  0  0  0  0  0  0  0  0  0  # atno 8009 bound_to 7997
  156.1980  140.1711  156.7944 H   0  0  0  0  0  0  0  0  0  0  0  0  # atno 8010 bound_to 7997
  139.9580  144.5980  150.8098 H   0  0  0  0  0  0  0  0  0  0  0  0  # atno 10167 bound_to 10162
  157.6622  131.0876  150.6180 H   0  0  0  0  0  0  0  0  0  0  0  0  # atno 10718 bound_to 10713
  154.1185  135.6538  153.4898 H   0  0  0  0  0  0  0  0  0  0  0  0  # atno 10763 bound_to 10752
  153.0233  135.5264  154.7120 H   0  0  0  0  0  0  0  0  0  0  0  0  # atno 10764 bound_to 10752
  154.6321  135.2977  155.0174 H   0  0  0  0  0  0  0  0  0  0  0  0  # atno 10765 bound_to 10752
  140.9071  133.7485  156.0620 H   0  0  0  0  0  0  0  0  0  0  0  0  # atno 11005 bound_to 11000
  144.8002  139.6156  143.7075 LP  0  0  0  0  0  0  0  0  0  0  0  0  # atno 17320 bound_to 7965
  146.2450  139.6080  142.9466 LP  0  0  0  0  0  0  0  0  0  0  0  0  # atno 17321 bound_to 7965
  140.7562  143.3061  151.2958 LP  0  0  0  0  0  0  0  0  0  0  0  0  # atno 17342 bound_to 10162
  139.6576  144.0248  152.2670 LP  0  0  0  0  0  0  0  0  0  0  0  0  # atno 17343 bound_to 10162
  156.6482  130.4478  149.5728 LP  0  0  0  0  0  0  0  0  0  0  0  0  # atno 17370 bound_to 10713
  156.2157  130.6706  151.1316 LP  0  0  0  0  0  0  0  0  0  0  0  0  # atno 17371 bound_to 10713
  140.8157  134.3347  157.5398 LP  0  0  0  0  0  0  0  0  0  0  0  0  # atno 17394 bound_to 11000
  139.8751  134.9280  156.3440 LP  0  0  0  0  0  0  0  0  0  0  0  0  # atno 17395 bound_to 11000

$$$$
