AV-unprocessed.smi:2636|AV-procd|sdf|10260|dock10
  -GOLD-   2272014273D 1   1.00000     0.00000
 Structure written by MMmdl.
 35 36  0  0  0  0  0  0  0  0  2 V2000
  148.5562  141.5272  154.8139 C   0  0  0  0  0  0  0  0  0  0  0  0
  149.3661  140.2442  154.7901 C   0  0  0  0  0  0  0  0  0  0  0  0
  150.6052  140.1535  155.3152 C   0  0  0  0  0  0  0  0  0  0  0  0
  151.3495  138.9623  155.2774 N   0  0  0  0  0  0  0  0  0  0  0  0
  152.6673  138.9352  155.9016 C   0  0  0  0  0  0  0  0  0  0  0  0
  152.5824  139.0080  157.2975 O   0  0  0  0  0  0  0  0  0  0  0  0
  152.4783  140.3075  157.8725 C   0  0  0  0  0  0  0  0  0  0  0  0
  152.8872  140.3164  159.3367 C   0  0  0  0  0  0  0  0  0  0  0  0
  152.9315  141.3637  160.1840 C   0  0  0  0  0  0  0  0  0  0  0  0
  152.5266  142.7610  159.9521 C   0  0  0  0  0  0  0  0  0  0  0  0
  152.2196  143.6523  161.0054 C   0  0  0  0  0  0  0  0  0  0  0  0
  151.8147  144.9732  160.7312 C   0  0  0  0  0  0  0  0  0  0  0  0
  151.7196  145.4195  159.4001 C   0  0  0  0  0  0  0  0  0  0  0  0
  152.0317  144.5430  158.3445 C   0  0  0  0  0  0  0  0  0  0  0  0
  152.4302  143.2210  158.6211 C   0  0  0  0  0  0  0  0  0  0  0  0
  150.8215  137.8379  154.7092 C   0  0  0  0  0  0  0  0  0  0  0  0
  151.4868  136.8015  154.6954 O   0  0  0  0  0  0  0  0  0  0  0  0
  149.5650  137.9064  154.1725 N   0  5  0  0  0  0  0  0  0  0  0  0
  148.8028  139.0390  154.1768 C   0  0  0  0  0  0  0  0  0  0  0  0
  147.6738  139.0748  153.6880 O   0  0  0  0  0  0  0  0  0  0  0  0
  149.1133  142.3344  155.2900 H   0  0  0  0  0  0  0  0  0  0  0  0
  147.6274  141.3819  155.3660 H   0  0  0  0  0  0  0  0  0  0  0  0
  148.3090  141.8402  153.7992 H   0  0  0  0  0  0  0  0  0  0  0  0
  151.0992  140.9859  155.7944 H   0  0  0  0  0  0  0  0  0  0  0  0
  153.1586  138.0003  155.6269 H   0  0  0  0  0  0  0  0  0  0  0  0
  153.2808  139.7490  155.5133 H   0  0  0  0  0  0  0  0  0  0  0  0
  153.0385  141.0229  157.2756 H   0  0  0  0  0  0  0  0  0  0  0  0
  151.4332  140.6111  157.8172 H   0  0  0  0  0  0  0  0  0  0  0  0
  153.1924  139.3532  159.7182 H   0  0  0  0  0  0  0  0  0  0  0  0
  153.2847  141.1597  161.1845 H   0  0  0  0  0  0  0  0  0  0  0  0
  152.3094  143.3393  162.0345 H   0  0  0  0  0  0  0  0  0  0  0  0
  151.5815  145.6451  161.5439 H   0  0  0  0  0  0  0  0  0  0  0  0
  151.4084  146.4321  159.1897 H   0  0  0  0  0  0  0  0  0  0  0  0
  151.9580  144.8816  157.3218 H   0  0  0  0  0  0  0  0  0  0  0  0
  152.6571  142.5547  157.8014 H   0  0  0  0  0  0  0  0  0  0  0  0
  1  2  1  0  0  0  0
  1 21  1  0  0  0  0
  1 22  1  0  0  0  0
  1 23  1  0  0  0  0
  2 19  1  0  0  0  0
  2  3  2  0  0  0  0
  3  4  1  0  0  0  0
  3 24  1  0  0  0  0
  4  5  1  0  0  0  0
  4 16  1  0  0  0  0
  5  6  1  0  0  0  0
  5 25  1  0  0  0  0
  5 26  1  0  0  0  0
  6  7  1  0  0  0  0
  7  8  1  0  0  0  0
  7 27  1  0  0  0  0
  7 28  1  0  0  0  0
  8  9  2  0  0  0  0
  8 29  1  0  0  0  0
  9 10  1  0  0  0  0
  9 30  1  0  0  0  0
 10 15  1  0  0  0  0
 10 11  2  0  0  0  0
 11 12  1  0  0  0  0
 11 31  1  0  0  0  0
 12 13  2  0  0  0  0
 12 32  1  0  0  0  0
 13 14  1  0  0  0  0
 13 33  1  0  0  0  0
 14 15  2  0  0  0  0
 14 34  1  0  0  0  0
 15 35  1  0  0  0  0
 16 17  2  0  0  0  0
 16 18  1  0  0  0  0
 18 19  1  0  0  0  0
 19 20  2  0  0  0  0
M  CHG  1  18  -1
M  END
> <s_m_source_file>
AV-unprocessed.smi

> <i_m_source_file_index>
2636

> <i_lp_mmshare_version>
43012

> <i_f3d_flags>
0

> <s_epik_input>
Tz1jMVtuSF1jKD1PKW4oW2NIXWMxW0NIM10pW0NIMl1PW0NIMl0vW0NIXT1bQ0hdL2MyW2NIXVtjSF1bY0hdW2NIXVtjSF0y

> <s_epik_cmdline>
J2VwaWtfcHl0aG9uJywgJy1waCcsICc3LjAnLCAnLXRuJywgJzgnLCAnLW1hJywgJzIwMCcsICctbWV0YWxfYmluZGluZycsICctaW1hZScsICc8aW5maWxlLm1hZT4nLCAnLW9tYWUnLCAnPG91dGZpbGUubWFlPic=

> <r_lp_tautomer_probability>
0.999537

> <r_epik_Ionization_Penalty>
3.43625

> <r_epik_Ionization_Penalty_Charging>
7.29021e-08

> <r_epik_Ionization_Penalty_Neutral>
3.43625

> <r_epik_State_Penalty>
3.43567

> <r_epik_Charging_Adjusted_Penalty>
3.43567

> <i_epik_Tot_Q>
-1

> <i_epik_Tot_abs_Q>
1

> <r_epik_Metal_State_Penalty>
0.168611

> <b_epik_Metal_Only>
1

> <s_epik_Chemistry_Notes>
This compound contains an acetal/aminal-like group ( X-CH(R)-Y where X, Y are N, S, or O) that may be acid/base labile, releasing an aldehyde.

> <s_lp_Force_Field>
OPLS_2005

> <r_lp_Energy>
10.6813

> <b_lp_Chiralities_Consistent>
1

> <s_lp_Variant>
AV-unprocessed.smi:2636-4

> <Gold.Version>
5.8.1

> <Gold.Id.Protein>
6NUR|6NUR_protein|mol2

> <Gold.PLP.Fitness>
49.9380

> <Gold.PLP.PLP>
-47.7912

> <Gold.PLP.part.hbond>
-1.3452

> <Gold.PLP.part.metal>
0.0000

> <Gold.PLP.part.buried>
-1.1038

> <Gold.PLP.part.nonpolar>
-47.0705

> <Gold.PLP.part.repulsive>
2.0409

> <Gold.PLP.ligand.clash>
0.0000

> <Gold.PLP.ligand.torsion>
0.4384

> <Gold.PLP.Chemscore.Hbond>
1.0000

> <Gold.PLP.Chemscore.CHOScore>
0.0000

> <Gold.PLP.Chemscore.Metal>
0.0000

> <Gold.Chemscore.Hbonds>
donor molecule, donor type, donor heavy atom, donor atom, acceptor molecule, acceptor atom, score
      P1  H 10752 10764       L1    17  1.00

> <Gold.PLP.Chemscore.Internal.Correction>
0.0237

> <Gold.Rescore>
     Score         DG    S(hbond)    S(metal)    S(lipo)     H(rot)  DE(clash)    DE(int)     intcor
     16.21     -17.79       0.97        0.00     118.57       1.88       0.06       1.52       ----

> <Gold.Chemscore.Fitness>
16.2063

> <Gold.Chemscore.DG>
-17.7883

> <Gold.Chemscore.ZeroCoef>
-5.4800

> <Gold.Chemscore.Hbond>
0.9726

> <Gold.Chemscore.Metal>
0.0000

> <Gold.Chemscore.Lipo>
118.5693

> <Gold.Chemscore.Internal_Hbond>
0.0000

> <Gold.Chemscore.DEClash>
0.0629

> <Gold.Chemscore.DEInternal>
1.5191

> <Gold.Chemscore.Rot>
1.8800

> <Gold.Chemscore.Internal.Correction>
   9.000000E+99

> <Gold.Chemscore.Hbonds>
donor molecule, donor type, donor heavy atom, donor atom, acceptor molecule, acceptor atom, score
      P1  H 10752 10764       L1    17  1.00

> <Gold.Chemscore.Hbond.Weighted>
-3.2485

> <Gold.Chemscore.Metal.Weighted>
-0.0000

> <Gold.Chemscore.Lipo.Weighted>
-13.8726

> <Gold.Chemscore.Internal_Hbond.Weighted>
0.0000

> <Gold.Chemscore.DEClash.Weighted>
0.0629

> <Gold.Chemscore.DEInternal.Weighted>
1.5191

> <Gold.Chemscore.Rot.Weighted>
4.8129

> <Gold.Chemscore.Internal.Correction.Weighted>
   9.000000E+99

> <Gold.Protein.RotatedTorsions>
[ 6907 6896 6895 6894 ] final  156.14 input  -60.11 | X-H torsion
[ 7974 7965 7964 7962 ] final   27.57 input  175.53 | X-H torsion
[ 8008 7997 7996 7995 ] final   15.74 input   59.86 | X-H torsion
[ 10167 10162 10161 10158 ] final -122.85 input  -65.29 | X-H torsion
[ 10718 10713 10712 10709 ] final   81.09 input   66.30 | X-H torsion
[ 10763 10752 10751 10750 ] final  -77.17 input  -60.55 | X-H torsion
[ 11005 11000 10999 10996 ] final  158.60 input  -57.11 | X-H torsion

> <Gold.Protein.ActiveResidues>
 VAL166  LYS551  ARG553  GLY616  TRP617  ASP618  TYR619  PRO620  LYS621  CYS622 
 ASP623  PHE694  ASN695  SER759  ASP760  ASP761  ALA762  ILE779  LEU786  VAL792 
 PHE793  MET794  SER795  GLU796  ALA797  LYS798  CYS799  TRP800  GLU811  SER814 

> <Gold.Protein.RotatedAtoms>
  152.0340  133.3949  159.4308 H   0  0  0  0  0  0  0  0  0  0  0  0  # atno 6907 bound_to 6896
  150.6880  134.3489  159.4909 H   0  0  0  0  0  0  0  0  0  0  0  0  # atno 6908 bound_to 6896
  152.1279  134.9157  160.0611 H   0  0  0  0  0  0  0  0  0  0  0  0  # atno 6909 bound_to 6896
  146.1777  139.7174  142.8922 H   0  0  0  0  0  0  0  0  0  0  0  0  # atno 7974 bound_to 7965
  154.8669  140.2953  155.5505 H   0  0  0  0  0  0  0  0  0  0  0  0  # atno 8008 bound_to 7997
  156.3021  140.2467  156.3585 H   0  0  0  0  0  0  0  0  0  0  0  0  # atno 8009 bound_to 7997
  154.8858  140.0396  157.1798 H   0  0  0  0  0  0  0  0  0  0  0  0  # atno 8010 bound_to 7997
  140.0098  143.5454  152.2268 H   0  0  0  0  0  0  0  0  0  0  0  0  # atno 10167 bound_to 10162
  157.6824  130.9988  150.2175 H   0  0  0  0  0  0  0  0  0  0  0  0  # atno 10718 bound_to 10713
  154.5095  135.5773  153.6593 H   0  0  0  0  0  0  0  0  0  0  0  0  # atno 10763 bound_to 10752
  152.9894  135.6155  154.2898 H   0  0  0  0  0  0  0  0  0  0  0  0  # atno 10764 bound_to 10752
  154.2811  135.2851  155.2676 H   0  0  0  0  0  0  0  0  0  0  0  0  # atno 10765 bound_to 10752
  140.1880  134.8427  157.2880 H   0  0  0  0  0  0  0  0  0  0  0  0  # atno 11005 bound_to 11000
  145.4165  141.0402  143.2988 LP  0  0  0  0  0  0  0  0  0  0  0  0  # atno 17320 bound_to 7965
  144.8263  139.5704  143.6964 LP  0  0  0  0  0  0  0  0  0  0  0  0  # atno 17321 bound_to 7965
  139.6213  144.7629  151.2734 LP  0  0  0  0  0  0  0  0  0  0  0  0  # atno 17342 bound_to 10162
  140.7386  143.6643  150.8136 LP  0  0  0  0  0  0  0  0  0  0  0  0  # atno 17343 bound_to 10162
  156.2833  130.3736  149.7913 LP  0  0  0  0  0  0  0  0  0  0  0  0  # atno 17370 bound_to 10713
  156.5595  130.8377  151.3324 LP  0  0  0  0  0  0  0  0  0  0  0  0  # atno 17371 bound_to 10713
  140.2191  134.4045  155.7574 LP  0  0  0  0  0  0  0  0  0  0  0  0  # atno 17394 bound_to 11000
  141.2225  133.7157  156.8462 LP  0  0  0  0  0  0  0  0  0  0  0  0  # atno 17395 bound_to 11000

$$$$
