AV-unprocessed.smi:214|AV-procd|sdf|1649|dock3
  -GOLD-   2262020 33D 1   1.00000     0.00000
 Structure written by MMmdl.
 47 50  0  0  0  0  0  0  0  0  1 V2000
  151.3527  140.6375  156.1088 C   0  0  0  0  0  0  0  0  0  0  0  0
  150.3405  140.4135  157.1357 N   0  0  0  0  0  0  0  0  0  0  0  0
  149.8399  141.5587  157.9039 C   0  0  0  0  0  0  0  0  0  0  0  0
  150.9457  142.2770  158.6872 C   0  0  0  0  0  0  0  0  0  0  0  0
  151.6430  141.6694  159.5013 O   0  0  0  0  0  0  0  0  0  0  0  0
  151.1021  143.5800  158.4118 N   0  0  0  0  0  0  0  0  0  0  0  0
  152.0672  144.4441  159.0113 C   0  0  0  0  0  0  0  0  0  0  0  0
  152.1190  144.4966  160.5231 C   0  0  0  0  0  0  0  0  0  0  0  0
  151.5586  145.6608  159.7538 C   0  0  0  0  0  0  0  0  0  0  0  0
  150.4709  139.2288  157.7766 C   0  0  0  0  0  0  0  0  0  0  0  0
  151.7307  138.7663  157.9766 N   0  0  0  0  0  0  0  0  0  0  0  0
  151.9270  137.6013  158.6002 C   0  0  0  0  0  0  0  0  0  0  0  0
  151.0207  136.7616  159.1039 N   0  0  0  0  0  0  0  0  0  0  0  0
  149.7535  137.2325  158.9262 C   0  0  0  0  0  0  0  0  0  0  0  0
  149.3900  138.4466  158.2766 C   0  0  0  0  0  0  0  0  0  0  0  0
  148.0077  138.5950  158.2948 N   0  0  0  0  0  0  0  0  0  0  0  0
  147.5796  137.5258  158.9084 C   0  0  0  0  0  0  0  0  0  0  0  0
  148.5611  136.6571  159.3299 N   0  0  0  0  0  0  0  0  0  0  0  0
  148.3602  135.3999  160.0351 C   0  0  0  0  0  0  0  0  0  0  0  0
  147.8280  135.5547  161.4757 C   0  0  0  0  0  0  0  0  0  0  0  0
  147.3847  134.1967  162.0486 C   0  0  0  0  0  0  0  0  0  0  0  0
  148.4161  133.2346  161.9552 O   0  0  0  0  0  0  0  0  0  0  0  0
  148.6981  136.3963  162.4196 C   0  0  0  0  0  0  0  0  0  0  0  0
  147.5722  137.2006  162.8291 O   0  0  0  0  0  0  0  0  0  0  0  0
  146.8239  136.6942  161.7043 C   0  0  0  0  0  0  0  0  0  0  0  0
  151.2521  139.9143  155.2988 H   0  0  0  0  0  0  0  0  0  0  0  0
  152.3563  140.5488  156.5279 H   0  0  0  0  0  0  0  0  0  0  0  0
  151.2585  141.6329  155.6735 H   0  0  0  0  0  0  0  0  0  0  0  0
  149.3839  142.3013  157.2472 H   0  0  0  0  0  0  0  0  0  0  0  0
  149.0641  141.2196  158.5924 H   0  0  0  0  0  0  0  0  0  0  0  0
  150.4885  143.9936  157.7249 H   0  0  0  0  0  0  0  0  0  0  0  0
  153.0213  144.5605  158.4992 H   0  0  0  0  0  0  0  0  0  0  0  0
  151.4166  143.8795  161.0802 H   0  0  0  0  0  0  0  0  0  0  0  0
  153.0954  144.6235  160.9863 H   0  0  0  0  0  0  0  0  0  0  0  0
  152.1603  146.5660  159.7032 H   0  0  0  0  0  0  0  0  0  0  0  0
  150.4826  145.8193  159.7962 H   0  0  0  0  0  0  0  0  0  0  0  0
  152.9579  137.2987  158.7115 H   0  0  0  0  0  0  0  0  0  0  0  0
  146.5284  137.3441  159.0798 H   0  0  0  0  0  0  0  0  0  0  0  0
  147.6799  134.7853  159.4446 H   0  0  0  0  0  0  0  0  0  0  0  0
  149.3099  134.8633  160.0333 H   0  0  0  0  0  0  0  0  0  0  0  0
  147.1174  134.2954  163.1012 H   0  0  0  0  0  0  0  0  0  0  0  0
  146.4933  133.8182  161.5479 H   0  0  0  0  0  0  0  0  0  0  0  0
  148.6531  133.1364  161.0455 H   0  0  0  0  0  0  0  0  0  0  0  0
  149.1362  135.8341  163.2449 H   0  0  0  0  0  0  0  0  0  0  0  0
  149.4564  136.9924  161.9091 H   0  0  0  0  0  0  0  0  0  0  0  0
  146.7817  137.4248  160.8952 H   0  0  0  0  0  0  0  0  0  0  0  0
  145.8232  136.3583  161.9781 H   0  0  0  0  0  0  0  0  0  0  0  0
  1  2  1  0  0  0  0
  1 26  1  0  0  0  0
  1 27  1  0  0  0  0
  1 28  1  0  0  0  0
  2  3  1  0  0  0  0
  2 10  1  0  0  0  0
  3  4  1  0  0  0  0
  3 29  1  0  0  0  0
  3 30  1  0  0  0  0
  4  5  2  0  0  0  0
  4  6  1  0  0  0  0
  6  7  1  0  0  0  0
  6 31  1  0  0  0  0
  7  9  1  0  0  0  0
  7  8  1  0  0  0  0
  7 32  1  0  0  0  0
  8  9  1  0  0  0  0
  8 33  1  0  0  0  0
  8 34  1  0  0  0  0
  9 35  1  0  0  0  0
  9 36  1  0  0  0  0
 10 15  1  0  0  0  0
 10 11  2  0  0  0  0
 11 12  1  0  0  0  0
 12 13  2  0  0  0  0
 12 37  1  0  0  0  0
 13 14  1  0  0  0  0
 14 18  1  0  0  0  0
 14 15  2  0  0  0  0
 15 16  1  0  0  0  0
 16 17  2  0  0  0  0
 17 18  1  0  0  0  0
 17 38  1  0  0  0  0
 18 19  1  0  0  0  0
 19 20  1  0  0  0  0
 19 39  1  0  0  0  0
 19 40  1  0  0  0  0
 20 25  1  0  0  0  0
 20 21  1  0  0  0  0
 20 23  1  0  0  0  0
 21 22  1  0  0  0  0
 21 41  1  0  0  0  0
 21 42  1  0  0  0  0
 22 43  1  0  0  0  0
 23 24  1  0  0  0  0
 23 44  1  0  0  0  0
 23 45  1  0  0  0  0
 24 25  1  0  0  0  0
 25 46  1  0  0  0  0
 25 47  1  0  0  0  0
M  END
> <s_m_source_file>
AV-unprocessed.smi

> <i_m_source_file_index>
214

> <i_lp_mmshare_version>
43012

> <i_f3d_flags>
0

> <s_epik_input>
W0NIMl0xW0NIMl1bQ0hdMVtOSF1DKD1PKVtDSDJdTihbQ0gzXSljKG5bY0hdbjIpYyhjMjMpbltjSF1uM1tDSDJdQzQoW0NIMl1bT0hdKVtDSDJdT1tDSDJdNA==

> <s_epik_cmdline>
J2VwaWtfcHl0aG9uJywgJy1waCcsICc3LjAnLCAnLXRuJywgJzgnLCAnLW1hJywgJzIwMCcsICctbWV0YWxfYmluZGluZycsICctaW1hZScsICc8aW5maWxlLm1hZT4nLCAnLW9tYWUnLCAnPG91dGZpbGUubWFlPic=

> <r_lp_tautomer_probability>
1

> <r_epik_Ionization_Penalty>
0.000508869

> <r_epik_Ionization_Penalty_Charging>
0

> <r_epik_Ionization_Penalty_Neutral>
0.000508869

> <r_epik_State_Penalty>
0.000243319

> <r_epik_Charging_Adjusted_Penalty>
0.000243319

> <i_epik_Tot_Q>
0

> <i_epik_Tot_abs_Q>
0

> <r_epik_Metal_State_Penalty>
-0

> <b_epik_Metal_Only>
0

> <s_lp_Force_Field>
OPLS_2005

> <r_lp_Energy>
39.3286

> <b_lp_Chiralities_Consistent>
1

> <s_lp_Variant>
AV-unprocessed.smi:214-1

> <Gold.Version>
5.8.1

> <Gold.Id.Protein>
6NUR|6NUR_protein|mol2

> <Gold.PLP.Fitness>
45.6785

> <Gold.PLP.PLP>
-44.4389

> <Gold.PLP.part.hbond>
-4.1916

> <Gold.PLP.part.metal>
0.0000

> <Gold.PLP.part.buried>
-4.6761

> <Gold.PLP.part.nonpolar>
-35.1730

> <Gold.PLP.part.repulsive>
0.0314

> <Gold.PLP.ligand.clash>
0.0000

> <Gold.PLP.ligand.torsion>
1.4165

> <Gold.PLP.Chemscore.Hbond>
1.0000

> <Gold.PLP.Chemscore.CHOScore>
0.0000

> <Gold.PLP.Chemscore.Metal>
0.0000

> <Gold.Chemscore.Hbonds>
donor molecule, donor type, donor heavy atom, donor atom, acceptor molecule, acceptor atom, score
      P1  H  6896  6907       L1    13  0.80

> <Gold.PLP.Chemscore.Internal.Correction>
1.0727

> <Gold.Rescore>
     Score         DG    S(hbond)    S(metal)    S(lipo)     H(rot)  DE(clash)    DE(int)     intcor
     10.08     -13.26       1.92        0.00      84.00       3.31       0.17       3.01       ----

> <Gold.Chemscore.Fitness>
10.0774

> <Gold.Chemscore.DG>
-13.2645

> <Gold.Chemscore.ZeroCoef>
-5.4800

> <Gold.Chemscore.Hbond>
1.9216

> <Gold.Chemscore.Metal>
0.0000

> <Gold.Chemscore.Lipo>
83.9970

> <Gold.Chemscore.Internal_Hbond>
0.0000

> <Gold.Chemscore.DEClash>
0.1725

> <Gold.Chemscore.DEInternal>
3.0146

> <Gold.Chemscore.Rot>
3.3052

> <Gold.Chemscore.Internal.Correction>
   9.000000E+99

> <Gold.Chemscore.Hbonds>
donor molecule, donor type, donor heavy atom, donor atom, acceptor molecule, acceptor atom, score
      P1  H  6896  6907       L1    13  0.55

> <Gold.Chemscore.Hbond.Weighted>
-6.4183

> <Gold.Chemscore.Metal.Weighted>
-0.0000

> <Gold.Chemscore.Lipo.Weighted>
-9.8276

> <Gold.Chemscore.Internal_Hbond.Weighted>
0.0000

> <Gold.Chemscore.DEClash.Weighted>
0.1725

> <Gold.Chemscore.DEInternal.Weighted>
3.0146

> <Gold.Chemscore.Rot.Weighted>
8.4614

> <Gold.Chemscore.Internal.Correction.Weighted>
   9.000000E+99

> <Gold.Protein.RotatedTorsions>
[ 6907 6896 6895 6894 ] final  -44.35 input  -60.11 | X-H torsion
[ 7974 7965 7964 7962 ] final -133.29 input  175.53 | X-H torsion
[ 8008 7997 7996 7995 ] final  172.42 input   59.86 | X-H torsion
[ 10167 10162 10161 10158 ] final  151.19 input  -65.29 | X-H torsion
[ 10718 10713 10712 10709 ] final  -42.78 input   66.30 | X-H torsion
[ 10763 10752 10751 10750 ] final  -36.59 input  -60.55 | X-H torsion
[ 11005 11000 10999 10996 ] final  104.82 input  -57.11 | X-H torsion

> <Gold.Protein.ActiveResidues>
 VAL166  LYS551  ARG553  GLY616  TRP617  ASP618  TYR619  PRO620  LYS621  CYS622 
 ASP623  PHE694  ASN695  SER759  ASP760  ASP761  ALA762  ILE779  LEU786  VAL792 
 PHE793  MET794  SER795  GLU796  ALA797  LYS798  CYS799  TRP800  GLU811  SER814 

> <Gold.Protein.RotatedAtoms>
  150.9338  134.8751  159.7567 H   0  0  0  0  0  0  0  0  0  0  0  0  # atno 6907 bound_to 6896
  152.5050  134.4041  159.9436 H   0  0  0  0  0  0  0  0  0  0  0  0  # atno 6908 bound_to 6896
  151.4066  133.3700  159.2774 H   0  0  0  0  0  0  0  0  0  0  0  0  # atno 6909 bound_to 6896
  144.9207  140.7010  143.4967 H   0  0  0  0  0  0  0  0  0  0  0  0  # atno 7974 bound_to 7965
  156.1176  140.1486  156.9250 H   0  0  0  0  0  0  0  0  0  0  0  0  # atno 8008 bound_to 7997
  154.4812  140.0879  156.7424 H   0  0  0  0  0  0  0  0  0  0  0  0  # atno 8009 bound_to 7997
  155.4485  140.3434  155.4300 H   0  0  0  0  0  0  0  0  0  0  0  0  # atno 8010 bound_to 7997
  139.4843  144.5461  151.7482 H   0  0  0  0  0  0  0  0  0  0  0  0  # atno 10167 bound_to 10162
  156.2559  130.4192  149.8596 H   0  0  0  0  0  0  0  0  0  0  0  0  # atno 10718 bound_to 10713
  153.8823  135.6820  153.4766 H   0  0  0  0  0  0  0  0  0  0  0  0  # atno 10763 bound_to 10752
  153.1227  135.4733  154.9219 H   0  0  0  0  0  0  0  0  0  0  0  0  # atno 10764 bound_to 10752
  154.7663  135.3225  154.8232 H   0  0  0  0  0  0  0  0  0  0  0  0  # atno 10765 bound_to 10752
  139.8795  134.9314  156.5419 H   0  0  0  0  0  0  0  0  0  0  0  0  # atno 11005 bound_to 11000
  145.3301  139.1762  143.4541 LP  0  0  0  0  0  0  0  0  0  0  0  0  # atno 17320 bound_to 7965
  146.3203  140.3330  142.8642 LP  0  0  0  0  0  0  0  0  0  0  0  0  # atno 17321 bound_to 7965
  140.5007  144.1173  150.5970 LP  0  0  0  0  0  0  0  0  0  0  0  0  # atno 17342 bound_to 10162
  140.4065  143.2678  151.9885 LP  0  0  0  0  0  0  0  0  0  0  0  0  # atno 17343 bound_to 10162
  156.6128  130.8594  151.3458 LP  0  0  0  0  0  0  0  0  0  0  0  0  # atno 17370 bound_to 10713
  157.7232  130.9587  150.1526 LP  0  0  0  0  0  0  0  0  0  0  0  0  # atno 17371 bound_to 10713
  140.8304  133.8283  155.8979 LP  0  0  0  0  0  0  0  0  0  0  0  0  # atno 17394 bound_to 11000
  140.9334  134.1993  157.4848 LP  0  0  0  0  0  0  0  0  0  0  0  0  # atno 17395 bound_to 11000

$$$$
