AV-unprocessed.smi:1033|AV-procd|sdf|4491|dock10
  -GOLD-   22720 2473D 1   1.00000     0.00000
 Structure written by MMmdl.
 56 58  0  0  0  0  0  0  0  0  2 V2000
  152.6284  143.4701  161.6827 C   0  0  0  0  0  0  0  0  0  0  0  0
  152.1960  143.0869  160.2781 C   0  0  0  0  0  0  0  0  0  0  0  0
  152.1064  141.7189  159.9363 C   0  0  0  0  0  0  0  0  0  0  0  0
  151.7079  141.3203  158.6418 C   0  0  0  0  0  0  0  0  0  0  0  0
  151.5590  140.0568  158.0962 N   0  0  0  0  0  0  0  0  0  0  0  0
  151.1686  140.3432  156.8580 C   0  0  0  0  0  0  0  0  0  0  0  0
  151.0554  141.6453  156.5329 N   0  0  0  0  0  0  0  0  0  0  0  0
  150.6614  142.1902  155.2466 C   0  0  0  0  0  0  0  0  0  0  0  0
  149.4589  141.4444  154.6359 C   0  0  1  0  0  0  0  0  0  0  0  0
  149.9328  140.2253  154.1005 O   0  0  0  0  0  0  0  0  0  0  0  0
  148.3387  141.1399  155.6553 C   0  0  0  0  0  0  0  0  0  0  0  0
  147.3679  142.2552  155.7875 N   0  3  0  0  0  0  0  0  0  0  0  0
  146.5717  142.2048  157.0437 C   0  0  0  0  0  0  0  0  0  0  0  0
  145.6298  143.4225  157.1241 C   0  0  0  0  0  0  0  0  0  0  0  0
  144.7192  143.5214  155.9832 N   0  0  0  0  0  0  0  0  0  0  0  0
  143.6731  142.4917  155.9278 C   0  0  0  0  0  0  0  0  0  0  0  0
  142.2621  142.9835  155.5340 C   0  0  2  0  0  0  0  0  0  0  0  0
  141.2695  141.8414  155.2563 C   0  0  0  0  0  0  0  0  0  0  0  0
  142.3693  143.7153  154.3303 O   0  0  0  0  0  0  0  0  0  0  0  0
  145.5204  143.5741  154.7601 C   0  0  0  0  0  0  0  0  0  0  0  0
  146.4759  142.3716  154.6045 C   0  0  0  0  0  0  0  0  0  0  0  0
  151.3983  142.3363  157.6907 C   0  0  0  0  0  0  0  0  0  0  0  0
  151.4834  143.7010  158.0189 C   0  0  0  0  0  0  0  0  0  0  0  0
  151.8830  144.0815  159.3171 C   0  0  0  0  0  0  0  0  0  0  0  0
  151.9702  145.5576  159.6633 C   0  0  0  0  0  0  0  0  0  0  0  0
  152.8712  142.5902  162.2790 H   0  0  0  0  0  0  0  0  0  0  0  0
  151.8307  144.0105  162.1928 H   0  0  0  0  0  0  0  0  0  0  0  0
  153.5132  144.1061  161.6514 H   0  0  0  0  0  0  0  0  0  0  0  0
  152.3439  140.9611  160.6687 H   0  0  0  0  0  0  0  0  0  0  0  0
  150.9592  139.5614  156.1424 H   0  0  0  0  0  0  0  0  0  0  0  0
  150.4214  143.2454  155.3850 H   0  0  0  0  0  0  0  0  0  0  0  0
  151.5193  142.1525  154.5738 H   0  0  0  0  0  0  0  0  0  0  0  0
  149.0709  142.0420  153.8117 H   0  0  0  0  0  0  0  0  0  0  0  0
  149.5160  140.0773  153.2648 H   0  0  0  0  0  0  0  0  0  0  0  0
  147.8207  140.2331  155.3389 H   0  0  0  0  0  0  0  0  0  0  0  0
  148.7494  140.9234  156.6421 H   0  0  0  0  0  0  0  0  0  0  0  0
  146.0066  141.2731  157.0928 H   0  0  0  0  0  0  0  0  0  0  0  0
  147.2315  142.2140  157.9101 H   0  0  0  0  0  0  0  0  0  0  0  0
  145.0710  143.4166  158.0581 H   0  0  0  0  0  0  0  0  0  0  0  0
  146.2375  144.3275  157.1671 H   0  0  0  0  0  0  0  0  0  0  0  0
  143.9877  141.7586  155.1831 H   0  0  0  0  0  0  0  0  0  0  0  0
  143.6180  141.9351  156.8631 H   0  0  0  0  0  0  0  0  0  0  0  0
  141.8648  143.6577  156.2940 H   0  0  0  0  0  0  0  0  0  0  0  0
  141.0971  141.2200  156.1329 H   0  0  0  0  0  0  0  0  0  0  0  0
  141.6297  141.1886  154.4604 H   0  0  0  0  0  0  0  0  0  0  0  0
  140.3004  142.2340  154.9461 H   0  0  0  0  0  0  0  0  0  0  0  0
  142.6953  143.1395  153.6553 H   0  0  0  0  0  0  0  0  0  0  0  0
  144.8665  143.6428  153.8900 H   0  0  0  0  0  0  0  0  0  0  0  0
  146.1084  144.4930  154.7602 H   0  0  0  0  0  0  0  0  0  0  0  0
  147.0800  142.5095  153.7071 H   0  0  0  0  0  0  0  0  0  0  0  0
  145.9187  141.4440  154.4667 H   0  0  0  0  0  0  0  0  0  0  0  0
  151.2429  144.4497  157.2787 H   0  0  0  0  0  0  0  0  0  0  0  0
  151.6602  146.1823  158.8253 H   0  0  0  0  0  0  0  0  0  0  0  0
  152.9936  145.8289  159.9234 H   0  0  0  0  0  0  0  0  0  0  0  0
  151.3239  145.7907  160.5098 H   0  0  0  0  0  0  0  0  0  0  0  0
  147.9106  143.1069  155.8158 H   0  0  0  0  0  0  0  0  0  0  0  0
  1  2  1  0  0  0  0
  1 26  1  0  0  0  0
  1 27  1  0  0  0  0
  1 28  1  0  0  0  0
  2 24  1  0  0  0  0
  2  3  2  0  0  0  0
  3  4  1  0  0  0  0
  3 29  1  0  0  0  0
  4 22  2  0  0  0  0
  4  5  1  0  0  0  0
  5  6  2  0  0  0  0
  6  7  1  0  0  0  0
  6 30  1  0  0  0  0
  7  8  1  0  0  0  0
  7 22  1  0  0  0  0
  8  9  1  0  0  0  0
  8 31  1  0  0  0  0
  8 32  1  0  0  0  0
  9 10  1  0  0  0  0
  9 11  1  0  0  0  0
  9 33  1  0  0  0  0
 10 34  1  0  0  0  0
 11 12  1  0  0  0  0
 11 35  1  0  0  0  0
 11 36  1  0  0  0  0
 12 21  1  0  0  0  0
 12 13  1  0  0  0  0
 12 56  1  0  0  0  0
 13 14  1  0  0  0  0
 13 37  1  0  0  0  0
 13 38  1  0  0  0  0
 14 15  1  0  0  0  0
 14 39  1  0  0  0  0
 14 40  1  0  0  0  0
 15 16  1  0  0  0  0
 15 20  1  0  0  0  0
 16 17  1  0  0  0  0
 16 41  1  0  0  0  0
 16 42  1  0  0  0  0
 17 18  1  0  0  0  0
 17 19  1  0  0  0  0
 17 43  1  0  0  0  0
 18 44  1  0  0  0  0
 18 45  1  0  0  0  0
 18 46  1  0  0  0  0
 19 47  1  0  0  0  0
 20 21  1  0  0  0  0
 20 48  1  0  0  0  0
 20 49  1  0  0  0  0
 21 50  1  0  0  0  0
 21 51  1  0  0  0  0
 22 23  1  0  0  0  0
 23 24  2  0  0  0  0
 23 52  1  0  0  0  0
 24 25  1  0  0  0  0
 25 53  1  0  0  0  0
 25 54  1  0  0  0  0
 25 55  1  0  0  0  0
M  CHG  1  12   1
M  END
> <s_m_source_file>
AV-unprocessed.smi

> <i_m_source_file_index>
1033

> <i_lp_mmshare_version>
43012

> <i_f3d_flags>
0

> <s_epik_input>
W0NIM11jKFtjSF0xKWMoW0NIM10pW2NIXWMoYzEyKW4oW2NIXW4yKVtDSDJdW0NASF0oW09IXSlbQ0gyXU4zW0NIMl1bQ0gyXU4oW0NIMl1bQ0gyXTMpW0NIMl1bQ0BIXShbQ0gzXSlbT0hd

> <s_epik_cmdline>
J2VwaWtfcHl0aG9uJywgJy1waCcsICc3LjAnLCAnLXRuJywgJzgnLCAnLW1hJywgJzIwMCcsICctbWV0YWxfYmluZGluZycsICctaW1hZScsICc8aW5maWxlLm1hZT4nLCAnLW9tYWUnLCAnPG91dGZpbGUubWFlPic=

> <r_epik_Ionization_Penalty>
0.131893

> <r_epik_Ionization_Penalty_Charging>
0.00208556

> <r_epik_Ionization_Penalty_Neutral>
0.129808

> <r_epik_State_Penalty>
0.452125

> <r_epik_Charging_Adjusted_Penalty>
0.454211

> <i_epik_Tot_Q>
1

> <i_epik_Tot_abs_Q>
1

> <r_epik_Metal_State_Penalty>
0.376389

> <b_epik_Metal_Only>
0

> <s_lp_Force_Field>
OPLS_2005

> <r_lp_Energy>
35.7629

> <b_lp_Chiralities_Consistent>
1

> <s_lp_Variant>
AV-unprocessed.smi:1033-2

> <Gold.Version>
5.8.1

> <Gold.Id.Protein>
6NUR|6NUR_protein|mol2

> <Gold.PLP.Fitness>
56.1038

> <Gold.PLP.PLP>
-44.9872

> <Gold.PLP.part.hbond>
-4.0000

> <Gold.PLP.part.metal>
0.0000

> <Gold.PLP.part.buried>
-3.2219

> <Gold.PLP.part.nonpolar>
-36.4013

> <Gold.PLP.part.repulsive>
0.1388

> <Gold.PLP.ligand.clash>
0.0000

> <Gold.PLP.ligand.torsion>
1.3985

> <Gold.PLP.Chemscore.Hbond>
4.6181

> <Gold.PLP.Chemscore.CHOScore>
0.0000

> <Gold.PLP.Chemscore.Metal>
0.0000

> <Gold.Chemscore.Hbonds>
donor molecule, donor type, donor heavy atom, donor atom, acceptor molecule, acceptor atom, score
      L1  H    10    34       P1  7957  0.81
      L1  H    12    56       P1  8028  2.00
      L1  H    19    47       P1 10174  1.00
      P1  H  7989  7998       L1    10  0.68

> <Gold.PLP.Chemscore.Internal.Correction>
0.0592

> <Gold.Rescore>
     Score         DG    S(hbond)    S(metal)    S(lipo)     H(rot)  DE(clash)    DE(int)     intcor
     16.30     -21.14       2.60        0.00     126.78       3.07       3.34       1.51       ----

> <Gold.Chemscore.Fitness>
16.2991

> <Gold.Chemscore.DG>
-21.1440

> <Gold.Chemscore.ZeroCoef>
-5.4800

> <Gold.Chemscore.Hbond>
2.5981

> <Gold.Chemscore.Metal>
0.0000

> <Gold.Chemscore.Lipo>
126.7765

> <Gold.Chemscore.Internal_Hbond>
0.0000

> <Gold.Chemscore.DEClash>
3.3395

> <Gold.Chemscore.DEInternal>
1.5054

> <Gold.Chemscore.Rot>
3.0650

> <Gold.Chemscore.Internal.Correction>
   9.000000E+99

> <Gold.Chemscore.Hbonds>
donor molecule, donor type, donor heavy atom, donor atom, acceptor molecule, acceptor atom, score
      L1  H    10    34       P1  7957  0.76
      L1  H    12    56       P1  8028  0.50
      L1  H    19    47       P1 10174  0.96
      P1  H  7989  7998       L1    10  0.03

> <Gold.Chemscore.Hbond.Weighted>
-8.6776

> <Gold.Chemscore.Metal.Weighted>
-0.0000

> <Gold.Chemscore.Lipo.Weighted>
-14.8329

> <Gold.Chemscore.Internal_Hbond.Weighted>
0.0000

> <Gold.Chemscore.DEClash.Weighted>
3.3395

> <Gold.Chemscore.DEInternal.Weighted>
1.5054

> <Gold.Chemscore.Rot.Weighted>
7.8465

> <Gold.Chemscore.Internal.Correction.Weighted>
   9.000000E+99

> <Gold.Protein.RotatedTorsions>
[ 6907 6896 6895 6894 ] final -152.15 input  -60.11 | X-H torsion
[ 7974 7965 7964 7962 ] final -145.29 input  175.53 | X-H torsion
[ 8008 7997 7996 7995 ] final  129.43 input   59.86 | X-H torsion
[ 10167 10162 10161 10158 ] final -115.34 input  -65.29 | X-H torsion
[ 10718 10713 10712 10709 ] final -155.68 input   66.30 | X-H torsion
[ 10763 10752 10751 10750 ] final -149.15 input  -60.55 | X-H torsion
[ 11005 11000 10999 10996 ] final -118.64 input  -57.11 | X-H torsion

> <Gold.Protein.ActiveResidues>
 VAL166  LYS551  ARG553  GLY616  TRP617  ASP618  TYR619  PRO620  LYS621  CYS622 
 ASP623  PHE694  ASN695  SER759  ASP760  ASP761  ALA762  ILE779  LEU786  VAL792 
 PHE793  MET794  SER795  GLU796  ALA797  LYS798  CYS799  TRP800  GLU811  SER814 

> <Gold.Protein.RotatedAtoms>
  151.2235  133.4489  159.2601 H   0  0  0  0  0  0  0  0  0  0  0  0  # atno 6907 bound_to 6896
  151.0862  134.9889  159.8390 H   0  0  0  0  0  0  0  0  0  0  0  0  # atno 6908 bound_to 6896
  152.5430  134.2171  159.8826 H   0  0  0  0  0  0  0  0  0  0  0  0  # atno 6909 bound_to 6896
  144.8237  140.5602  143.5561 H   0  0  0  0  0  0  0  0  0  0  0  0  # atno 7974 bound_to 7965
  156.2936  140.2620  156.2598 H   0  0  0  0  0  0  0  0  0  0  0  0  # atno 8008 bound_to 7997
  154.9800  140.0390  157.2292 H   0  0  0  0  0  0  0  0  0  0  0  0  # atno 8009 bound_to 7997
  154.7780  140.2790  155.6090 H   0  0  0  0  0  0  0  0  0  0  0  0  # atno 8010 bound_to 7997
  140.0912  143.4698  152.1869 H   0  0  0  0  0  0  0  0  0  0  0  0  # atno 10167 bound_to 10162
  156.5161  130.8457  151.2665 H   0  0  0  0  0  0  0  0  0  0  0  0  # atno 10718 bound_to 10713
  154.8193  135.3316  154.7085 H   0  0  0  0  0  0  0  0  0  0  0  0  # atno 10763 bound_to 10752
  153.7720  135.6925  153.4909 H   0  0  0  0  0  0  0  0  0  0  0  0  # atno 10764 bound_to 10752
  153.2038  135.4506  155.0247 H   0  0  0  0  0  0  0  0  0  0  0  0  # atno 10765 bound_to 10752
  141.0272  134.0036  157.3197 H   0  0  0  0  0  0  0  0  0  0  0  0  # atno 11005 bound_to 11000
  145.5047  139.1482  143.3638 LP  0  0  0  0  0  0  0  0  0  0  0  0  # atno 17320 bound_to 7965
  146.2543  140.5187  142.8880 LP  0  0  0  0  0  0  0  0  0  0  0  0  # atno 17321 bound_to 7965
  139.5724  144.7469  151.3856 LP  0  0  0  0  0  0  0  0  0  0  0  0  # atno 17342 bound_to 10162
  140.7027  143.7590  150.7430 LP  0  0  0  0  0  0  0  0  0  0  0  0  # atno 17343 bound_to 10162
  157.7443  130.9933  150.2667 LP  0  0  0  0  0  0  0  0  0  0  0  0  # atno 17370 bound_to 10713
  156.3193  130.3783  149.7589 LP  0  0  0  0  0  0  0  0  0  0  0  0  # atno 17371 bound_to 10713
  139.9183  135.0199  156.7968 LP  0  0  0  0  0  0  0  0  0  0  0  0  # atno 17394 bound_to 11000
  140.6471  133.9765  155.7736 LP  0  0  0  0  0  0  0  0  0  0  0  0  # atno 17395 bound_to 11000

$$$$
