AV-unprocessed.smi:2708|AV-procd|sdf|10459|dock6
  -GOLD-   2272014503D 1   1.00000     0.00000
 Structure written by MMmdl.
 35 35  0  0  0  0  0  0  0  0  2 V2000
  146.3913  137.0144  158.1714 C   0  0  0  0  0  0  0  0  0  0  0  0
  147.9047  137.2437  158.0167 C   0  0  1  0  0  0  0  0  0  0  0  0
  148.1353  138.6790  157.8695 N   0  0  0  0  0  0  0  0  0  0  0  0
  148.0425  139.3753  156.7250 C   0  0  0  0  0  0  0  0  0  0  0  0
  147.7304  138.8748  155.6443 O   0  0  0  0  0  0  0  0  0  0  0  0
  148.3423  140.8720  156.8164 C   0  0  0  0  0  0  0  0  0  0  0  0
  149.6892  141.0899  157.4418 C   0  0  0  0  0  0  0  0  0  0  0  0
  150.7754  140.2549  157.3685 C   0  0  0  0  0  0  0  0  0  0  0  0
  152.1465  140.8974  158.2279 S   0  0  0  0  0  0  0  0  0  0  0  0
  151.1805  142.3084  158.6753 C   0  0  0  0  0  0  0  0  0  0  0  0
  151.6791  143.4783  159.4890 C   0  0  0  0  0  0  0  0  0  0  0  0
  152.3369  142.9673  160.7855 C   0  0  0  0  0  0  0  0  0  0  0  0
  150.5207  144.4180  159.8887 C   0  0  0  0  0  0  0  0  0  0  0  0
  152.6821  144.3039  158.6599 C   0  0  0  0  0  0  0  0  0  0  0  0
  149.9341  142.2435  158.1937 N   0  0  0  0  0  0  0  0  0  0  0  0
  148.6089  136.7145  159.2764 C   0  0  0  0  0  0  0  0  0  0  0  0
  149.7724  136.2792  159.1330 O   0  0  0  0  0  0  0  0  0  0  0  0
  147.9768  136.7474  160.3565 O   0  5  0  0  0  0  0  0  0  0  0  0
  148.2662  136.7105  157.1352 H   0  0  0  0  0  0  0  0  0  0  0  0
  146.1630  135.9558  158.3016 H   0  0  0  0  0  0  0  0  0  0  0  0
  145.8556  137.3553  157.2847 H   0  0  0  0  0  0  0  0  0  0  0  0
  145.9820  137.5516  159.0286 H   0  0  0  0  0  0  0  0  0  0  0  0
  148.4084  139.1777  158.7037 H   0  0  0  0  0  0  0  0  0  0  0  0
  148.2986  141.3151  155.8205 H   0  0  0  0  0  0  0  0  0  0  0  0
  147.5619  141.3583  157.4031 H   0  0  0  0  0  0  0  0  0  0  0  0
  150.8528  139.3077  156.8559 H   0  0  0  0  0  0  0  0  0  0  0  0
  152.6934  143.7919  161.4035 H   0  0  0  0  0  0  0  0  0  0  0  0
  153.1937  142.3263  160.5737 H   0  0  0  0  0  0  0  0  0  0  0  0
  151.6337  142.3869  161.3838 H   0  0  0  0  0  0  0  0  0  0  0  0
  149.7775  143.9045  160.4998 H   0  0  0  0  0  0  0  0  0  0  0  0
  150.0111  144.8228  159.0134 H   0  0  0  0  0  0  0  0  0  0  0  0
  150.8818  145.2668  160.4708 H   0  0  0  0  0  0  0  0  0  0  0  0
  153.0461  145.1666  159.2191 H   0  0  0  0  0  0  0  0  0  0  0  0
  152.2265  144.6745  157.7407 H   0  0  0  0  0  0  0  0  0  0  0  0
  153.5528  143.7103  158.3790 H   0  0  0  0  0  0  0  0  0  0  0  0
  1  2  1  0  0  0  0
  1 20  1  0  0  0  0
  1 21  1  0  0  0  0
  1 22  1  0  0  0  0
  2 19  1  0  0  0  0
  2  3  1  0  0  0  0
  2 16  1  0  0  0  0
  3  4  1  0  0  0  0
  3 23  1  0  0  0  0
  4  5  2  0  0  0  0
  4  6  1  0  0  0  0
  6  7  1  0  0  0  0
  6 24  1  0  0  0  0
  6 25  1  0  0  0  0
  7 15  1  0  0  0  0
  7  8  2  0  0  0  0
  8  9  1  0  0  0  0
  8 26  1  0  0  0  0
  9 10  1  0  0  0  0
 10 11  1  0  0  0  0
 10 15  2  0  0  0  0
 11 12  1  0  0  0  0
 11 13  1  0  0  0  0
 11 14  1  0  0  0  0
 12 27  1  0  0  0  0
 12 28  1  0  0  0  0
 12 29  1  0  0  0  0
 13 30  1  0  0  0  0
 13 31  1  0  0  0  0
 13 32  1  0  0  0  0
 14 33  1  0  0  0  0
 14 34  1  0  0  0  0
 14 35  1  0  0  0  0
 16 17  2  0  0  0  0
 16 18  1  0  0  0  0
M  CHG  1  18  -1
M  END
> <s_m_source_file>
AV-unprocessed.smi

> <i_m_source_file_index>
2708

> <i_lp_mmshare_version>
43012

> <i_f3d_flags>
0

> <s_epik_input>
Tz1DKFtPSF0pW0NASF0oW0NIM10pW05IXUMoPU8pW0NIMl1jMVtjSF1zYyhuMSlDKFtDSDNdKShbQ0gzXSlbQ0gzXQ==

> <s_epik_cmdline>
J2VwaWtfcHl0aG9uJywgJy1waCcsICc3LjAnLCAnLXRuJywgJzgnLCAnLW1hJywgJzIwMCcsICctbWV0YWxfYmluZGluZycsICctaW1hZScsICc8aW5maWxlLm1hZT4nLCAnLW9tYWUnLCAnPG91dGZpbGUubWFlPic=

> <r_lp_tautomer_probability>
1

> <r_epik_Ionization_Penalty>
0.000214174

> <r_epik_Ionization_Penalty_Charging>
0.000167453

> <r_epik_Ionization_Penalty_Neutral>
4.67216e-05

> <r_epik_State_Penalty>
-0

> <r_epik_Charging_Adjusted_Penalty>
0.000167453

> <i_epik_Tot_Q>
-1

> <i_epik_Tot_abs_Q>
1

> <r_epik_Metal_State_Penalty>
-0

> <b_epik_Metal_Only>
0

> <s_lp_Force_Field>
OPLS_2005

> <r_lp_Energy>
-5.21837

> <b_lp_Chiralities_Consistent>
1

> <s_lp_Variant>
AV-unprocessed.smi:2708-2

> <Gold.Version>
5.8.1

> <Gold.Id.Protein>
6NUR|6NUR_protein|mol2

> <Gold.PLP.Fitness>
40.5593

> <Gold.PLP.PLP>
-28.5251

> <Gold.PLP.part.hbond>
-3.0000

> <Gold.PLP.part.metal>
0.0000

> <Gold.PLP.part.buried>
-4.8838

> <Gold.PLP.part.nonpolar>
-21.1360

> <Gold.PLP.part.repulsive>
0.2644

> <Gold.PLP.ligand.clash>
0.0000

> <Gold.PLP.ligand.torsion>
1.7498

> <Gold.PLP.Chemscore.Hbond>
5.1680

> <Gold.PLP.Chemscore.CHOScore>
0.0000

> <Gold.PLP.Chemscore.Metal>
0.0000

> <Gold.Chemscore.Hbonds>
donor molecule, donor type, donor heavy atom, donor atom, acceptor molecule, acceptor atom, score
      P1  H  6896  6909       L1    17  2.00
      P1  H  6931  6943       L1    18  0.14

> <Gold.PLP.Chemscore.Internal.Correction>
0.0299

> <Gold.Rescore>
     Score         DG    S(hbond)    S(metal)    S(lipo)     H(rot)  DE(clash)    DE(int)     intcor
     15.22     -16.61       2.39        0.00      76.13       2.25       0.00       1.39       ----

> <Gold.Chemscore.Fitness>
15.2198

> <Gold.Chemscore.DG>
-16.6056

> <Gold.Chemscore.ZeroCoef>
-5.4800

> <Gold.Chemscore.Hbond>
2.3871

> <Gold.Chemscore.Metal>
0.0000

> <Gold.Chemscore.Lipo>
76.1303

> <Gold.Chemscore.Internal_Hbond>
0.0000

> <Gold.Chemscore.DEClash>
0.0000

> <Gold.Chemscore.DEInternal>
1.3858

> <Gold.Chemscore.Rot>
2.2478

> <Gold.Chemscore.Internal.Correction>
   9.000000E+99

> <Gold.Chemscore.Hbonds>
donor molecule, donor type, donor heavy atom, donor atom, acceptor molecule, acceptor atom, score
      P1  H  6896  6909       L1    17  1.00
      P1  H  6931  6943       L1    18  0.07
      P1  H  6934  6947       L1    18  0.02

> <Gold.Chemscore.Hbond.Weighted>
-7.9728

> <Gold.Chemscore.Metal.Weighted>
-0.0000

> <Gold.Chemscore.Lipo.Weighted>
-8.9072

> <Gold.Chemscore.Internal_Hbond.Weighted>
0.0000

> <Gold.Chemscore.DEClash.Weighted>
0.0000

> <Gold.Chemscore.DEInternal.Weighted>
1.3858

> <Gold.Chemscore.Rot.Weighted>
5.7544

> <Gold.Chemscore.Internal.Correction.Weighted>
   9.000000E+99

> <Gold.Protein.RotatedTorsions>
[ 6907 6896 6895 6894 ] final   70.46 input  -60.11 | X-H torsion
[ 7974 7965 7964 7962 ] final   98.78 input  175.53 | X-H torsion
[ 8008 7997 7996 7995 ] final  107.99 input   59.86 | X-H torsion
[ 10167 10162 10161 10158 ] final -113.25 input  -65.29 | X-H torsion
[ 10718 10713 10712 10709 ] final    7.52 input   66.30 | X-H torsion
[ 10763 10752 10751 10750 ] final    0.82 input  -60.55 | X-H torsion
[ 11005 11000 10999 10996 ] final -162.96 input  -57.11 | X-H torsion

> <Gold.Protein.ActiveResidues>
 VAL166  LYS551  ARG553  GLY616  TRP617  ASP618  TYR619  PRO620  LYS621  CYS622 
 ASP623  PHE694  ASN695  SER759  ASP760  ASP761  ALA762  ILE779  LEU786  VAL792 
 PHE793  MET794  SER795  GLU796  ALA797  LYS798  CYS799  TRP800  GLU811  SER814 

> <Gold.Protein.RotatedAtoms>
  152.4750  134.4865  159.9681 H   0  0  0  0  0  0  0  0  0  0  0  0  # atno 6907 bound_to 6896
  151.4883  133.3524  159.2857 H   0  0  0  0  0  0  0  0  0  0  0  0  # atno 6908 bound_to 6896
  150.8784  134.8197  159.7268 H   0  0  0  0  0  0  0  0  0  0  0  0  # atno 6909 bound_to 6896
  145.4077  139.2338  143.3265 H   0  0  0  0  0  0  0  0  0  0  0  0  # atno 7974 bound_to 7965
  156.1868  140.3085  155.9253 H   0  0  0  0  0  0  0  0  0  0  0  0  # atno 8008 bound_to 7997
  155.3264  140.0458  157.3058 H   0  0  0  0  0  0  0  0  0  0  0  0  # atno 8009 bound_to 7997
  154.5405  140.2260  155.8659 H   0  0  0  0  0  0  0  0  0  0  0  0  # atno 8010 bound_to 7997
  140.1139  143.4503  152.1735 H   0  0  0  0  0  0  0  0  0  0  0  0  # atno 10167 bound_to 10162
  156.9381  130.5851  149.5651 H   0  0  0  0  0  0  0  0  0  0  0  0  # atno 10718 bound_to 10713
  153.3159  135.6966  153.7074 H   0  0  0  0  0  0  0  0  0  0  0  0  # atno 10763 bound_to 10752
  153.5933  135.3476  155.2919 H   0  0  0  0  0  0  0  0  0  0  0  0  # atno 10764 bound_to 10752
  154.8586  135.4323  154.2310 H   0  0  0  0  0  0  0  0  0  0  0  0  # atno 10765 bound_to 10752
  140.6035  134.4923  157.5208 H   0  0  0  0  0  0  0  0  0  0  0  0  # atno 11005 bound_to 11000
  146.2720  140.4784  142.8810 LP  0  0  0  0  0  0  0  0  0  0  0  0  # atno 17320 bound_to 7965
  144.8330  140.6738  143.6278 LP  0  0  0  0  0  0  0  0  0  0  0  0  # atno 17321 bound_to 7965
  139.5604  144.7402  151.4171 LP  0  0  0  0  0  0  0  0  0  0  0  0  # atno 17342 bound_to 10162
  140.6910  143.7861  150.7255 LP  0  0  0  0  0  0  0  0  0  0  0  0  # atno 17343 bound_to 10162
  156.0417  130.5498  150.8785 LP  0  0  0  0  0  0  0  0  0  0  0  0  # atno 17370 bound_to 10713
  157.5803  131.0946  150.9281 LP  0  0  0  0  0  0  0  0  0  0  0  0  # atno 17371 bound_to 10713
  139.9222  134.8126  156.1176 LP  0  0  0  0  0  0  0  0  0  0  0  0  # atno 17394 bound_to 11000
  141.0856  133.6735  156.2430 LP  0  0  0  0  0  0  0  0  0  0  0  0  # atno 17395 bound_to 11000

$$$$
