AV-unprocessed.smi:703|AV-procd|sdf|3435|dock2
  -GOLD-   22720 0423D 1   1.00000     0.00000
 Structure written by MMmdl.
 37 38  0  0  0  0  0  0  0  0  3 V2000
  146.5214  138.7382  151.9579 C   0  0  0  0  0  0  0  0  0  0  0  0
  147.2781  138.9841  153.2698 C   0  0  0  0  0  0  0  0  0  0  0  0
  147.8164  137.7290  153.8478 N   0  3  2  0  0  0  0  0  0  0  0  0
  146.7947  136.7338  154.2533 C   0  0  0  0  0  0  0  0  0  0  0  0
  147.4129  135.9489  155.4197 C   0  0  1  0  0  0  0  0  0  0  0  0
  148.2269  134.7389  154.8978 C   0  0  0  0  0  0  0  0  0  0  0  0
  148.2166  137.0518  156.1377 C   0  0  1  0  0  0  0  0  0  0  0  0
  149.2766  136.5267  156.9856 N   0  5  0  0  0  0  0  0  0  0  0  0
  149.2636  136.8302  158.5797 S   0  0  0  0  0  0  0  0  0  0  0  0
  150.4394  136.2762  159.2717 O   0  0  0  0  0  0  0  0  0  0  0  0
  148.9113  138.2290  158.8706 O   0  0  0  0  0  0  0  0  0  0  0  0
  147.8141  135.8182  159.1126 C   0  0  0  0  0  0  0  0  0  0  0  0
  147.5585  136.0013  160.5841 C   0  0  0  0  0  0  0  0  0  0  0  0
  147.5347  135.0125  161.6072 C   0  0  0  0  0  0  0  0  0  0  0  0
  147.2634  135.7282  162.7371 C   0  0  0  0  0  0  0  0  0  0  0  0
  147.1212  137.0448  162.4428 O   0  0  0  0  0  0  0  0  0  0  0  0
  147.3074  137.2090  161.0655 N   0  0  0  0  0  0  0  0  0  0  0  0
  148.7416  137.9267  154.9895 C   0  0  0  0  0  0  0  0  0  0  0  0
  146.1805  139.6803  151.5278 H   0  0  0  0  0  0  0  0  0  0  0  0
  145.6429  138.1111  152.1108 H   0  0  0  0  0  0  0  0  0  0  0  0
  147.1602  138.2499  151.2214 H   0  0  0  0  0  0  0  0  0  0  0  0
  148.1093  139.6613  153.0696 H   0  0  0  0  0  0  0  0  0  0  0  0
  146.6344  139.4828  153.9958 H   0  0  0  0  0  0  0  0  0  0  0  0
  145.8813  137.2407  154.5771 H   0  0  0  0  0  0  0  0  0  0  0  0
  146.5182  136.0930  153.4149 H   0  0  0  0  0  0  0  0  0  0  0  0
  146.6278  135.5691  156.0751 H   0  0  0  0  0  0  0  0  0  0  0  0
  149.0416  135.0345  154.2341 H   0  0  0  0  0  0  0  0  0  0  0  0
  147.5841  134.0619  154.3346 H   0  0  0  0  0  0  0  0  0  0  0  0
  148.6557  134.1528  155.7125 H   0  0  0  0  0  0  0  0  0  0  0  0
  147.5054  137.6475  156.7121 H   0  0  0  0  0  0  0  0  0  0  0  0
  146.9532  136.1422  158.5277 H   0  0  0  0  0  0  0  0  0  0  0  0
  148.0036  134.7746  158.8628 H   0  0  0  0  0  0  0  0  0  0  0  0
  147.6992  133.9485  161.5230 H   0  0  0  0  0  0  0  0  0  0  0  0
  147.1447  135.4584  163.7760 H   0  0  0  0  0  0  0  0  0  0  0  0
  149.7354  137.6108  154.6681 H   0  0  0  0  0  0  0  0  0  0  0  0
  148.8136  138.9716  155.2955 H   0  0  0  0  0  0  0  0  0  0  0  0
  148.3737  137.2898  153.1292 H   0  0  0  0  0  0  0  0  0  0  0  0
  1  2  1  0  0  0  0
  1 19  1  0  0  0  0
  1 20  1  0  0  0  0
  1 21  1  0  0  0  0
  2  3  1  0  0  0  0
  2 22  1  0  0  0  0
  2 23  1  0  0  0  0
  3 18  1  0  0  0  0
  3  4  1  0  0  0  0
  3 37  1  0  0  0  0
  4  5  1  0  0  0  0
  4 24  1  0  0  0  0
  4 25  1  0  0  0  0
  5  6  1  0  0  0  0
  5  7  1  0  0  0  0
  5 26  1  0  0  0  0
  6 27  1  0  0  0  0
  6 28  1  0  0  0  0
  6 29  1  0  0  0  0
  7  8  1  0  0  0  0
  7 18  1  0  0  0  0
  7 30  1  0  0  0  0
  8  9  1  0  0  0  0
  9 10  2  0  0  0  0
  9 11  2  0  0  0  0
  9 12  1  0  0  0  0
 12 13  1  0  0  0  0
 12 31  1  0  0  0  0
 12 32  1  0  0  0  0
 13 17  2  0  0  0  0
 13 14  1  0  0  0  0
 14 15  2  0  0  0  0
 14 33  1  0  0  0  0
 15 16  1  0  0  0  0
 15 34  1  0  0  0  0
 16 17  1  0  0  0  0
 18 35  1  0  0  0  0
 18 36  1  0  0  0  0
M  CHG  1   3   1
M  CHG  1   8  -1
M  END
> <s_m_source_file>
AV-unprocessed.smi

> <i_m_source_file_index>
703

> <i_lp_mmshare_version>
43012

> <i_f3d_flags>
0

> <s_epik_input>
W0NIM11bQ0gyXU4xW0NIMl1bQ0BASF0oW0NIM10pW0NASF0oW0NIMl0xKVtOSF1TKD1PKSg9TylbQ0gyXWMyW2NIXVtjSF1vbjI=

> <s_epik_cmdline>
J2VwaWtfcHl0aG9uJywgJy1waCcsICc3LjAnLCAnLXRuJywgJzgnLCAnLW1hJywgJzIwMCcsICctbWV0YWxfYmluZGluZycsICctaW1hZScsICc8aW5maWxlLm1hZT4nLCAnLW9tYWUnLCAnPG91dGZpbGUubWFlPic=

> <r_epik_Ionization_Penalty>
3.62494

> <r_epik_Ionization_Penalty_Charging>
3.62494

> <r_epik_Ionization_Penalty_Neutral>
2.0321e-10

> <r_epik_State_Penalty>
3.62558

> <r_epik_Charging_Adjusted_Penalty>
7.25052

> <i_epik_Tot_Q>
0

> <i_epik_Tot_abs_Q>
2

> <r_epik_Metal_State_Penalty>
0.530836

> <b_epik_Metal_Only>
1

> <s_lp_Force_Field>
OPLS_2005

> <r_lp_Energy>
19.7921

> <b_lp_Chiralities_Consistent>
1

> <s_lp_Variant>
AV-unprocessed.smi:703-10

> <Gold.Version>
5.8.1

> <Gold.Id.Protein>
6NUR|6NUR_protein|mol2

> <Gold.PLP.Fitness>
39.4650

> <Gold.PLP.PLP>
-27.5124

> <Gold.PLP.part.hbond>
-7.2830

> <Gold.PLP.part.metal>
0.0000

> <Gold.PLP.part.buried>
-2.0148

> <Gold.PLP.part.nonpolar>
-18.8709

> <Gold.PLP.part.repulsive>
0.0048

> <Gold.PLP.ligand.clash>
0.0000

> <Gold.PLP.ligand.torsion>
0.5537

> <Gold.PLP.Chemscore.Hbond>
4.0000

> <Gold.PLP.Chemscore.CHOScore>
0.0000

> <Gold.PLP.Chemscore.Metal>
0.0000

> <Gold.Chemscore.Hbonds>
donor molecule, donor type, donor heavy atom, donor atom, acceptor molecule, acceptor atom, score
      L1  H     3    37       P1  7948  2.00
      P1  H  6896  6907       L1    10  0.88
      P1  H  6934  6947       L1    17  1.00

> <Gold.PLP.Chemscore.Internal.Correction>
1.0601

> <Gold.Rescore>
     Score         DG    S(hbond)    S(metal)    S(lipo)     H(rot)  DE(clash)    DE(int)     intcor
     14.89     -16.59       2.74        0.00      52.41       1.63       0.03       1.67       ----

> <Gold.Chemscore.Fitness>
14.8944

> <Gold.Chemscore.DG>
-16.5934

> <Gold.Chemscore.ZeroCoef>
-5.4800

> <Gold.Chemscore.Hbond>
2.7436

> <Gold.Chemscore.Metal>
0.0000

> <Gold.Chemscore.Lipo>
52.4122

> <Gold.Chemscore.Internal_Hbond>
0.0000

> <Gold.Chemscore.DEClash>
0.0270

> <Gold.Chemscore.DEInternal>
1.6720

> <Gold.Chemscore.Rot>
1.6338

> <Gold.Chemscore.Internal.Correction>
   9.000000E+99

> <Gold.Chemscore.Hbonds>
donor molecule, donor type, donor heavy atom, donor atom, acceptor molecule, acceptor atom, score
      L1  H     3    37       P1  7948  1.00
      P1  H  6896  6907       L1    10  0.86
      P1  H  6934  6947       L1    17  0.25

> <Gold.Chemscore.Hbond.Weighted>
-9.1636

> <Gold.Chemscore.Metal.Weighted>
-0.0000

> <Gold.Chemscore.Lipo.Weighted>
-6.1322

> <Gold.Chemscore.Internal_Hbond.Weighted>
0.0000

> <Gold.Chemscore.DEClash.Weighted>
0.0270

> <Gold.Chemscore.DEInternal.Weighted>
1.6720

> <Gold.Chemscore.Rot.Weighted>
4.1825

> <Gold.Chemscore.Internal.Correction.Weighted>
   9.000000E+99

> <Gold.Protein.RotatedTorsions>
[ 6907 6896 6895 6894 ] final  -30.29 input  -60.11 | X-H torsion
[ 7974 7965 7964 7962 ] final  140.70 input  175.53 | X-H torsion
[ 8008 7997 7996 7995 ] final  -97.11 input   59.86 | X-H torsion
[ 10167 10162 10161 10158 ] final  -62.21 input  -65.29 | X-H torsion
[ 10718 10713 10712 10709 ] final -123.81 input   66.30 | X-H torsion
[ 10763 10752 10751 10750 ] final -131.17 input  -60.55 | X-H torsion
[ 11005 11000 10999 10996 ] final  -38.82 input  -57.11 | X-H torsion

> <Gold.Protein.ActiveResidues>
 VAL166  LYS551  ARG553  GLY616  TRP617  ASP618  TYR619  PRO620  LYS621  CYS622 
 ASP623  PHE694  ASN695  SER759  ASP760  ASP761  ALA762  ILE779  LEU786  VAL792 
 PHE793  MET794  SER795  GLU796  ALA797  LYS798  CYS799  TRP800  GLU811  SER814 

> <Gold.Protein.RotatedAtoms>
  151.1076  135.0008  159.8478 H   0  0  0  0  0  0  0  0  0  0  0  0  # atno 6907 bound_to 6896
  152.5441  134.1875  159.8670 H   0  0  0  0  0  0  0  0  0  0  0  0  # atno 6908 bound_to 6896
  151.1923  133.4615  159.2628 H   0  0  0  0  0  0  0  0  0  0  0  0  # atno 6909 bound_to 6896
  144.9163  139.5227  143.5685 H   0  0  0  0  0  0  0  0  0  0  0  0  # atno 7974 bound_to 7965
  154.7834  140.0466  157.1144 H   0  0  0  0  0  0  0  0  0  0  0  0  # atno 8008 bound_to 7997
  154.9678  140.3085  155.4982 H   0  0  0  0  0  0  0  0  0  0  0  0  # atno 8009 bound_to 7997
  156.2939  140.2259  156.4768 H   0  0  0  0  0  0  0  0  0  0  0  0  # atno 8010 bound_to 7997
  140.5954  143.2350  151.6047 H   0  0  0  0  0  0  0  0  0  0  0  0  # atno 10167 bound_to 10162
  156.1534  130.6551  150.9947 H   0  0  0  0  0  0  0  0  0  0  0  0  # atno 10718 bound_to 10713
  154.8752  135.3838  154.4203 H   0  0  0  0  0  0  0  0  0  0  0  0  # atno 10763 bound_to 10752
  153.4907  135.7030  153.5891 H   0  0  0  0  0  0  0  0  0  0  0  0  # atno 10764 bound_to 10752
  153.4265  135.3889  155.2111 H   0  0  0  0  0  0  0  0  0  0  0  0  # atno 10765 bound_to 10752
  141.0056  133.6933  156.2104 H   0  0  0  0  0  0  0  0  0  0  0  0  # atno 11005 bound_to 11000
  146.3183  139.8008  142.8966 LP  0  0  0  0  0  0  0  0  0  0  0  0  # atno 17320 bound_to 7965
  145.3371  141.0279  143.3414 LP  0  0  0  0  0  0  0  0  0  0  0  0  # atno 17321 bound_to 7965
  139.5255  144.3073  152.1023 LP  0  0  0  0  0  0  0  0  0  0  0  0  # atno 17342 bound_to 10162
  140.2244  144.4433  150.6327 LP  0  0  0  0  0  0  0  0  0  0  0  0  # atno 17343 bound_to 10162
  157.6675  131.0868  150.7692 LP  0  0  0  0  0  0  0  0  0  0  0  0  # atno 17370 bound_to 10713
  156.7759  130.4843  149.5410 LP  0  0  0  0  0  0  0  0  0  0  0  0  # atno 17371 bound_to 10713
  140.6818  134.4759  157.5589 LP  0  0  0  0  0  0  0  0  0  0  0  0  # atno 17394 bound_to 11000
  139.9062  134.8445  156.1699 LP  0  0  0  0  0  0  0  0  0  0  0  0  # atno 17395 bound_to 11000

$$$$
