AV-unprocessed.smi:1940|AV-procd|sdf|7837|dock3
  -GOLD-   22720 9583D 1   1.00000     0.00000
 Structure written by MMmdl.
 49 51  0  0  0  0  0  0  0  0  1 V2000
  144.3162  137.4617  152.6368 C   0  0  0  0  0  0  0  0  0  0  0  0
  145.2818  136.2685  152.7110 C   0  0  2  0  0  0  0  0  0  0  0  0
  146.6231  136.7653  153.0140 N   0  0  0  0  0  0  0  0  0  0  0  0
  146.9327  137.6596  153.9638 C   0  0  0  0  0  0  0  0  0  0  0  0
  146.1003  138.1932  154.6967 O   0  0  0  0  0  0  0  0  0  0  0  0
  148.2550  137.9010  153.9879 N   0  0  0  0  0  0  0  0  0  0  0  0
  148.9772  138.7790  154.8408 C   0  0  0  0  0  0  0  0  0  0  0  0
  148.5903  139.1004  156.1637 C   0  0  0  0  0  0  0  0  0  0  0  0
  149.3971  139.9760  156.9149 C   0  0  0  0  0  0  0  0  0  0  0  0
  150.5684  140.4956  156.3271 C   0  0  0  0  0  0  0  0  0  0  0  0
  151.3689  141.3759  157.0686 N   0  0  0  0  0  0  0  0  0  0  0  0
  151.8750  140.7877  158.3062 C   0  0  0  0  0  0  0  0  0  0  0  0
  152.9199  141.7083  158.9602 C   0  0  0  0  0  0  0  0  0  0  0  0
  152.3528  143.1218  159.1707 C   0  0  0  0  0  0  0  0  0  0  0  0
  151.8025  143.6773  157.8469 C   0  0  0  0  0  0  0  0  0  0  0  0
  150.7847  142.7057  157.2245 C   0  0  0  0  0  0  0  0  0  0  0  0
  150.9546  140.1798  155.0683 N   0  0  0  0  0  0  0  0  0  0  0  0
  150.1762  139.3395  154.3536 C   0  0  0  0  0  0  0  0  0  0  0  0
  145.3201  135.4559  151.4014 C   0  0  2  0  0  0  0  0  0  0  0  0
  143.9811  134.8357  150.9969 C   0  0  0  0  0  0  0  0  0  0  0  0
  144.4255  133.6759  150.1362 C   0  0  0  0  0  0  0  0  0  0  0  0
  145.6641  133.1938  150.8837 C   0  0  0  0  0  0  0  0  0  0  0  0
  146.2048  134.3432  151.5305 O   0  0  0  0  0  0  0  0  0  0  0  0
  143.2903  137.1331  152.4699 H   0  0  0  0  0  0  0  0  0  0  0  0
  144.5845  138.1411  151.8271 H   0  0  0  0  0  0  0  0  0  0  0  0
  144.3257  138.0311  153.5668 H   0  0  0  0  0  0  0  0  0  0  0  0
  144.9339  135.6096  153.5086 H   0  0  0  0  0  0  0  0  0  0  0  0
  147.3777  136.3853  152.4619 H   0  0  0  0  0  0  0  0  0  0  0  0
  148.8021  137.4473  153.2710 H   0  0  0  0  0  0  0  0  0  0  0  0
  147.7044  138.6876  156.6205 H   0  0  0  0  0  0  0  0  0  0  0  0
  149.1211  140.2396  157.9256 H   0  0  0  0  0  0  0  0  0  0  0  0
  151.0455  140.6218  158.9952 H   0  0  0  0  0  0  0  0  0  0  0  0
  152.3175  139.8128  158.0975 H   0  0  0  0  0  0  0  0  0  0  0  0
  153.2443  141.2881  159.9124 H   0  0  0  0  0  0  0  0  0  0  0  0
  153.8063  141.7615  158.3266 H   0  0  0  0  0  0  0  0  0  0  0  0
  151.5555  143.0899  159.9142 H   0  0  0  0  0  0  0  0  0  0  0  0
  153.1241  143.7831  159.5664 H   0  0  0  0  0  0  0  0  0  0  0  0
  151.3390  144.6502  158.0115 H   0  0  0  0  0  0  0  0  0  0  0  0
  152.6253  143.8397  157.1494 H   0  0  0  0  0  0  0  0  0  0  0  0
  150.4576  143.0812  156.2540 H   0  0  0  0  0  0  0  0  0  0  0  0
  149.8992  142.6427  157.8587 H   0  0  0  0  0  0  0  0  0  0  0  0
  150.5205  139.1135  153.3549 H   0  0  0  0  0  0  0  0  0  0  0  0
  145.6867  136.0758  150.5813 H   0  0  0  0  0  0  0  0  0  0  0  0
  143.4464  134.4643  151.8726 H   0  0  0  0  0  0  0  0  0  0  0  0
  143.3302  135.5326  150.4683 H   0  0  0  0  0  0  0  0  0  0  0  0
  143.6646  132.9026  150.0284 H   0  0  0  0  0  0  0  0  0  0  0  0
  144.6984  134.0305  149.1413 H   0  0  0  0  0  0  0  0  0  0  0  0
  145.3888  132.4658  151.6478 H   0  0  0  0  0  0  0  0  0  0  0  0
  146.3939  132.7291  150.2206 H   0  0  0  0  0  0  0  0  0  0  0  0
  1  2  1  0  0  0  0
  1 24  1  0  0  0  0
  1 25  1  0  0  0  0
  1 26  1  0  0  0  0
  2  3  1  0  0  0  0
  2 19  1  0  0  0  0
  2 27  1  0  0  0  0
  3  4  1  0  0  0  0
  3 28  1  0  0  0  0
  4  5  2  0  0  0  0
  4  6  1  0  0  0  0
  6  7  1  0  0  0  0
  6 29  1  0  0  0  0
  7 18  1  0  0  0  0
  7  8  2  0  0  0  0
  8  9  1  0  0  0  0
  8 30  1  0  0  0  0
  9 10  2  0  0  0  0
  9 31  1  0  0  0  0
 10 11  1  0  0  0  0
 10 17  1  0  0  0  0
 11 16  1  0  0  0  0
 11 12  1  0  0  0  0
 12 13  1  0  0  0  0
 12 32  1  0  0  0  0
 12 33  1  0  0  0  0
 13 14  1  0  0  0  0
 13 34  1  0  0  0  0
 13 35  1  0  0  0  0
 14 15  1  0  0  0  0
 14 36  1  0  0  0  0
 14 37  1  0  0  0  0
 15 16  1  0  0  0  0
 15 38  1  0  0  0  0
 15 39  1  0  0  0  0
 16 40  1  0  0  0  0
 16 41  1  0  0  0  0
 17 18  2  0  0  0  0
 18 42  1  0  0  0  0
 19 23  1  0  0  0  0
 19 20  1  0  0  0  0
 19 43  1  0  0  0  0
 20 21  1  0  0  0  0
 20 44  1  0  0  0  0
 20 45  1  0  0  0  0
 21 22  1  0  0  0  0
 21 46  1  0  0  0  0
 21 47  1  0  0  0  0
 22 23  1  0  0  0  0
 22 48  1  0  0  0  0
 22 49  1  0  0  0  0
M  END
> <s_m_source_file>
AV-unprocessed.smi

> <i_m_source_file_index>
1940

> <i_lp_mmshare_version>
43012

> <i_f3d_flags>
0

> <s_epik_input>
TzFbQ0gyXVtDSDJdW0NIMl1bQ0BIXTFbQ0BIXShbQ0gzXSlbTkhdQyg9TylbTkhdYzJbY0hdW2NIXWMobltjSF0yKU4zW0NIMl1bQ0gyXVtDSDJdW0NIMl1bQ0gyXTM=

> <s_epik_cmdline>
J2VwaWtfcHl0aG9uJywgJy1waCcsICc3LjAnLCAnLXRuJywgJzgnLCAnLW1hJywgJzIwMCcsICctbWV0YWxfYmluZGluZycsICctaW1hZScsICc8aW5maWxlLm1hZT4nLCAnLW9tYWUnLCAnPG91dGZpbGUubWFlPic=

> <r_lp_tautomer_probability>
1

> <r_epik_Ionization_Penalty>
0.105688

> <r_epik_Ionization_Penalty_Charging>
0

> <r_epik_Ionization_Penalty_Neutral>
0.105688

> <r_epik_State_Penalty>
0.0895745

> <r_epik_Charging_Adjusted_Penalty>
0.0895745

> <i_epik_Tot_Q>
0

> <i_epik_Tot_abs_Q>
0

> <r_epik_Metal_State_Penalty>
0.0765749

> <b_epik_Metal_Only>
0

> <s_lp_Force_Field>
OPLS_2005

> <r_lp_Energy>
35.6484

> <b_lp_Chiralities_Consistent>
1

> <s_lp_Variant>
AV-unprocessed.smi:1940-1

> <Gold.Version>
5.8.1

> <Gold.Id.Protein>
6NUR|6NUR_protein|mol2

> <Gold.PLP.Fitness>
45.7688

> <Gold.PLP.PLP>
-35.9890

> <Gold.PLP.part.hbond>
-3.0000

> <Gold.PLP.part.metal>
0.0000

> <Gold.PLP.part.buried>
-5.3342

> <Gold.PLP.part.nonpolar>
-28.7155

> <Gold.PLP.part.repulsive>
0.3240

> <Gold.PLP.ligand.clash>
0.0000

> <Gold.PLP.ligand.torsion>
0.4516

> <Gold.PLP.Chemscore.Hbond>
2.5000

> <Gold.PLP.Chemscore.CHOScore>
0.9978

> <Gold.PLP.Chemscore.Metal>
0.0000

> <Gold.Chemscore.Hbonds>
donor molecule, donor type, donor heavy atom, donor atom, acceptor molecule, acceptor atom, score
      L1  H     3    28       P1  7948  1.00
      L1  H     6    29       P1  7948  1.00
      P1  H  7989  7998       L1    17  0.50
      L1  C    18    42       P1  7957  0.95

> <Gold.PLP.Chemscore.Internal.Correction>
0.1896

> <Gold.Rescore>
     Score         DG    S(hbond)    S(metal)    S(lipo)     H(rot)  DE(clash)    DE(int)     intcor
     17.26     -20.01       2.08        0.00      93.91       1.34       0.02       2.72       ----

> <Gold.Chemscore.Fitness>
17.2623

> <Gold.Chemscore.DG>
-20.0095

> <Gold.Chemscore.ZeroCoef>
-5.4800

> <Gold.Chemscore.Hbond>
2.0842

> <Gold.Chemscore.Metal>
0.0000

> <Gold.Chemscore.Lipo>
93.9149

> <Gold.Chemscore.Internal_Hbond>
0.0000

> <Gold.Chemscore.DEClash>
0.0226

> <Gold.Chemscore.DEInternal>
2.7245

> <Gold.Chemscore.Rot>
1.3359

> <Gold.Chemscore.Internal.Correction>
   9.000000E+99

> <Gold.Chemscore.Hbonds>
donor molecule, donor type, donor heavy atom, donor atom, acceptor molecule, acceptor atom, score
      L1  H     3    28       P1  7948  0.99
      L1  H     6    29       P1  7948  0.96
      P1  H  7989  7998       L1    17  0.02

> <Gold.Chemscore.Hbond.Weighted>
-6.9613

> <Gold.Chemscore.Metal.Weighted>
-0.0000

> <Gold.Chemscore.Lipo.Weighted>
-10.9880

> <Gold.Chemscore.Internal_Hbond.Weighted>
0.0000

> <Gold.Chemscore.DEClash.Weighted>
0.0226

> <Gold.Chemscore.DEInternal.Weighted>
2.7245

> <Gold.Chemscore.Rot.Weighted>
3.4199

> <Gold.Chemscore.Internal.Correction.Weighted>
   9.000000E+99

> <Gold.Protein.RotatedTorsions>
[ 6907 6896 6895 6894 ] final  175.90 input  -60.11 | X-H torsion
[ 7974 7965 7964 7962 ] final  103.97 input  175.53 | X-H torsion
[ 8008 7997 7996 7995 ] final   -7.08 input   59.86 | X-H torsion
[ 10167 10162 10161 10158 ] final  113.40 input  -65.29 | X-H torsion
[ 10718 10713 10712 10709 ] final -108.21 input   66.30 | X-H torsion
[ 10763 10752 10751 10750 ] final  -12.28 input  -60.55 | X-H torsion
[ 11005 11000 10999 10996 ] final  -52.89 input  -57.11 | X-H torsion

> <Gold.Protein.ActiveResidues>
 VAL166  LYS551  ARG553  GLY616  TRP617  ASP618  TYR619  PRO620  LYS621  CYS622 
 ASP623  PHE694  ASN695  SER759  ASP760  ASP761  ALA762  ILE779  LEU786  VAL792 
 PHE793  MET794  SER795  GLU796  ALA797  LYS798  CYS799  TRP800  GLU811  SER814 

> <Gold.Protein.RotatedAtoms>
  151.7287  133.3317  159.3334 H   0  0  0  0  0  0  0  0  0  0  0  0  # atno 6907 bound_to 6896
  150.7622  134.6383  159.6232 H   0  0  0  0  0  0  0  0  0  0  0  0  # atno 6908 bound_to 6896
  152.3605  134.6880  160.0260 H   0  0  0  0  0  0  0  0  0  0  0  0  # atno 6909 bound_to 6896
  145.3389  139.2467  143.3620 H   0  0  0  0  0  0  0  0  0  0  0  0  # atno 7974 bound_to 7965
  154.5874  140.2416  155.7969 H   0  0  0  0  0  0  0  0  0  0  0  0  # atno 8008 bound_to 7997
  156.2223  140.2994  155.9936 H   0  0  0  0  0  0  0  0  0  0  0  0  # atno 8009 bound_to 7997
  155.2434  140.0408  157.2968 H   0  0  0  0  0  0  0  0  0  0  0  0  # atno 8010 bound_to 7997
  139.6464  144.7127  151.2134 H   0  0  0  0  0  0  0  0  0  0  0  0  # atno 10167 bound_to 10162
  156.0474  130.5701  150.7929 H   0  0  0  0  0  0  0  0  0  0  0  0  # atno 10718 bound_to 10713
  153.4962  135.7017  153.5857 H   0  0  0  0  0  0  0  0  0  0  0  0  # atno 10763 bound_to 10752
  153.4008  135.3872  155.1986 H   0  0  0  0  0  0  0  0  0  0  0  0  # atno 10764 bound_to 10752
  154.8714  135.3881  154.4427 H   0  0  0  0  0  0  0  0  0  0  0  0  # atno 10765 bound_to 10752
  141.0948  133.6626  156.4092 H   0  0  0  0  0  0  0  0  0  0  0  0  # atno 11005 bound_to 11000
  146.3015  140.3982  142.8702 LP  0  0  0  0  0  0  0  0  0  0  0  0  # atno 17320 bound_to 7965
  144.8806  140.7395  143.5989 LP  0  0  0  0  0  0  0  0  0  0  0  0  # atno 17321 bound_to 7965
  140.7517  143.6223  150.8501 LP  0  0  0  0  0  0  0  0  0  0  0  0  # atno 17342 bound_to 10162
  139.9867  143.5892  152.2924 LP  0  0  0  0  0  0  0  0  0  0  0  0  # atno 17343 bound_to 10162
  157.5364  131.0939  150.9886 LP  0  0  0  0  0  0  0  0  0  0  0  0  # atno 17370 bound_to 10713
  157.0180  130.5662  149.5328 LP  0  0  0  0  0  0  0  0  0  0  0  0  # atno 17371 bound_to 10713
  140.5166  134.6344  157.5303 LP  0  0  0  0  0  0  0  0  0  0  0  0  # atno 17394 bound_to 11000
  139.9782  134.7181  155.9909 LP  0  0  0  0  0  0  0  0  0  0  0  0  # atno 17395 bound_to 11000

$$$$
