AV-unprocessed.smi:3150|AV-procd|sdf|12007|dock2
  -GOLD-   2272017413D 1   1.00000     0.00000
 Structure written by MMmdl.
 33 34  0  0  0  0  0  0  0  0  1 V2000
  151.2391  139.6984  158.7286 C   0  0  0  0  0  0  0  0  0  0  0  0
  151.8000  140.6633  157.6733 C   0  0  2  0  0  0  0  0  0  0  0  0
  151.5557  141.9906  158.1314 O   0  0  0  0  0  0  0  0  0  0  0  0
  152.1709  142.3324  159.3674 C   0  0  0  0  0  0  0  0  0  0  0  0
  152.3186  143.8367  159.4377 C   0  0  0  0  0  0  0  0  0  0  0  0
  151.2390  144.7419  158.8894 C   0  0  0  0  0  0  0  0  0  0  0  0
  152.5660  144.6405  158.1813 C   0  0  0  0  0  0  0  0  0  0  0  0
  151.1421  140.4410  156.3015 C   0  0  0  0  0  0  0  0  0  0  0  0
  151.8364  140.1221  155.3356 O   0  0  0  0  0  0  0  0  0  0  0  0
  149.8064  140.6025  156.2641 N   0  0  0  0  0  0  0  0  0  0  0  0
  148.9247  140.4549  155.1579 C   0  0  0  0  0  0  0  0  0  0  0  0
  149.0880  139.5059  154.2020 N   0  0  0  0  0  0  0  0  0  0  0  0
  148.2059  139.4322  153.1838 C   0  0  0  0  0  0  0  0  0  0  0  0
  147.1069  140.2999  153.0541 C   0  0  0  0  0  0  0  0  0  0  0  0
  146.9244  141.2884  154.0366 C   0  0  0  0  0  0  0  0  0  0  0  0
  147.8423  141.3701  155.1029 C   0  0  0  0  0  0  0  0  0  0  0  0
  147.6701  142.3291  156.0627 O   0  0  0  0  0  0  0  0  0  0  0  0
  151.3800  138.6588  158.4302 H   0  0  0  0  0  0  0  0  0  0  0  0
  150.1729  139.8587  158.8943 H   0  0  0  0  0  0  0  0  0  0  0  0
  151.7441  139.8371  159.6847 H   0  0  0  0  0  0  0  0  0  0  0  0
  152.8770  140.4989  157.5996 H   0  0  0  0  0  0  0  0  0  0  0  0
  151.5533  141.9997  160.2024 H   0  0  0  0  0  0  0  0  0  0  0  0
  153.1521  141.8672  159.4702 H   0  0  0  0  0  0  0  0  0  0  0  0
  152.8303  144.1869  160.3322 H   0  0  0  0  0  0  0  0  0  0  0  0
  150.3785  144.2740  158.4148 H   0  0  0  0  0  0  0  0  0  0  0  0
  151.0283  145.6586  159.4361 H   0  0  0  0  0  0  0  0  0  0  0  0
  153.2410  145.4908  158.2539 H   0  0  0  0  0  0  0  0  0  0  0  0
  152.5881  144.1078  157.2325 H   0  0  0  0  0  0  0  0  0  0  0  0
  149.3626  140.8571  157.1346 H   0  0  0  0  0  0  0  0  0  0  0  0
  148.3821  138.6586  152.4511 H   0  0  0  0  0  0  0  0  0  0  0  0
  146.4229  140.2084  152.2235 H   0  0  0  0  0  0  0  0  0  0  0  0
  146.0918  141.9736  153.9718 H   0  0  0  0  0  0  0  0  0  0  0  0
  147.8224  143.2051  155.7426 H   0  0  0  0  0  0  0  0  0  0  0  0
  1  2  1  0  0  0  0
  1 18  1  0  0  0  0
  1 19  1  0  0  0  0
  1 20  1  0  0  0  0
  2  3  1  0  0  0  0
  2  8  1  0  0  0  0
  2 21  1  0  0  0  0
  3  4  1  0  0  0  0
  4  5  1  0  0  0  0
  4 22  1  0  0  0  0
  4 23  1  0  0  0  0
  5  7  1  0  0  0  0
  5  6  1  0  0  0  0
  5 24  1  0  0  0  0
  6  7  1  0  0  0  0
  6 25  1  0  0  0  0
  6 26  1  0  0  0  0
  7 27  1  0  0  0  0
  7 28  1  0  0  0  0
  8  9  2  0  0  0  0
  8 10  1  0  0  0  0
 10 11  1  0  0  0  0
 10 29  1  0  0  0  0
 11 16  1  0  0  0  0
 11 12  2  0  0  0  0
 12 13  1  0  0  0  0
 13 14  2  0  0  0  0
 13 30  1  0  0  0  0
 14 15  1  0  0  0  0
 14 31  1  0  0  0  0
 15 16  2  0  0  0  0
 15 32  1  0  0  0  0
 16 17  1  0  0  0  0
 17 33  1  0  0  0  0
M  END
> <s_m_source_file>
AV-unprocessed.smi

> <i_m_source_file_index>
3150

> <i_lp_mmshare_version>
43012

> <i_f3d_flags>
0

> <s_epik_input>
W0NIMl0xW0NIMl1bQ0hdMVtDSDJdT1tDQEBIXShbQ0gzXSlDKD1PKVtOSF1jMm5bY0hdW2NIXVtjSF1jMltPSF0=

> <s_epik_cmdline>
J2VwaWtfcHl0aG9uJywgJy1waCcsICc3LjAnLCAnLXRuJywgJzgnLCAnLW1hJywgJzIwMCcsICctbWV0YWxfYmluZGluZycsICctaW1hZScsICc8aW5maWxlLm1hZT4nLCAnLW9tYWUnLCAnPG91dGZpbGUubWFlPic=

> <r_lp_tautomer_probability>
0.43658

> <r_epik_Ionization_Penalty>
0.0204299

> <r_epik_Ionization_Penalty_Charging>
0

> <r_epik_Ionization_Penalty_Neutral>
0.0204299

> <r_epik_State_Penalty>
0.419322

> <r_epik_Charging_Adjusted_Penalty>
0.419322

> <i_epik_Tot_Q>
0

> <i_epik_Tot_abs_Q>
0

> <r_epik_Metal_State_Penalty>
0.377394

> <b_epik_Metal_Only>
0

> <s_lp_Force_Field>
OPLS_2005

> <r_lp_Energy>
16.2266

> <b_lp_Chiralities_Consistent>
1

> <s_lp_Variant>
AV-unprocessed.smi:3150-1

> <Gold.Version>
5.8.1

> <Gold.Id.Protein>
6NUR|6NUR_protein|mol2

> <Gold.PLP.Fitness>
42.1835

> <Gold.PLP.PLP>
-33.7221

> <Gold.PLP.part.hbond>
-2.0000

> <Gold.PLP.part.metal>
0.0000

> <Gold.PLP.part.buried>
-0.9048

> <Gold.PLP.part.nonpolar>
-31.4270

> <Gold.PLP.part.repulsive>
0.4269

> <Gold.PLP.ligand.clash>
0.0000

> <Gold.PLP.ligand.torsion>
0.6645

> <Gold.PLP.Chemscore.Hbond>
1.8160

> <Gold.PLP.Chemscore.CHOScore>
1.2617

> <Gold.PLP.Chemscore.Metal>
0.0000

> <Gold.Chemscore.Hbonds>
donor molecule, donor type, donor heavy atom, donor atom, acceptor molecule, acceptor atom, score
      L1  H    17    33       P1  8028  1.00
      P1  H  7989  7998       L1     9  0.86
      L1  C    13    30       P1  7948  1.00
      L1  C    13    30       P1  7957  0.27

> <Gold.PLP.Chemscore.Internal.Correction>
0.5573

> <Gold.Rescore>
     Score         DG    S(hbond)    S(metal)    S(lipo)     H(rot)  DE(clash)    DE(int)     intcor
     15.07     -16.00       1.77        0.00      87.91       2.22       0.18       0.76       ----

> <Gold.Chemscore.Fitness>
15.0653

> <Gold.Chemscore.DG>
-16.0028

> <Gold.Chemscore.ZeroCoef>
-5.4800

> <Gold.Chemscore.Hbond>
1.7720

> <Gold.Chemscore.Metal>
0.0000

> <Gold.Chemscore.Lipo>
87.9106

> <Gold.Chemscore.Internal_Hbond>
0.0000

> <Gold.Chemscore.DEClash>
0.1802

> <Gold.Chemscore.DEInternal>
0.7572

> <Gold.Chemscore.Rot>
2.2192

> <Gold.Chemscore.Internal.Correction>
   9.000000E+99

> <Gold.Chemscore.Hbonds>
donor molecule, donor type, donor heavy atom, donor atom, acceptor molecule, acceptor atom, score
      L1  H    17    33       P1  8028  0.33
      P1  H  7989  7998       L1     9  0.82

> <Gold.Chemscore.Hbond.Weighted>
-5.9184

> <Gold.Chemscore.Metal.Weighted>
-0.0000

> <Gold.Chemscore.Lipo.Weighted>
-10.2855

> <Gold.Chemscore.Internal_Hbond.Weighted>
0.0000

> <Gold.Chemscore.DEClash.Weighted>
0.1802

> <Gold.Chemscore.DEInternal.Weighted>
0.7572

> <Gold.Chemscore.Rot.Weighted>
5.6812

> <Gold.Chemscore.Internal.Correction.Weighted>
   9.000000E+99

> <Gold.Protein.RotatedTorsions>
[ 6907 6896 6895 6894 ] final   96.01 input  -60.11 | X-H torsion
[ 7974 7965 7964 7962 ] final  -19.65 input  175.53 | X-H torsion
[ 8008 7997 7996 7995 ] final   27.98 input   59.86 | X-H torsion
[ 10167 10162 10161 10158 ] final   66.34 input  -65.29 | X-H torsion
[ 10718 10713 10712 10709 ] final  -42.43 input   66.30 | X-H torsion
[ 10763 10752 10751 10750 ] final  -41.75 input  -60.55 | X-H torsion
[ 11005 11000 10999 10996 ] final -124.85 input  -57.11 | X-H torsion

> <Gold.Protein.ActiveResidues>
 VAL166  LYS551  ARG553  GLY616  TRP617  ASP618  TYR619  PRO620  LYS621  CYS622 
 ASP623  PHE694  ASN695  SER759  ASP760  ASP761  ALA762  ILE779  LEU786  VAL792 
 PHE793  MET794  SER795  GLU796  ALA797  LYS798  CYS799  TRP800  GLU811  SER814 

> <Gold.Protein.RotatedAtoms>
  152.5439  134.0952  159.8293 H   0  0  0  0  0  0  0  0  0  0  0  0  # atno 6907 bound_to 6896
  151.1036  133.5217  159.2616 H   0  0  0  0  0  0  0  0  0  0  0  0  # atno 6908 bound_to 6896
  151.1963  135.0433  159.8908 H   0  0  0  0  0  0  0  0  0  0  0  0  # atno 6909 bound_to 6896
  146.1830  140.4091  142.8487 H   0  0  0  0  0  0  0  0  0  0  0  0  # atno 7974 bound_to 7965
  155.0515  140.3180  155.4690 H   0  0  0  0  0  0  0  0  0  0  0  0  # atno 8008 bound_to 7997
  156.2833  140.2145  156.5584 H   0  0  0  0  0  0  0  0  0  0  0  0  # atno 8009 bound_to 7997
  154.7207  140.0490  157.0624 H   0  0  0  0  0  0  0  0  0  0  0  0  # atno 8010 bound_to 7997
  140.1015  144.4899  150.7034 H   0  0  0  0  0  0  0  0  0  0  0  0  # atno 10167 bound_to 10162
  156.2596  130.4196  149.8557 H   0  0  0  0  0  0  0  0  0  0  0  0  # atno 10718 bound_to 10713
  153.9677  135.6732  153.4746 H   0  0  0  0  0  0  0  0  0  0  0  0  # atno 10763 bound_to 10752
  153.0808  135.4924  154.8495 H   0  0  0  0  0  0  0  0  0  0  0  0  # atno 10764 bound_to 10752
  154.7237  135.3122  154.8967 H   0  0  0  0  0  0  0  0  0  0  0  0  # atno 10765 bound_to 10752
  140.9809  134.0675  157.3766 H   0  0  0  0  0  0  0  0  0  0  0  0  # atno 11005 bound_to 11000
  144.8348  140.6765  143.6267 LP  0  0  0  0  0  0  0  0  0  0  0  0  # atno 17320 bound_to 7965
  145.4020  139.1596  143.4172 LP  0  0  0  0  0  0  0  0  0  0  0  0  # atno 17321 bound_to 7965
  140.6975  143.2413  151.4959 LP  0  0  0  0  0  0  0  0  0  0  0  0  # atno 17342 bound_to 10162
  139.5668  144.2022  152.1777 LP  0  0  0  0  0  0  0  0  0  0  0  0  # atno 17343 bound_to 10162
  156.6076  130.8573  151.3447 LP  0  0  0  0  0  0  0  0  0  0  0  0  # atno 17370 bound_to 10713
  157.7246  130.9604  150.1579 LP  0  0  0  0  0  0  0  0  0  0  0  0  # atno 17371 bound_to 10713
  139.8950  135.0138  156.6978 LP  0  0  0  0  0  0  0  0  0  0  0  0  # atno 17394 bound_to 11000
  140.7188  133.9159  155.8133 LP  0  0  0  0  0  0  0  0  0  0  0  0  # atno 17395 bound_to 11000

$$$$
