AV-unprocessed.smi:1779|AV-procd|sdf|7181|dock4
  -GOLD-   22720 8423D 1   1.00000     0.00000
 Structure written by MMmdl.
 47 48  0  0  0  0  0  0  0  0  2 V2000
  150.9838  142.4602  156.8292 C   0  0  0  0  0  0  0  0  0  0  0  0
  150.7292  141.2622  155.9628 C   0  0  0  0  0  0  0  0  0  0  0  0
  149.5382  140.9270  155.2550 C   0  0  0  0  0  0  0  0  0  0  0  0
  149.8725  139.7491  154.6446 C   0  0  0  0  0  0  0  0  0  0  0  0
  149.1212  138.9695  153.8224 N   0  0  0  0  0  0  0  0  0  0  0  0
  147.8595  139.1665  153.4024 C   0  0  0  0  0  0  0  0  0  0  0  0
  147.1425  140.1176  153.7134 O   0  0  0  0  0  0  0  0  0  0  0  0
  147.4562  138.1720  152.5989 N   0  0  0  0  0  0  0  0  0  0  0  0
  146.1433  138.0737  151.9685 C   0  0  0  0  0  0  0  0  0  0  0  0
  146.0868  136.9425  150.9227 C   0  0  2  0  0  0  0  0  0  0  0  0
  145.9352  137.5398  149.6506 O   0  0  0  0  0  0  0  0  0  0  0  0
  144.9239  135.9509  151.1452 C   0  0  0  0  0  0  0  0  0  0  0  0
  145.0775  134.7081  150.3463 N   0  3  0  0  0  0  0  0  0  0  0  0
  143.9013  133.8078  150.4697 C   0  0  0  0  0  0  0  0  0  0  0  0
  144.0227  132.6001  149.5246 C   0  0  0  0  0  0  0  0  0  0  0  0
  145.3265  131.8320  149.7773 C   0  0  0  0  0  0  0  0  0  0  0  0
  146.5231  132.7866  149.6773 C   0  0  0  0  0  0  0  0  0  0  0  0
  146.3497  133.9873  150.6222 C   0  0  0  0  0  0  0  0  0  0  0  0
  151.1703  139.4290  154.9750 N   0  0  0  0  0  0  0  0  0  0  0  0
  151.9694  138.2883  154.5721 C   0  0  0  0  0  0  0  0  0  0  0  0
  151.6952  140.3665  155.7929 N   0  0  0  0  0  0  0  0  0  0  0  0
  150.1323  143.1409  156.8213 H   0  0  0  0  0  0  0  0  0  0  0  0
  151.8556  143.0168  156.4842 H   0  0  0  0  0  0  0  0  0  0  0  0
  151.1630  142.1652  157.8635 H   0  0  0  0  0  0  0  0  0  0  0  0
  148.6090  141.4751  155.2126 H   0  0  0  0  0  0  0  0  0  0  0  0
  149.5717  138.1251  153.5016 H   0  0  0  0  0  0  0  0  0  0  0  0
  148.1121  137.4318  152.3947 H   0  0  0  0  0  0  0  0  0  0  0  0
  145.3507  137.9605  152.7105 H   0  0  0  0  0  0  0  0  0  0  0  0
  145.9631  139.0317  151.4790 H   0  0  0  0  0  0  0  0  0  0  0  0
  147.0438  136.4216  150.9256 H   0  0  0  0  0  0  0  0  0  0  0  0
  145.3033  138.2399  149.7171 H   0  0  0  0  0  0  0  0  0  0  0  0
  144.8351  135.6773  152.1966 H   0  0  0  0  0  0  0  0  0  0  0  0
  143.9899  136.4513  150.8840 H   0  0  0  0  0  0  0  0  0  0  0  0
  143.8057  133.4706  151.5033 H   0  0  0  0  0  0  0  0  0  0  0  0
  142.9897  134.3567  150.2289 H   0  0  0  0  0  0  0  0  0  0  0  0
  143.1677  131.9361  149.6562 H   0  0  0  0  0  0  0  0  0  0  0  0
  143.9934  132.9410  148.4887 H   0  0  0  0  0  0  0  0  0  0  0  0
  145.2998  131.3747  150.7672 H   0  0  0  0  0  0  0  0  0  0  0  0
  145.4313  131.0181  149.0592 H   0  0  0  0  0  0  0  0  0  0  0  0
  147.4450  132.2548  149.9150 H   0  0  0  0  0  0  0  0  0  0  0  0
  146.6260  133.1408  148.6505 H   0  0  0  0  0  0  0  0  0  0  0  0
  147.2007  134.6564  150.5012 H   0  0  0  0  0  0  0  0  0  0  0  0
  146.3607  133.6505  151.6602 H   0  0  0  0  0  0  0  0  0  0  0  0
  151.4198  137.3667  154.7665 H   0  0  0  0  0  0  0  0  0  0  0  0
  152.9084  138.2617  155.1272 H   0  0  0  0  0  0  0  0  0  0  0  0
  152.1891  138.3556  153.5063 H   0  0  0  0  0  0  0  0  0  0  0  0
  145.1067  134.9993  149.3792 H   0  0  0  0  0  0  0  0  0  0  0  0
  1  2  1  0  0  0  0
  1 22  1  0  0  0  0
  1 23  1  0  0  0  0
  1 24  1  0  0  0  0
  2 21  2  0  0  0  0
  2  3  1  0  0  0  0
  3  4  2  0  0  0  0
  3 25  1  0  0  0  0
  4  5  1  0  0  0  0
  4 19  1  0  0  0  0
  5  6  1  0  0  0  0
  5 26  1  0  0  0  0
  6  7  2  0  0  0  0
  6  8  1  0  0  0  0
  8  9  1  0  0  0  0
  8 27  1  0  0  0  0
  9 10  1  0  0  0  0
  9 28  1  0  0  0  0
  9 29  1  0  0  0  0
 10 11  1  0  0  0  0
 10 12  1  0  0  0  0
 10 30  1  0  0  0  0
 11 31  1  0  0  0  0
 12 13  1  0  0  0  0
 12 32  1  0  0  0  0
 12 33  1  0  0  0  0
 13 18  1  0  0  0  0
 13 14  1  0  0  0  0
 13 47  1  0  0  0  0
 14 15  1  0  0  0  0
 14 34  1  0  0  0  0
 14 35  1  0  0  0  0
 15 16  1  0  0  0  0
 15 36  1  0  0  0  0
 15 37  1  0  0  0  0
 16 17  1  0  0  0  0
 16 38  1  0  0  0  0
 16 39  1  0  0  0  0
 17 18  1  0  0  0  0
 17 40  1  0  0  0  0
 17 41  1  0  0  0  0
 18 42  1  0  0  0  0
 18 43  1  0  0  0  0
 19 20  1  0  0  0  0
 19 21  1  0  0  0  0
 20 44  1  0  0  0  0
 20 45  1  0  0  0  0
 20 46  1  0  0  0  0
M  CHG  1  13   1
M  END
> <s_m_source_file>
AV-unprocessed.smi

> <i_m_source_file_index>
1779

> <i_lp_mmshare_version>
43012

> <i_f3d_flags>
0

> <s_epik_input>
W0NIM11jMVtjSF1jKG4objEpW0NIM10pW05IXUMoPU8pW05IXVtDSDJdW0NASF0oW09IXSlbQ0gyXU4yW0NIMl1bQ0gyXVtDSDJdW0NIMl1bQ0gyXTI=

> <s_epik_cmdline>
J2VwaWtfcHl0aG9uJywgJy1waCcsICc3LjAnLCAnLXRuJywgJzgnLCAnLW1hJywgJzIwMCcsICctbWV0YWxfYmluZGluZycsICctaW1hZScsICc8aW5maWxlLm1hZT4nLCAnLW9tYWUnLCAnPG91dGZpbGUubWFlPic=

> <r_lp_tautomer_probability>
1

> <r_epik_Ionization_Penalty>
0.00528203

> <r_epik_Ionization_Penalty_Charging>
0.00519125

> <r_epik_Ionization_Penalty_Neutral>
9.07781e-05

> <r_epik_State_Penalty>
0.0037836

> <r_epik_Charging_Adjusted_Penalty>
0.00897485

> <i_epik_Tot_Q>
1

> <i_epik_Tot_abs_Q>
1

> <r_epik_Metal_State_Penalty>
-0

> <b_epik_Metal_Only>
0

> <s_lp_Force_Field>
OPLS_2005

> <r_lp_Energy>
18.32

> <b_lp_Chiralities_Consistent>
1

> <s_lp_Variant>
AV-unprocessed.smi:1779-1

> <Gold.Version>
5.8.1

> <Gold.Id.Protein>
6NUR|6NUR_protein|mol2

> <Gold.PLP.Fitness>
49.4227

> <Gold.PLP.PLP>
-42.2845

> <Gold.PLP.part.hbond>
-6.2137

> <Gold.PLP.part.metal>
0.0000

> <Gold.PLP.part.buried>
5.4272

> <Gold.PLP.part.nonpolar>
-39.6804

> <Gold.PLP.part.repulsive>
0.3457

> <Gold.PLP.ligand.clash>
0.0000

> <Gold.PLP.ligand.torsion>
0.8724

> <Gold.PLP.Chemscore.Hbond>
2.9450

> <Gold.PLP.Chemscore.CHOScore>
0.0000

> <Gold.PLP.Chemscore.Metal>
0.0000

> <Gold.Chemscore.Hbonds>
donor molecule, donor type, donor heavy atom, donor atom, acceptor molecule, acceptor atom, score
      L1  H     8    27       P1  7948  1.00
      L1  H    11    31       P1 10171  0.72
      L1  H    13    47       P1  7921  0.87
      P1  H  7954  7966       L1    11  0.03

> <Gold.PLP.Chemscore.Internal.Correction>
0.0481

> <Gold.Rescore>
     Score         DG    S(hbond)    S(metal)    S(lipo)     H(rot)  DE(clash)    DE(int)     intcor
     16.35     -20.15       2.71        0.00      99.50       2.36       1.83       1.96       ----

> <Gold.Chemscore.Fitness>
16.3528

> <Gold.Chemscore.DG>
-20.1457

> <Gold.Chemscore.ZeroCoef>
-5.4800

> <Gold.Chemscore.Hbond>
2.7119

> <Gold.Chemscore.Metal>
0.0000

> <Gold.Chemscore.Lipo>
99.5011

> <Gold.Chemscore.Internal_Hbond>
0.0000

> <Gold.Chemscore.DEClash>
1.8293

> <Gold.Chemscore.DEInternal>
1.9636

> <Gold.Chemscore.Rot>
2.3569

> <Gold.Chemscore.Internal.Correction>
   9.000000E+99

> <Gold.Chemscore.Hbonds>
donor molecule, donor type, donor heavy atom, donor atom, acceptor molecule, acceptor atom, score
      L1  H     8    27       P1  7948  0.94
      L1  H    11    31       P1 10171  0.71
      L1  H    13    47       P1  7921  0.80

> <Gold.Chemscore.Hbond.Weighted>
-9.0578

> <Gold.Chemscore.Metal.Weighted>
-0.0000

> <Gold.Chemscore.Lipo.Weighted>
-11.6416

> <Gold.Chemscore.Internal_Hbond.Weighted>
0.0000

> <Gold.Chemscore.DEClash.Weighted>
1.8293

> <Gold.Chemscore.DEInternal.Weighted>
1.9636

> <Gold.Chemscore.Rot.Weighted>
6.0337

> <Gold.Chemscore.Internal.Correction.Weighted>
   9.000000E+99

> <Gold.Protein.RotatedTorsions>
[ 6907 6896 6895 6894 ] final   83.08 input  -60.11 | X-H torsion
[ 7974 7965 7964 7962 ] final   67.23 input  175.53 | X-H torsion
[ 8008 7997 7996 7995 ] final  -38.41 input   59.86 | X-H torsion
[ 10167 10162 10161 10158 ] final  -45.23 input  -65.29 | X-H torsion
[ 10718 10713 10712 10709 ] final -157.93 input   66.30 | X-H torsion
[ 10763 10752 10751 10750 ] final  -83.76 input  -60.55 | X-H torsion
[ 11005 11000 10999 10996 ] final  -63.51 input  -57.11 | X-H torsion

> <Gold.Protein.ActiveResidues>
 VAL166  LYS551  ARG553  GLY616  TRP617  ASP618  TYR619  PRO620  LYS621  CYS622 
 ASP623  PHE694  ASN695  SER759  ASP760  ASP761  ALA762  ILE779  LEU786  VAL792 
 PHE793  MET794  SER795  GLU796  ALA797  LYS798  CYS799  TRP800  GLU811  SER814 

> <Gold.Protein.RotatedAtoms>
  152.5317  134.2951  159.9057 H   0  0  0  0  0  0  0  0  0  0  0  0  # atno 6907 bound_to 6896
  151.2903  133.4162  159.2640 H   0  0  0  0  0  0  0  0  0  0  0  0  # atno 6908 bound_to 6896
  151.0207  134.9482  159.8115 H   0  0  0  0  0  0  0  0  0  0  0  0  # atno 6909 bound_to 6896
  145.8171  139.3064  143.1065 H   0  0  0  0  0  0  0  0  0  0  0  0  # atno 7974 bound_to 7965
  154.4037  140.1578  156.2696 H   0  0  0  0  0  0  0  0  0  0  0  0  # atno 8008 bound_to 7997
  155.8965  140.3435  155.5972 H   0  0  0  0  0  0  0  0  0  0  0  0  # atno 8009 bound_to 7997
  155.7497  140.0803  157.2197 H   0  0  0  0  0  0  0  0  0  0  0  0  # atno 8010 bound_to 7997
  140.6866  143.2890  151.3610 H   0  0  0  0  0  0  0  0  0  0  0  0  # atno 10167 bound_to 10162
  156.5472  130.8589  151.2768 H   0  0  0  0  0  0  0  0  0  0  0  0  # atno 10718 bound_to 10713
  154.5915  135.5544  153.7283 H   0  0  0  0  0  0  0  0  0  0  0  0  # atno 10763 bound_to 10752
  153.0119  135.6344  154.1842 H   0  0  0  0  0  0  0  0  0  0  0  0  # atno 10764 bound_to 10752
  154.1783  135.2888  155.3040 H   0  0  0  0  0  0  0  0  0  0  0  0  # atno 10765 bound_to 10752
  141.1395  133.6653  156.5691 H   0  0  0  0  0  0  0  0  0  0  0  0  # atno 11005 bound_to 11000
  145.9715  140.8756  143.0160 LP  0  0  0  0  0  0  0  0  0  0  0  0  # atno 17320 bound_to 7965
  144.6751  140.1952  143.7392 LP  0  0  0  0  0  0  0  0  0  0  0  0  # atno 17321 bound_to 7965
  139.6230  144.0870  152.2408 LP  0  0  0  0  0  0  0  0  0  0  0  0  # atno 17342 bound_to 10162
  140.0320  144.6073  150.7480 LP  0  0  0  0  0  0  0  0  0  0  0  0  # atno 17343 bound_to 10162
  157.7394  130.9831  150.2314 LP  0  0  0  0  0  0  0  0  0  0  0  0  # atno 17370 bound_to 10713
  156.2918  130.3746  149.7834 LP  0  0  0  0  0  0  0  0  0  0  0  0  # atno 17371 bound_to 10713
  140.3927  134.7426  157.4731 LP  0  0  0  0  0  0  0  0  0  0  0  0  # atno 17394 bound_to 11000
  140.0554  134.6071  155.8811 LP  0  0  0  0  0  0  0  0  0  0  0  0  # atno 17395 bound_to 11000

$$$$
