#       Name:                AV-unprocessed.smi:1421
#       Creating user name   scv26
#       Creation time:       Fri Mar 27 05:43:59 2020


#       File generated by GOLD software.
#

@<TRIPOS>MOLECULE
AV-unprocessed.smi:1421
    51    52     1
SMALL
NO_CHARGES


@<TRIPOS>ATOM
      1 ****        -5.5929   3.8892  -0.2052 C.3            1 S1                 0.0000
      2 ****        -5.2061   4.0662   1.5890 S.o2           1 S1                 0.0000
      3 ****        -5.3589   5.5017   1.8689 O.2            1 S1                 0.0000
      4 ****        -6.1171   3.1522   2.2985 O.2            1 S1                 0.0000
      5 ****        -3.6423   3.6235   1.6562 N.pl3          1 S1                -1.0000
      6 ****        -3.2484   2.2242   1.5767 C.3            1 S1                 0.0000
      7 ****        -1.7286   2.0974   1.8192 C.3            1 S1                 0.0000
      8 ****        -1.1987   0.6627   1.6748 C.2            1 S1                 0.0000
      9 ****        -1.4133  -0.1815   2.5478 O.2            1 S1                 0.0000
     10 ****        -0.4702   0.4055   0.5775 N.am           1 S1                 0.0000
     11 ****         0.1100  -0.8906   0.2526 C.3            1 S1                 0.0000
     12 ****         0.6474  -0.9545  -1.1751 C.ar           1 S1                 0.0000
     13 ****        -0.1188  -0.4106  -2.2310 C.ar           1 S1                 0.0000
     14 ****         0.3605  -0.4974  -3.5500 C.ar           1 S1                 0.0000
     15 ****         1.5931  -1.1367  -3.7686 C.ar           1 S1                 0.0000
     16 ****         2.3349  -1.6672  -2.7752 N.ar           1 S1                 0.0000
     17 ****         1.8797  -1.5849  -1.5009 C.ar           1 S1                 0.0000
     18 ****         2.6974  -2.1263  -0.4929 N.3            1 S1                 0.0000
     19 ****         3.3893  -3.3731  -0.8018 C.3            1 S1                 0.0000
     20 ****         4.0635  -3.9205   0.4680 C.3            1 S1                 0.0000
     21 ****         4.9411  -2.9340   1.0045 O.3            1 S1                 0.0000
     22 ****         4.2512  -1.7401   1.3656 C.3            1 S1                 0.0000
     23 ****         3.5727  -1.1373   0.1234 C.3            1 S1                 0.0000
     24 ****        -6.6011   4.2580  -0.3900 H              1 S1                 0.0000
     25 ****        -5.5383   2.8417  -0.4988 H              1 S1                 0.0000
     26 ****        -4.8825   4.4726  -0.7900 H              1 S1                 0.0000
     27 ****        -3.7774   1.6142   2.3098 H              1 S1                 0.0000
     28 ****        -3.4922   1.7983   0.6024 H              1 S1                 0.0000
     29 ****        -1.1881   2.7483   1.1295 H              1 S1                 0.0000
     30 ****        -1.4843   2.4490   2.8226 H              1 S1                 0.0000
     31 ****        -0.3213   1.1548  -0.0826 H              1 S1                 0.0000
     32 ****         0.8767  -1.1129   0.9937 H              1 S1                 0.0000
     33 ****        -0.6523  -1.6645   0.3537 H              1 S1                 0.0000
     34 ****        -1.0696   0.0645  -2.0378 H              1 S1                 0.0000
     35 ****        -0.2051  -0.0889  -4.3743 H              1 S1                 0.0000
     36 ****         1.9947  -1.2257  -4.7671 H              1 S1                 0.0000
     37 ****         2.6815  -4.1026  -1.1971 H              1 S1                 0.0000
     38 ****         4.1433  -3.1991  -1.5709 H              1 S1                 0.0000
     39 ****         3.3180  -4.2035   1.2131 H              1 S1                 0.0000
     40 ****         4.6369  -4.8172   0.2331 H              1 S1                 0.0000
     41 ****         3.5168  -1.9533   2.1440 H              1 S1                 0.0000
     42 ****         4.9640  -1.0305   1.7858 H              1 S1                 0.0000
     43 ****         4.3275  -0.8265  -0.6004 H              1 S1                 0.0000
     44 ****         3.0090  -0.2456   0.4002 H              1 S1                 0.0000
     45 ****        -2.9377   4.3263   1.7540 LP             1 S1                 0.0000
     46 ****        -1.9383   0.0642   3.3627 LP             1 S1                 0.0000
     47 ****        -1.0624  -1.1117   2.4408 LP             1 S1                 0.0000
     48 ****         3.2068  -2.1141  -2.9753 LP             1 S1                 0.0000
     49 ****         2.0277  -2.4100   0.1934 LP             1 S1                 0.0000
     50 ****         5.6333  -2.7111   0.3181 LP             1 S1                 0.0000
     51 ****         5.3866  -3.3073   1.8182 LP             1 S1                 0.0000
@<TRIPOS>BOND
    1    1    2 1     
    2    1   24 1     
    3    1   25 1     
    4    1   26 1     
    5    2    3 2     
    6    2    4 2     
    7    2    5 1     
    8    5    6 1     
    9    6    7 1     
   10    6   27 1     
   11    6   28 1     
   12    7    8 1     
   13    7   29 1     
   14    7   30 1     
   15    8    9 2     
   16    8   10 am    
   17   10   11 1     
   18   10   31 1     
   19   11   12 1     
   20   11   32 1     
   21   11   33 1     
   22   12   17 ar    
   23   12   13 ar    
   24   13   14 ar    
   25   13   34 1     
   26   14   15 ar    
   27   14   35 1     
   28   15   16 ar    
   29   15   36 1     
   30   16   17 ar    
   31   17   18 1     
   32   18   23 1     
   33   18   19 1     
   34   19   20 1     
   35   19   37 1     
   36   19   38 1     
   37   20   21 1     
   38   20   39 1     
   39   20   40 1     
   40   21   22 1     
   41   22   23 1     
   42   22   41 1     
   43   22   42 1     
   44   23   43 1     
   45   23   44 1     
   46    5   45 1     
   47    9   46 1     
   48    9   47 1     
   49   16   48 1     
   50   18   49 1     
   51   21   50 1     
   52   21   51 1     
@<TRIPOS>SUBSTRUCTURE
      1 S1             1
@<TRIPOS>SET
LONE_PAIRS      STATIC     ATOMS    <user>   **** ""
9 3 4 45 46 47 48 49 50 51
DONOR_HYDROGENS      STATIC     ATOMS    <user>   **** ""
1 31
ATOM$BLUE        STATIC     ATOMS    COLORGROUP SYSTEM
9 3 4 45 46 47 48 49 50 51
ATOM$RED        STATIC     ATOMS    COLORGROUP SYSTEM
1 31
