AV-unprocessed.smi:1506|AV-procd|sdf|6076|dock2
  -GOLD-   22720 6193D 1   1.00000     0.00000
 Structure written by MMmdl.
 39 41  0  0  0  0  0  0  0  0  1 V2000
  151.9736  144.6659  159.4866 C   0  0  0  0  0  0  0  0  0  0  0  0
  152.5885  143.4476  160.1443 C   0  0  0  0  0  0  0  0  0  0  0  0
  152.7402  143.3945  161.5441 C   0  0  0  0  0  0  0  0  0  0  0  0
  153.3125  142.2584  162.1455 C   0  0  0  0  0  0  0  0  0  0  0  0
  153.7365  141.1744  161.3528 C   0  0  0  0  0  0  0  0  0  0  0  0
  153.5935  141.2180  159.9429 C   0  0  0  0  0  0  0  0  0  0  0  0
  153.9853  140.2073  159.0917 O   0  0  0  0  0  0  0  0  0  0  0  0
  153.9615  138.8693  159.5745 C   0  0  0  0  0  0  0  0  0  0  0  0
  152.7229  138.1358  159.0333 C   0  0  2  0  0  0  0  0  0  0  0  0
  152.4625  137.0060  159.8431 O   0  0  0  0  0  0  0  0  0  0  0  0
  152.8256  137.7530  157.5434 C   0  0  0  0  0  0  0  0  0  0  0  0
  152.2287  138.7522  156.6753 N   0  0  0  0  0  0  0  0  0  0  0  0
  152.5250  138.9845  155.3821 C   0  0  0  0  0  0  0  0  0  0  0  0
  151.8582  139.9585  154.7694 N   0  0  0  0  0  0  0  0  0  0  0  0
  151.0307  140.4114  155.7831 C   0  0  0  0  0  0  0  0  0  0  0  0
  150.0662  141.4445  155.7875 C   0  0  0  0  0  0  0  0  0  0  0  0
  149.3337  141.7330  156.9581 C   0  0  0  0  0  0  0  0  0  0  0  0
  149.5536  140.9952  158.1395 C   0  0  0  0  0  0  0  0  0  0  0  0
  150.5094  139.9614  158.1594 C   0  0  0  0  0  0  0  0  0  0  0  0
  151.2375  139.6762  156.9892 C   0  0  0  0  0  0  0  0  0  0  0  0
  153.0163  142.3617  159.3534 C   0  0  0  0  0  0  0  0  0  0  0  0
  151.4501  145.2866  160.2146 H   0  0  0  0  0  0  0  0  0  0  0  0
  151.2575  144.3662  158.7210 H   0  0  0  0  0  0  0  0  0  0  0  0
  152.7487  145.2704  159.0149 H   0  0  0  0  0  0  0  0  0  0  0  0
  152.4195  144.2218  162.1603 H   0  0  0  0  0  0  0  0  0  0  0  0
  153.4275  142.2177  163.2186 H   0  0  0  0  0  0  0  0  0  0  0  0
  154.1694  140.3209  161.8514 H   0  0  0  0  0  0  0  0  0  0  0  0
  154.8679  138.3306  159.2924 H   0  0  0  0  0  0  0  0  0  0  0  0
  153.9128  138.8893  160.6644 H   0  0  0  0  0  0  0  0  0  0  0  0
  151.8659  138.7986  159.1595 H   0  0  0  0  0  0  0  0  0  0  0  0
  153.1208  136.9645  160.5200 H   0  0  0  0  0  0  0  0  0  0  0  0
  153.8713  137.6302  157.2586 H   0  0  0  0  0  0  0  0  0  0  0  0
  152.3372  136.7966  157.3532 H   0  0  0  0  0  0  0  0  0  0  0  0
  153.2759  138.4074  154.8623 H   0  0  0  0  0  0  0  0  0  0  0  0
  149.8897  142.0168  154.8889 H   0  0  0  0  0  0  0  0  0  0  0  0
  148.5998  142.5254  156.9498 H   0  0  0  0  0  0  0  0  0  0  0  0
  148.9886  141.2242  159.0312 H   0  0  0  0  0  0  0  0  0  0  0  0
  150.6826  139.3961  159.0632 H   0  0  0  0  0  0  0  0  0  0  0  0
  152.9027  142.4050  158.2800 H   0  0  0  0  0  0  0  0  0  0  0  0
  1  2  1  0  0  0  0
  1 22  1  0  0  0  0
  1 23  1  0  0  0  0
  1 24  1  0  0  0  0
  2 21  1  0  0  0  0
  2  3  2  0  0  0  0
  3  4  1  0  0  0  0
  3 25  1  0  0  0  0
  4  5  2  0  0  0  0
  4 26  1  0  0  0  0
  5  6  1  0  0  0  0
  5 27  1  0  0  0  0
  6  7  1  0  0  0  0
  6 21  2  0  0  0  0
  7  8  1  0  0  0  0
  8  9  1  0  0  0  0
  8 28  1  0  0  0  0
  8 29  1  0  0  0  0
  9 10  1  0  0  0  0
  9 11  1  0  0  0  0
  9 30  1  0  0  0  0
 10 31  1  0  0  0  0
 11 12  1  0  0  0  0
 11 32  1  0  0  0  0
 11 33  1  0  0  0  0
 12 20  1  0  0  0  0
 12 13  1  0  0  0  0
 13 14  2  0  0  0  0
 13 34  1  0  0  0  0
 14 15  1  0  0  0  0
 15 20  2  0  0  0  0
 15 16  1  0  0  0  0
 16 17  2  0  0  0  0
 16 35  1  0  0  0  0
 17 18  1  0  0  0  0
 17 36  1  0  0  0  0
 18 19  2  0  0  0  0
 18 37  1  0  0  0  0
 19 20  1  0  0  0  0
 19 38  1  0  0  0  0
 21 39  1  0  0  0  0
M  END
> <s_m_source_file>
AV-unprocessed.smi

> <i_m_source_file_index>
1506

> <i_lp_mmshare_version>
43012

> <i_f3d_flags>
0

> <s_epik_input>
W0NIM11jMVtjSF1bY0hdW2NIXWMoW2NIXTEpT1tDSDJdW0NASF0oW09IXSlbQ0gyXW4oW2NIXW4yKWMoYzIzKVtjSF1bY0hdW2NIXVtjSF0z

> <s_epik_cmdline>
J2VwaWtfcHl0aG9uJywgJy1waCcsICc3LjAnLCAnLXRuJywgJzgnLCAnLW1hJywgJzIwMCcsICctbWV0YWxfYmluZGluZycsICctaW1hZScsICc8aW5maWxlLm1hZT4nLCAnLW9tYWUnLCAnPG91dGZpbGUubWFlPic=

> <r_lp_tautomer_probability>
1

> <r_epik_Ionization_Penalty>
0.0608485

> <r_epik_Ionization_Penalty_Charging>
0

> <r_epik_Ionization_Penalty_Neutral>
0.0608485

> <r_epik_State_Penalty>
0.0527778

> <r_epik_Charging_Adjusted_Penalty>
0.0527778

> <i_epik_Tot_Q>
0

> <i_epik_Tot_abs_Q>
0

> <r_epik_Metal_State_Penalty>
5.51973e-05

> <b_epik_Metal_Only>
0

> <s_lp_Force_Field>
OPLS_2005

> <r_lp_Energy>
16.3702

> <b_lp_Chiralities_Consistent>
1

> <s_lp_Variant>
AV-unprocessed.smi:1506-1

> <Gold.Version>
5.8.1

> <Gold.Id.Protein>
6NUR|6NUR_protein|mol2

> <Gold.PLP.Fitness>
53.1045

> <Gold.PLP.PLP>
-47.8007

> <Gold.PLP.part.hbond>
-2.7733

> <Gold.PLP.part.metal>
0.0000

> <Gold.PLP.part.buried>
-3.6393

> <Gold.PLP.part.nonpolar>
-39.7186

> <Gold.PLP.part.repulsive>
0.0657

> <Gold.PLP.ligand.clash>
0.0205

> <Gold.PLP.ligand.torsion>
1.6530

> <Gold.PLP.Chemscore.Hbond>
2.8240

> <Gold.PLP.Chemscore.CHOScore>
0.0000

> <Gold.PLP.Chemscore.Metal>
0.0000

> <Gold.Chemscore.Hbonds>
donor molecule, donor type, donor heavy atom, donor atom, acceptor molecule, acceptor atom, score
      P1  H  6896  6908       L1    10  1.00
      P1  H  7989  7998       L1    14  0.94
      P1  H  7997  8008       L1     7  0.89

> <Gold.PLP.Chemscore.Internal.Correction>
0.1583

> <Gold.Rescore>
     Score         DG    S(hbond)    S(metal)    S(lipo)     H(rot)  DE(clash)    DE(int)     intcor
     18.16     -20.94       2.04        0.00     121.70       2.19       0.03       2.74       ----

> <Gold.Chemscore.Fitness>
18.1627

> <Gold.Chemscore.DG>
-20.9359

> <Gold.Chemscore.ZeroCoef>
-5.4800

> <Gold.Chemscore.Hbond>
2.0412

> <Gold.Chemscore.Metal>
0.0000

> <Gold.Chemscore.Lipo>
121.7000

> <Gold.Chemscore.Internal_Hbond>
0.0000

> <Gold.Chemscore.DEClash>
0.0285

> <Gold.Chemscore.DEInternal>
2.7447

> <Gold.Chemscore.Rot>
2.1877

> <Gold.Chemscore.Internal.Correction>
   9.000000E+99

> <Gold.Chemscore.Hbonds>
donor molecule, donor type, donor heavy atom, donor atom, acceptor molecule, acceptor atom, score
      P1  H  6896  6908       L1    10  0.28
      P1  H  7989  7998       L1    14  0.62
      P1  H  7997  8008       L1     7  0.37

> <Gold.Chemscore.Hbond.Weighted>
-6.8175

> <Gold.Chemscore.Metal.Weighted>
-0.0000

> <Gold.Chemscore.Lipo.Weighted>
-14.2389

> <Gold.Chemscore.Internal_Hbond.Weighted>
0.0000

> <Gold.Chemscore.DEClash.Weighted>
0.0285

> <Gold.Chemscore.DEInternal.Weighted>
2.7447

> <Gold.Chemscore.Rot.Weighted>
5.6005

> <Gold.Chemscore.Internal.Correction.Weighted>
   9.000000E+99

> <Gold.Protein.RotatedTorsions>
[ 6907 6896 6895 6894 ] final -118.54 input  -60.11 | X-H torsion
[ 7974 7965 7964 7962 ] final   17.11 input  175.53 | X-H torsion
[ 8008 7997 7996 7995 ] final -107.34 input   59.86 | X-H torsion
[ 10167 10162 10161 10158 ] final -150.24 input  -65.29 | X-H torsion
[ 10718 10713 10712 10709 ] final  -18.78 input   66.30 | X-H torsion
[ 10763 10752 10751 10750 ] final  -44.21 input  -60.55 | X-H torsion
[ 11005 11000 10999 10996 ] final   33.86 input  -57.11 | X-H torsion

> <Gold.Protein.ActiveResidues>
 VAL166  LYS551  ARG553  GLY616  TRP617  ASP618  TYR619  PRO620  LYS621  CYS622 
 ASP623  PHE694  ASN695  SER759  ASP760  ASP761  ALA762  ILE779  LEU786  VAL792 
 PHE793  MET794  SER795  GLU796  ALA797  LYS798  CYS799  TRP800  GLU811  SER814 

> <Gold.Protein.RotatedAtoms>
  150.8228  133.8223  159.3131 H   0  0  0  0  0  0  0  0  0  0  0  0  # atno 6907 bound_to 6896
  151.5976  135.1048  160.0062 H   0  0  0  0  0  0  0  0  0  0  0  0  # atno 6908 bound_to 6896
  152.4316  133.7247  159.6609 H   0  0  0  0  0  0  0  0  0  0  0  0  # atno 6909 bound_to 6896
  146.2229  139.8650  142.8598 H   0  0  0  0  0  0  0  0  0  0  0  0  # atno 7974 bound_to 7965
  154.9278  140.0405  157.2032 H   0  0  0  0  0  0  0  0  0  0  0  0  # atno 8008 bound_to 7997
  154.8190  140.2880  155.5778 H   0  0  0  0  0  0  0  0  0  0  0  0  # atno 8009 bound_to 7997
  156.2978  140.2522  156.3094 H   0  0  0  0  0  0  0  0  0  0  0  0  # atno 8010 bound_to 7997
  139.7371  143.8718  152.2552 H   0  0  0  0  0  0  0  0  0  0  0  0  # atno 10167 bound_to 10162
  156.5548  130.4710  149.6435 H   0  0  0  0  0  0  0  0  0  0  0  0  # atno 10718 bound_to 10713
  154.0083  135.6685  153.4763 H   0  0  0  0  0  0  0  0  0  0  0  0  # atno 10763 bound_to 10752
  153.0632  135.5016  154.8137 H   0  0  0  0  0  0  0  0  0  0  0  0  # atno 10764 bound_to 10752
  154.7011  135.3079  154.9303 H   0  0  0  0  0  0  0  0  0  0  0  0  # atno 10765 bound_to 10752
  140.2588  134.3217  155.7865 H   0  0  0  0  0  0  0  0  0  0  0  0  # atno 11005 bound_to 11000
  145.2666  141.0095  143.3796 LP  0  0  0  0  0  0  0  0  0  0  0  0  # atno 17320 bound_to 7965
  144.9256  139.4359  143.6520 LP  0  0  0  0  0  0  0  0  0  0  0  0  # atno 17321 bound_to 7965
  139.8658  144.7094  150.9045 LP  0  0  0  0  0  0  0  0  0  0  0  0  # atno 17342 bound_to 10162
  140.7780  143.3779  151.1530 LP  0  0  0  0  0  0  0  0  0  0  0  0  # atno 17343 bound_to 10162
  156.2852  130.7093  151.1928 LP  0  0  0  0  0  0  0  0  0  0  0  0  # atno 17370 bound_to 10713
  157.7380  131.0545  150.5319 LP  0  0  0  0  0  0  0  0  0  0  0  0  # atno 17371 bound_to 10713
  141.2193  133.7397  156.9154 LP  0  0  0  0  0  0  0  0  0  0  0  0  # atno 17394 bound_to 11000
  140.1485  134.9246  157.2561 LP  0  0  0  0  0  0  0  0  0  0  0  0  # atno 17395 bound_to 11000

$$$$
