AV-unprocessed.smi:1484|AV-procd|sdf|5993|dock3
  -GOLD-   22720 6 83D 1   1.00000     0.00000
 Structure written by MMmdl.
 37 38  0  0  0  0  0  0  0  0  2 V2000
  151.7438  145.2484  159.3113 C   0  0  0  0  0  0  0  0  0  0  0  0
  152.0049  143.8966  159.9905 C   0  0  2  0  0  0  0  0  0  0  0  0
  152.2391  144.0638  161.5039 C   0  0  0  0  0  0  0  0  0  0  0  0
  152.5033  142.7132  162.1876 C   0  0  0  0  0  0  0  0  0  0  0  0
  153.6862  141.9776  161.5346 C   0  0  0  0  0  0  0  0  0  0  0  0
  153.4963  141.8047  160.0154 C   0  0  1  0  0  0  0  0  0  0  0  0
  152.4451  140.8253  159.7460 N   0  0  0  0  0  0  0  0  0  0  0  0
  152.6046  139.6684  159.0856 C   0  0  0  0  0  0  0  0  0  0  0  0
  153.6863  139.3029  158.6224 O   0  0  0  0  0  0  0  0  0  0  0  0
  151.3356  138.8151  158.9312 C   0  0  0  0  0  0  0  0  0  0  0  0
  151.0875  138.3424  157.5612 N   0  0  0  0  0  0  0  0  0  0  0  0
  150.9879  139.4169  156.5771 N   0  5  0  0  0  0  0  0  0  0  0  0
  150.7419  139.1040  155.2772 C   0  0  0  0  0  0  0  0  0  0  0  0
  150.6296  139.9541  154.3969 O   0  0  0  0  0  0  0  0  0  0  0  0
  150.6123  137.7001  154.9240 C   0  0  0  0  0  0  0  0  0  0  0  0
  150.7296  136.7280  155.8497 C   0  0  0  0  0  0  0  0  0  0  0  0
  150.9875  137.0171  157.2554 C   0  0  0  0  0  0  0  0  0  0  0  0
  151.1035  136.1335  158.1048 O   0  0  0  0  0  0  0  0  0  0  0  0
  153.1930  143.1591  159.3378 C   0  0  0  0  0  0  0  0  0  0  0  0
  152.6019  145.9142  159.4086 H   0  0  0  0  0  0  0  0  0  0  0  0
  150.8817  145.7494  159.7524 H   0  0  0  0  0  0  0  0  0  0  0  0
  151.5408  145.1198  158.2477 H   0  0  0  0  0  0  0  0  0  0  0  0
  151.1107  143.2871  159.8536 H   0  0  0  0  0  0  0  0  0  0  0  0
  153.0870  144.7285  161.6753 H   0  0  0  0  0  0  0  0  0  0  0  0
  151.3743  144.5422  161.9648 H   0  0  0  0  0  0  0  0  0  0  0  0
  152.7048  142.8682  163.2478 H   0  0  0  0  0  0  0  0  0  0  0  0
  151.6070  142.0940  162.1336 H   0  0  0  0  0  0  0  0  0  0  0  0
  154.5998  142.5451  161.7168 H   0  0  0  0  0  0  0  0  0  0  0  0
  153.8333  141.0069  162.0103 H   0  0  0  0  0  0  0  0  0  0  0  0
  154.4317  141.4161  159.6085 H   0  0  0  0  0  0  0  0  0  0  0  0
  151.5220  141.0447  160.0908 H   0  0  0  0  0  0  0  0  0  0  0  0
  151.4086  137.9649  159.6122 H   0  0  0  0  0  0  0  0  0  0  0  0
  150.4809  139.3952  159.2834 H   0  0  0  0  0  0  0  0  0  0  0  0
  150.4194  137.4306  153.8960 H   0  0  0  0  0  0  0  0  0  0  0  0
  150.6271  135.6982  155.5417 H   0  0  0  0  0  0  0  0  0  0  0  0
  153.0045  143.0122  158.2735 H   0  0  0  0  0  0  0  0  0  0  0  0
  154.0814  143.7890  159.3993 H   0  0  0  0  0  0  0  0  0  0  0  0
  1  2  1  0  0  0  0
  1 20  1  0  0  0  0
  1 21  1  0  0  0  0
  1 22  1  0  0  0  0
  2 19  1  0  0  0  0
  2  3  1  0  0  0  0
  2 23  1  0  0  0  0
  3  4  1  0  0  0  0
  3 24  1  0  0  0  0
  3 25  1  0  0  0  0
  4  5  1  0  0  0  0
  4 26  1  0  0  0  0
  4 27  1  0  0  0  0
  5  6  1  0  0  0  0
  5 28  1  0  0  0  0
  5 29  1  0  0  0  0
  6  7  1  0  0  0  0
  6 19  1  0  0  0  0
  6 30  1  0  0  0  0
  7  8  1  0  0  0  0
  7 31  1  0  0  0  0
  8  9  2  0  0  0  0
  8 10  1  0  0  0  0
 10 32  1  0  0  0  0
 10 33  1  0  0  0  0
 10 11  1  0  0  0  0
 11 12  1  0  0  0  0
 11 17  1  0  0  0  0
 12 13  1  0  0  0  0
 13 14  2  0  0  0  0
 13 15  1  0  0  0  0
 15 34  1  0  0  0  0
 15 16  2  0  0  0  0
 16 35  1  0  0  0  0
 16 17  1  0  0  0  0
 17 18  2  0  0  0  0
 19 36  1  0  0  0  0
 19 37  1  0  0  0  0
M  CHG  1  12  -1
M  END
> <s_m_source_file>
AV-unprocessed.smi

> <i_m_source_file_index>
1484

> <i_lp_mmshare_version>
43012

> <i_f3d_flags>
0

> <s_epik_input>
W0NIM11bQ0BASF0xW0NIMl1bQ0gyXVtDSDJdW0NASF0oW0NIMl0xKVtOSF1DKD1PKVtDSDJdbjJbbkhdYyg9TylbY0hdW2NIXWMyPU8=

> <s_epik_cmdline>
J2VwaWtfcHl0aG9uJywgJy1waCcsICc3LjAnLCAnLXRuJywgJzgnLCAnLW1hJywgJzIwMCcsICctbWV0YWxfYmluZGluZycsICctaW1hZScsICc8aW5maWxlLm1hZT4nLCAnLW9tYWUnLCAnPG91dGZpbGUubWFlPic=

> <r_lp_tautomer_probability>
1

> <r_epik_Ionization_Penalty>
0.101352

> <r_epik_Ionization_Penalty_Charging>
0.101352

> <r_epik_Ionization_Penalty_Neutral>
1.90469e-08

> <r_epik_State_Penalty>
0.0358555

> <r_epik_Charging_Adjusted_Penalty>
0.137208

> <i_epik_Tot_Q>
-1

> <i_epik_Tot_abs_Q>
1

> <r_epik_Metal_State_Penalty>
0.0358555

> <b_epik_Metal_Only>
0

> <s_lp_Force_Field>
OPLS_2005

> <r_lp_Energy>
23.9764

> <b_lp_Chiralities_Consistent>
1

> <s_lp_Variant>
AV-unprocessed.smi:1484-1

> <Gold.Version>
5.8.1

> <Gold.Id.Protein>
6NUR|6NUR_protein|mol2

> <Gold.PLP.Fitness>
49.1235

> <Gold.PLP.PLP>
-41.9519

> <Gold.PLP.part.hbond>
-2.9861

> <Gold.PLP.part.metal>
0.0000

> <Gold.PLP.part.buried>
-7.0337

> <Gold.PLP.part.nonpolar>
-33.8157

> <Gold.PLP.part.repulsive>
0.2523

> <Gold.PLP.ligand.clash>
0.0000

> <Gold.PLP.ligand.torsion>
0.1202

> <Gold.PLP.Chemscore.Hbond>
2.4659

> <Gold.PLP.Chemscore.CHOScore>
0.0000

> <Gold.PLP.Chemscore.Metal>
0.0000

> <Gold.Chemscore.Hbonds>
donor molecule, donor type, donor heavy atom, donor atom, acceptor molecule, acceptor atom, score
      P1  H  6896  6909       L1    18  0.51
      P1  H  7989  7998       L1    14  1.00
      P1  H  7997  8010       L1     9  1.00

> <Gold.PLP.Chemscore.Internal.Correction>
0.0142

> <Gold.Rescore>
     Score         DG    S(hbond)    S(metal)    S(lipo)     H(rot)  DE(clash)    DE(int)     intcor
     21.62     -21.79       2.66        0.00      99.64       1.65       0.02       0.15       ----

> <Gold.Chemscore.Fitness>
21.6183

> <Gold.Chemscore.DG>
-21.7892

> <Gold.Chemscore.ZeroCoef>
-5.4800

> <Gold.Chemscore.Hbond>
2.6609

> <Gold.Chemscore.Metal>
0.0000

> <Gold.Chemscore.Lipo>
99.6440

> <Gold.Chemscore.Internal_Hbond>
0.0000

> <Gold.Chemscore.DEClash>
0.0224

> <Gold.Chemscore.DEInternal>
0.1485

> <Gold.Chemscore.Rot>
1.6549

> <Gold.Chemscore.Internal.Correction>
   9.000000E+99

> <Gold.Chemscore.Hbonds>
donor molecule, donor type, donor heavy atom, donor atom, acceptor molecule, acceptor atom, score
      P1  H  6896  6909       L1    18  0.47
      P1  H  7989  7998       L1    14  0.99
      P1  H  7997  8010       L1     9  0.98

> <Gold.Chemscore.Hbond.Weighted>
-8.8873

> <Gold.Chemscore.Metal.Weighted>
-0.0000

> <Gold.Chemscore.Lipo.Weighted>
-11.6584

> <Gold.Chemscore.Internal_Hbond.Weighted>
0.0000

> <Gold.Chemscore.DEClash.Weighted>
0.0224

> <Gold.Chemscore.DEInternal.Weighted>
0.1485

> <Gold.Chemscore.Rot.Weighted>
4.2364

> <Gold.Chemscore.Internal.Correction.Weighted>
   9.000000E+99

> <Gold.Protein.RotatedTorsions>
[ 6907 6896 6895 6894 ] final   77.60 input  -60.11 | X-H torsion
[ 7974 7965 7964 7962 ] final   40.81 input  175.53 | X-H torsion
[ 8008 7997 7996 7995 ] final   33.10 input   59.86 | X-H torsion
[ 10167 10162 10161 10158 ] final  -24.45 input  -65.29 | X-H torsion
[ 10718 10713 10712 10709 ] final -116.41 input   66.30 | X-H torsion
[ 10763 10752 10751 10750 ] final   63.08 input  -60.55 | X-H torsion
[ 11005 11000 10999 10996 ] final  136.98 input  -57.11 | X-H torsion

> <Gold.Protein.ActiveResidues>
 VAL166  LYS551  ARG553  GLY616  TRP617  ASP618  TYR619  PRO620  LYS621  CYS622 
 ASP623  PHE694  ASN695  SER759  ASP760  ASP761  ALA762  ILE779  LEU786  VAL792 
 PHE793  MET794  SER795  GLU796  ALA797  LYS798  CYS799  TRP800  GLU811  SER814 

> <Gold.Protein.RotatedAtoms>
  152.5124  134.3792  159.9344 H   0  0  0  0  0  0  0  0  0  0  0  0  # atno 6907 bound_to 6896
  151.3748  133.3835  159.2711 H   0  0  0  0  0  0  0  0  0  0  0  0  # atno 6908 bound_to 6896
  150.9549  134.8965  159.7754 H   0  0  0  0  0  0  0  0  0  0  0  0  # atno 6909 bound_to 6896
  146.0875  139.5489  142.9497 H   0  0  0  0  0  0  0  0  0  0  0  0  # atno 7974 bound_to 7965
  155.1332  140.3259  155.4469 H   0  0  0  0  0  0  0  0  0  0  0  0  # atno 8008 bound_to 7997
  156.2628  140.2006  156.6400 H   0  0  0  0  0  0  0  0  0  0  0  0  # atno 8009 bound_to 7997
  154.6597  140.0548  157.0035 H   0  0  0  0  0  0  0  0  0  0  0  0  # atno 8010 bound_to 7997
  140.7288  143.4352  151.0741 H   0  0  0  0  0  0  0  0  0  0  0  0  # atno 10167 bound_to 10162
  156.0962  130.6134  150.9032 H   0  0  0  0  0  0  0  0  0  0  0  0  # atno 10718 bound_to 10713
  153.0005  135.5442  154.6295 H   0  0  0  0  0  0  0  0  0  0  0  0  # atno 10763 bound_to 10752
  154.5576  135.2831  155.0952 H   0  0  0  0  0  0  0  0  0  0  0  0  # atno 10764 bound_to 10752
  154.2167  135.6458  153.5184 H   0  0  0  0  0  0  0  0  0  0  0  0  # atno 10765 bound_to 10752
  140.0083  134.9450  157.0222 H   0  0  0  0  0  0  0  0  0  0  0  0  # atno 11005 bound_to 11000
  145.6102  141.0341  143.1970 LP  0  0  0  0  0  0  0  0  0  0  0  0  # atno 17320 bound_to 7965
  144.7336  139.7652  143.7338 LP  0  0  0  0  0  0  0  0  0  0  0  0  # atno 17321 bound_to 7965
  139.8013  143.8080  152.3163 LP  0  0  0  0  0  0  0  0  0  0  0  0  # atno 17342 bound_to 10162
  139.8097  144.7341  150.9713 LP  0  0  0  0  0  0  0  0  0  0  0  0  # atno 17343 bound_to 10162
  157.6123  131.0935  150.8773 LP  0  0  0  0  0  0  0  0  0  0  0  0  # atno 17370 bound_to 10713
  156.8911  130.5213  149.5286 LP  0  0  0  0  0  0  0  0  0  0  0  0  # atno 17371 bound_to 10713
  140.4601  134.1492  155.7190 LP  0  0  0  0  0  0  0  0  0  0  0  0  # atno 17394 bound_to 11000
  141.1692  133.8642  157.1621 LP  0  0  0  0  0  0  0  0  0  0  0  0  # atno 17395 bound_to 11000

$$$$
