AV-unprocessed.smi:1025|AV-procd|sdf|4467|dock7
  -GOLD-   22720 2443D 1   1.00000     0.00000
 Structure written by MMmdl.
 51 52  0  0  0  0  0  0  0  0  1 V2000
  151.6247  138.4071  154.4666 C   0  0  0  0  0  0  0  0  0  0  0  0
  150.6842  139.4810  154.7469 N   0  0  0  0  0  0  0  0  0  0  0  0
  150.3380  139.8821  155.9790 C   0  0  0  0  0  0  0  0  0  0  0  0
  150.7959  139.3672  156.9990 O   0  0  0  0  0  0  0  0  0  0  0  0
  149.3222  141.0376  156.0604 C   0  0  2  0  0  0  0  0  0  0  0  0
  147.9986  140.6201  156.7425 C   0  0  0  0  0  0  0  0  0  0  0  0
  147.0680  139.7957  155.8335 C   0  0  0  0  0  0  0  0  0  0  0  0
  146.7958  140.5201  154.5009 C   0  0  2  0  0  0  0  0  0  0  0  0
  145.9647  139.6963  153.6284 N   0  0  0  0  0  0  0  0  0  0  0  0
  146.1851  138.4059  153.3402 C   0  0  0  0  0  0  0  0  0  0  0  0
  147.1365  137.7649  153.7848 O   0  0  0  0  0  0  0  0  0  0  0  0
  145.2333  137.9252  152.5225 N   0  0  0  0  0  0  0  0  0  0  0  0
  145.0787  136.6086  152.0099 C   0  0  0  0  0  0  0  0  0  0  0  0
  144.0681  136.1859  151.1128 C   0  0  0  0  0  0  0  0  0  0  0  0
  143.9968  134.9100  150.6771 N   0  0  0  0  0  0  0  0  0  0  0  0
  144.8946  134.0354  151.1493 C   0  0  0  0  0  0  0  0  0  0  0  0
  144.9018  132.6287  150.5253 C   0  0  0  0  0  0  0  0  0  0  0  0
  144.6794  131.5415  151.6028 C   0  0  0  0  0  0  0  0  0  0  0  0
  146.2490  132.3884  149.8194 C   0  0  0  0  0  0  0  0  0  0  0  0
  143.7491  132.4637  149.5069 C   0  0  0  0  0  0  0  0  0  0  0  0
  145.9049  134.3412  151.9736 N   0  0  0  0  0  0  0  0  0  0  0  0
  145.9879  135.6126  152.4180 C   0  0  0  0  0  0  0  0  0  0  0  0
  148.1134  140.8632  153.7840 C   0  0  0  0  0  0  0  0  0  0  0  0
  149.0482  141.6911  154.6856 C   0  0  0  0  0  0  0  0  0  0  0  0
  151.7376  138.2840  153.3895 H   0  0  0  0  0  0  0  0  0  0  0  0
  151.2709  137.4628  154.8825 H   0  0  0  0  0  0  0  0  0  0  0  0
  152.6057  138.6287  154.8893 H   0  0  0  0  0  0  0  0  0  0  0  0
  150.2691  139.9504  153.9550 H   0  0  0  0  0  0  0  0  0  0  0  0
  149.7752  141.8050  156.6906 H   0  0  0  0  0  0  0  0  0  0  0  0
  148.2047  140.0619  157.6569 H   0  0  0  0  0  0  0  0  0  0  0  0
  147.4695  141.5196  157.0592 H   0  0  0  0  0  0  0  0  0  0  0  0
  147.5021  138.8140  155.6427 H   0  0  0  0  0  0  0  0  0  0  0  0
  146.1287  139.6115  156.3559 H   0  0  0  0  0  0  0  0  0  0  0  0
  146.2743  141.4562  154.7102 H   0  0  0  0  0  0  0  0  0  0  0  0
  145.1582  140.1434  153.2177 H   0  0  0  0  0  0  0  0  0  0  0  0
  144.5007  138.5727  152.2714 H   0  0  0  0  0  0  0  0  0  0  0  0
  143.3041  136.8439  150.7315 H   0  0  0  0  0  0  0  0  0  0  0  0
  144.6382  130.5460  151.1591 H   0  0  0  0  0  0  0  0  0  0  0  0
  143.7432  131.6997  152.1397 H   0  0  0  0  0  0  0  0  0  0  0  0
  145.4840  131.5242  152.3386 H   0  0  0  0  0  0  0  0  0  0  0  0
  147.0818  132.4652  150.5192 H   0  0  0  0  0  0  0  0  0  0  0  0
  146.4169  133.1195  149.0277 H   0  0  0  0  0  0  0  0  0  0  0  0
  146.2906  131.3974  149.3666 H   0  0  0  0  0  0  0  0  0  0  0  0
  143.7237  131.4542  149.0956 H   0  0  0  0  0  0  0  0  0  0  0  0
  143.8506  133.1443  148.6608 H   0  0  0  0  0  0  0  0  0  0  0  0
  142.7799  132.6532  149.9699 H   0  0  0  0  0  0  0  0  0  0  0  0
  146.7971  135.8372  153.0973 H   0  0  0  0  0  0  0  0  0  0  0  0
  148.6142  139.9492  153.4643 H   0  0  0  0  0  0  0  0  0  0  0  0
  147.9028  141.4241  152.8724 H   0  0  0  0  0  0  0  0  0  0  0  0
  148.5993  142.6720  154.8478 H   0  0  0  0  0  0  0  0  0  0  0  0
  149.9872  141.8795  154.1634 H   0  0  0  0  0  0  0  0  0  0  0  0
  1  2  1  0  0  0  0
  1 25  1  0  0  0  0
  1 26  1  0  0  0  0
  1 27  1  0  0  0  0
  2  3  1  0  0  0  0
  2 28  1  0  0  0  0
  3  4  2  0  0  0  0
  3  5  1  0  0  0  0
  5 24  1  0  0  0  0
  5  6  1  0  0  0  0
  5 29  1  0  0  0  0
  6  7  1  0  0  0  0
  6 30  1  0  0  0  0
  6 31  1  0  0  0  0
  7  8  1  0  0  0  0
  7 32  1  0  0  0  0
  7 33  1  0  0  0  0
  8  9  1  0  0  0  0
  8 23  1  0  0  0  0
  8 34  1  0  0  0  0
  9 10  1  0  0  0  0
  9 35  1  0  0  0  0
 10 11  2  0  0  0  0
 10 12  1  0  0  0  0
 12 13  1  0  0  0  0
 12 36  1  0  0  0  0
 13 22  1  0  0  0  0
 13 14  2  0  0  0  0
 14 15  1  0  0  0  0
 14 37  1  0  0  0  0
 15 16  2  0  0  0  0
 16 17  1  0  0  0  0
 16 21  1  0  0  0  0
 17 18  1  0  0  0  0
 17 19  1  0  0  0  0
 17 20  1  0  0  0  0
 18 38  1  0  0  0  0
 18 39  1  0  0  0  0
 18 40  1  0  0  0  0
 19 41  1  0  0  0  0
 19 42  1  0  0  0  0
 19 43  1  0  0  0  0
 20 44  1  0  0  0  0
 20 45  1  0  0  0  0
 20 46  1  0  0  0  0
 21 22  2  0  0  0  0
 22 47  1  0  0  0  0
 23 24  1  0  0  0  0
 23 48  1  0  0  0  0
 23 49  1  0  0  0  0
 24 50  1  0  0  0  0
 24 51  1  0  0  0  0
M  END
> <s_m_source_file>
AV-unprocessed.smi

> <i_m_source_file_index>
1025

> <i_lp_mmshare_version>
43012

> <i_f3d_flags>
0

> <s_epik_input>
W0NIM11bTkhdQyg9TylbQ0BASF0xW0NIMl1bQ0gyXVtDQEhdKFtDSDJdW0NIMl0xKVtOSF1DKD1PKVtOSF1jMltjSF1uYyhDKFtDSDNdKShbQ0gzXSlbQ0gzXSluW2NIXTI=

> <s_epik_cmdline>
J2VwaWtfcHl0aG9uJywgJy1waCcsICc3LjAnLCAnLXRuJywgJzgnLCAnLW1hJywgJzIwMCcsICctbWV0YWxfYmluZGluZycsICctaW1hZScsICc8aW5maWxlLm1hZT4nLCAnLW9tYWUnLCAnPG91dGZpbGUubWFlPic=

> <r_lp_tautomer_probability>
1

> <r_epik_Ionization_Penalty>
2.76239e-05

> <r_epik_Ionization_Penalty_Charging>
0

> <r_epik_Ionization_Penalty_Neutral>
2.76239e-05

> <r_epik_State_Penalty>
-0

> <r_epik_Charging_Adjusted_Penalty>
0

> <i_epik_Tot_Q>
0

> <i_epik_Tot_abs_Q>
0

> <r_epik_Metal_State_Penalty>
-0

> <b_epik_Metal_Only>
0

> <s_lp_Force_Field>
OPLS_2005

> <r_lp_Energy>
4.91063

> <b_lp_Chiralities_Consistent>
1

> <s_lp_Variant>
AV-unprocessed.smi:1025-2

> <Gold.Version>
5.8.1

> <Gold.Id.Protein>
6NUR|6NUR_protein|mol2

> <Gold.PLP.Fitness>
42.3236

> <Gold.PLP.PLP>
-32.8412

> <Gold.PLP.part.hbond>
-2.6618

> <Gold.PLP.part.metal>
0.0000

> <Gold.PLP.part.buried>
0.2192

> <Gold.PLP.part.nonpolar>
-31.0551

> <Gold.PLP.part.repulsive>
1.3340

> <Gold.PLP.ligand.clash>
0.0000

> <Gold.PLP.ligand.torsion>
0.2991

> <Gold.PLP.Chemscore.Hbond>
1.8866

> <Gold.PLP.Chemscore.CHOScore>
1.4116

> <Gold.PLP.Chemscore.Metal>
0.0000

> <Gold.Chemscore.Hbonds>
donor molecule, donor type, donor heavy atom, donor atom, acceptor molecule, acceptor atom, score
      L1  H     9    35       P1 10175  1.00
      L1  H    12    36       P1 10175  0.93
      L1  C    14    37       P1 10171  0.79
      L1  C    22    47       P1  7948  0.62

> <Gold.PLP.Chemscore.Internal.Correction>
0.1859

> <Gold.Rescore>
     Score         DG    S(hbond)    S(metal)    S(lipo)     H(rot)  DE(clash)    DE(int)     intcor
     14.07     -18.12       1.93        0.00      86.20       1.52       1.29       2.76       ----

> <Gold.Chemscore.Fitness>
14.0685

> <Gold.Chemscore.DG>
-18.1208

> <Gold.Chemscore.ZeroCoef>
-5.4800

> <Gold.Chemscore.Hbond>
1.9281

> <Gold.Chemscore.Metal>
0.0000

> <Gold.Chemscore.Lipo>
86.1959

> <Gold.Chemscore.Internal_Hbond>
0.0000

> <Gold.Chemscore.DEClash>
1.2919

> <Gold.Chemscore.DEInternal>
2.7604

> <Gold.Chemscore.Rot>
1.5171

> <Gold.Chemscore.Internal.Correction>
   9.000000E+99

> <Gold.Chemscore.Hbonds>
donor molecule, donor type, donor heavy atom, donor atom, acceptor molecule, acceptor atom, score
      L1  H     9    35       P1 10175  1.00
      L1  H    12    36       P1 10175  0.84

> <Gold.Chemscore.Hbond.Weighted>
-6.4398

> <Gold.Chemscore.Metal.Weighted>
-0.0000

> <Gold.Chemscore.Lipo.Weighted>
-10.0849

> <Gold.Chemscore.Internal_Hbond.Weighted>
0.0000

> <Gold.Chemscore.DEClash.Weighted>
1.2919

> <Gold.Chemscore.DEInternal.Weighted>
2.7604

> <Gold.Chemscore.Rot.Weighted>
3.8839

> <Gold.Chemscore.Internal.Correction.Weighted>
   9.000000E+99

> <Gold.Protein.RotatedTorsions>
[ 6907 6896 6895 6894 ] final  -30.53 input  -60.11 | X-H torsion
[ 7974 7965 7964 7962 ] final   88.32 input  175.53 | X-H torsion
[ 8008 7997 7996 7995 ] final -113.54 input   59.86 | X-H torsion
[ 10167 10162 10161 10158 ] final   76.37 input  -65.29 | X-H torsion
[ 10718 10713 10712 10709 ] final -147.14 input   66.30 | X-H torsion
[ 10763 10752 10751 10750 ] final  162.99 input  -60.55 | X-H torsion
[ 11005 11000 10999 10996 ] final  179.08 input  -57.11 | X-H torsion

> <Gold.Protein.ActiveResidues>
 VAL166  LYS551  ARG553  GLY616  TRP617  ASP618  TYR619  PRO620  LYS621  CYS622 
 ASP623  PHE694  ASN695  SER759  ASP760  ASP761  ALA762  ILE779  LEU786  VAL792 
 PHE793  MET794  SER795  GLU796  ALA797  LYS798  CYS799  TRP800  GLU811  SER814 

> <Gold.Protein.RotatedAtoms>
  151.1044  134.9990  159.8463 H   0  0  0  0  0  0  0  0  0  0  0  0  # atno 6907 bound_to 6896
  152.5439  134.1912  159.8684 H   0  0  0  0  0  0  0  0  0  0  0  0  # atno 6908 bound_to 6896
  151.1957  133.4596  159.2628 H   0  0  0  0  0  0  0  0  0  0  0  0  # atno 6909 bound_to 6896
  145.5473  139.2293  143.2532 H   0  0  0  0  0  0  0  0  0  0  0  0  # atno 7974 bound_to 7965
  155.0223  140.0393  157.2442 H   0  0  0  0  0  0  0  0  0  0  0  0  # atno 8008 bound_to 7997
  154.7367  140.2741  155.6385 H   0  0  0  0  0  0  0  0  0  0  0  0  # atno 8009 bound_to 7997
  156.2855  140.2673  156.2083 H   0  0  0  0  0  0  0  0  0  0  0  0  # atno 8010 bound_to 7997
  139.9930  144.5743  150.7802 H   0  0  0  0  0  0  0  0  0  0  0  0  # atno 10167 bound_to 10162
  156.4037  130.7947  151.2159 H   0  0  0  0  0  0  0  0  0  0  0  0  # atno 10718 bound_to 10713
  154.2869  135.2762  155.2672 H   0  0  0  0  0  0  0  0  0  0  0  0  # atno 10763 bound_to 10752
  154.5168  135.5767  153.6652 H   0  0  0  0  0  0  0  0  0  0  0  0  # atno 10764 bound_to 10752
  152.9920  135.6194  154.3032 H   0  0  0  0  0  0  0  0  0  0  0  0  # atno 10765 bound_to 10752
  140.4022  134.6767  157.4568 H   0  0  0  0  0  0  0  0  0  0  0  0  # atno 11005 bound_to 11000
  146.1940  140.6295  142.9132 LP  0  0  0  0  0  0  0  0  0  0  0  0  # atno 17320 bound_to 7965
  144.7547  140.5277  143.6777 LP  0  0  0  0  0  0  0  0  0  0  0  0  # atno 17321 bound_to 7965
  140.7448  143.2865  151.3448 LP  0  0  0  0  0  0  0  0  0  0  0  0  # atno 17342 bound_to 10162
  139.6326  144.0691  152.2489 LP  0  0  0  0  0  0  0  0  0  0  0  0  # atno 17343 bound_to 10162
  157.7505  131.0279  150.4025 LP  0  0  0  0  0  0  0  0  0  0  0  0  # atno 17370 bound_to 10713
  156.4309  130.3972  149.6761 LP  0  0  0  0  0  0  0  0  0  0  0  0  # atno 17371 bound_to 10713
  140.0328  134.6381  155.9084 LP  0  0  0  0  0  0  0  0  0  0  0  0  # atno 17394 bound_to 11000
  141.1852  133.6554  156.5189 LP  0  0  0  0  0  0  0  0  0  0  0  0  # atno 17395 bound_to 11000

$$$$
