AV-unprocessed.smi:2782|AV-procd|sdf|10722|dock5
  -GOLD-   2272015163D 1   1.00000     0.00000
 Structure written by MMmdl.
 38 39  0  0  0  0  0  0  0  0  1 V2000
  151.8542  144.8523  160.8918 C   0  0  0  0  0  0  0  0  0  0  0  0
  152.2438  143.4360  160.5213 C   0  0  0  0  0  0  0  0  0  0  0  0
  152.9179  142.6272  161.4563 C   0  0  0  0  0  0  0  0  0  0  0  0
  153.2744  141.3097  161.1170 C   0  0  0  0  0  0  0  0  0  0  0  0
  152.9619  140.7977  159.8431 C   0  0  0  0  0  0  0  0  0  0  0  0
  153.4046  139.1735  159.4573 Cl  0  0  0  0  0  0  0  0  0  0  0  0
  152.2940  141.5988  158.8903 C   0  0  0  0  0  0  0  0  0  0  0  0
  152.0355  141.0344  157.6590 O   0  0  0  0  0  0  0  0  0  0  0  0
  151.3007  141.7880  156.7029 C   0  0  0  0  0  0  0  0  0  0  0  0
  149.8652  141.2369  156.6216 C   0  0  1  0  0  0  0  0  0  0  0  0
  148.9924  142.1777  157.2130 O   0  0  0  0  0  0  0  0  0  0  0  0
  149.3755  140.9690  155.1796 C   0  0  0  0  0  0  0  0  0  0  0  0
  149.9431  139.7459  154.5991 N   0  0  0  0  0  0  0  0  0  0  0  0
  151.3238  139.7588  154.4865 N   0  0  0  0  0  0  0  0  0  0  0  0
  151.9642  138.7382  154.0195 C   0  0  0  0  0  0  0  0  0  0  0  0
  153.4604  138.8222  153.9695 C   0  0  0  0  0  0  0  0  0  0  0  0
  151.2239  137.5723  153.5770 C   0  0  0  0  0  0  0  0  0  0  0  0
  149.8780  137.5632  153.6858 C   0  0  0  0  0  0  0  0  0  0  0  0
  149.1438  138.7002  154.2369 C   0  0  0  0  0  0  0  0  0  0  0  0
  147.9201  138.7151  154.3662 O   0  0  0  0  0  0  0  0  0  0  0  0
  151.9299  142.9227  159.2458 C   0  0  0  0  0  0  0  0  0  0  0  0
  152.6542  145.3354  161.4536 H   0  0  0  0  0  0  0  0  0  0  0  0
  150.9557  144.8456  161.5092 H   0  0  0  0  0  0  0  0  0  0  0  0
  151.6558  145.4528  160.0035 H   0  0  0  0  0  0  0  0  0  0  0  0
  153.1601  143.0132  162.4358 H   0  0  0  0  0  0  0  0  0  0  0  0
  153.7881  140.6899  161.8374 H   0  0  0  0  0  0  0  0  0  0  0  0
  151.2885  142.8302  157.0272 H   0  0  0  0  0  0  0  0  0  0  0  0
  151.7603  141.7480  155.7140 H   0  0  0  0  0  0  0  0  0  0  0  0
  149.7947  140.3258  157.2168 H   0  0  0  0  0  0  0  0  0  0  0  0
  148.9546  142.9427  156.6598 H   0  0  0  0  0  0  0  0  0  0  0  0
  148.2856  140.9088  155.1633 H   0  0  0  0  0  0  0  0  0  0  0  0
  149.6215  141.8236  154.5459 H   0  0  0  0  0  0  0  0  0  0  0  0
  153.7827  139.6115  153.2899 H   0  0  0  0  0  0  0  0  0  0  0  0
  153.8966  137.8840  153.6257 H   0  0  0  0  0  0  0  0  0  0  0  0
  153.8692  139.0364  154.9578 H   0  0  0  0  0  0  0  0  0  0  0  0
  151.7517  136.7223  153.1703 H   0  0  0  0  0  0  0  0  0  0  0  0
  149.3279  136.6928  153.3598 H   0  0  0  0  0  0  0  0  0  0  0  0
  151.4049  143.5634  158.5538 H   0  0  0  0  0  0  0  0  0  0  0  0
  1  2  1  0  0  0  0
  1 22  1  0  0  0  0
  1 23  1  0  0  0  0
  1 24  1  0  0  0  0
  2 21  1  0  0  0  0
  2  3  2  0  0  0  0
  3  4  1  0  0  0  0
  3 25  1  0  0  0  0
  4  5  2  0  0  0  0
  4 26  1  0  0  0  0
  5  6  1  0  0  0  0
  5  7  1  0  0  0  0
  7  8  1  0  0  0  0
  7 21  2  0  0  0  0
  8  9  1  0  0  0  0
  9 10  1  0  0  0  0
  9 27  1  0  0  0  0
  9 28  1  0  0  0  0
 10 11  1  0  0  0  0
 10 12  1  0  0  0  0
 10 29  1  0  0  0  0
 11 30  1  0  0  0  0
 12 13  1  0  0  0  0
 12 31  1  0  0  0  0
 12 32  1  0  0  0  0
 13 19  1  0  0  0  0
 13 14  1  0  0  0  0
 14 15  2  0  0  0  0
 15 16  1  0  0  0  0
 15 17  1  0  0  0  0
 16 33  1  0  0  0  0
 16 34  1  0  0  0  0
 16 35  1  0  0  0  0
 17 18  2  0  0  0  0
 17 36  1  0  0  0  0
 18 19  1  0  0  0  0
 18 37  1  0  0  0  0
 19 20  2  0  0  0  0
 21 38  1  0  0  0  0
M  END
> <s_m_source_file>
AV-unprocessed.smi

> <i_m_source_file_index>
2782

> <i_lp_mmshare_version>
43012

> <i_f3d_flags>
0

> <s_epik_input>
W0NIM11jMVtjSF1bY0hdYyhDbCljKFtjSF0xKU9bQ0gyXVtDQEhdKFtPSF0pW0NIMl1uMm5jKFtDSDNdKVtjSF1bY0hdYzI9Tw==

> <s_epik_cmdline>
J2VwaWtfcHl0aG9uJywgJy1waCcsICc3LjAnLCAnLXRuJywgJzgnLCAnLW1hJywgJzIwMCcsICctbWV0YWxfYmluZGluZycsICctaW1hZScsICc8aW5maWxlLm1hZT4nLCAnLW9tYWUnLCAnPG91dGZpbGUubWFlPic=

> <r_lp_tautomer_probability>
1

> <r_epik_Ionization_Penalty>
2.96353e-07

> <r_epik_Ionization_Penalty_Charging>
1.79179e-07

> <r_epik_Ionization_Penalty_Neutral>
1.17174e-07

> <r_epik_State_Penalty>
-0

> <r_epik_Charging_Adjusted_Penalty>
1.79179e-07

> <i_epik_Tot_Q>
0

> <i_epik_Tot_abs_Q>
0

> <r_epik_Metal_State_Penalty>
-0

> <b_epik_Metal_Only>
0

> <s_lp_Force_Field>
OPLS_2005

> <r_lp_Energy>
25.2407

> <b_lp_Chiralities_Consistent>
1

> <s_lp_Variant>
AV-unprocessed.smi:2782-2

> <Gold.Version>
5.8.1

> <Gold.Id.Protein>
6NUR|6NUR_protein|mol2

> <Gold.PLP.Fitness>
49.2173

> <Gold.PLP.PLP>
-45.4725

> <Gold.PLP.part.hbond>
-2.0000

> <Gold.PLP.part.metal>
0.0000

> <Gold.PLP.part.buried>
-1.0628

> <Gold.PLP.part.nonpolar>
-42.8745

> <Gold.PLP.part.repulsive>
0.1398

> <Gold.PLP.ligand.clash>
0.0000

> <Gold.PLP.ligand.torsion>
1.1525

> <Gold.PLP.Chemscore.Hbond>
2.0000

> <Gold.PLP.Chemscore.CHOScore>
0.0000

> <Gold.PLP.Chemscore.Metal>
0.0000

> <Gold.Chemscore.Hbonds>
donor molecule, donor type, donor heavy atom, donor atom, acceptor molecule, acceptor atom, score
      L1  H    11    30       P1  8028  0.99
      P1  H  7989  7998       L1    14  0.96

> <Gold.PLP.Chemscore.Internal.Correction>
0.0497

> <Gold.Rescore>
     Score         DG    S(hbond)    S(metal)    S(lipo)     H(rot)  DE(clash)    DE(int)     intcor
     18.49     -19.99       1.53        0.00     129.06       2.22       0.15       1.35       ----

> <Gold.Chemscore.Fitness>
18.4899

> <Gold.Chemscore.DG>
-19.9928

> <Gold.Chemscore.ZeroCoef>
-5.4800

> <Gold.Chemscore.Hbond>
1.5257

> <Gold.Chemscore.Metal>
0.0000

> <Gold.Chemscore.Lipo>
129.0588

> <Gold.Chemscore.Internal_Hbond>
0.0000

> <Gold.Chemscore.DEClash>
0.1540

> <Gold.Chemscore.DEInternal>
1.3489

> <Gold.Chemscore.Rot>
2.2199

> <Gold.Chemscore.Internal.Correction>
   9.000000E+99

> <Gold.Chemscore.Hbonds>
donor molecule, donor type, donor heavy atom, donor atom, acceptor molecule, acceptor atom, score
      L1  H    11    30       P1  8028  0.89
      P1  H  7989  7998       L1    14  0.20

> <Gold.Chemscore.Hbond.Weighted>
-5.0958

> <Gold.Chemscore.Metal.Weighted>
-0.0000

> <Gold.Chemscore.Lipo.Weighted>
-15.0999

> <Gold.Chemscore.Internal_Hbond.Weighted>
0.0000

> <Gold.Chemscore.DEClash.Weighted>
0.1540

> <Gold.Chemscore.DEInternal.Weighted>
1.3489

> <Gold.Chemscore.Rot.Weighted>
5.6829

> <Gold.Chemscore.Internal.Correction.Weighted>
   9.000000E+99

> <Gold.Protein.RotatedTorsions>
[ 6907 6896 6895 6894 ] final  -90.01 input  -60.11 | X-H torsion
[ 7974 7965 7964 7962 ] final   22.94 input  175.53 | X-H torsion
[ 8008 7997 7996 7995 ] final  -36.83 input   59.86 | X-H torsion
[ 10167 10162 10161 10158 ] final -110.04 input  -65.29 | X-H torsion
[ 10718 10713 10712 10709 ] final   85.25 input   66.30 | X-H torsion
[ 10763 10752 10751 10750 ] final  -95.93 input  -60.55 | X-H torsion
[ 11005 11000 10999 10996 ] final   22.96 input  -57.11 | X-H torsion

> <Gold.Protein.ActiveResidues>
 VAL166  LYS551  ARG553  GLY616  TRP617  ASP618  TYR619  PRO620  LYS621  CYS622 
 ASP623  PHE694  ASN695  SER759  ASP760  ASP761  ALA762  ILE779  LEU786  VAL792 
 PHE793  MET794  SER795  GLU796  ALA797  LYS798  CYS799  TRP800  GLU811  SER814 

> <Gold.Protein.RotatedAtoms>
  150.6878  134.2498  159.4506 H   0  0  0  0  0  0  0  0  0  0  0  0  # atno 6907 bound_to 6896
  152.0437  134.9693  160.0583 H   0  0  0  0  0  0  0  0  0  0  0  0  # atno 6908 bound_to 6896
  152.1185  133.4305  159.4701 H   0  0  0  0  0  0  0  0  0  0  0  0  # atno 6909 bound_to 6896
  146.2006  139.7814  142.8764 H   0  0  0  0  0  0  0  0  0  0  0  0  # atno 7974 bound_to 7965
  154.4065  140.1620  156.2438 H   0  0  0  0  0  0  0  0  0  0  0  0  # atno 8008 bound_to 7997
  155.9178  140.3423  155.6126 H   0  0  0  0  0  0  0  0  0  0  0  0  # atno 8009 bound_to 7997
  155.7259  140.0774  157.2301 H   0  0  0  0  0  0  0  0  0  0  0  0  # atno 8010 bound_to 7997
  140.1488  143.4216  152.1510 H   0  0  0  0  0  0  0  0  0  0  0  0  # atno 10167 bound_to 10162
  157.6911  131.0167  150.2794 H   0  0  0  0  0  0  0  0  0  0  0  0  # atno 10718 bound_to 10713
  154.7194  135.5102  153.8788 H   0  0  0  0  0  0  0  0  0  0  0  0  # atno 10763 bound_to 10752
  153.0848  135.6642  153.9979 H   0  0  0  0  0  0  0  0  0  0  0  0  # atno 10764 bound_to 10752
  153.9805  135.3029  155.3400 H   0  0  0  0  0  0  0  0  0  0  0  0  # atno 10765 bound_to 10752
  140.3748  134.1984  155.7665 H   0  0  0  0  0  0  0  0  0  0  0  0  # atno 11005 bound_to 11000
  145.3495  141.0304  143.3347 LP  0  0  0  0  0  0  0  0  0  0  0  0  # atno 17320 bound_to 7965
  144.8676  139.5085  143.6783 LP  0  0  0  0  0  0  0  0  0  0  0  0  # atno 17321 bound_to 7965
  139.5436  144.7278  151.4655 LP  0  0  0  0  0  0  0  0  0  0  0  0  # atno 17342 bound_to 10162
  140.6715  143.8283  150.7005 LP  0  0  0  0  0  0  0  0  0  0  0  0  # atno 17343 bound_to 10162
  156.3343  130.3805  149.7463 LP  0  0  0  0  0  0  0  0  0  0  0  0  # atno 17370 bound_to 10713
  156.4993  130.8121  151.3126 LP  0  0  0  0  0  0  0  0  0  0  0  0  # atno 17371 bound_to 10713
  141.1943  133.8132  157.0764 LP  0  0  0  0  0  0  0  0  0  0  0  0  # atno 17394 bound_to 11000
  140.0524  134.9798  157.1160 LP  0  0  0  0  0  0  0  0  0  0  0  0  # atno 17395 bound_to 11000

$$$$
