AV-unprocessed.smi:3249|AV-procd|sdf|12424|dock3
  -GOLD-   2272018313D 1   1.00000     0.00000
 Structure written by MMmdl.
 44 45  0  0  0  0  0  0  0  0  2 V2000
  151.6542  142.4099  158.6397 C   0  0  0  0  0  0  0  0  0  0  0  0
  151.3695  141.5648  157.4318 C   0  0  0  0  0  0  0  0  0  0  0  0
  150.7230  141.9538  156.2245 C   0  0  0  0  0  0  0  0  0  0  0  0
  150.6275  140.9645  155.3514 N   0  0  0  0  0  0  0  0  0  0  0  0
  151.2102  139.9108  155.9657 N   0  0  0  0  0  0  0  0  0  0  0  0
  151.2866  138.6197  155.2936 C   0  0  1  0  0  0  0  0  0  0  0  0
  152.2217  137.6762  156.0741 C   0  0  0  0  0  0  0  0  0  0  0  0
  149.8819  138.0073  155.0424 C   0  0  1  0  0  0  0  0  0  0  0  0
  148.9945  138.8821  154.1384 C   0  0  0  0  0  0  0  0  0  0  0  0
  150.0054  136.6641  154.4328 N   0  3  0  0  0  0  0  0  0  0  0  0
  149.6934  135.5389  155.3381 C   0  0  0  0  0  0  0  0  0  0  0  0
  149.9170  134.1904  154.6401 C   0  0  1  0  0  0  0  0  0  0  0  0
  150.2500  133.0719  155.6466 C   0  0  0  0  0  0  0  0  0  0  0  0
  150.3780  131.7226  154.9305 C   0  0  0  0  0  0  0  0  0  0  0  0
  149.1204  131.4602  154.0951 C   0  0  0  0  0  0  0  0  0  0  0  0
  148.8327  132.6557  153.1732 C   0  0  0  0  0  0  0  0  0  0  0  0
  148.7194  133.8481  153.9449 O   0  0  0  0  0  0  0  0  0  0  0  0
  151.6643  140.2470  157.2243 C   0  0  0  0  0  0  0  0  0  0  0  0
  151.0923  143.3441  158.6227 H   0  0  0  0  0  0  0  0  0  0  0  0
  152.7103  142.6712  158.7066 H   0  0  0  0  0  0  0  0  0  0  0  0
  151.3905  141.8945  159.5635 H   0  0  0  0  0  0  0  0  0  0  0  0
  150.3218  142.9206  155.9586 H   0  0  0  0  0  0  0  0  0  0  0  0
  151.7473  138.8044  154.3218 H   0  0  0  0  0  0  0  0  0  0  0  0
  152.4165  136.7572  155.5215 H   0  0  0  0  0  0  0  0  0  0  0  0
  151.7967  137.3996  157.0395 H   0  0  0  0  0  0  0  0  0  0  0  0
  153.1867  138.1491  156.2602 H   0  0  0  0  0  0  0  0  0  0  0  0
  149.3672  137.9164  156.0008 H   0  0  0  0  0  0  0  0  0  0  0  0
  148.7836  139.8510  154.5914 H   0  0  0  0  0  0  0  0  0  0  0  0
  148.0328  138.4025  153.9531 H   0  0  0  0  0  0  0  0  0  0  0  0
  149.4677  139.0620  153.1725 H   0  0  0  0  0  0  0  0  0  0  0  0
  149.3724  136.6134  153.6471 H   0  0  0  0  0  0  0  0  0  0  0  0
  150.3342  135.6073  156.2179 H   0  0  0  0  0  0  0  0  0  0  0  0
  148.6620  135.6215  155.6838 H   0  0  0  0  0  0  0  0  0  0  0  0
  150.7370  134.2901  153.9264 H   0  0  0  0  0  0  0  0  0  0  0  0
  151.1758  133.3003  156.1758 H   0  0  0  0  0  0  0  0  0  0  0  0
  149.4654  133.0100  156.4020 H   0  0  0  0  0  0  0  0  0  0  0  0
  151.2549  131.7321  154.2820 H   0  0  0  0  0  0  0  0  0  0  0  0
  150.5296  130.9202  155.6530 H   0  0  0  0  0  0  0  0  0  0  0  0
  149.2400  130.5493  153.5080 H   0  0  0  0  0  0  0  0  0  0  0  0
  148.2684  131.2968  154.7564 H   0  0  0  0  0  0  0  0  0  0  0  0
  149.6178  132.7679  152.4238 H   0  0  0  0  0  0  0  0  0  0  0  0
  147.8992  132.4958  152.6335 H   0  0  0  0  0  0  0  0  0  0  0  0
  152.1555  139.5281  157.8634 H   0  0  0  0  0  0  0  0  0  0  0  0
  150.9489  136.5545  154.0899 H   0  0  0  0  0  0  0  0  0  0  0  0
  1  2  1  0  0  0  0
  1 19  1  0  0  0  0
  1 20  1  0  0  0  0
  1 21  1  0  0  0  0
  2 18  2  0  0  0  0
  2  3  1  0  0  0  0
  3  4  2  0  0  0  0
  3 22  1  0  0  0  0
  4  5  1  0  0  0  0
  5  6  1  0  0  0  0
  5 18  1  0  0  0  0
  6  7  1  0  0  0  0
  6  8  1  0  0  0  0
  6 23  1  0  0  0  0
  7 24  1  0  0  0  0
  7 25  1  0  0  0  0
  7 26  1  0  0  0  0
  8  9  1  0  0  0  0
  8 10  1  0  0  0  0
  8 27  1  0  0  0  0
  9 28  1  0  0  0  0
  9 29  1  0  0  0  0
  9 30  1  0  0  0  0
 10 11  1  0  0  0  0
 10 31  1  0  0  0  0
 10 44  1  0  0  0  0
 11 12  1  0  0  0  0
 11 32  1  0  0  0  0
 11 33  1  0  0  0  0
 12 17  1  0  0  0  0
 12 13  1  0  0  0  0
 12 34  1  0  0  0  0
 13 14  1  0  0  0  0
 13 35  1  0  0  0  0
 13 36  1  0  0  0  0
 14 15  1  0  0  0  0
 14 37  1  0  0  0  0
 14 38  1  0  0  0  0
 15 16  1  0  0  0  0
 15 39  1  0  0  0  0
 15 40  1  0  0  0  0
 16 17  1  0  0  0  0
 16 41  1  0  0  0  0
 16 42  1  0  0  0  0
 18 43  1  0  0  0  0
M  CHG  1  10   1
M  END
> <s_m_source_file>
AV-unprocessed.smi

> <i_m_source_file_index>
3249

> <i_lp_mmshare_version>
43012

> <i_f3d_flags>
0

> <s_epik_input>
W0NIM11jMVtjSF1ubihbY0hdMSlbQ0BIXShbQ0gzXSlbQ0BIXShbQ0gzXSlbTkhdW0NIMl1bQ0BASF0yW0NIMl1bQ0gyXVtDSDJdW0NIMl1PMg==

> <s_epik_cmdline>
J2VwaWtfcHl0aG9uJywgJy1waCcsICc3LjAnLCAnLXRuJywgJzgnLCAnLW1hJywgJzIwMCcsICctbWV0YWxfYmluZGluZycsICctaW1hZScsICc8aW5maWxlLm1hZT4nLCAnLW9tYWUnLCAnPG91dGZpbGUubWFlPic=

> <r_lp_tautomer_probability>
1

> <r_epik_Ionization_Penalty>
0.00659207

> <r_epik_Ionization_Penalty_Charging>
0.00656881

> <r_epik_Ionization_Penalty_Neutral>
2.32662e-05

> <r_epik_State_Penalty>
0.0048654

> <r_epik_Charging_Adjusted_Penalty>
0.0114342

> <i_epik_Tot_Q>
1

> <i_epik_Tot_abs_Q>
1

> <r_epik_Metal_State_Penalty>
-0

> <b_epik_Metal_Only>
0

> <s_lp_Force_Field>
OPLS_2005

> <r_lp_Energy>
18.7987

> <b_lp_Chiralities_Consistent>
1

> <s_lp_Variant>
AV-unprocessed.smi:3249-8

> <Gold.Version>
5.8.1

> <Gold.Id.Protein>
6NUR|6NUR_protein|mol2

> <Gold.PLP.Fitness>
41.7203

> <Gold.PLP.PLP>
-32.8112

> <Gold.PLP.part.hbond>
-2.3562

> <Gold.PLP.part.metal>
0.0000

> <Gold.PLP.part.buried>
-4.1860

> <Gold.PLP.part.nonpolar>
-26.4444

> <Gold.PLP.part.repulsive>
0.2827

> <Gold.PLP.ligand.clash>
0.0000

> <Gold.PLP.ligand.torsion>
1.1665

> <Gold.PLP.Chemscore.Hbond>
2.7176

> <Gold.PLP.Chemscore.CHOScore>
1.0000

> <Gold.PLP.Chemscore.Metal>
0.0000

> <Gold.Chemscore.Hbonds>
donor molecule, donor type, donor heavy atom, donor atom, acceptor molecule, acceptor atom, score
      L1  H    10    31       P1  7948  2.00
      P1  H  7989  7998       L1     4  0.61
      L1  C     3    22       P1  8028  1.00

> <Gold.PLP.Chemscore.Internal.Correction>
0.0893

> <Gold.Rescore>
     Score         DG    S(hbond)    S(metal)    S(lipo)     H(rot)  DE(clash)    DE(int)     intcor
     13.35     -15.91       1.32        0.00      85.09       1.53       0.12       2.44       ----

> <Gold.Chemscore.Fitness>
13.3519

> <Gold.Chemscore.DG>
-15.9105

> <Gold.Chemscore.ZeroCoef>
-5.4800

> <Gold.Chemscore.Hbond>
1.3174

> <Gold.Chemscore.Metal>
0.0000

> <Gold.Chemscore.Lipo>
85.0896

> <Gold.Chemscore.Internal_Hbond>
0.0000

> <Gold.Chemscore.DEClash>
0.1168

> <Gold.Chemscore.DEInternal>
2.4419

> <Gold.Chemscore.Rot>
1.5333

> <Gold.Chemscore.Internal.Correction>
   9.000000E+99

> <Gold.Chemscore.Hbonds>
donor molecule, donor type, donor heavy atom, donor atom, acceptor molecule, acceptor atom, score
      L1  H    10    31       P1  7948  0.86
      P1  H  7989  7998       L1     4  0.15

> <Gold.Chemscore.Hbond.Weighted>
-4.4002

> <Gold.Chemscore.Metal.Weighted>
-0.0000

> <Gold.Chemscore.Lipo.Weighted>
-9.9555

> <Gold.Chemscore.Internal_Hbond.Weighted>
0.0000

> <Gold.Chemscore.DEClash.Weighted>
0.1168

> <Gold.Chemscore.DEInternal.Weighted>
2.4419

> <Gold.Chemscore.Rot.Weighted>
3.9252

> <Gold.Chemscore.Internal.Correction.Weighted>
   9.000000E+99

> <Gold.Protein.RotatedTorsions>
[ 6907 6896 6895 6894 ] final   48.40 input  -60.11 | X-H torsion
[ 7974 7965 7964 7962 ] final -178.52 input  175.53 | X-H torsion
[ 8008 7997 7996 7995 ] final   90.90 input   59.86 | X-H torsion
[ 10167 10162 10161 10158 ] final  -51.93 input  -65.29 | X-H torsion
[ 10718 10713 10712 10709 ] final   29.80 input   66.30 | X-H torsion
[ 10763 10752 10751 10750 ] final -128.44 input  -60.55 | X-H torsion
[ 11005 11000 10999 10996 ] final  149.32 input  -57.11 | X-H torsion

> <Gold.Protein.ActiveResidues>
 VAL166  LYS551  ARG553  GLY616  TRP617  ASP618  TYR619  PRO620  LYS621  CYS622 
 ASP623  PHE694  ASN695  SER759  ASP760  ASP761  ALA762  ILE779  LEU786  VAL792 
 PHE793  MET794  SER795  GLU796  ALA797  LYS798  CYS799  TRP800  GLU811  SER814 

> <Gold.Protein.RotatedAtoms>
  152.2790  134.7849  160.0399 H   0  0  0  0  0  0  0  0  0  0  0  0  # atno 6907 bound_to 6896
  151.8435  133.3422  159.3658 H   0  0  0  0  0  0  0  0  0  0  0  0  # atno 6908 bound_to 6896
  150.7182  134.5297  159.5738 H   0  0  0  0  0  0  0  0  0  0  0  0  # atno 6909 bound_to 6896
  144.7131  140.0856  143.6423 H   0  0  0  0  0  0  0  0  0  0  0  0  # atno 7974 bound_to 7965
  156.0174  140.3344  155.7003 H   0  0  0  0  0  0  0  0  0  0  0  0  # atno 8008 bound_to 7997
  155.6071  140.0661  157.2734 H   0  0  0  0  0  0  0  0  0  0  0  0  # atno 8009 bound_to 7997
  154.4303  140.1800  156.1221 H   0  0  0  0  0  0  0  0  0  0  0  0  # atno 8010 bound_to 7997
  140.6563  143.2602  151.4574 H   0  0  0  0  0  0  0  0  0  0  0  0  # atno 10167 bound_to 10162
  157.2513  130.7116  149.6407 H   0  0  0  0  0  0  0  0  0  0  0  0  # atno 10718 bound_to 10713
  154.8756  135.3928  154.3757 H   0  0  0  0  0  0  0  0  0  0  0  0  # atno 10763 bound_to 10752
  153.4511  135.7028  153.6114 H   0  0  0  0  0  0  0  0  0  0  0  0  # atno 10764 bound_to 10752
  153.4653  135.3802  155.2330 H   0  0  0  0  0  0  0  0  0  0  0  0  # atno 10765 bound_to 10752
  140.1035  134.8968  157.1831 H   0  0  0  0  0  0  0  0  0  0  0  0  # atno 11005 bound_to 11000
  145.9664  139.2838  143.1125 LP  0  0  0  0  0  0  0  0  0  0  0  0  # atno 17320 bound_to 7965
  145.9164  140.9145  143.0427 LP  0  0  0  0  0  0  0  0  0  0  0  0  # atno 17321 bound_to 7965
  139.5787  144.1760  152.1938 LP  0  0  0  0  0  0  0  0  0  0  0  0  # atno 17342 bound_to 10162
  140.1078  144.5483  150.6945 LP  0  0  0  0  0  0  0  0  0  0  0  0  # atno 17343 bound_to 10162
  155.9666  130.4426  150.5390 LP  0  0  0  0  0  0  0  0  0  0  0  0  # atno 17370 bound_to 10713
  157.3274  131.0693  151.1886 LP  0  0  0  0  0  0  0  0  0  0  0  0  # atno 17371 bound_to 10713
  140.3188  134.2940  155.7251 LP  0  0  0  0  0  0  0  0  0  0  0  0  # atno 17394 bound_to 11000
  141.2112  133.7696  156.9881 LP  0  0  0  0  0  0  0  0  0  0  0  0  # atno 17395 bound_to 11000

$$$$
