AV-unprocessed.smi:3349|AV-procd|sdf|12933|dock5
  -GOLD-   2272019363D 1   1.00000     0.00000
 Structure written by MMmdl.
 40 41  0  0  0  0  0  0  0  0  1 V2000
  154.0306  141.7719  160.9199 C   0  0  0  0  0  0  0  0  0  0  0  0
  152.6824  141.7578  160.1529 C   0  0  2  0  0  0  0  0  0  0  0  0
  152.7359  140.6492  159.0654 C   0  0  0  0  0  0  0  0  0  0  0  0
  151.4532  139.9751  158.9036 N   0  0  0  0  0  0  0  0  0  0  0  0
  151.1590  139.1027  157.9277 C   0  0  0  0  0  0  0  0  0  0  0  0
  151.9440  138.8227  157.0211 O   0  0  0  0  0  0  0  0  0  0  0  0
  149.7651  138.4547  157.9964 C   0  0  1  0  0  0  0  0  0  0  0  0
  149.3423  138.0788  159.4314 C   0  0  0  0  0  0  0  0  0  0  0  0
  148.7755  139.3044  157.3433 N   0  0  0  0  0  0  0  0  0  0  0  0
  147.9580  139.0403  156.3216 C   0  0  0  0  0  0  0  0  0  0  0  0
  147.2149  140.0716  155.9454 N   0  0  0  0  0  0  0  0  0  0  0  0
  147.6598  141.0090  156.8337 C   0  0  0  0  0  0  0  0  0  0  0  0
  148.6005  140.6050  157.6871 N   0  0  0  0  0  0  0  0  0  0  0  0
  152.3165  143.0890  159.6152 N   0  0  0  0  0  0  0  0  0  0  0  0
  151.1202  143.0506  158.7656 C   0  0  0  0  0  0  0  0  0  0  0  0
  150.7199  144.4374  158.2324 C   0  0  0  0  0  0  0  0  0  0  0  0
  150.5197  145.3302  159.3192 O   0  0  0  0  0  0  0  0  0  0  0  0
  151.6837  145.4590  160.1235 C   0  0  0  0  0  0  0  0  0  0  0  0
  152.0880  144.0801  160.6732 C   0  0  0  0  0  0  0  0  0  0  0  0
  154.3243  140.7835  161.2721 H   0  0  0  0  0  0  0  0  0  0  0  0
  153.9907  142.3893  161.8162 H   0  0  0  0  0  0  0  0  0  0  0  0
  154.8379  142.1454  160.2891 H   0  0  0  0  0  0  0  0  0  0  0  0
  151.9129  141.4629  160.8684 H   0  0  0  0  0  0  0  0  0  0  0  0
  152.9794  141.0550  158.0849 H   0  0  0  0  0  0  0  0  0  0  0  0
  153.5135  139.9254  159.3168 H   0  0  0  0  0  0  0  0  0  0  0  0
  150.7520  140.1564  159.6068 H   0  0  0  0  0  0  0  0  0  0  0  0
  149.8200  137.5285  157.4222 H   0  0  0  0  0  0  0  0  0  0  0  0
  150.0498  137.3807  159.8803 H   0  0  0  0  0  0  0  0  0  0  0  0
  148.3644  137.5967  159.4340 H   0  0  0  0  0  0  0  0  0  0  0  0
  149.2812  138.9523  160.0822 H   0  0  0  0  0  0  0  0  0  0  0  0
  147.9104  138.0756  155.8380 H   0  0  0  0  0  0  0  0  0  0  0  0
  147.2831  142.0213  156.8483 H   0  0  0  0  0  0  0  0  0  0  0  0
  151.2841  142.4158  157.8972 H   0  0  0  0  0  0  0  0  0  0  0  0
  150.2850  142.6217  159.3213 H   0  0  0  0  0  0  0  0  0  0  0  0
  151.4879  144.8310  157.5644 H   0  0  0  0  0  0  0  0  0  0  0  0
  149.7981  144.3689  157.6545 H   0  0  0  0  0  0  0  0  0  0  0  0
  152.4947  145.8952  159.5382 H   0  0  0  0  0  0  0  0  0  0  0  0
  151.4749  146.1465  160.9432 H   0  0  0  0  0  0  0  0  0  0  0  0
  151.3149  143.7220  161.3547 H   0  0  0  0  0  0  0  0  0  0  0  0
  152.9899  144.2259  161.2649 H   0  0  0  0  0  0  0  0  0  0  0  0
  1  2  1  0  0  0  0
  1 20  1  0  0  0  0
  1 21  1  0  0  0  0
  1 22  1  0  0  0  0
  2  3  1  0  0  0  0
  2 14  1  0  0  0  0
  2 23  1  0  0  0  0
  3  4  1  0  0  0  0
  3 24  1  0  0  0  0
  3 25  1  0  0  0  0
  4  5  1  0  0  0  0
  4 26  1  0  0  0  0
  5  6  2  0  0  0  0
  5  7  1  0  0  0  0
  7  8  1  0  0  0  0
  7  9  1  0  0  0  0
  7 27  1  0  0  0  0
  8 28  1  0  0  0  0
  8 29  1  0  0  0  0
  8 30  1  0  0  0  0
  9 13  1  0  0  0  0
  9 10  1  0  0  0  0
 10 11  2  0  0  0  0
 10 31  1  0  0  0  0
 11 12  1  0  0  0  0
 12 13  2  0  0  0  0
 12 32  1  0  0  0  0
 14 19  1  0  0  0  0
 14 15  1  0  0  0  0
 15 16  1  0  0  0  0
 15 33  1  0  0  0  0
 15 34  1  0  0  0  0
 16 17  1  0  0  0  0
 16 35  1  0  0  0  0
 16 36  1  0  0  0  0
 17 18  1  0  0  0  0
 18 19  1  0  0  0  0
 18 37  1  0  0  0  0
 18 38  1  0  0  0  0
 19 39  1  0  0  0  0
 19 40  1  0  0  0  0
M  END
> <s_m_source_file>
AV-unprocessed.smi

> <i_m_source_file_index>
3349

> <i_lp_mmshare_version>
43012

> <i_f3d_flags>
0

> <s_epik_input>
W0NIMl0xW0NIMl1PW0NIMl1bQ0gyXU4xW0NASF0oW0NIM10pW0NIMl1bTkhdQyg9TylbQ0BIXShbQ0gzXSluMltjSF1uW2NIXW4y

> <s_epik_cmdline>
J2VwaWtfcHl0aG9uJywgJy1waCcsICc3LjAnLCAnLXRuJywgJzgnLCAnLW1hJywgJzIwMCcsICctbWV0YWxfYmluZGluZycsICctaW1hZScsICc8aW5maWxlLm1hZT4nLCAnLW9tYWUnLCAnPG91dGZpbGUubWFlPic=

> <r_lp_tautomer_probability>
1

> <r_epik_Ionization_Penalty>
0.211373

> <r_epik_Ionization_Penalty_Charging>
0

> <r_epik_Ionization_Penalty_Neutral>
0.211373

> <r_epik_State_Penalty>
0.201459

> <r_epik_Charging_Adjusted_Penalty>
0.201459

> <i_epik_Tot_Q>
0

> <i_epik_Tot_abs_Q>
0

> <r_epik_Metal_State_Penalty>
0.201458

> <b_epik_Metal_Only>
0

> <s_lp_Force_Field>
OPLS_2005

> <r_lp_Energy>
35.2026

> <b_lp_Chiralities_Consistent>
1

> <s_lp_Variant>
AV-unprocessed.smi:3349-3

> <Gold.Version>
5.8.1

> <Gold.Id.Protein>
6NUR|6NUR_protein|mol2

> <Gold.PLP.Fitness>
42.5624

> <Gold.PLP.PLP>
-36.0976

> <Gold.PLP.part.hbond>
-3.7232

> <Gold.PLP.part.metal>
0.0000

> <Gold.PLP.part.buried>
-1.6151

> <Gold.PLP.part.nonpolar>
-30.2452

> <Gold.PLP.part.repulsive>
2.4294

> <Gold.PLP.ligand.clash>
0.0000

> <Gold.PLP.ligand.torsion>
1.3012

> <Gold.PLP.Chemscore.Hbond>
1.8652

> <Gold.PLP.Chemscore.CHOScore>
1.1060

> <Gold.PLP.Chemscore.Metal>
0.0000

> <Gold.PLP.Chemscore.Internal.Correction>
0.1534

> <Gold.Rescore>
     Score         DG    S(hbond)    S(metal)    S(lipo)     H(rot)  DE(clash)    DE(int)     intcor
     10.13     -13.57       1.56        0.00      80.70       2.56       1.35       2.09       ----

> <Gold.Chemscore.Fitness>
10.1251

> <Gold.Chemscore.DG>
-13.5722

> <Gold.Chemscore.ZeroCoef>
-5.4800

> <Gold.Chemscore.Hbond>
1.5556

> <Gold.Chemscore.Metal>
0.0000

> <Gold.Chemscore.Lipo>
80.7029

> <Gold.Chemscore.Internal_Hbond>
0.0000

> <Gold.Chemscore.DEClash>
1.3547

> <Gold.Chemscore.DEInternal>
2.0924

> <Gold.Chemscore.Rot>
2.5570

> <Gold.Chemscore.Internal.Correction>
   9.000000E+99

> <Gold.Chemscore.Hbond.Weighted>
-5.1959

> <Gold.Chemscore.Metal.Weighted>
-0.0000

> <Gold.Chemscore.Lipo.Weighted>
-9.4422

> <Gold.Chemscore.Internal_Hbond.Weighted>
0.0000

> <Gold.Chemscore.DEClash.Weighted>
1.3547

> <Gold.Chemscore.DEInternal.Weighted>
2.0924

> <Gold.Chemscore.Rot.Weighted>
6.5459

> <Gold.Chemscore.Internal.Correction.Weighted>
   9.000000E+99

> <Gold.Protein.RotatedTorsions>
[ 6907 6896 6895 6894 ] final  -21.19 input  -60.11 | X-H torsion
[ 7974 7965 7964 7962 ] final   -9.46 input  175.53 | X-H torsion
[ 8008 7997 7996 7995 ] final   86.17 input   59.86 | X-H torsion
[ 10167 10162 10161 10158 ] final   28.83 input  -65.29 | X-H torsion
[ 10718 10713 10712 10709 ] final  159.10 input   66.30 | X-H torsion
[ 10763 10752 10751 10750 ] final   75.89 input  -60.55 | X-H torsion
[ 11005 11000 10999 10996 ] final  -99.97 input  -57.11 | X-H torsion

> <Gold.Protein.ActiveResidues>
 VAL166  LYS551  ARG553  GLY616  TRP617  ASP618  TYR619  PRO620  LYS621  CYS622 
 ASP623  PHE694  ASN695  SER759  ASP760  ASP761  ALA762  ILE779  LEU786  VAL792 
 PHE793  MET794  SER795  GLU796  ALA797  LYS798  CYS799  TRP800  GLU811  SER814 

> <Gold.Protein.RotatedAtoms>
  151.2369  135.0575  159.9009 H   0  0  0  0  0  0  0  0  0  0  0  0  # atno 6907 bound_to 6896
  152.5398  134.0476  159.8106 H   0  0  0  0  0  0  0  0  0  0  0  0  # atno 6908 bound_to 6896
  151.0664  133.5453  159.2662 H   0  0  0  0  0  0  0  0  0  0  0  0  # atno 6909 bound_to 6896
  146.2251  140.2619  142.8352 H   0  0  0  0  0  0  0  0  0  0  0  0  # atno 7974 bound_to 7965
  155.9593  140.3394  155.6476 H   0  0  0  0  0  0  0  0  0  0  0  0  # atno 8008 bound_to 7997
  155.6819  140.0739  157.2500 H   0  0  0  0  0  0  0  0  0  0  0  0  # atno 8009 bound_to 7997
  154.4139  140.1673  156.1979 H   0  0  0  0  0  0  0  0  0  0  0  0  # atno 8010 bound_to 7997
  140.4818  144.0604  150.6268 H   0  0  0  0  0  0  0  0  0  0  0  0  # atno 10167 bound_to 10162
  157.1689  131.0605  151.2193 H   0  0  0  0  0  0  0  0  0  0  0  0  # atno 10718 bound_to 10713
  153.0686  135.4972  154.8256 H   0  0  0  0  0  0  0  0  0  0  0  0  # atno 10763 bound_to 10752
  154.6990  135.2998  154.9371 H   0  0  0  0  0  0  0  0  0  0  0  0  # atno 10764 bound_to 10752
  154.0100  135.6755  153.4817 H   0  0  0  0  0  0  0  0  0  0  0  0  # atno 10765 bound_to 10752
  141.1288  133.8362  157.1041 H   0  0  0  0  0  0  0  0  0  0  0  0  # atno 11005 bound_to 11000
  144.9333  140.7998  143.5676 LP  0  0  0  0  0  0  0  0  0  0  0  0  # atno 17320 bound_to 7965
  145.2565  139.2010  143.4915 LP  0  0  0  0  0  0  0  0  0  0  0  0  # atno 17321 bound_to 7965
  140.3848  143.2783  152.0129 LP  0  0  0  0  0  0  0  0  0  0  0  0  # atno 17342 bound_to 10162
  139.4835  144.6126  151.7406 LP  0  0  0  0  0  0  0  0  0  0  0  0  # atno 17343 bound_to 10162
  157.4062  130.7360  149.6804 LP  0  0  0  0  0  0  0  0  0  0  0  0  # atno 17370 bound_to 10713
  155.9741  130.4107  150.3945 LP  0  0  0  0  0  0  0  0  0  0  0  0  # atno 17371 bound_to 10713
  140.0315  134.9899  157.0790 LP  0  0  0  0  0  0  0  0  0  0  0  0  # atno 17394 bound_to 11000
  140.4277  134.1813  155.7167 LP  0  0  0  0  0  0  0  0  0  0  0  0  # atno 17395 bound_to 11000

$$$$
