AV-unprocessed.smi:743|AV-procd|sdf|3565|dock9
  -GOLD-   22720 0563D 1   1.00000     0.00000
 Structure written by MMmdl.
 28 29  0  0  0  0  0  0  0  0  1 V2000
  148.6115  140.6248  154.2904 C   0  0  0  0  0  0  0  0  0  0  0  0
  149.5820  140.9754  155.3052 N   0  0  0  0  0  0  0  0  0  0  0  0
  149.3795  141.6467  156.4912 C   0  0  0  0  0  0  0  0  0  0  0  0
  150.5902  141.7521  157.1197 C   0  0  0  0  0  0  0  0  0  0  0  0
  150.9295  142.3912  158.4462 C   0  0  1  0  0  0  0  0  0  0  0  0
  151.7640  141.4958  159.2542 N   0  0  0  0  0  0  0  0  0  0  0  0
  152.7928  141.8399  160.0495 C   0  0  0  0  0  0  0  0  0  0  0  0
  153.3924  141.0029  160.7202 O   0  0  0  0  0  0  0  0  0  0  0  0
  153.2453  143.3064  160.0935 C   0  0  0  0  0  0  0  0  0  0  0  0
  152.1851  144.2843  159.5663 C   0  0  0  0  0  0  0  0  0  0  0  0
  151.5929  143.7752  158.2474 C   0  0  2  0  0  0  0  0  0  0  0  0
  150.6393  144.7422  157.7337 N   0  0  0  0  0  0  0  0  0  0  0  0
  151.4803  141.0988  156.2186 C   0  0  0  0  0  0  0  0  0  0  0  0
  150.8764  140.6392  155.1351 N   0  0  0  0  0  0  0  0  0  0  0  0
  152.4005  143.6859  157.5192 H   0  0  0  0  0  0  0  0  0  0  0  0
  147.6080  140.6309  154.7173 H   0  0  0  0  0  0  0  0  0  0  0  0
  148.8213  139.6291  153.8981 H   0  0  0  0  0  0  0  0  0  0  0  0
  148.6564  141.3483  153.4760 H   0  0  0  0  0  0  0  0  0  0  0  0
  148.3996  141.9909  156.7883 H   0  0  0  0  0  0  0  0  0  0  0  0
  150.0167  142.5309  159.0276 H   0  0  0  0  0  0  0  0  0  0  0  0
  151.5089  140.5189  159.2356 H   0  0  0  0  0  0  0  0  0  0  0  0
  153.5241  143.5720  161.1138 H   0  0  0  0  0  0  0  0  0  0  0  0
  154.1499  143.3906  159.4903 H   0  0  0  0  0  0  0  0  0  0  0  0
  151.3967  144.4080  160.3107 H   0  0  0  0  0  0  0  0  0  0  0  0
  152.6369  145.2670  159.4258 H   0  0  0  0  0  0  0  0  0  0  0  0
  150.1505  144.3498  156.9418 H   0  0  0  0  0  0  0  0  0  0  0  0
  149.9390  144.9331  158.4360 H   0  0  0  0  0  0  0  0  0  0  0  0
  152.5448  140.9478  156.3208 H   0  0  0  0  0  0  0  0  0  0  0  0
  1  2  1  0  0  0  0
  1 16  1  0  0  0  0
  1 17  1  0  0  0  0
  1 18  1  0  0  0  0
  2 14  1  0  0  0  0
  2  3  1  0  0  0  0
  3  4  2  0  0  0  0
  3 19  1  0  0  0  0
  4  5  1  0  0  0  0
  4 13  1  0  0  0  0
  5 11  1  0  0  0  0
  5  6  1  0  0  0  0
  5 20  1  0  0  0  0
  6  7  1  0  0  0  0
  6 21  1  0  0  0  0
  7  8  2  0  0  0  0
  7  9  1  0  0  0  0
  9 10  1  0  0  0  0
  9 22  1  0  0  0  0
  9 23  1  0  0  0  0
 10 11  1  0  0  0  0
 10 24  1  0  0  0  0
 10 25  1  0  0  0  0
 11 15  1  0  0  0  0
 11 12  1  0  0  0  0
 12 26  1  0  0  0  0
 12 27  1  0  0  0  0
 13 14  2  0  0  0  0
 13 28  1  0  0  0  0
M  END
> <s_m_source_file>
AV-unprocessed.smi

> <i_m_source_file_index>
743

> <i_lp_mmshare_version>
43012

> <i_f3d_flags>
0

> <s_epik_input>
W0NIM11uMVtjSF1jKFtjSF1uMSlbQ0BASF0yW05IXUMoPU8pW0NIMl1bQ0gyXVtDQEBIXTJbTkgyXQ==

> <s_epik_cmdline>
J2VwaWtfcHl0aG9uJywgJy1waCcsICc3LjAnLCAnLXRuJywgJzgnLCAnLW1hJywgJzIwMCcsICctbWV0YWxfYmluZGluZycsICctaW1hZScsICc8aW5maWxlLm1hZT4nLCAnLW9tYWUnLCAnPG91dGZpbGUubWFlPic=

> <r_lp_tautomer_probability>
1

> <r_epik_Ionization_Penalty>
2.50279

> <r_epik_Ionization_Penalty_Charging>
0

> <r_epik_Ionization_Penalty_Neutral>
2.50279

> <r_epik_State_Penalty>
2.66754

> <r_epik_Charging_Adjusted_Penalty>
2.66754

> <i_epik_Tot_Q>
0

> <i_epik_Tot_abs_Q>
0

> <r_epik_Metal_State_Penalty>
2.66721

> <b_epik_Metal_Only>
0

> <s_lp_Force_Field>
OPLS_2005

> <r_lp_Energy>
8.34042

> <b_lp_Chiralities_Consistent>
1

> <s_lp_Variant>
AV-unprocessed.smi:743-6

> <Gold.Version>
5.8.1

> <Gold.Id.Protein>
6NUR|6NUR_protein|mol2

> <Gold.PLP.Fitness>
37.4903

> <Gold.PLP.PLP>
-30.3226

> <Gold.PLP.part.hbond>
-2.6414

> <Gold.PLP.part.metal>
0.0000

> <Gold.PLP.part.buried>
-1.5840

> <Gold.PLP.part.nonpolar>
-26.4655

> <Gold.PLP.part.repulsive>
0.1909

> <Gold.PLP.ligand.clash>
0.0000

> <Gold.PLP.ligand.torsion>
0.5720

> <Gold.PLP.Chemscore.Hbond>
1.9440

> <Gold.PLP.Chemscore.CHOScore>
0.8179

> <Gold.PLP.Chemscore.Metal>
0.0000

> <Gold.Chemscore.Hbonds>
donor molecule, donor type, donor heavy atom, donor atom, acceptor molecule, acceptor atom, score
      L1  H    12    26       P1  8028  0.83
      P1  H  7989  7998       L1    14  0.93

> <Gold.PLP.Chemscore.Internal.Correction>
0.0260

> <Gold.Rescore>
     Score         DG    S(hbond)    S(metal)    S(lipo)     H(rot)  DE(clash)    DE(int)     intcor
     15.89     -16.32       1.56        0.00      70.04       1.00       0.06       0.37       ----

> <Gold.Chemscore.Fitness>
15.8899

> <Gold.Chemscore.DG>
-16.3176

> <Gold.Chemscore.ZeroCoef>
-5.4800

> <Gold.Chemscore.Hbond>
1.5577

> <Gold.Chemscore.Metal>
0.0000

> <Gold.Chemscore.Lipo>
70.0408

> <Gold.Chemscore.Internal_Hbond>
0.0000

> <Gold.Chemscore.DEClash>
0.0563

> <Gold.Chemscore.DEInternal>
0.3714

> <Gold.Chemscore.Rot>
1.0000

> <Gold.Chemscore.Internal.Correction>
   9.000000E+99

> <Gold.Chemscore.Hbonds>
donor molecule, donor type, donor heavy atom, donor atom, acceptor molecule, acceptor atom, score
      L1  H    12    26       P1  8028  0.71
      P1  H  7989  7998       L1    14  0.85

> <Gold.Chemscore.Hbond.Weighted>
-5.2029

> <Gold.Chemscore.Metal.Weighted>
-0.0000

> <Gold.Chemscore.Lipo.Weighted>
-8.1948

> <Gold.Chemscore.Internal_Hbond.Weighted>
0.0000

> <Gold.Chemscore.DEClash.Weighted>
0.0563

> <Gold.Chemscore.DEInternal.Weighted>
0.3714

> <Gold.Chemscore.Rot.Weighted>
2.5600

> <Gold.Chemscore.Internal.Correction.Weighted>
   9.000000E+99

> <Gold.Protein.RotatedTorsions>
[ 6907 6896 6895 6894 ] final  176.56 input  -60.11 | X-H torsion
[ 7974 7965 7964 7962 ] final  109.46 input  175.53 | X-H torsion
[ 8008 7997 7996 7995 ] final  -40.67 input   59.86 | X-H torsion
[ 10167 10162 10161 10158 ] final -153.81 input  -65.29 | X-H torsion
[ 10718 10713 10712 10709 ] final  164.81 input   66.30 | X-H torsion
[ 10763 10752 10751 10750 ] final  126.09 input  -60.55 | X-H torsion
[ 11005 11000 10999 10996 ] final   18.87 input  -57.11 | X-H torsion

> <Gold.Protein.ActiveResidues>
 VAL166  LYS551  ARG553  GLY616  TRP617  ASP618  TYR619  PRO620  LYS621  CYS622 
 ASP623  PHE694  ASN695  SER759  ASP760  ASP761  ALA762  ILE779  LEU786  VAL792 
 PHE793  MET794  SER795  GLU796  ALA797  LYS798  CYS799  TRP800  GLU811  SER814 

> <Gold.Protein.RotatedAtoms>
  151.7181  133.3314  159.3307 H   0  0  0  0  0  0  0  0  0  0  0  0  # atno 6907 bound_to 6896
  150.7664  134.6472  159.6278 H   0  0  0  0  0  0  0  0  0  0  0  0  # atno 6908 bound_to 6896
  152.3669  134.6793  160.0241 H   0  0  0  0  0  0  0  0  0  0  0  0  # atno 6909 bound_to 6896
  145.2675  139.2679  143.3984 H   0  0  0  0  0  0  0  0  0  0  0  0  # atno 7974 bound_to 7965
  154.4010  140.1519  156.3065 H   0  0  0  0  0  0  0  0  0  0  0  0  # atno 8008 bound_to 7997
  155.8653  140.3451  155.5763 H   0  0  0  0  0  0  0  0  0  0  0  0  # atno 8009 bound_to 7997
  155.7834  140.0846  157.2037 H   0  0  0  0  0  0  0  0  0  0  0  0  # atno 8010 bound_to 7997
  139.7065  143.9177  152.2451 H   0  0  0  0  0  0  0  0  0  0  0  0  # atno 10167 bound_to 10162
  157.0890  131.0412  151.2545 H   0  0  0  0  0  0  0  0  0  0  0  0  # atno 10718 bound_to 10713
  153.6878  135.3304  155.3194 H   0  0  0  0  0  0  0  0  0  0  0  0  # atno 10763 bound_to 10752
  154.8448  135.4424  154.1540 H   0  0  0  0  0  0  0  0  0  0  0  0  # atno 10764 bound_to 10752
  153.2573  135.6987  153.7693 H   0  0  0  0  0  0  0  0  0  0  0  0  # atno 10765 bound_to 10752
  140.4200  134.1529  155.7672 H   0  0  0  0  0  0  0  0  0  0  0  0  # atno 11005 bound_to 11000
  146.3257  140.3108  142.8626 LP  0  0  0  0  0  0  0  0  0  0  0  0  # atno 17320 bound_to 7965
  144.9364  140.8031  143.5657 LP  0  0  0  0  0  0  0  0  0  0  0  0  # atno 17321 bound_to 7965
  139.9035  144.6898  150.8640 LP  0  0  0  0  0  0  0  0  0  0  0  0  # atno 17342 bound_to 10162
  140.7723  143.3496  151.2041 LP  0  0  0  0  0  0  0  0  0  0  0  0  # atno 17343 bound_to 10162
  157.4737  130.7724  149.7347 LP  0  0  0  0  0  0  0  0  0  0  0  0  # atno 17370 bound_to 10713
  155.9903  130.3945  150.3035 LP  0  0  0  0  0  0  0  0  0  0  0  0  # atno 17371 bound_to 10713
  141.1788  133.8458  157.1331 LP  0  0  0  0  0  0  0  0  0  0  0  0  # atno 17394 bound_to 11000
  140.0207  134.9947  157.0585 LP  0  0  0  0  0  0  0  0  0  0  0  0  # atno 17395 bound_to 11000

$$$$
