AV-unprocessed.smi:167|AV-procd|sdf|1394|dock8
  -GOLD-   2262019133D 1   1.00000     0.00000
 Structure written by MMmdl.
 51 55  0  0  0  0  0  0  0  0  1 V2000
  153.0964  139.0948  155.6695 O   0  0  0  0  0  0  0  0  0  0  0  0
  152.0402  139.1857  156.6015 C   0  0  0  0  0  0  0  0  0  0  0  0
  150.7013  138.8426  155.9228 C   0  0  2  0  0  0  0  0  0  0  0  0
  150.5827  139.3019  154.4578 C   0  0  0  0  0  0  0  0  0  0  0  0
  149.2170  140.0233  154.4717 C   0  0  2  0  0  0  0  0  0  0  0  0
  149.3932  141.3989  155.1348 C   0  0  0  0  0  0  0  0  0  0  0  0
  149.5125  141.0019  156.6132 C   0  0  0  0  0  0  0  0  0  0  0  0
  149.4170  139.4659  156.5277 C   0  0  1  0  0  0  0  0  0  0  0  0
  148.4361  139.2964  155.4652 N   0  0  0  0  0  0  0  0  0  0  0  0
  147.9218  138.0683  155.1763 C   0  0  0  0  0  0  0  0  0  0  0  0
  148.3355  136.9993  155.9081 N   0  0  0  0  0  0  0  0  0  0  0  0
  147.8540  135.7784  155.6616 C   0  0  0  0  0  0  0  0  0  0  0  0
  146.9708  135.4021  154.7365 N   0  0  0  0  0  0  0  0  0  0  0  0
  146.5649  136.4628  153.9824 C   0  0  0  0  0  0  0  0  0  0  0  0
  146.9837  137.8168  154.1317 C   0  0  0  0  0  0  0  0  0  0  0  0
  146.3490  138.6051  153.1784 N   0  0  0  0  0  0  0  0  0  0  0  0
  145.5888  137.7735  152.5209 C   0  0  0  0  0  0  0  0  0  0  0  0
  145.6761  136.4603  152.9221 N   0  0  0  0  0  0  0  0  0  0  0  0
  144.9395  135.3444  152.4045 C   0  0  0  0  0  0  0  0  0  0  0  0
  145.2350  133.9211  152.8859 C   0  0  0  0  0  0  0  0  0  0  0  0
  144.8545  133.3824  151.4866 C   0  0  0  0  0  0  0  0  0  0  0  0
  145.7137  132.2395  150.9102 C   0  0  0  0  0  0  0  0  0  0  0  0
  147.0971  132.5278  150.9448 O   0  0  0  0  0  0  0  0  0  0  0  0
  143.3795  132.9722  151.3141 C   0  0  0  0  0  0  0  0  0  0  0  0
  143.1032  132.5751  149.9863 O   0  0  0  0  0  0  0  0  0  0  0  0
  145.1759  134.8103  150.9873 C   0  0  0  0  0  0  0  0  0  0  0  0
  152.9013  139.6602  154.9377 H   0  0  0  0  0  0  0  0  0  0  0  0
  152.2457  138.5406  157.4548 H   0  0  0  0  0  0  0  0  0  0  0  0
  152.0089  140.2057  156.9854 H   0  0  0  0  0  0  0  0  0  0  0  0
  150.5927  137.7567  155.9465 H   0  0  0  0  0  0  0  0  0  0  0  0
  151.3946  139.9586  154.1429 H   0  0  0  0  0  0  0  0  0  0  0  0
  150.5707  138.4418  153.7870 H   0  0  0  0  0  0  0  0  0  0  0  0
  148.7563  140.0970  153.4858 H   0  0  0  0  0  0  0  0  0  0  0  0
  150.2670  141.9375  154.7665 H   0  0  0  0  0  0  0  0  0  0  0  0
  148.5147  142.0256  154.9760 H   0  0  0  0  0  0  0  0  0  0  0  0
  150.4217  141.3664  157.0886 H   0  0  0  0  0  0  0  0  0  0  0  0
  148.6688  141.4020  157.1771 H   0  0  0  0  0  0  0  0  0  0  0  0
  149.1447  139.0313  157.4875 H   0  0  0  0  0  0  0  0  0  0  0  0
  148.2324  134.9895  156.2951 H   0  0  0  0  0  0  0  0  0  0  0  0
  144.9466  138.1005  151.7161 H   0  0  0  0  0  0  0  0  0  0  0  0
  143.8863  135.5878  152.5534 H   0  0  0  0  0  0  0  0  0  0  0  0
  146.2879  133.7827  153.1370 H   0  0  0  0  0  0  0  0  0  0  0  0
  144.5971  133.5839  153.7032 H   0  0  0  0  0  0  0  0  0  0  0  0
  145.5593  131.3139  151.4651 H   0  0  0  0  0  0  0  0  0  0  0  0
  145.4416  132.0339  149.8744 H   0  0  0  0  0  0  0  0  0  0  0  0
  147.5639  131.8061  150.5519 H   0  0  0  0  0  0  0  0  0  0  0  0
  143.1174  132.1425  151.9709 H   0  0  0  0  0  0  0  0  0  0  0  0
  142.7114  133.7923  151.5793 H   0  0  0  0  0  0  0  0  0  0  0  0
  142.3780  133.0890  149.6646 H   0  0  0  0  0  0  0  0  0  0  0  0
  144.4844  135.2009  150.2401 H   0  0  0  0  0  0  0  0  0  0  0  0
  146.2091  134.9388  150.6615 H   0  0  0  0  0  0  0  0  0  0  0  0
  1  2  1  0  0  0  0
  1 27  1  0  0  0  0
  2  3  1  0  0  0  0
  2 28  1  0  0  0  0
  2 29  1  0  0  0  0
  3  8  1  0  0  0  0
  3  4  1  0  0  0  0
  3 30  1  0  0  0  0
  4  5  1  0  0  0  0
  4 31  1  0  0  0  0
  4 32  1  0  0  0  0
  5  9  1  0  0  0  0
  5  6  1  0  0  0  0
  5 33  1  0  0  0  0
  6  7  1  0  0  0  0
  6 34  1  0  0  0  0
  6 35  1  0  0  0  0
  7  8  1  0  0  0  0
  7 36  1  0  0  0  0
  7 37  1  0  0  0  0
  8  9  1  0  0  0  0
  8 38  1  0  0  0  0
  9 10  1  0  0  0  0
 10 15  1  0  0  0  0
 10 11  2  0  0  0  0
 11 12  1  0  0  0  0
 12 13  2  0  0  0  0
 12 39  1  0  0  0  0
 13 14  1  0  0  0  0
 14 18  1  0  0  0  0
 14 15  2  0  0  0  0
 15 16  1  0  0  0  0
 16 17  2  0  0  0  0
 17 18  1  0  0  0  0
 17 40  1  0  0  0  0
 18 19  1  0  0  0  0
 19 26  1  0  0  0  0
 19 20  1  0  0  0  0
 19 41  1  0  0  0  0
 20 21  1  0  0  0  0
 20 42  1  0  0  0  0
 20 43  1  0  0  0  0
 21 22  1  0  0  0  0
 21 24  1  0  0  0  0
 21 26  1  0  0  0  0
 22 23  1  0  0  0  0
 22 44  1  0  0  0  0
 22 45  1  0  0  0  0
 23 46  1  0  0  0  0
 24 25  1  0  0  0  0
 24 47  1  0  0  0  0
 24 48  1  0  0  0  0
 25 49  1  0  0  0  0
 26 50  1  0  0  0  0
 26 51  1  0  0  0  0
M  END
> <s_m_source_file>
AV-unprocessed.smi

> <i_m_source_file_index>
167

> <i_lp_mmshare_version>
43012

> <i_f3d_flags>
0

> <s_epik_input>
W09IXVtDSDJdW0NASF0oW0NIMl1bQ0BASF0xMilbQ0BIXShbQ0gyXVtDSDJdMSlOMmMobltjSF1uMyljKGMzNCluW2NIXW40W0NIXShbQ0gyXTUpW0NIMl1DNShbQ0gyXVtPSF0pW0NIMl1bT0hd

> <s_epik_cmdline>
J2VwaWtfcHl0aG9uJywgJy1waCcsICc3LjAnLCAnLXRuJywgJzgnLCAnLW1hJywgJzIwMCcsICctbWV0YWxfYmluZGluZycsICctaW1hZScsICc8aW5maWxlLm1hZT4nLCAnLW9tYWUnLCAnPG91dGZpbGUubWFlPic=

> <r_lp_tautomer_probability>
1

> <r_epik_Ionization_Penalty>
0.0047903

> <r_epik_Ionization_Penalty_Charging>
0

> <r_epik_Ionization_Penalty_Neutral>
0.0047903

> <r_epik_State_Penalty>
0.00341021

> <r_epik_Charging_Adjusted_Penalty>
0.00341021

> <i_epik_Tot_Q>
0

> <i_epik_Tot_abs_Q>
0

> <r_epik_Metal_State_Penalty>
-0

> <b_epik_Metal_Only>
0

> <s_lp_Force_Field>
OPLS_2005

> <r_lp_Energy>
89.3367

> <b_lp_Chiralities_Consistent>
1

> <s_lp_Variant>
AV-unprocessed.smi:167-3

> <Gold.Version>
5.8.1

> <Gold.Id.Protein>
6NUR|6NUR_protein|mol2

> <Gold.PLP.Fitness>
45.5892

> <Gold.PLP.PLP>
-33.0728

> <Gold.PLP.part.hbond>
-3.3474

> <Gold.PLP.part.metal>
0.0000

> <Gold.PLP.part.buried>
-5.2562

> <Gold.PLP.part.nonpolar>
-25.3735

> <Gold.PLP.part.repulsive>
0.4021

> <Gold.PLP.ligand.clash>
0.0000

> <Gold.PLP.ligand.torsion>
0.5700

> <Gold.PLP.Chemscore.Hbond>
2.9920

> <Gold.PLP.Chemscore.CHOScore>
1.4016

> <Gold.PLP.Chemscore.Metal>
0.0000

> <Gold.Chemscore.Hbonds>
donor molecule, donor type, donor heavy atom, donor atom, acceptor molecule, acceptor atom, score
      L1  H    23    46       P1 10747  1.00
      L1  H    25    49       P1 10186  1.00
      P1  H  7997  8010       L1     1  0.75
      L1  C    17    40       P1 10171  1.00
      L1  C    17    40       P1 10175  0.25

> <Gold.PLP.Chemscore.Internal.Correction>
0.4756

> <Gold.Rescore>
     Score         DG    S(hbond)    S(metal)    S(lipo)     H(rot)  DE(clash)    DE(int)     intcor
      7.79     -10.68       2.07        0.00      77.44       4.20       0.06       2.82       ----

> <Gold.Chemscore.Fitness>
7.7924

> <Gold.Chemscore.DG>
-10.6784

> <Gold.Chemscore.ZeroCoef>
-5.4800

> <Gold.Chemscore.Hbond>
2.0659

> <Gold.Chemscore.Metal>
0.0000

> <Gold.Chemscore.Lipo>
77.4356

> <Gold.Chemscore.Internal_Hbond>
0.0000

> <Gold.Chemscore.DEClash>
0.0641

> <Gold.Chemscore.DEInternal>
2.8219

> <Gold.Chemscore.Rot>
4.2038

> <Gold.Chemscore.Internal.Correction>
   9.000000E+99

> <Gold.Chemscore.Hbonds>
donor molecule, donor type, donor heavy atom, donor atom, acceptor molecule, acceptor atom, score
      L1  H    23    46       P1 10747  0.97
      L1  H    25    49       P1 10186  1.00
      P1  H  7997  8010       L1     1  0.05

> <Gold.Chemscore.Hbond.Weighted>
-6.9001

> <Gold.Chemscore.Metal.Weighted>
-0.0000

> <Gold.Chemscore.Lipo.Weighted>
-9.0600

> <Gold.Chemscore.Internal_Hbond.Weighted>
0.0000

> <Gold.Chemscore.DEClash.Weighted>
0.0641

> <Gold.Chemscore.DEInternal.Weighted>
2.8219

> <Gold.Chemscore.Rot.Weighted>
10.7617

> <Gold.Chemscore.Internal.Correction.Weighted>
   9.000000E+99

> <Gold.Protein.RotatedTorsions>
[ 6907 6896 6895 6894 ] final -147.95 input  -60.11 | X-H torsion
[ 7974 7965 7964 7962 ] final  -29.71 input  175.53 | X-H torsion
[ 8008 7997 7996 7995 ] final   76.96 input   59.86 | X-H torsion
[ 10167 10162 10161 10158 ] final  -79.11 input  -65.29 | X-H torsion
[ 10718 10713 10712 10709 ] final   -5.31 input   66.30 | X-H torsion
[ 10763 10752 10751 10750 ] final  -72.75 input  -60.55 | X-H torsion
[ 11005 11000 10999 10996 ] final   38.40 input  -57.11 | X-H torsion

> <Gold.Protein.ActiveResidues>
 VAL166  LYS551  ARG553  GLY616  TRP617  ASP618  TYR619  PRO620  LYS621  CYS622 
 ASP623  PHE694  ASN695  SER759  ASP760  ASP761  ALA762  ILE779  LEU786  VAL792 
 PHE793  MET794  SER795  GLU796  ALA797  LYS798  CYS799  TRP800  GLU811  SER814 

> <Gold.Protein.RotatedAtoms>
  151.1629  133.4833  159.2593 H   0  0  0  0  0  0  0  0  0  0  0  0  # atno 6907 bound_to 6896
  151.1435  135.0191  159.8646 H   0  0  0  0  0  0  0  0  0  0  0  0  # atno 6908 bound_to 6896
  152.5463  134.1520  159.8576 H   0  0  0  0  0  0  0  0  0  0  0  0  # atno 6909 bound_to 6896
  146.1197  140.5447  142.8741 H   0  0  0  0  0  0  0  0  0  0  0  0  # atno 7974 bound_to 7965
  155.8348  140.3464  155.5595 H   0  0  0  0  0  0  0  0  0  0  0  0  # atno 8008 bound_to 7997
  155.8203  140.0912  157.1872 H   0  0  0  0  0  0  0  0  0  0  0  0  # atno 8009 bound_to 7997
  154.4004  140.1431  156.3480 H   0  0  0  0  0  0  0  0  0  0  0  0  # atno 8010 bound_to 7997
  140.4623  143.2450  151.8331 H   0  0  0  0  0  0  0  0  0  0  0  0  # atno 10167 bound_to 10162
  156.7485  130.5232  149.5809 H   0  0  0  0  0  0  0  0  0  0  0  0  # atno 10718 bound_to 10713
  154.4500  135.5920  153.6185 H   0  0  0  0  0  0  0  0  0  0  0  0  # atno 10763 bound_to 10752
  152.9812  135.6018  154.3617 H   0  0  0  0  0  0  0  0  0  0  0  0  # atno 10764 bound_to 10752
  154.3477  135.2841  155.2368 H   0  0  0  0  0  0  0  0  0  0  0  0  # atno 10765 bound_to 10752
  140.2130  134.3733  155.8040 H   0  0  0  0  0  0  0  0  0  0  0  0  # atno 11005 bound_to 11000
  144.7585  140.5366  143.6752 LP  0  0  0  0  0  0  0  0  0  0  0  0  # atno 17320 bound_to 7965
  145.5492  139.1476  143.3403 LP  0  0  0  0  0  0  0  0  0  0  0  0  # atno 17321 bound_to 7965
  139.4807  144.4993  151.9081 LP  0  0  0  0  0  0  0  0  0  0  0  0  # atno 17342 bound_to 10162
  140.4079  144.2408  150.5890 LP  0  0  0  0  0  0  0  0  0  0  0  0  # atno 17343 bound_to 10162
  156.1417  130.6249  151.0476 LP  0  0  0  0  0  0  0  0  0  0  0  0  # atno 17370 bound_to 10713
  157.6787  131.0843  150.7426 LP  0  0  0  0  0  0  0  0  0  0  0  0  # atno 17371 bound_to 10713
  141.2225  133.7153  156.8449 LP  0  0  0  0  0  0  0  0  0  0  0  0  # atno 17394 bound_to 11000
  140.1931  134.8951  157.3083 LP  0  0  0  0  0  0  0  0  0  0  0  0  # atno 17395 bound_to 11000

$$$$
