#       Name:                AV-unprocessed.smi:177
#       Creating user name   scv26
#       Creation time:       Thu Mar 26 19:23:16 2020


#       File generated by GOLD software.
#

@<TRIPOS>MOLECULE
AV-unprocessed.smi:177
    73    77     1
SMALL
NO_CHARGES


@<TRIPOS>ATOM
      1 ****        -0.9501  -1.3684   3.6542 C.3            1 S1                 0.0000
      2 ****        -2.3245  -1.4407   3.3066 O.3            1 S1                 0.0000
      3 ****        -3.0337  -0.2099   3.4112 C.3            1 S1                 0.0000
      4 ****        -4.5390  -0.5346   3.4303 C.3            1 S1                 0.0000
      5 ****        -5.0283  -1.0799   2.0774 C.3            1 S1                 0.0000
      6 ****        -4.6751  -0.1186   0.9321 C.3            1 S1                 0.0000
      7 ****        -5.0920  -0.6919  -0.3029 O.3            1 S1                 0.0000
      8 ****        -4.8613   0.1856  -1.3999 C.3            1 S1                 0.0000
      9 ****        -3.3569   0.4784  -1.5165 C.3            1 S1                 0.0000
     10 ****        -2.8426   1.0073  -0.2582 N.3            1 S1                 0.0000
     11 ****        -1.5611   1.4196  -0.3917 C.ar           1 S1                 0.0000
     12 ****        -1.3671   2.7353  -0.6542 N.ar           1 S1                 0.0000
     13 ****        -0.1271   3.2154  -0.7850 C.ar           1 S1                 0.0000
     14 ****         1.0338   2.5629  -0.6996 N.ar           1 S1                 0.0000
     15 ****         0.8432   1.2344  -0.4559 C.ar           1 S1                 0.0000
     16 ****        -0.4118   0.5832  -0.2887 C.ar           1 S1                 0.0000
     17 ****        -0.2117  -0.7709  -0.0517 N.2            1 S1                 0.0000
     18 ****         1.0849  -0.9095  -0.0622 C.2            1 S1                 0.0000
     19 ****         1.7982   0.2403  -0.3179 N.pl3          1 S1                 0.0000
     20 ****         3.2482   0.3663  -0.3846 C.3            1 S1                 0.0000
     21 ****         3.8746   0.0960  -1.7904 C.3            1 S1                 0.0000
     22 ****         3.3475   1.1199  -2.8303 C.3            1 S1                 0.0000
     23 ****         3.6850   2.4500  -2.4899 O.3            1 S1                 0.0000
     24 ****         5.4198   0.1873  -1.7147 C.3            1 S1                 0.0000
     25 ****         6.0560  -1.0000  -0.9667 C.3            1 S1                 0.0000
     26 ****         5.6566  -2.2276  -1.5628 O.3            1 S1                 0.0000
     27 ****         4.2504  -2.4320  -1.5201 C.3            1 S1                 0.0000
     28 ****         3.5413  -1.3232  -2.3174 C.3            1 S1                 0.0000
     29 ****        -3.1532   0.1481   0.8878 C.3            1 S1                 0.0000
     30 ****        -2.6983   0.7412   2.2422 C.3            1 S1                 0.0000
     31 ****        -0.5152  -2.3665   3.6071 H              1 S1                 0.0000
     32 ****        -0.8166  -0.9948   4.6700 H              1 S1                 0.0000
     33 ****        -0.3864  -0.7352   2.9698 H              1 S1                 0.0000
     34 ****        -2.7775   0.2688   4.3578 H              1 S1                 0.0000
     35 ****        -4.7573  -1.2512   4.2226 H              1 S1                 0.0000
     36 ****        -5.0983   0.3697   3.6737 H              1 S1                 0.0000
     37 ****        -4.5779  -2.0557   1.8907 H              1 S1                 0.0000
     38 ****        -6.1065  -1.2386   2.1108 H              1 S1                 0.0000
     39 ****        -5.2125   0.8195   1.0858 H              1 S1                 0.0000
     40 ****        -5.2252  -0.2845  -2.3135 H              1 S1                 0.0000
     41 ****        -5.4280   1.1087  -1.2687 H              1 S1                 0.0000
     42 ****        -2.8192  -0.4361  -1.7724 H              1 S1                 0.0000
     43 ****        -3.1820   1.1909  -2.3242 H              1 S1                 0.0000
     44 ****        -0.0543   4.2740  -0.9859 H              1 S1                 0.0000
     45 ****         1.5581  -1.8648   0.1105 H              1 S1                 0.0000
     46 ****         3.5152   1.3660  -0.0399 H              1 S1                 0.0000
     47 ****         3.6609  -0.3093   0.3630 H              1 S1                 0.0000
     48 ****         3.7650   0.9159  -3.8170 H              1 S1                 0.0000
     49 ****         2.2651   1.0479  -2.9379 H              1 S1                 0.0000
     50 ****         3.3114   3.0304  -3.1354 H              1 S1                 0.0000
     51 ****         5.8323   0.2108  -2.7244 H              1 S1                 0.0000
     52 ****         5.7259   1.1218  -1.2428 H              1 S1                 0.0000
     53 ****         7.1426  -0.9283  -1.0181 H              1 S1                 0.0000
     54 ****         5.7974  -0.9947   0.0924 H              1 S1                 0.0000
     55 ****         4.0282  -3.4043  -1.9599 H              1 S1                 0.0000
     56 ****         3.9054  -2.4705  -0.4867 H              1 S1                 0.0000
     57 ****         2.4663  -1.4976  -2.3357 H              1 S1                 0.0000
     58 ****         3.8632  -1.4077  -3.3566 H              1 S1                 0.0000
     59 ****        -2.6564  -0.8106   0.7394 H              1 S1                 0.0000
     60 ****        -3.1982   1.6973   2.4025 H              1 S1                 0.0000
     61 ****        -1.6332   0.9663   2.2415 H              1 S1                 0.0000
     62 ****        -2.7636  -2.1050   3.9115 LP             1 S1                 0.0000
     63 ****        -2.3896  -1.7576   2.3604 LP             1 S1                 0.0000
     64 ****        -6.0698  -0.8950  -0.2514 LP             1 S1                 0.0000
     65 ****        -4.5831  -1.5394  -0.4541 LP             1 S1                 0.0000
     66 ****        -3.3394   1.8433  -0.0253 LP             1 S1                 0.0000
     67 ****        -2.1524   3.3468  -0.7500 LP             1 S1                 0.0000
     68 ****         1.9306   2.9936  -0.8014 LP             1 S1                 0.0000
     69 ****        -0.9038  -1.4779   0.0937 LP             1 S1                 0.0000
     70 ****         4.6796   2.5531  -2.4796 LP             1 S1                 0.0000
     71 ****         3.3177   2.6700  -1.5862 LP             1 S1                 0.0000
     72 ****         6.1031  -2.9786  -1.0763 LP             1 S1                 0.0000
     73 ****         5.9502  -2.2285  -2.5187 LP             1 S1                 0.0000
@<TRIPOS>BOND
    1    1    2 1     
    2    1   31 1     
    3    1   32 1     
    4    1   33 1     
    5    2    3 1     
    6    3   30 1     
    7    3    4 1     
    8    3   34 1     
    9    4    5 1     
   10    4   35 1     
   11    4   36 1     
   12    5    6 1     
   13    5   37 1     
   14    5   38 1     
   15    6   29 1     
   16    6    7 1     
   17    6   39 1     
   18    7    8 1     
   19    8    9 1     
   20    8   40 1     
   21    8   41 1     
   22    9   10 1     
   23    9   42 1     
   24    9   43 1     
   25   10   11 1     
   26   10   29 1     
   27   11   16 ar    
   28   11   12 ar    
   29   12   13 ar    
   30   13   14 ar    
   31   13   44 1     
   32   14   15 ar    
   33   15   19 1     
   34   15   16 ar    
   35   16   17 1     
   36   17   18 2     
   37   18   19 1     
   38   18   45 1     
   39   19   20 1     
   40   20   21 1     
   41   20   46 1     
   42   20   47 1     
   43   21   28 1     
   44   21   22 1     
   45   21   24 1     
   46   22   23 1     
   47   22   48 1     
   48   22   49 1     
   49   23   50 1     
   50   24   25 1     
   51   24   51 1     
   52   24   52 1     
   53   25   26 1     
   54   25   53 1     
   55   25   54 1     
   56   26   27 1     
   57   27   28 1     
   58   27   55 1     
   59   27   56 1     
   60   28   57 1     
   61   28   58 1     
   62   29   30 1     
   63   29   59 1     
   64   30   60 1     
   65   30   61 1     
   66    2   62 1     
   67    2   63 1     
   68    7   64 1     
   69    7   65 1     
   70   10   66 1     
   71   12   67 1     
   72   14   68 1     
   73   17   69 1     
   74   23   70 1     
   75   23   71 1     
   76   26   72 1     
   77   26   73 1     
@<TRIPOS>SUBSTRUCTURE
      1 S1             1
@<TRIPOS>SET
LONE_PAIRS      STATIC     ATOMS    <user>   **** ""
12 62 63 64 65 66 67 68 69 70 71 72 73
DONOR_HYDROGENS      STATIC     ATOMS    <user>   **** ""
1 50
ATOM$BLUE        STATIC     ATOMS    COLORGROUP SYSTEM
12 62 63 64 65 66 67 68 69 70 71 72 73
ATOM$RED        STATIC     ATOMS    COLORGROUP SYSTEM
1 50
