AV-unprocessed.smi:2177|AV-procd|sdf|8850|dock9
  -GOLD-   2272012 43D 1   1.00000     0.00000
 Structure written by MMmdl.
 42 43  0  0  0  0  0  0  0  0  1 V2000
  152.7839  138.1079  155.8433 C   0  0  0  0  0  0  0  0  0  0  0  0
  151.8661  139.2949  155.7782 C   0  0  0  0  0  0  0  0  0  0  0  0
  152.1949  140.4075  156.4134 N   0  0  0  0  0  0  0  0  0  0  0  0
  151.1757  141.2560  156.1716 N   0  0  0  0  0  0  0  0  0  0  0  0
  151.2145  142.5902  156.7384 C   0  0  0  0  0  0  0  0  0  0  0  0
  150.2057  140.6816  155.3734 C   0  0  0  0  0  0  0  0  0  0  0  0
  148.9705  141.4188  154.9655 C   0  0  0  0  0  0  0  0  0  0  0  0
  150.6178  139.4042  155.0986 C   0  0  0  0  0  0  0  0  0  0  0  0
  149.9258  138.3389  154.2846 C   0  0  0  0  0  0  0  0  0  0  0  0
  149.3172  137.2975  155.2231 C   0  0  0  0  0  0  0  0  0  0  0  0
  149.1528  137.5592  156.4143 O   0  0  0  0  0  0  0  0  0  0  0  0
  148.9745  136.1273  154.6641 N   0  0  0  0  0  0  0  0  0  0  0  0
  148.2744  135.0345  155.3298 C   0  0  2  0  0  0  0  0  0  0  0  0
  149.0558  134.6013  156.5815 C   0  0  0  0  0  0  0  0  0  0  0  0
  148.0942  133.8838  154.3221 C   0  0  1  0  0  0  0  0  0  0  0  0
  149.3718  133.1127  153.9886 C   0  0  0  0  0  0  0  0  0  0  0  0
  148.8634  131.7437  153.5627 C   0  0  0  0  0  0  0  0  0  0  0  0
  147.4108  131.7155  154.0463 C   0  0  0  0  0  0  0  0  0  0  0  0
  147.2727  132.8638  154.8701 O   0  0  0  0  0  0  0  0  0  0  0  0
  152.2404  137.2123  156.1450 H   0  0  0  0  0  0  0  0  0  0  0  0
  153.5924  138.2593  156.5592 H   0  0  0  0  0  0  0  0  0  0  0  0
  153.2340  137.9107  154.8704 H   0  0  0  0  0  0  0  0  0  0  0  0
  151.4854  143.3074  155.9635 H   0  0  0  0  0  0  0  0  0  0  0  0
  151.9482  142.6434  157.5440 H   0  0  0  0  0  0  0  0  0  0  0  0
  150.2353  142.8507  157.1406 H   0  0  0  0  0  0  0  0  0  0  0  0
  148.4398  140.8933  154.1721 H   0  0  0  0  0  0  0  0  0  0  0  0
  149.2136  142.4157  154.5977 H   0  0  0  0  0  0  0  0  0  0  0  0
  148.2895  141.5248  155.8101 H   0  0  0  0  0  0  0  0  0  0  0  0
  149.1400  138.7586  153.6556 H   0  0  0  0  0  0  0  0  0  0  0  0
  150.6210  137.8436  153.6058 H   0  0  0  0  0  0  0  0  0  0  0  0
  149.1515  136.0118  153.6770 H   0  0  0  0  0  0  0  0  0  0  0  0
  147.2852  135.3799  155.6361 H   0  0  0  0  0  0  0  0  0  0  0  0
  148.5367  133.8067  157.1176 H   0  0  0  0  0  0  0  0  0  0  0  0
  149.1792  135.4325  157.2766 H   0  0  0  0  0  0  0  0  0  0  0  0
  150.0495  134.2341  156.3223 H   0  0  0  0  0  0  0  0  0  0  0  0
  147.6309  134.2501  153.4036 H   0  0  0  0  0  0  0  0  0  0  0  0
  149.9683  133.6002  153.2169 H   0  0  0  0  0  0  0  0  0  0  0  0
  149.9937  133.0088  154.8788 H   0  0  0  0  0  0  0  0  0  0  0  0
  148.9097  131.6181  152.4805 H   0  0  0  0  0  0  0  0  0  0  0  0
  149.4559  130.9499  154.0186 H   0  0  0  0  0  0  0  0  0  0  0  0
  146.7237  131.7956  153.2028 H   0  0  0  0  0  0  0  0  0  0  0  0
  147.1694  130.8064  154.5973 H   0  0  0  0  0  0  0  0  0  0  0  0
  1  2  1  0  0  0  0
  1 20  1  0  0  0  0
  1 21  1  0  0  0  0
  1 22  1  0  0  0  0
  2  8  1  0  0  0  0
  2  3  2  0  0  0  0
  3  4  1  0  0  0  0
  4  5  1  0  0  0  0
  4  6  1  0  0  0  0
  5 23  1  0  0  0  0
  5 24  1  0  0  0  0
  5 25  1  0  0  0  0
  6  7  1  0  0  0  0
  6  8  2  0  0  0  0
  7 26  1  0  0  0  0
  7 27  1  0  0  0  0
  7 28  1  0  0  0  0
  8  9  1  0  0  0  0
  9 10  1  0  0  0  0
  9 29  1  0  0  0  0
  9 30  1  0  0  0  0
 10 11  2  0  0  0  0
 10 12  1  0  0  0  0
 12 13  1  0  0  0  0
 12 31  1  0  0  0  0
 13 14  1  0  0  0  0
 13 15  1  0  0  0  0
 13 32  1  0  0  0  0
 14 33  1  0  0  0  0
 14 34  1  0  0  0  0
 14 35  1  0  0  0  0
 15 19  1  0  0  0  0
 15 16  1  0  0  0  0
 15 36  1  0  0  0  0
 16 17  1  0  0  0  0
 16 37  1  0  0  0  0
 16 38  1  0  0  0  0
 17 18  1  0  0  0  0
 17 39  1  0  0  0  0
 17 40  1  0  0  0  0
 18 19  1  0  0  0  0
 18 41  1  0  0  0  0
 18 42  1  0  0  0  0
M  END
> <s_m_source_file>
AV-unprocessed.smi

> <i_m_source_file_index>
2177

> <i_lp_mmshare_version>
43012

> <i_f3d_flags>
0

> <s_epik_input>
W0NIM11jMW5uKFtDSDNdKWMoW0NIM10pYzFbQ0gyXUMoPU8pW05IXVtDQEhdKFtDSDNdKVtDQEBIXTJbQ0gyXVtDSDJdW0NIMl1PMg==

> <s_epik_cmdline>
J2VwaWtfcHl0aG9uJywgJy1waCcsICc3LjAnLCAnLXRuJywgJzgnLCAnLW1hJywgJzIwMCcsICctbWV0YWxfYmluZGluZycsICctaW1hZScsICc8aW5maWxlLm1hZT4nLCAnLW9tYWUnLCAnPG91dGZpbGUubWFlPic=

> <r_lp_tautomer_probability>
1

> <r_epik_Ionization_Penalty>
0.00310467

> <r_epik_Ionization_Penalty_Charging>
0

> <r_epik_Ionization_Penalty_Neutral>
0.00310467

> <r_epik_State_Penalty>
0.00218493

> <r_epik_Charging_Adjusted_Penalty>
0.00218493

> <i_epik_Tot_Q>
0

> <i_epik_Tot_abs_Q>
0

> <r_epik_Metal_State_Penalty>
-0

> <b_epik_Metal_Only>
0

> <s_lp_Force_Field>
OPLS_2005

> <r_lp_Energy>
12.0116

> <b_lp_Chiralities_Consistent>
1

> <s_lp_Variant>
AV-unprocessed.smi:2177-3

> <Gold.Version>
5.8.1

> <Gold.Id.Protein>
6NUR|6NUR_protein|mol2

> <Gold.PLP.Fitness>
33.4887

> <Gold.PLP.PLP>
-28.7738

> <Gold.PLP.part.hbond>
-2.0000

> <Gold.PLP.part.metal>
0.0000

> <Gold.PLP.part.buried>
-2.1607

> <Gold.PLP.part.nonpolar>
-24.9464

> <Gold.PLP.part.repulsive>
0.0244

> <Gold.PLP.ligand.clash>
0.0000

> <Gold.PLP.ligand.torsion>
0.5129

> <Gold.PLP.Chemscore.Hbond>
1.9040

> <Gold.PLP.Chemscore.CHOScore>
0.0000

> <Gold.PLP.Chemscore.Metal>
0.0000

> <Gold.Chemscore.Hbonds>
donor molecule, donor type, donor heavy atom, donor atom, acceptor molecule, acceptor atom, score
      L1  H    12    31       P1  7948  1.00
      P1  H  7997  8009       L1     3  0.62

> <Gold.PLP.Chemscore.Internal.Correction>
0.0285

> <Gold.Rescore>
     Score         DG    S(hbond)    S(metal)    S(lipo)     H(rot)  DE(clash)    DE(int)     intcor
     13.99     -15.55       1.62        0.00      71.93       1.46       0.14       1.42       ----

> <Gold.Chemscore.Fitness>
13.9869

> <Gold.Chemscore.DG>
-15.5492

> <Gold.Chemscore.ZeroCoef>
-5.4800

> <Gold.Chemscore.Hbond>
1.6160

> <Gold.Chemscore.Metal>
0.0000

> <Gold.Chemscore.Lipo>
71.9342

> <Gold.Chemscore.Internal_Hbond>
0.0000

> <Gold.Chemscore.DEClash>
0.1388

> <Gold.Chemscore.DEInternal>
1.4235

> <Gold.Chemscore.Rot>
1.4627

> <Gold.Chemscore.Internal.Correction>
   9.000000E+99

> <Gold.Chemscore.Hbonds>
donor molecule, donor type, donor heavy atom, donor atom, acceptor molecule, acceptor atom, score
      L1  H    12    31       P1  7948  0.88
      P1  H  7997  8009       L1     3  0.13

> <Gold.Chemscore.Hbond.Weighted>
-5.3973

> <Gold.Chemscore.Metal.Weighted>
-0.0000

> <Gold.Chemscore.Lipo.Weighted>
-8.4163

> <Gold.Chemscore.Internal_Hbond.Weighted>
0.0000

> <Gold.Chemscore.DEClash.Weighted>
0.1388

> <Gold.Chemscore.DEInternal.Weighted>
1.4235

> <Gold.Chemscore.Rot.Weighted>
3.7445

> <Gold.Chemscore.Internal.Correction.Weighted>
   9.000000E+99

> <Gold.Protein.RotatedTorsions>
[ 6907 6896 6895 6894 ] final   -4.64 input  -60.11 | X-H torsion
[ 7974 7965 7964 7962 ] final   68.71 input  175.53 | X-H torsion
[ 8008 7997 7996 7995 ] final -171.27 input   59.86 | X-H torsion
[ 10167 10162 10161 10158 ] final   88.69 input  -65.29 | X-H torsion
[ 10718 10713 10712 10709 ] final  -91.91 input   66.30 | X-H torsion
[ 10763 10752 10751 10750 ] final  -43.91 input  -60.55 | X-H torsion
[ 11005 11000 10999 10996 ] final  106.61 input  -57.11 | X-H torsion

> <Gold.Protein.ActiveResidues>
 VAL166  LYS551  ARG553  GLY616  TRP617  ASP618  TYR619  PRO620  LYS621  CYS622 
 ASP623  PHE694  ASN695  SER759  ASP760  ASP761  ALA762  ILE779  LEU786  VAL792 
 PHE793  MET794  SER795  GLU796  ALA797  LYS798  CYS799  TRP800  GLU811  SER814 

> <Gold.Protein.RotatedAtoms>
  151.4943  135.1059  159.9811 H   0  0  0  0  0  0  0  0  0  0  0  0  # atno 6907 bound_to 6896
  152.4728  133.8064  159.6991 H   0  0  0  0  0  0  0  0  0  0  0  0  # atno 6908 bound_to 6896
  150.8747  133.7393  159.2976 H   0  0  0  0  0  0  0  0  0  0  0  0  # atno 6909 bound_to 6896
  145.7992  139.2973  143.1164 H   0  0  0  0  0  0  0  0  0  0  0  0  # atno 7974 bound_to 7965
  155.9294  140.1088  157.1144 H   0  0  0  0  0  0  0  0  0  0  0  0  # atno 8008 bound_to 7997
  154.4068  140.1240  156.4848 H   0  0  0  0  0  0  0  0  0  0  0  0  # atno 8009 bound_to 7997
  155.7099  140.3471  155.4971 H   0  0  0  0  0  0  0  0  0  0  0  0  # atno 8010 bound_to 7997
  139.8647  144.6525  150.9017 H   0  0  0  0  0  0  0  0  0  0  0  0  # atno 10167 bound_to 10162
  155.9997  130.4966  150.5546 H   0  0  0  0  0  0  0  0  0  0  0  0  # atno 10718 bound_to 10713
  154.0034  135.6690  153.4760 H   0  0  0  0  0  0  0  0  0  0  0  0  # atno 10763 bound_to 10752
  153.0652  135.5005  154.8180 H   0  0  0  0  0  0  0  0  0  0  0  0  # atno 10764 bound_to 10752
  154.7039  135.3084  154.9263 H   0  0  0  0  0  0  0  0  0  0  0  0  # atno 10765 bound_to 10752
  139.8816  134.9374  156.5693 H   0  0  0  0  0  0  0  0  0  0  0  0  # atno 11005 bound_to 11000
  145.9895  140.8614  143.0073 LP  0  0  0  0  0  0  0  0  0  0  0  0  # atno 17320 bound_to 7965
  144.6771  140.2195  143.7368 LP  0  0  0  0  0  0  0  0  0  0  0  0  # atno 17321 bound_to 7965
  140.7770  143.3714  151.1642 LP  0  0  0  0  0  0  0  0  0  0  0  0  # atno 17342 bound_to 10162
  139.7340  143.9028  152.3029 LP  0  0  0  0  0  0  0  0  0  0  0  0  # atno 17343 bound_to 10162
  157.3464  131.0726  151.1748 LP  0  0  0  0  0  0  0  0  0  0  0  0  # atno 17370 bound_to 10713
  157.2579  130.6645  149.5961 LP  0  0  0  0  0  0  0  0  0  0  0  0  # atno 17371 bound_to 10713
  140.8111  133.8429  155.8810 LP  0  0  0  0  0  0  0  0  0  0  0  0  # atno 17394 bound_to 11000
  140.9506  134.1784  157.4731 LP  0  0  0  0  0  0  0  0  0  0  0  0  # atno 17395 bound_to 11000

$$$$
