AV-unprocessed.smi:1584|AV-procd|sdf|6367|dock3
  -GOLD-   22720 6593D 1   1.00000     0.00000
 Structure written by MMmdl.
 39 40  0  0  0  0  0  0  0  0  1 V2000
  148.0372  135.2060  156.3488 C   0  0  0  0  0  0  0  0  0  0  0  0
  147.3274  135.6737  155.0676 C   0  0  2  0  0  0  0  0  0  0  0  0
  147.0419  134.5248  154.0753 C   0  0  0  0  0  0  0  0  0  0  0  0
  146.2923  134.9624  152.9115 N   0  0  0  0  0  0  0  0  0  0  0  0
  145.9165  134.2218  151.8108 C   0  0  0  0  0  0  0  0  0  0  0  0
  145.2284  135.0549  150.9761 C   0  0  0  0  0  0  0  0  0  0  0  0
  145.2331  136.3009  151.6634 C   0  0  0  0  0  0  0  0  0  0  0  0
  145.8689  136.2421  152.8224 N   0  0  0  0  0  0  0  0  0  0  0  0
  148.1349  136.7063  154.4243 N   0  0  0  0  0  0  0  0  0  0  0  0
  148.7222  137.7377  155.0516 C   0  0  0  0  0  0  0  0  0  0  0  0
  148.6403  137.9199  156.2667 O   0  0  0  0  0  0  0  0  0  0  0  0
  149.5327  138.7047  154.1707 C   0  0  1  0  0  0  0  0  0  0  0  0
  149.0041  140.1451  154.2231 C   0  0  0  0  0  0  0  0  0  0  0  0
  149.3494  140.8360  155.5492 C   0  0  0  0  0  0  0  0  0  0  0  0
  150.7578  140.6792  155.9325 N   0  0  0  0  0  0  0  0  0  0  0  0
  151.2486  141.6645  156.8981 C   0  0  0  0  0  0  0  0  0  0  0  0
  151.5670  139.6819  155.5002 C   0  0  0  0  0  0  0  0  0  0  0  0
  152.7326  139.5708  155.8812 O   0  0  0  0  0  0  0  0  0  0  0  0
  151.0459  138.6492  154.4823 C   0  0  0  0  0  0  0  0  0  0  0  0
  147.4241  134.5015  156.9111 H   0  0  0  0  0  0  0  0  0  0  0  0
  148.2487  136.0475  157.0097 H   0  0  0  0  0  0  0  0  0  0  0  0
  148.9837  134.7151  156.1206 H   0  0  0  0  0  0  0  0  0  0  0  0
  146.3763  136.1175  155.3680 H   0  0  0  0  0  0  0  0  0  0  0  0
  147.9759  134.0857  153.7227 H   0  0  0  0  0  0  0  0  0  0  0  0
  146.4915  133.7234  154.5714 H   0  0  0  0  0  0  0  0  0  0  0  0
  146.1693  133.1760  151.7149 H   0  0  0  0  0  0  0  0  0  0  0  0
  144.7880  134.8113  150.0206 H   0  0  0  0  0  0  0  0  0  0  0  0
  144.7957  137.2395  151.3565 H   0  0  0  0  0  0  0  0  0  0  0  0
  148.2561  136.6301  153.4246 H   0  0  0  0  0  0  0  0  0  0  0  0
  149.4107  138.3607  153.1421 H   0  0  0  0  0  0  0  0  0  0  0  0
  149.4426  140.7123  153.4009 H   0  0  0  0  0  0  0  0  0  0  0  0
  147.9255  140.1668  154.0614 H   0  0  0  0  0  0  0  0  0  0  0  0
  149.1011  141.8949  155.4649 H   0  0  0  0  0  0  0  0  0  0  0  0
  148.7296  140.4397  156.3542 H   0  0  0  0  0  0  0  0  0  0  0  0
  151.6730  141.1727  157.7748 H   0  0  0  0  0  0  0  0  0  0  0  0
  150.4566  142.3253  157.2524 H   0  0  0  0  0  0  0  0  0  0  0  0
  152.0227  142.2865  156.4466 H   0  0  0  0  0  0  0  0  0  0  0  0
  151.3383  137.6514  154.8140 H   0  0  0  0  0  0  0  0  0  0  0  0
  151.5961  138.8205  153.5564 H   0  0  0  0  0  0  0  0  0  0  0  0
  1  2  1  0  0  0  0
  1 20  1  0  0  0  0
  1 21  1  0  0  0  0
  1 22  1  0  0  0  0
  2  3  1  0  0  0  0
  2  9  1  0  0  0  0
  2 23  1  0  0  0  0
  3  4  1  0  0  0  0
  3 24  1  0  0  0  0
  3 25  1  0  0  0  0
  4  8  1  0  0  0  0
  4  5  1  0  0  0  0
  5  6  2  0  0  0  0
  5 26  1  0  0  0  0
  6  7  1  0  0  0  0
  6 27  1  0  0  0  0
  7  8  2  0  0  0  0
  7 28  1  0  0  0  0
  9 10  1  0  0  0  0
  9 29  1  0  0  0  0
 10 11  2  0  0  0  0
 10 12  1  0  0  0  0
 12 19  1  0  0  0  0
 12 13  1  0  0  0  0
 12 30  1  0  0  0  0
 13 14  1  0  0  0  0
 13 31  1  0  0  0  0
 13 32  1  0  0  0  0
 14 15  1  0  0  0  0
 14 33  1  0  0  0  0
 14 34  1  0  0  0  0
 15 16  1  0  0  0  0
 15 17  1  0  0  0  0
 16 35  1  0  0  0  0
 16 36  1  0  0  0  0
 16 37  1  0  0  0  0
 17 18  2  0  0  0  0
 17 19  1  0  0  0  0
 19 38  1  0  0  0  0
 19 39  1  0  0  0  0
M  END
> <s_m_source_file>
AV-unprocessed.smi

> <i_m_source_file_index>
1584

> <i_lp_mmshare_version>
43012

> <i_f3d_flags>
0

> <s_epik_input>
bjFbY0hdW2NIXVtjSF1uMVtDSDJdW0NAQEhdKFtDSDNdKVtOSF1DKD1PKVtDQEBIXTJbQ0gyXVtDSDJdTihbQ0gzXSlDKD1PKVtDSDJdMg==

> <s_epik_cmdline>
J2VwaWtfcHl0aG9uJywgJy1waCcsICc3LjAnLCAnLXRuJywgJzgnLCAnLW1hJywgJzIwMCcsICctbWV0YWxfYmluZGluZycsICctaW1hZScsICc8aW5maWxlLm1hZT4nLCAnLW9tYWUnLCAnPG91dGZpbGUubWFlPic=

> <r_lp_tautomer_probability>
1

> <r_epik_Ionization_Penalty>
0.000299422

> <r_epik_Ionization_Penalty_Charging>
0

> <r_epik_Ionization_Penalty_Neutral>
0.000299422

> <r_epik_State_Penalty>
-0

> <r_epik_Charging_Adjusted_Penalty>
0

> <i_epik_Tot_Q>
0

> <i_epik_Tot_abs_Q>
0

> <r_epik_Metal_State_Penalty>
-0

> <b_epik_Metal_Only>
0

> <s_lp_Force_Field>
OPLS_2005

> <r_lp_Energy>
12.5002

> <b_lp_Chiralities_Consistent>
1

> <s_lp_Variant>
AV-unprocessed.smi:1584-3

> <Gold.Version>
5.8.1

> <Gold.Id.Protein>
6NUR|6NUR_protein|mol2

> <Gold.PLP.Fitness>
37.9644

> <Gold.PLP.PLP>
-29.3009

> <Gold.PLP.part.hbond>
-2.0000

> <Gold.PLP.part.metal>
0.0000

> <Gold.PLP.part.buried>
-1.0746

> <Gold.PLP.part.nonpolar>
-25.3487

> <Gold.PLP.part.repulsive>
0.1526

> <Gold.PLP.ligand.clash>
0.0000

> <Gold.PLP.ligand.torsion>
0.2042

> <Gold.PLP.Chemscore.Hbond>
2.0000

> <Gold.PLP.Chemscore.CHOScore>
1.0000

> <Gold.PLP.Chemscore.Metal>
0.0000

> <Gold.Chemscore.Hbonds>
donor molecule, donor type, donor heavy atom, donor atom, acceptor molecule, acceptor atom, score
      L1  H     9    29       P1  7948  1.00
      P1  H  7997  8010       L1    18  1.00
      L1  C     7    28       P1 10171  1.00

> <Gold.PLP.Chemscore.Internal.Correction>
0.0718

> <Gold.Rescore>
     Score         DG    S(hbond)    S(metal)    S(lipo)     H(rot)  DE(clash)    DE(int)     intcor
     13.02     -14.48       1.99        0.00      56.67       1.67       0.18       1.28       ----

> <Gold.Chemscore.Fitness>
13.0244

> <Gold.Chemscore.DG>
-14.4826

> <Gold.Chemscore.ZeroCoef>
-5.4800

> <Gold.Chemscore.Hbond>
1.9930

> <Gold.Chemscore.Metal>
0.0000

> <Gold.Chemscore.Lipo>
56.6657

> <Gold.Chemscore.Internal_Hbond>
0.0000

> <Gold.Chemscore.DEClash>
0.1791

> <Gold.Chemscore.DEInternal>
1.2792

> <Gold.Chemscore.Rot>
1.6734

> <Gold.Chemscore.Internal.Correction>
   9.000000E+99

> <Gold.Chemscore.Hbonds>
donor molecule, donor type, donor heavy atom, donor atom, acceptor molecule, acceptor atom, score
      L1  H     9    29       P1  7948  1.00
      P1  H  7997  8010       L1    18  0.98

> <Gold.Chemscore.Hbond.Weighted>
-6.6567

> <Gold.Chemscore.Metal.Weighted>
-0.0000

> <Gold.Chemscore.Lipo.Weighted>
-6.6299

> <Gold.Chemscore.Internal_Hbond.Weighted>
0.0000

> <Gold.Chemscore.DEClash.Weighted>
0.1791

> <Gold.Chemscore.DEInternal.Weighted>
1.2792

> <Gold.Chemscore.Rot.Weighted>
4.2840

> <Gold.Chemscore.Internal.Correction.Weighted>
   9.000000E+99

> <Gold.Protein.RotatedTorsions>
[ 6907 6896 6895 6894 ] final  -67.39 input  -60.11 | X-H torsion
[ 7974 7965 7964 7962 ] final -160.80 input  175.53 | X-H torsion
[ 8008 7997 7996 7995 ] final  102.20 input   59.86 | X-H torsion
[ 10167 10162 10161 10158 ] final   21.25 input  -65.29 | X-H torsion
[ 10718 10713 10712 10709 ] final -175.12 input   66.30 | X-H torsion
[ 10763 10752 10751 10750 ] final   45.12 input  -60.55 | X-H torsion
[ 11005 11000 10999 10996 ] final   55.36 input  -57.11 | X-H torsion

> <Gold.Protein.ActiveResidues>
 VAL166  LYS551  ARG553  GLY616  TRP617  ASP618  TYR619  PRO620  LYS621  CYS622 
 ASP623  PHE694  ASN695  SER759  ASP760  ASP761  ALA762  ILE779  LEU786  VAL792 
 PHE793  MET794  SER795  GLU796  ALA797  LYS798  CYS799  TRP800  GLU811  SER814 

> <Gold.Protein.RotatedAtoms>
  150.7412  134.5887  159.5975 H   0  0  0  0  0  0  0  0  0  0  0  0  # atno 6907 bound_to 6896
  152.3281  134.7292  160.0305 H   0  0  0  0  0  0  0  0  0  0  0  0  # atno 6908 bound_to 6896
  151.7785  133.3311  159.3501 H   0  0  0  0  0  0  0  0  0  0  0  0  # atno 6909 bound_to 6896
  144.7414  140.3490  143.6119 H   0  0  0  0  0  0  0  0  0  0  0  0  # atno 7974 bound_to 7965
  156.1371  140.3185  155.8437 H   0  0  0  0  0  0  0  0  0  0  0  0  # atno 8008 bound_to 7997
  155.4224  140.0513  157.3042 H   0  0  0  0  0  0  0  0  0  0  0  0  # atno 8009 bound_to 7997
  154.4945  140.2105  155.9488 H   0  0  0  0  0  0  0  0  0  0  0  0  # atno 8010 bound_to 7997
  140.5441  143.9625  150.6537 H   0  0  0  0  0  0  0  0  0  0  0  0  # atno 10167 bound_to 10162
  156.7951  130.9532  151.3120 H   0  0  0  0  0  0  0  0  0  0  0  0  # atno 10718 bound_to 10713
  152.9829  135.6049  154.3384 H   0  0  0  0  0  0  0  0  0  0  0  0  # atno 10763 bound_to 10752
  154.3083  135.2771  155.2580 H   0  0  0  0  0  0  0  0  0  0  0  0  # atno 10764 bound_to 10752
  154.4801  135.5919  153.6439 H   0  0  0  0  0  0  0  0  0  0  0  0  # atno 10765 bound_to 10752
  140.0613  134.5598  155.9149 H   0  0  0  0  0  0  0  0  0  0  0  0  # atno 11005 bound_to 11000
  145.7296  139.1732  143.2438 LP  0  0  0  0  0  0  0  0  0  0  0  0  # atno 17320 bound_to 7965
  146.1216  140.7301  142.9455 LP  0  0  0  0  0  0  0  0  0  0  0  0  # atno 17321 bound_to 7965
  140.3033  143.3246  152.0950 LP  0  0  0  0  0  0  0  0  0  0  0  0  # atno 17342 bound_to 10162
  139.5000  144.6683  151.6304 LP  0  0  0  0  0  0  0  0  0  0  0  0  # atno 17343 bound_to 10162
  157.6581  130.8942  149.9772 LP  0  0  0  0  0  0  0  0  0  0  0  0  # atno 17370 bound_to 10713
  156.1135  130.3649  150.0008 LP  0  0  0  0  0  0  0  0  0  0  0  0  # atno 17371 bound_to 10713
  141.1974  133.6596  156.5741 LP  0  0  0  0  0  0  0  0  0  0  0  0  # atno 17394 bound_to 11000
  140.3765  134.7560  157.4633 LP  0  0  0  0  0  0  0  0  0  0  0  0  # atno 17395 bound_to 11000

$$$$
