AV-unprocessed.smi:1702|AV-procd|sdf|6845|dock1
  -GOLD-   22720 8 23D 1   1.00000     0.00000
 Structure written by MMmdl.
 44 46  0  0  0  0  0  0  0  0  2 V2000
  152.2524  144.9541  159.3227 C   0  0  0  0  0  0  0  0  0  0  0  0
  151.3460  143.7922  158.8924 C   0  0  2  0  0  0  0  0  0  0  0  0
  151.6323  143.3501  157.4475 C   0  0  0  0  0  0  0  0  0  0  0  0
  150.6982  142.2065  157.0171 C   0  0  0  0  0  0  0  0  0  0  0  0
  149.2696  142.5927  157.1673 N   0  3  1  0  0  0  0  0  0  0  0  0
  148.3260  141.5672  156.6516 C   0  0  0  0  0  0  0  0  0  0  0  0
  148.4673  141.3427  155.1331 C   0  0  2  0  0  0  0  0  0  0  0  0
  149.0112  142.5132  154.5532 O   0  0  0  0  0  0  0  0  0  0  0  0
  147.1098  141.0302  154.4745 C   0  0  0  0  0  0  0  0  0  0  0  0
  146.0159  141.7700  155.0791 N   0  0  0  0  0  0  0  0  0  0  0  0
  145.3548  141.4548  156.2095 C   0  0  0  0  0  0  0  0  0  0  0  0
  144.3760  142.2700  156.5904 N   0  0  0  0  0  0  0  0  0  0  0  0
  144.4076  143.2306  155.5943 C   0  0  0  0  0  0  0  0  0  0  0  0
  143.6152  144.3858  155.4092 C   0  0  0  0  0  0  0  0  0  0  0  0
  143.8309  145.2309  154.3008 C   0  0  0  0  0  0  0  0  0  0  0  0
  143.0621  146.3339  154.1388 F   0  0  0  0  0  0  0  0  0  0  0  0
  144.8405  144.9332  153.3616 C   0  0  0  0  0  0  0  0  0  0  0  0
  145.0410  145.7494  152.3000 F   0  0  0  0  0  0  0  0  0  0  0  0
  145.6422  143.7869  153.5243 C   0  0  0  0  0  0  0  0  0  0  0  0
  145.4240  142.9474  154.6323 C   0  0  0  0  0  0  0  0  0  0  0  0
  148.9574  142.9942  158.5630 C   0  0  0  0  0  0  0  0  0  0  0  0
  149.8572  144.1532  159.0243 C   0  0  0  0  0  0  0  0  0  0  0  0
  152.0977  145.8329  158.6959 H   0  0  0  0  0  0  0  0  0  0  0  0
  153.3048  144.6772  159.2535 H   0  0  0  0  0  0  0  0  0  0  0  0
  152.0561  145.2438  160.3556 H   0  0  0  0  0  0  0  0  0  0  0  0
  151.5518  142.9489  159.5536 H   0  0  0  0  0  0  0  0  0  0  0  0
  151.5091  144.1957  156.7691 H   0  0  0  0  0  0  0  0  0  0  0  0
  152.6704  143.0291  157.3543 H   0  0  0  0  0  0  0  0  0  0  0  0
  150.9151  141.9457  155.9820 H   0  0  0  0  0  0  0  0  0  0  0  0
  150.9003  141.3152  157.6135 H   0  0  0  0  0  0  0  0  0  0  0  0
  148.4791  140.6332  157.1947 H   0  0  0  0  0  0  0  0  0  0  0  0
  147.2983  141.8707  156.8583 H   0  0  0  0  0  0  0  0  0  0  0  0
  149.1476  140.5158  154.9313 H   0  0  0  0  0  0  0  0  0  0  0  0
  148.9173  143.2256  155.1681 H   0  0  0  0  0  0  0  0  0  0  0  0
  147.1410  141.2800  153.4131 H   0  0  0  0  0  0  0  0  0  0  0  0
  146.8886  139.9639  154.5356 H   0  0  0  0  0  0  0  0  0  0  0  0
  145.6037  140.5740  156.7835 H   0  0  0  0  0  0  0  0  0  0  0  0
  142.8389  144.6237  156.1211 H   0  0  0  0  0  0  0  0  0  0  0  0
  146.4138  143.5581  152.8046 H   0  0  0  0  0  0  0  0  0  0  0  0
  147.9147  143.3068  158.6312 H   0  0  0  0  0  0  0  0  0  0  0  0
  149.0763  142.1358  159.2262 H   0  0  0  0  0  0  0  0  0  0  0  0
  149.6247  144.4083  160.0588 H   0  0  0  0  0  0  0  0  0  0  0  0
  149.6377  145.0424  158.4311 H   0  0  0  0  0  0  0  0  0  0  0  0
  149.1235  143.4168  156.6013 H   0  0  0  0  0  0  0  0  0  0  0  0
  1  2  1  0  0  0  0
  1 23  1  0  0  0  0
  1 24  1  0  0  0  0
  1 25  1  0  0  0  0
  2 22  1  0  0  0  0
  2  3  1  0  0  0  0
  2 26  1  0  0  0  0
  3  4  1  0  0  0  0
  3 27  1  0  0  0  0
  3 28  1  0  0  0  0
  4  5  1  0  0  0  0
  4 29  1  0  0  0  0
  4 30  1  0  0  0  0
  5  6  1  0  0  0  0
  5 21  1  0  0  0  0
  5 44  1  0  0  0  0
  6  7  1  0  0  0  0
  6 31  1  0  0  0  0
  6 32  1  0  0  0  0
  7  8  1  0  0  0  0
  7  9  1  0  0  0  0
  7 33  1  0  0  0  0
  8 34  1  0  0  0  0
  9 10  1  0  0  0  0
  9 35  1  0  0  0  0
  9 36  1  0  0  0  0
 10 20  1  0  0  0  0
 10 11  1  0  0  0  0
 11 12  2  0  0  0  0
 11 37  1  0  0  0  0
 12 13  1  0  0  0  0
 13 20  2  0  0  0  0
 13 14  1  0  0  0  0
 14 15  2  0  0  0  0
 14 38  1  0  0  0  0
 15 16  1  0  0  0  0
 15 17  1  0  0  0  0
 17 18  1  0  0  0  0
 17 19  2  0  0  0  0
 19 20  1  0  0  0  0
 19 39  1  0  0  0  0
 21 22  1  0  0  0  0
 21 40  1  0  0  0  0
 21 41  1  0  0  0  0
 22 42  1  0  0  0  0
 22 43  1  0  0  0  0
M  CHG  1   5   1
M  END
> <s_m_source_file>
AV-unprocessed.smi

> <i_m_source_file_index>
1702

> <i_lp_mmshare_version>
43012

> <i_f3d_flags>
0

> <s_epik_input>
W0NIM11bQ0hdMVtDSDJdW0NIMl1OKFtDSDJdW0NIMl0xKVtDSDJdW0NASF0oW09IXSlbQ0gyXW4oW2NIXW4yKWMoYzIzKVtjSF1jKEYpYyhGKVtjSF0z

> <s_epik_cmdline>
J2VwaWtfcHl0aG9uJywgJy1waCcsICc3LjAnLCAnLXRuJywgJzgnLCAnLW1hJywgJzIwMCcsICctbWV0YWxfYmluZGluZycsICctaW1hZScsICc8aW5maWxlLm1hZT4nLCAnLW9tYWUnLCAnPG91dGZpbGUubWFlPic=

> <r_epik_Ionization_Penalty>
0.0135195

> <r_epik_Ionization_Penalty_Charging>
0.00181365

> <r_epik_Ionization_Penalty_Neutral>
0.0117059

> <r_epik_State_Penalty>
0.00902283

> <r_epik_Charging_Adjusted_Penalty>
0.0108365

> <i_epik_Tot_Q>
1

> <i_epik_Tot_abs_Q>
1

> <r_epik_Metal_State_Penalty>
9.09181e-06

> <b_epik_Metal_Only>
0

> <s_lp_Force_Field>
OPLS_2005

> <r_lp_Energy>
21.6828

> <b_lp_Chiralities_Consistent>
1

> <s_lp_Variant>
AV-unprocessed.smi:1702-1

> <Gold.Version>
5.8.1

> <Gold.Id.Protein>
6NUR|6NUR_protein|mol2

> <Gold.PLP.Fitness>
52.5230

> <Gold.PLP.PLP>
-45.5161

> <Gold.PLP.part.hbond>
-2.7652

> <Gold.PLP.part.metal>
0.0000

> <Gold.PLP.part.buried>
-4.5469

> <Gold.PLP.part.nonpolar>
-40.2397

> <Gold.PLP.part.repulsive>
0.0495

> <Gold.PLP.ligand.clash>
0.0000

> <Gold.PLP.ligand.torsion>
1.0756

> <Gold.PLP.Chemscore.Hbond>
3.0273

> <Gold.PLP.Chemscore.CHOScore>
0.0000

> <Gold.PLP.Chemscore.Metal>
0.0000

> <Gold.Chemscore.Hbonds>
donor molecule, donor type, donor heavy atom, donor atom, acceptor molecule, acceptor atom, score
      L1  H     5    44       P1  8028  2.00
      L1  H     8    34       P1  8028  1.00
      P1  H  8011  8017       L1     8  0.03

> <Gold.PLP.Chemscore.Internal.Correction>
0.0761

> <Gold.Rescore>
     Score         DG    S(hbond)    S(metal)    S(lipo)     H(rot)  DE(clash)    DE(int)     intcor
     16.10     -18.38       2.00        0.00     102.76       2.26       0.18       2.10       ----

> <Gold.Chemscore.Fitness>
16.0993

> <Gold.Chemscore.DG>
-18.3813

> <Gold.Chemscore.ZeroCoef>
-5.4800

> <Gold.Chemscore.Hbond>
1.9965

> <Gold.Chemscore.Metal>
0.0000

> <Gold.Chemscore.Lipo>
102.7633

> <Gold.Chemscore.Internal_Hbond>
0.0000

> <Gold.Chemscore.DEClash>
0.1801

> <Gold.Chemscore.DEInternal>
2.1019

> <Gold.Chemscore.Rot>
2.2619

> <Gold.Chemscore.Internal.Correction>
   9.000000E+99

> <Gold.Chemscore.Hbonds>
donor molecule, donor type, donor heavy atom, donor atom, acceptor molecule, acceptor atom, score
      L1  H     5    44       P1  8028  0.96
      L1  H     8    34       P1  8028  0.95
      P1  H  8011  8017       L1     8  0.03

> <Gold.Chemscore.Hbond.Weighted>
-6.6684

> <Gold.Chemscore.Metal.Weighted>
-0.0000

> <Gold.Chemscore.Lipo.Weighted>
-12.0233

> <Gold.Chemscore.Internal_Hbond.Weighted>
0.0000

> <Gold.Chemscore.DEClash.Weighted>
0.1801

> <Gold.Chemscore.DEInternal.Weighted>
2.1019

> <Gold.Chemscore.Rot.Weighted>
5.7904

> <Gold.Chemscore.Internal.Correction.Weighted>
   9.000000E+99

> <Gold.Protein.RotatedTorsions>
[ 6907 6896 6895 6894 ] final  -35.24 input  -60.11 | X-H torsion
[ 7974 7965 7964 7962 ] final  -22.79 input  175.53 | X-H torsion
[ 8008 7997 7996 7995 ] final  -54.40 input   59.86 | X-H torsion
[ 10167 10162 10161 10158 ] final   32.08 input  -65.29 | X-H torsion
[ 10718 10713 10712 10709 ] final -134.97 input   66.30 | X-H torsion
[ 10763 10752 10751 10750 ] final  -40.35 input  -60.55 | X-H torsion
[ 11005 11000 10999 10996 ] final   78.52 input  -57.11 | X-H torsion

> <Gold.Protein.ActiveResidues>
 VAL166  LYS551  ARG553  GLY616  TRP617  ASP618  TYR619  PRO620  LYS621  CYS622 
 ASP623  PHE694  ASN695  SER759  ASP760  ASP761  ALA762  ILE779  LEU786  VAL792 
 PHE793  MET794  SER795  GLU796  ALA797  LYS798  CYS799  TRP800  GLU811  SER814 

> <Gold.Protein.RotatedAtoms>
  151.0423  134.9616  159.8167 H   0  0  0  0  0  0  0  0  0  0  0  0  # atno 6907 bound_to 6896
  152.5366  134.2642  159.8957 H   0  0  0  0  0  0  0  0  0  0  0  0  # atno 6908 bound_to 6896
  151.2655  133.4238  159.2652 H   0  0  0  0  0  0  0  0  0  0  0  0  # atno 6909 bound_to 6896
  146.1655  140.4527  142.8554 H   0  0  0  0  0  0  0  0  0  0  0  0  # atno 7974 bound_to 7965
  154.4161  140.1177  156.5309 H   0  0  0  0  0  0  0  0  0  0  0  0  # atno 8008 bound_to 7997
  155.6607  140.3496  155.4762 H   0  0  0  0  0  0  0  0  0  0  0  0  # atno 8009 bound_to 7997
  155.9716  140.1142  157.0797 H   0  0  0  0  0  0  0  0  0  0  0  0  # atno 8010 bound_to 7997
  140.4531  144.1019  150.6196 H   0  0  0  0  0  0  0  0  0  0  0  0  # atno 10167 bound_to 10162
  156.2611  130.7210  151.1145 H   0  0  0  0  0  0  0  0  0  0  0  0  # atno 10718 bound_to 10713
  153.9445  135.6757  153.4744 H   0  0  0  0  0  0  0  0  0  0  0  0  # atno 10763 bound_to 10752
  153.0915  135.4872  154.8695 H   0  0  0  0  0  0  0  0  0  0  0  0  # atno 10764 bound_to 10752
  154.7359  135.3149  154.8771 H   0  0  0  0  0  0  0  0  0  0  0  0  # atno 10765 bound_to 10752
  139.9209  134.7770  156.1660 H   0  0  0  0  0  0  0  0  0  0  0  0  # atno 11005 bound_to 11000
  144.8086  140.6345  143.6430 LP  0  0  0  0  0  0  0  0  0  0  0  0  # atno 17320 bound_to 7965
  145.4478  139.1527  143.3935 LP  0  0  0  0  0  0  0  0  0  0  0  0  # atno 17321 bound_to 7965
  140.4184  143.2623  151.9746 LP  0  0  0  0  0  0  0  0  0  0  0  0  # atno 17342 bound_to 10162
  139.4798  144.5853  151.7864 LP  0  0  0  0  0  0  0  0  0  0  0  0  # atno 17343 bound_to 10162
  157.7251  131.0655  150.5968 LP  0  0  0  0  0  0  0  0  0  0  0  0  # atno 17370 bound_to 10713
  156.6056  130.4366  149.5879 LP  0  0  0  0  0  0  0  0  0  0  0  0  # atno 17371 bound_to 10713
  141.0729  133.6788  156.2177 LP  0  0  0  0  0  0  0  0  0  0  0  0  # atno 17394 bound_to 11000
  140.6476  134.5100  157.5575 LP  0  0  0  0  0  0  0  0  0  0  0  0  # atno 17395 bound_to 11000

$$$$
