#       Name:                AV-unprocessed.smi:2642
#       Creating user name   scv26
#       Creation time:       Fri Mar 27 14:28:42 2020


#       File generated by GOLD software.
#

@<TRIPOS>MOLECULE
AV-unprocessed.smi:2642
    39    40     1
SMALL
NO_CHARGES


@<TRIPOS>ATOM
      1 ****        -0.5427   1.2308   0.4962 O.2            1 S1                 0.0000
      2 ****        -1.0695   0.1203   0.5612 C.2            1 S1                 0.0000
      3 ****        -0.3742  -1.0252   0.6018 N.am           1 S1                 0.0000
      4 ****         1.0807  -1.1168   0.5741 C.3            1 S1                 0.0000
      5 ****         1.6193  -1.0524  -0.8667 C.3            1 S1                 0.0000
      6 ****         3.0839  -1.0474  -0.8874 N.am           1 S1                 0.0000
      7 ****         3.8334   0.0626  -0.8682 C.2            1 S1                 0.0000
      8 ****         3.4447   1.2297  -0.8419 O.2            1 S1                 0.0000
      9 ****         5.2909  -0.3436  -0.8769 C.3            1 S1                 0.0000
     10 ****         5.1336  -1.7821  -0.8948 N.am           1 S1                 0.0000
     11 ****         3.8473  -2.1554  -0.8960 C.2            1 S1                 0.0000
     12 ****         3.4474  -3.3187  -0.8998 O.2            1 S1                 0.0000
     13 ****        -2.3933  -0.1120   0.5775 N.am           1 S1                 0.0000
     14 ****        -3.4561   0.8317   0.5719 C.ar           1 S1                 0.0000
     15 ****        -3.3292   2.1778   0.9933 C.ar           1 S1                 0.0000
     16 ****        -4.4647   3.0101   0.9612 C.ar           1 S1                 0.0000
     17 ****        -5.6852   2.4667   0.5158 C.ar           1 S1                 0.0000
     18 ****        -5.8236   1.1829   0.1229 N.ar           1 S1                 0.0000
     19 ****        -4.7308   0.3906   0.1576 C.ar           1 S1                 0.0000
     20 ****        -0.8855  -1.8943   0.6498 H              1 S1                 0.0000
     21 ****         1.5150  -0.3216   1.1829 H              1 S1                 0.0000
     22 ****         1.3732  -2.0577   1.0412 H              1 S1                 0.0000
     23 ****         1.2403  -1.8965  -1.4456 H              1 S1                 0.0000
     24 ****         1.2439  -0.1595  -1.3698 H              1 S1                 0.0000
     25 ****         5.8053   0.0171  -1.7681 H              1 S1                 0.0000
     26 ****         5.8090  -0.0058   0.0211 H              1 S1                 0.0000
     27 ****         5.9152  -2.4214  -0.9003 H              1 S1                 0.0000
     28 ****        -2.6751  -1.0807   0.5400 H              1 S1                 0.0000
     29 ****        -2.3958   2.5820   1.3525 H              1 S1                 0.0000
     30 ****        -4.4020   4.0413   1.2757 H              1 S1                 0.0000
     31 ****        -6.5752   3.0775   0.4802 H              1 S1                 0.0000
     32 ****        -4.8803  -0.6309  -0.1606 H              1 S1                 0.0000
     33 ****         0.4538   1.3108   0.4710 LP             1 S1                 0.0000
     34 ****        -1.1112   2.0531   0.4685 LP             1 S1                 0.0000
     35 ****         2.4651   1.4304  -0.8327 LP             1 S1                 0.0000
     36 ****         4.1084   1.9776  -0.8298 LP             1 S1                 0.0000
     37 ****         2.4659  -3.5100  -0.8965 LP             1 S1                 0.0000
     38 ****         4.1038  -4.0730  -0.9063 LP             1 S1                 0.0000
     39 ****        -6.7073   0.8298  -0.1842 LP             1 S1                 0.0000
@<TRIPOS>BOND
    1    1    2 2     
    2    2    3 am    
    3    2   13 am    
    4    3    4 1     
    5    3   20 1     
    6    4    5 1     
    7    4   21 1     
    8    4   22 1     
    9    5    6 1     
   10    5   23 1     
   11    5   24 1     
   12    6   11 am    
   13    6    7 am    
   14    7    8 2     
   15    7    9 1     
   16    9   10 1     
   17    9   25 1     
   18    9   26 1     
   19   10   11 am    
   20   10   27 1     
   21   11   12 2     
   22   13   14 1     
   23   13   28 1     
   24   14   19 ar    
   25   14   15 ar    
   26   15   16 ar    
   27   15   29 1     
   28   16   17 ar    
   29   16   30 1     
   30   17   18 ar    
   31   17   31 1     
   32   18   19 ar    
   33   19   32 1     
   34    1   33 1     
   35    1   34 1     
   36    8   35 1     
   37    8   36 1     
   38   12   37 1     
   39   12   38 1     
   40   18   39 1     
@<TRIPOS>SUBSTRUCTURE
      1 S1             1
@<TRIPOS>SET
LONE_PAIRS      STATIC     ATOMS    <user>   **** ""
7 33 34 35 36 37 38 39
DONOR_HYDROGENS      STATIC     ATOMS    <user>   **** ""
3 20 27 28
ATOM$BLUE        STATIC     ATOMS    COLORGROUP SYSTEM
7 33 34 35 36 37 38 39
ATOM$RED        STATIC     ATOMS    COLORGROUP SYSTEM
3 20 27 28
