#       Name:                AV-unprocessed.smi:845
#       Creating user name   scv26
#       Creation time:       Fri Mar 27 01:39:11 2020


#       File generated by GOLD software.
#

@<TRIPOS>MOLECULE
AV-unprocessed.smi:845
    48    49     1
SMALL
NO_CHARGES


@<TRIPOS>ATOM
      1 ****        -2.3522  -0.5807  -1.6473 C.3            1 S1                 0.0000
      2 ****        -1.6957   0.3737  -0.6307 C.3            1 S1                 0.0000
      3 ****        -2.3721   1.7548  -0.6536 C.3            1 S1                 0.0000
      4 ****        -0.1378   0.4776  -0.6674 C.3            1 S1                 0.0000
      5 ****         0.5843  -0.8937  -0.5350 C.3            1 S1                 0.0000
      6 ****         0.1469  -1.6544   0.6315 N.am           1 S1                 0.0000
      7 ****         0.5497  -1.4263   1.8896 C.2            1 S1                 0.0000
      8 ****         1.3484  -0.5409   2.1954 O.2            1 S1                 0.0000
      9 ****        -0.0321  -2.2783   2.7489 N.am           1 S1                 0.0000
     10 ****         0.1456  -2.3508   4.1528 C.2            1 S1                 0.0000
     11 ****        -0.5379  -3.2655   4.8432 N.2            1 S1                 0.0000
     12 ****        -0.2538  -3.2109   6.2108 C.2            1 S1                 0.0000
     13 ****         0.6582  -2.2412   6.5470 C.2            1 S1                 0.0000
     14 ****         1.2012  -1.3484   5.1519 S.3            1 S1                 0.0000
     15 ****         0.4037   1.3597  -1.7200 N.3            1 S1                 0.0000
     16 ****         1.7181   1.9042  -1.3837 C.3            1 S1                 0.0000
     17 ****         2.2017   2.9188  -2.4338 C.3            1 S1                 0.0000
     18 ****         2.2197   2.3039  -3.7178 O.3            1 S1                 0.0000
     19 ****         0.9448   1.8010  -4.1034 C.3            1 S1                 0.0000
     20 ****         0.4527   0.7808  -3.0623 C.3            1 S1                 0.0000
     21 ****        -2.3769  -0.1656  -2.6527 H              1 S1                 0.0000
     22 ****        -3.3897  -0.7675  -1.3694 H              1 S1                 0.0000
     23 ****        -1.8583  -1.5505  -1.6869 H              1 S1                 0.0000
     24 ****        -1.9406  -0.0437   0.3466 H              1 S1                 0.0000
     25 ****        -2.2377   2.2507  -1.6153 H              1 S1                 0.0000
     26 ****        -1.9621   2.4068   0.1181 H              1 S1                 0.0000
     27 ****        -3.4442   1.6691  -0.4747 H              1 S1                 0.0000
     28 ****         0.0831   0.9928   0.2687 H              1 S1                 0.0000
     29 ****         0.4083  -1.5103  -1.4158 H              1 S1                 0.0000
     30 ****         1.6653  -0.7653  -0.4776 H              1 S1                 0.0000
     31 ****        -0.5134  -2.4005   0.4681 H              1 S1                 0.0000
     32 ****        -0.6733  -2.9517   2.3565 H              1 S1                 0.0000
     33 ****        -0.7474  -3.9032   6.8770 H              1 S1                 0.0000
     34 ****         1.0421  -1.9991   7.5270 H              1 S1                 0.0000
     35 ****         1.6825   2.3904  -0.4082 H              1 S1                 0.0000
     36 ****         2.4527   1.1027  -1.3076 H              1 S1                 0.0000
     37 ****         1.5532   3.7961  -2.4515 H              1 S1                 0.0000
     38 ****         3.2060   3.2662  -2.1908 H              1 S1                 0.0000
     39 ****         0.2357   2.6245  -4.2019 H              1 S1                 0.0000
     40 ****         1.0292   1.3315  -5.0835 H              1 S1                 0.0000
     41 ****         1.1191  -0.0821  -3.0751 H              1 S1                 0.0000
     42 ****        -0.5255   0.4258  -3.3690 H              1 S1                 0.0000
     43 ****         1.7316   0.0529   1.4880 LP             1 S1                 0.0000
     44 ****         1.6140  -0.4155   3.1513 LP             1 S1                 0.0000
     45 ****        -1.1780  -3.9137   4.4309 LP             1 S1                 0.0000
     46 ****        -0.2696   2.0985  -1.7501 LP             1 S1                 0.0000
     47 ****         2.8710   1.5453  -3.7002 LP             1 S1                 0.0000
     48 ****         2.5142   2.9806  -4.3925 LP             1 S1                 0.0000
@<TRIPOS>BOND
    1    1    2 1     
    2    1   21 1     
    3    1   22 1     
    4    1   23 1     
    5    2    3 1     
    6    2    4 1     
    7    2   24 1     
    8    3   25 1     
    9    3   26 1     
   10    3   27 1     
   11    4    5 1     
   12    4   15 1     
   13    4   28 1     
   14    5    6 1     
   15    5   29 1     
   16    5   30 1     
   17    6    7 am    
   18    6   31 1     
   19    7    8 2     
   20    7    9 am    
   21    9   10 1     
   22    9   32 1     
   23   10   14 1     
   24   10   11 2     
   25   11   12 1     
   26   12   13 2     
   27   12   33 1     
   28   13   14 1     
   29   13   34 1     
   30   15   20 1     
   31   15   16 1     
   32   16   17 1     
   33   16   35 1     
   34   16   36 1     
   35   17   18 1     
   36   17   37 1     
   37   17   38 1     
   38   18   19 1     
   39   19   20 1     
   40   19   39 1     
   41   19   40 1     
   42   20   41 1     
   43   20   42 1     
   44    8   43 1     
   45    8   44 1     
   46   11   45 1     
   47   15   46 1     
   48   18   47 1     
   49   18   48 1     
@<TRIPOS>SUBSTRUCTURE
      1 S1             1
@<TRIPOS>SET
LONE_PAIRS      STATIC     ATOMS    <user>   **** ""
6 43 44 45 46 47 48
DONOR_HYDROGENS      STATIC     ATOMS    <user>   **** ""
2 31 32
ATOM$BLUE        STATIC     ATOMS    COLORGROUP SYSTEM
6 43 44 45 46 47 48
ATOM$RED        STATIC     ATOMS    COLORGROUP SYSTEM
2 31 32
