AV-unprocessed.smi:746|AV-procd|sdf|3577|dock3
  -GOLD-   22720 0573D 1   1.00000     0.00000
 Structure written by MMmdl.
 48 50  0  0  0  0  0  0  0  0  1 V2000
  153.2215  131.9325  164.5860 C   0  0  0  0  0  0  0  0  0  0  0  0
  154.1075  131.1881  163.7680 O   0  0  0  0  0  0  0  0  0  0  0  0
  154.2632  131.7585  162.4795 C   0  0  0  0  0  0  0  0  0  0  0  0
  154.8083  133.1823  162.6220 C   0  0  0  0  0  0  0  0  0  0  0  0
  154.7040  133.8342  161.3601 O   0  0  0  0  0  0  0  0  0  0  0  0
  154.4936  135.1974  161.3363 C   0  0  0  0  0  0  0  0  0  0  0  0
  154.6920  135.9287  162.5238 C   0  0  0  0  0  0  0  0  0  0  0  0
  154.4800  137.3203  162.5106 C   0  0  0  0  0  0  0  0  0  0  0  0
  154.0828  137.9402  161.3021 C   0  0  0  0  0  0  0  0  0  0  0  0
  153.8205  139.3302  161.1639 N   0  0  0  0  0  0  0  0  0  0  0  0
  153.7218  140.0625  160.0365 C   0  0  0  0  0  0  0  0  0  0  0  0
  153.6842  139.5709  158.9087 O   0  0  0  0  0  0  0  0  0  0  0  0
  153.5019  141.3786  160.2751 N   0  0  0  0  0  0  0  0  0  0  0  0
  154.0180  142.0550  161.4782 C   0  0  0  0  0  0  0  0  0  0  0  0
  152.8939  142.8388  162.1816 C   0  0  0  0  0  0  0  0  0  0  0  0
  151.8849  143.4416  161.1854 C   0  0  0  0  0  0  0  0  0  0  0  0
  152.5130  143.6574  159.7928 C   0  0  2  0  0  0  0  0  0  0  0  0
  151.4922  144.1549  158.7503 C   0  0  0  0  0  0  0  0  0  0  0  0
  151.5163  143.1425  157.6021 C   0  0  0  0  0  0  0  0  0  0  0  0
  152.0422  141.8543  158.2290 C   0  0  0  0  0  0  0  0  0  0  0  0
  153.1109  142.3434  159.2215 C   0  0  2  0  0  0  0  0  0  0  0  0
  153.8978  137.1167  160.1723 C   0  0  0  0  0  0  0  0  0  0  0  0
  154.0998  135.7820  160.1781 N   0  0  0  0  0  0  0  0  0  0  0  0
  153.1351  131.4552  165.5621 H   0  0  0  0  0  0  0  0  0  0  0  0
  152.2245  131.9808  164.1458 H   0  0  0  0  0  0  0  0  0  0  0  0
  153.5859  132.9490  164.7400 H   0  0  0  0  0  0  0  0  0  0  0  0
  154.9498  131.1558  161.8830 H   0  0  0  0  0  0  0  0  0  0  0  0
  153.3036  131.7774  161.9604 H   0  0  0  0  0  0  0  0  0  0  0  0
  154.2339  133.7230  163.3764 H   0  0  0  0  0  0  0  0  0  0  0  0
  155.8489  133.1463  162.9491 H   0  0  0  0  0  0  0  0  0  0  0  0
  154.9978  135.4302  163.4316 H   0  0  0  0  0  0  0  0  0  0  0  0
  154.6127  137.8759  163.4258 H   0  0  0  0  0  0  0  0  0  0  0  0
  153.6785  139.8324  162.0283 H   0  0  0  0  0  0  0  0  0  0  0  0
  154.5095  141.3895  162.1889 H   0  0  0  0  0  0  0  0  0  0  0  0
  154.7977  142.7491  161.1600 H   0  0  0  0  0  0  0  0  0  0  0  0
  152.3629  142.1889  162.8781 H   0  0  0  0  0  0  0  0  0  0  0  0
  153.3404  143.6299  162.7852 H   0  0  0  0  0  0  0  0  0  0  0  0
  151.0401  142.7580  161.0872 H   0  0  0  0  0  0  0  0  0  0  0  0
  151.4784  144.3743  161.5778 H   0  0  0  0  0  0  0  0  0  0  0  0
  153.3116  144.3947  159.8900 H   0  0  0  0  0  0  0  0  0  0  0  0
  150.4908  144.1969  159.1807 H   0  0  0  0  0  0  0  0  0  0  0  0
  151.7298  145.1588  158.3966 H   0  0  0  0  0  0  0  0  0  0  0  0
  150.5383  143.0133  157.1373 H   0  0  0  0  0  0  0  0  0  0  0  0
  152.2084  143.4798  156.8295 H   0  0  0  0  0  0  0  0  0  0  0  0
  151.2357  141.3440  158.7580 H   0  0  0  0  0  0  0  0  0  0  0  0
  152.4334  141.1748  157.4718 H   0  0  0  0  0  0  0  0  0  0  0  0
  154.0072  142.5951  158.6517 H   0  0  0  0  0  0  0  0  0  0  0  0
  153.5808  137.5408  159.2306 H   0  0  0  0  0  0  0  0  0  0  0  0
  1  2  1  0  0  0  0
  1 24  1  0  0  0  0
  1 25  1  0  0  0  0
  1 26  1  0  0  0  0
  2  3  1  0  0  0  0
  3  4  1  0  0  0  0
  3 27  1  0  0  0  0
  3 28  1  0  0  0  0
  4  5  1  0  0  0  0
  4 29  1  0  0  0  0
  4 30  1  0  0  0  0
  5  6  1  0  0  0  0
  6 23  1  0  0  0  0
  6  7  2  0  0  0  0
  7  8  1  0  0  0  0
  7 31  1  0  0  0  0
  8  9  2  0  0  0  0
  8 32  1  0  0  0  0
  9 10  1  0  0  0  0
  9 22  1  0  0  0  0
 10 11  1  0  0  0  0
 10 33  1  0  0  0  0
 11 12  2  0  0  0  0
 11 13  1  0  0  0  0
 13 21  1  0  0  0  0
 13 14  1  0  0  0  0
 14 15  1  0  0  0  0
 14 34  1  0  0  0  0
 14 35  1  0  0  0  0
 15 16  1  0  0  0  0
 15 36  1  0  0  0  0
 15 37  1  0  0  0  0
 16 17  1  0  0  0  0
 16 38  1  0  0  0  0
 16 39  1  0  0  0  0
 17 21  1  0  0  0  0
 17 18  1  0  0  0  0
 17 40  1  0  0  0  0
 18 19  1  0  0  0  0
 18 41  1  0  0  0  0
 18 42  1  0  0  0  0
 19 20  1  0  0  0  0
 19 43  1  0  0  0  0
 19 44  1  0  0  0  0
 20 21  1  0  0  0  0
 20 45  1  0  0  0  0
 20 46  1  0  0  0  0
 21 47  1  0  0  0  0
 22 23  2  0  0  0  0
 22 48  1  0  0  0  0
M  END
> <s_m_source_file>
AV-unprocessed.smi

> <i_m_source_file_index>
746

> <i_lp_mmshare_version>
43012

> <i_f3d_flags>
0

> <s_epik_input>
W0NIM11PW0NIMl1bQ0gyXU9jMVtjSF1bY0hdYyhbY0hdbjEpW05IXUMoPU8pTihbQ0gyXVtDSDJdW0NIMl0yKVtDQEhdKFtDQEBIXTIzKVtDSDJdW0NIMl1bQ0gyXTM=

> <s_epik_cmdline>
J2VwaWtfcHl0aG9uJywgJy1waCcsICc3LjAnLCAnLXRuJywgJzgnLCAnLW1hJywgJzIwMCcsICctbWV0YWxfYmluZGluZycsICctaW1hZScsICc8aW5maWxlLm1hZT4nLCAnLW9tYWUnLCAnPG91dGZpbGUubWFlPic=

> <r_lp_tautomer_probability>
1

> <r_epik_Ionization_Penalty>
8.29966e-05

> <r_epik_Ionization_Penalty_Charging>
0

> <r_epik_Ionization_Penalty_Neutral>
8.29966e-05

> <r_epik_State_Penalty>
-0

> <r_epik_Charging_Adjusted_Penalty>
0

> <i_epik_Tot_Q>
0

> <i_epik_Tot_abs_Q>
0

> <r_epik_Metal_State_Penalty>
-0

> <b_epik_Metal_Only>
0

> <s_lp_Force_Field>
OPLS_2005

> <r_lp_Energy>
61.4405

> <b_lp_Chiralities_Consistent>
1

> <s_lp_Variant>
AV-unprocessed.smi:746-2

> <Gold.Version>
5.8.1

> <Gold.Id.Protein>
6NUR|6NUR_protein|mol2

> <Gold.PLP.Fitness>
48.6477

> <Gold.PLP.PLP>
-44.7576

> <Gold.PLP.part.hbond>
-1.9039

> <Gold.PLP.part.metal>
0.0000

> <Gold.PLP.part.buried>
-3.3052

> <Gold.PLP.part.nonpolar>
-38.8343

> <Gold.PLP.part.repulsive>
0.0268

> <Gold.PLP.ligand.clash>
0.0000

> <Gold.PLP.ligand.torsion>
0.6458

> <Gold.PLP.Chemscore.Hbond>
1.5982

> <Gold.PLP.Chemscore.CHOScore>
0.0000

> <Gold.PLP.Chemscore.Metal>
0.0000

> <Gold.Chemscore.Hbonds>
donor molecule, donor type, donor heavy atom, donor atom, acceptor molecule, acceptor atom, score
      P1  H  6896  6909       L1    23  0.70
      P1  H  7997  8008       L1    12  0.83

> <Gold.PLP.Chemscore.Internal.Correction>
0.3871

> <Gold.Rescore>
     Score         DG    S(hbond)    S(metal)    S(lipo)     H(rot)  DE(clash)    DE(int)     intcor
     16.55     -19.76       0.99        0.00     127.04       1.52       0.00       3.20       ----

> <Gold.Chemscore.Fitness>
16.5533

> <Gold.Chemscore.DG>
-19.7599

> <Gold.Chemscore.ZeroCoef>
-5.4800

> <Gold.Chemscore.Hbond>
0.9881

> <Gold.Chemscore.Metal>
0.0000

> <Gold.Chemscore.Lipo>
127.0401

> <Gold.Chemscore.Internal_Hbond>
0.0000

> <Gold.Chemscore.DEClash>
0.0038

> <Gold.Chemscore.DEInternal>
3.2028

> <Gold.Chemscore.Rot>
1.5172

> <Gold.Chemscore.Internal.Correction>
   9.000000E+99

> <Gold.Chemscore.Hbonds>
donor molecule, donor type, donor heavy atom, donor atom, acceptor molecule, acceptor atom, score
      P1  H  6896  6909       L1    23  0.07
      P1  H  7997  8008       L1    12  0.80

> <Gold.Chemscore.Hbond.Weighted>
-3.3003

> <Gold.Chemscore.Metal.Weighted>
-0.0000

> <Gold.Chemscore.Lipo.Weighted>
-14.8637

> <Gold.Chemscore.Internal_Hbond.Weighted>
0.0000

> <Gold.Chemscore.DEClash.Weighted>
0.0038

> <Gold.Chemscore.DEInternal.Weighted>
3.2028

> <Gold.Chemscore.Rot.Weighted>
3.8841

> <Gold.Chemscore.Internal.Correction.Weighted>
   9.000000E+99

> <Gold.Protein.RotatedTorsions>
[ 6907 6896 6895 6894 ] final -179.06 input  -60.11 | X-H torsion
[ 7974 7965 7964 7962 ] final -101.77 input  175.53 | X-H torsion
[ 8008 7997 7996 7995 ] final -110.06 input   59.86 | X-H torsion
[ 10167 10162 10161 10158 ] final -117.29 input  -65.29 | X-H torsion
[ 10718 10713 10712 10709 ] final -152.44 input   66.30 | X-H torsion
[ 10763 10752 10751 10750 ] final   31.19 input  -60.55 | X-H torsion
[ 11005 11000 10999 10996 ] final  130.58 input  -57.11 | X-H torsion

> <Gold.Protein.ActiveResidues>
 VAL166  LYS551  ARG553  GLY616  TRP617  ASP618  TYR619  PRO620  LYS621  CYS622 
 ASP623  PHE694  ASN695  SER759  ASP760  ASP761  ALA762  ILE779  LEU786  VAL792 
 PHE793  MET794  SER795  GLU796  ALA797  LYS798  CYS799  TRP800  GLU811  SER814 

> <Gold.Protein.RotatedAtoms>
  151.6472  133.3323  159.3143 H   0  0  0  0  0  0  0  0  0  0  0  0  # atno 6907 bound_to 6896
  150.7978  134.7054  159.6583 H   0  0  0  0  0  0  0  0  0  0  0  0  # atno 6908 bound_to 6896
  152.4067  134.6199  160.0099 H   0  0  0  0  0  0  0  0  0  0  0  0  # atno 6909 bound_to 6896
  145.2773  140.9316  143.2952 H   0  0  0  0  0  0  0  0  0  0  0  0  # atno 7974 bound_to 7965
  154.9688  140.0398  157.2225 H   0  0  0  0  0  0  0  0  0  0  0  0  # atno 8008 bound_to 7997
  154.7820  140.2820  155.6034 H   0  0  0  0  0  0  0  0  0  0  0  0  # atno 8009 bound_to 7997
  156.2937  140.2590  156.2648 H   0  0  0  0  0  0  0  0  0  0  0  0  # atno 8010 bound_to 7997
  140.0700  143.4886  152.1985 H   0  0  0  0  0  0  0  0  0  0  0  0  # atno 10167 bound_to 10162
  156.4726  130.8265  151.2494 H   0  0  0  0  0  0  0  0  0  0  0  0  # atno 10718 bound_to 10713
  153.0329  135.6445  154.1161 H   0  0  0  0  0  0  0  0  0  0  0  0  # atno 10763 bound_to 10752
  154.0880  135.2868  155.3279 H   0  0  0  0  0  0  0  0  0  0  0  0  # atno 10764 bound_to 10752
  154.6484  135.5434  153.7936 H   0  0  0  0  0  0  0  0  0  0  0  0  # atno 10765 bound_to 10752
  139.9680  134.9585  156.9314 H   0  0  0  0  0  0  0  0  0  0  0  0  # atno 11005 bound_to 11000
  144.9284  139.4328  143.6507 LP  0  0  0  0  0  0  0  0  0  0  0  0  # atno 17320 bound_to 7965
  146.3228  139.8181  142.8932 LP  0  0  0  0  0  0  0  0  0  0  0  0  # atno 17321 bound_to 7965
  139.5842  144.7524  151.3563 LP  0  0  0  0  0  0  0  0  0  0  0  0  # atno 17342 bound_to 10162
  140.7130  143.7340  150.7602 LP  0  0  0  0  0  0  0  0  0  0  0  0  # atno 17343 bound_to 10162
  157.7490  131.0071  150.3178 LP  0  0  0  0  0  0  0  0  0  0  0  0  # atno 17370 bound_to 10713
  156.3603  130.3846  149.7257 LP  0  0  0  0  0  0  0  0  0  0  0  0  # atno 17371 bound_to 10713
  140.5354  134.0772  155.7327 LP  0  0  0  0  0  0  0  0  0  0  0  0  # atno 17394 bound_to 11000
  141.1360  133.9221  157.2433 LP  0  0  0  0  0  0  0  0  0  0  0  0  # atno 17395 bound_to 11000

$$$$
