AV-unprocessed.smi:1094|AV-procd|sdf|4746|dock3
  -GOLD-   22720 3283D 1   1.00000     0.00000
 Structure written by MMmdl.
 45 46  0  0  0  0  0  0  0  0  1 V2000
  149.5637  141.5759  157.6463 C   0  0  0  0  0  0  0  0  0  0  0  0
  150.7520  141.5655  156.6740 C   0  0  0  0  0  0  0  0  0  0  0  0
  150.9233  140.2469  156.0484 N   0  0  0  0  0  0  0  0  0  0  0  0
  149.8759  139.7920  155.2231 C   0  0  0  0  0  0  0  0  0  0  0  0
  149.9148  138.5958  154.5953 C   0  0  0  0  0  0  0  0  0  0  0  0
  148.9140  138.0780  153.7589 N   0  0  0  0  0  0  0  0  0  0  0  0
  147.5973  138.3571  153.7234 C   0  0  0  0  0  0  0  0  0  0  0  0
  147.0019  139.1357  154.4679 O   0  0  0  0  0  0  0  0  0  0  0  0
  146.9918  137.6702  152.7438 N   0  0  0  0  0  0  0  0  0  0  0  0
  145.5686  137.7318  152.4109 C   0  0  0  0  0  0  0  0  0  0  0  0
  144.8163  136.3789  152.5722 C   0  0  0  0  0  0  0  0  0  0  0  0
  145.1616  135.5409  151.3099 C   0  0  0  0  0  0  0  0  0  0  0  0
  144.9073  136.0601  150.1041 N   0  0  0  0  0  0  0  0  0  0  0  0
  145.6409  134.4135  151.4210 O   0  0  0  0  0  0  0  0  0  0  0  0
  145.2082  135.6535  153.8926 C   0  0  0  0  0  0  0  0  0  0  0  0
  144.3474  134.4012  154.1570 C   0  0  0  0  0  0  0  0  0  0  0  0
  142.9708  134.7597  154.1914 O   0  0  0  0  0  0  0  0  0  0  0  0
  142.5078  135.3159  152.9661 C   0  0  0  0  0  0  0  0  0  0  0  0
  143.2816  136.6125  152.6555 C   0  0  0  0  0  0  0  0  0  0  0  0
  151.0972  137.7877  154.8040 C   0  0  0  0  0  0  0  0  0  0  0  0
  152.0999  138.2085  155.5987 C   0  0  0  0  0  0  0  0  0  0  0  0
  152.0436  139.5012  156.2849 C   0  0  0  0  0  0  0  0  0  0  0  0
  152.9478  139.8872  157.0260 O   0  0  0  0  0  0  0  0  0  0  0  0
  149.4400  142.5616  158.0952 H   0  0  0  0  0  0  0  0  0  0  0  0
  149.7065  140.8592  158.4556 H   0  0  0  0  0  0  0  0  0  0  0  0
  148.6337  141.3245  157.1357 H   0  0  0  0  0  0  0  0  0  0  0  0
  150.6016  142.3282  155.9084 H   0  0  0  0  0  0  0  0  0  0  0  0
  151.6605  141.8695  157.1970 H   0  0  0  0  0  0  0  0  0  0  0  0
  149.0581  140.4912  155.1540 H   0  0  0  0  0  0  0  0  0  0  0  0
  149.2408  137.4022  153.0841 H   0  0  0  0  0  0  0  0  0  0  0  0
  147.5586  137.0540  152.1799 H   0  0  0  0  0  0  0  0  0  0  0  0
  145.1287  138.4804  153.0717 H   0  0  0  0  0  0  0  0  0  0  0  0
  145.4343  138.1216  151.3996 H   0  0  0  0  0  0  0  0  0  0  0  0
  145.1246  135.5320  149.2715 H   0  0  0  0  0  0  0  0  0  0  0  0
  144.4985  136.9805  150.0311 H   0  0  0  0  0  0  0  0  0  0  0  0
  146.2680  135.3964  153.9064 H   0  0  0  0  0  0  0  0  0  0  0  0
  145.0653  136.3238  154.7397 H   0  0  0  0  0  0  0  0  0  0  0  0
  144.5134  133.6272  153.4073 H   0  0  0  0  0  0  0  0  0  0  0  0
  144.6155  133.9645  155.1192 H   0  0  0  0  0  0  0  0  0  0  0  0
  142.6036  134.5857  152.1614 H   0  0  0  0  0  0  0  0  0  0  0  0
  141.4444  135.5338  153.0647 H   0  0  0  0  0  0  0  0  0  0  0  0
  143.0539  137.3295  153.4446 H   0  0  0  0  0  0  0  0  0  0  0  0
  142.9010  137.0611  151.7368 H   0  0  0  0  0  0  0  0  0  0  0  0
  151.1816  136.8269  154.3168 H   0  0  0  0  0  0  0  0  0  0  0  0
  152.9678  137.5795  155.7335 H   0  0  0  0  0  0  0  0  0  0  0  0
  1  2  1  0  0  0  0
  1 24  1  0  0  0  0
  1 25  1  0  0  0  0
  1 26  1  0  0  0  0
  2  3  1  0  0  0  0
  2 27  1  0  0  0  0
  2 28  1  0  0  0  0
  3 22  1  0  0  0  0
  3  4  1  0  0  0  0
  4  5  2  0  0  0  0
  4 29  1  0  0  0  0
  5  6  1  0  0  0  0
  5 20  1  0  0  0  0
  6  7  1  0  0  0  0
  6 30  1  0  0  0  0
  7  8  2  0  0  0  0
  7  9  1  0  0  0  0
  9 10  1  0  0  0  0
  9 31  1  0  0  0  0
 10 11  1  0  0  0  0
 10 32  1  0  0  0  0
 10 33  1  0  0  0  0
 11 19  1  0  0  0  0
 11 12  1  0  0  0  0
 11 15  1  0  0  0  0
 12 13  1  0  0  0  0
 12 14  2  0  0  0  0
 13 34  1  0  0  0  0
 13 35  1  0  0  0  0
 15 16  1  0  0  0  0
 15 36  1  0  0  0  0
 15 37  1  0  0  0  0
 16 17  1  0  0  0  0
 16 38  1  0  0  0  0
 16 39  1  0  0  0  0
 17 18  1  0  0  0  0
 18 19  1  0  0  0  0
 18 40  1  0  0  0  0
 18 41  1  0  0  0  0
 19 42  1  0  0  0  0
 19 43  1  0  0  0  0
 20 21  2  0  0  0  0
 20 44  1  0  0  0  0
 21 22  1  0  0  0  0
 21 45  1  0  0  0  0
 22 23  2  0  0  0  0
M  END
> <s_m_source_file>
AV-unprocessed.smi

> <i_m_source_file_index>
1094

> <i_lp_mmshare_version>
43012

> <i_f3d_flags>
0

> <s_epik_input>
W0NIM11bQ0gyXW4xW2NIXWMoW2NIXVtjSF1jMT1PKVtOSF1DKD1PKVtOSF1bQ0gyXUMyKEMoPU8pW05IMl0pW0NIMl1bQ0gyXU9bQ0gyXVtDSDJdMg==

> <s_epik_cmdline>
J2VwaWtfcHl0aG9uJywgJy1waCcsICc3LjAnLCAnLXRuJywgJzgnLCAnLW1hJywgJzIwMCcsICctbWV0YWxfYmluZGluZycsICctaW1hZScsICc8aW5maWxlLm1hZT4nLCAnLW9tYWUnLCAnPG91dGZpbGUubWFlPic=

> <r_lp_tautomer_probability>
1

> <r_epik_Ionization_Penalty>
2.3227e-05

> <r_epik_Ionization_Penalty_Charging>
4.44262e-06

> <r_epik_Ionization_Penalty_Neutral>
1.87844e-05

> <r_epik_State_Penalty>
-0

> <r_epik_Charging_Adjusted_Penalty>
4.44262e-06

> <i_epik_Tot_Q>
0

> <i_epik_Tot_abs_Q>
0

> <r_epik_Metal_State_Penalty>
-0

> <b_epik_Metal_Only>
0

> <s_lp_Force_Field>
OPLS_2005

> <r_lp_Energy>
26.2071

> <b_lp_Chiralities_Consistent>
1

> <s_lp_Variant>
AV-unprocessed.smi:1094-1

> <Gold.Version>
5.8.1

> <Gold.Id.Protein>
6NUR|6NUR_protein|mol2

> <Gold.PLP.Fitness>
46.5282

> <Gold.PLP.PLP>
-32.3901

> <Gold.PLP.part.hbond>
-5.0118

> <Gold.PLP.part.metal>
0.0000

> <Gold.PLP.part.buried>
-2.5025

> <Gold.PLP.part.nonpolar>
-27.3865

> <Gold.PLP.part.repulsive>
0.5233

> <Gold.PLP.ligand.clash>
0.0000

> <Gold.PLP.ligand.torsion>
0.4215

> <Gold.PLP.Chemscore.Hbond>
4.9750

> <Gold.PLP.Chemscore.CHOScore>
0.0000

> <Gold.PLP.Chemscore.Metal>
0.0000

> <Gold.Chemscore.Hbonds>
donor molecule, donor type, donor heavy atom, donor atom, acceptor molecule, acceptor atom, score
      L1  H     6    30       P1  7948  1.00
      L1  H     9    31       P1  7948  1.00
      L1  H    13    34       P1  7921  0.96
      L1  H    13    35       P1 10171  1.00
      P1  H  7997  8010       L1    23  0.96

> <Gold.PLP.Chemscore.Internal.Correction>
0.0561

> <Gold.Rescore>
     Score         DG    S(hbond)    S(metal)    S(lipo)     H(rot)  DE(clash)    DE(int)     intcor
     22.27     -23.41       4.92        0.00      59.03       2.11       0.01       1.12       ----

> <Gold.Chemscore.Fitness>
22.2678

> <Gold.Chemscore.DG>
-23.4052

> <Gold.Chemscore.ZeroCoef>
-5.4800

> <Gold.Chemscore.Hbond>
4.9193

> <Gold.Chemscore.Metal>
0.0000

> <Gold.Chemscore.Lipo>
59.0325

> <Gold.Chemscore.Internal_Hbond>
0.0000

> <Gold.Chemscore.DEClash>
0.0146

> <Gold.Chemscore.DEInternal>
1.1228

> <Gold.Chemscore.Rot>
2.1140

> <Gold.Chemscore.Internal.Correction>
   9.000000E+99

> <Gold.Chemscore.Hbonds>
donor molecule, donor type, donor heavy atom, donor atom, acceptor molecule, acceptor atom, score
      L1  H     6    30       P1  7948  0.95
      L1  H     9    31       P1  7948  0.97
      L1  H    13    34       P1  7921  0.91
      L1  H    13    35       P1 10171  1.00
      P1  H  7997  8010       L1    23  0.89

> <Gold.Chemscore.Hbond.Weighted>
-16.4303

> <Gold.Chemscore.Metal.Weighted>
-0.0000

> <Gold.Chemscore.Lipo.Weighted>
-6.9068

> <Gold.Chemscore.Internal_Hbond.Weighted>
0.0000

> <Gold.Chemscore.DEClash.Weighted>
0.0146

> <Gold.Chemscore.DEInternal.Weighted>
1.1228

> <Gold.Chemscore.Rot.Weighted>
5.4119

> <Gold.Chemscore.Internal.Correction.Weighted>
   9.000000E+99

> <Gold.Protein.RotatedTorsions>
[ 6907 6896 6895 6894 ] final   30.99 input  -60.11 | X-H torsion
[ 7974 7965 7964 7962 ] final  -79.79 input  175.53 | X-H torsion
[ 8008 7997 7996 7995 ] final   70.07 input   59.86 | X-H torsion
[ 10167 10162 10161 10158 ] final -105.58 input  -65.29 | X-H torsion
[ 10718 10713 10712 10709 ] final    1.51 input   66.30 | X-H torsion
[ 10763 10752 10751 10750 ] final -177.05 input  -60.55 | X-H torsion
[ 11005 11000 10999 10996 ] final   76.91 input  -57.11 | X-H torsion

> <Gold.Protein.ActiveResidues>
 VAL166  LYS551  ARG553  GLY616  TRP617  ASP618  TYR619  PRO620  LYS621  CYS622 
 ASP623  PHE694  ASN695  SER759  ASP760  ASP761  ALA762  ILE779  LEU786  VAL792 
 PHE793  MET794  SER795  GLU796  ALA797  LYS798  CYS799  TRP800  GLU811  SER814 

> <Gold.Protein.RotatedAtoms>
  152.0539  134.9636  160.0574 H   0  0  0  0  0  0  0  0  0  0  0  0  # atno 6907 bound_to 6896
  152.1026  133.4253  159.4602 H   0  0  0  0  0  0  0  0  0  0  0  0  # atno 6908 bound_to 6896
  150.6840  134.2661  159.4612 H   0  0  0  0  0  0  0  0  0  0  0  0  # atno 6909 bound_to 6896
  145.5685  140.9470  143.1408 H   0  0  0  0  0  0  0  0  0  0  0  0  # atno 7974 bound_to 7965
  155.7332  140.3491  155.5069 H   0  0  0  0  0  0  0  0  0  0  0  0  # atno 8008 bound_to 7997
  155.9163  140.1059  157.1263 H   0  0  0  0  0  0  0  0  0  0  0  0  # atno 8009 bound_to 7997
  154.4063  140.1258  156.4608 H   0  0  0  0  0  0  0  0  0  0  0  0  # atno 8010 bound_to 7997
  140.1970  143.3848  152.1161 H   0  0  0  0  0  0  0  0  0  0  0  0  # atno 10167 bound_to 10162
  156.8493  130.5548  149.5671 H   0  0  0  0  0  0  0  0  0  0  0  0  # atno 10718 bound_to 10713
  154.5649  135.2823  155.0884 H   0  0  0  0  0  0  0  0  0  0  0  0  # atno 10763 bound_to 10752
  154.2279  135.6379  153.5169 H   0  0  0  0  0  0  0  0  0  0  0  0  # atno 10764 bound_to 10752
  153.0040  135.5530  154.6254 H   0  0  0  0  0  0  0  0  0  0  0  0  # atno 10765 bound_to 10752
  139.9277  134.7639  156.1455 H   0  0  0  0  0  0  0  0  0  0  0  0  # atno 11005 bound_to 11000
  144.7449  139.7348  143.7296 LP  0  0  0  0  0  0  0  0  0  0  0  0  # atno 17320 bound_to 7965
  146.1801  139.4989  142.9872 LP  0  0  0  0  0  0  0  0  0  0  0  0  # atno 17321 bound_to 7965
  139.5233  144.7069  151.5326 LP  0  0  0  0  0  0  0  0  0  0  0  0  # atno 17342 bound_to 10162
  140.6417  143.8876  150.6698 LP  0  0  0  0  0  0  0  0  0  0  0  0  # atno 17343 bound_to 10162
  156.0837  130.5841  150.9610 LP  0  0  0  0  0  0  0  0  0  0  0  0  # atno 17370 bound_to 10713
  157.6312  131.0921  150.8437 LP  0  0  0  0  0  0  0  0  0  0  0  0  # atno 17371 bound_to 10713
  141.0846  133.6739  156.2409 LP  0  0  0  0  0  0  0  0  0  0  0  0  # atno 17394 bound_to 11000
  140.6288  134.5285  157.5557 LP  0  0  0  0  0  0  0  0  0  0  0  0  # atno 17395 bound_to 11000

$$$$
