AV-unprocessed.smi:3076|AV-procd|sdf|11728|dock8
  -GOLD-   2272017123D 1   1.00000     0.00000
 Structure written by MMmdl.
 20 20  0  0  0  0  0  0  0  0  1 V2000
  150.9739  143.4110  157.0294 N   0  0  0  0  0  0  0  0  0  0  0  0
  151.8595  144.5372  157.3624 C   0  0  0  0  0  0  0  0  0  0  0  0
  151.6592  145.0501  158.7991 C   0  0  1  0  0  0  0  0  0  0  0  0
  150.2849  145.3253  158.9870 O   0  0  0  0  0  0  0  0  0  0  0  0
  152.1606  144.0339  159.8128 C   0  0  0  0  0  0  0  0  0  0  0  0
  152.7707  142.8276  159.4045 C   0  0  0  0  0  0  0  0  0  0  0  0
  153.2276  141.9287  160.3873 C   0  0  0  0  0  0  0  0  0  0  0  0
  153.0573  142.2738  161.7426 C   0  0  0  0  0  0  0  0  0  0  0  0
  152.4784  143.4245  162.1470 N   0  0  0  0  0  0  0  0  0  0  0  0
  152.0432  144.2812  161.1979 C   0  0  0  0  0  0  0  0  0  0  0  0
  150.2019  143.7257  156.4436 H   0  0  0  0  0  0  0  0  0  0  0  0
  151.4816  142.7029  156.5012 H   0  0  0  0  0  0  0  0  0  0  0  0
  152.9025  144.2648  157.1974 H   0  0  0  0  0  0  0  0  0  0  0  0
  151.6474  145.3525  156.6699 H   0  0  0  0  0  0  0  0  0  0  0  0
  152.2113  145.9811  158.9377 H   0  0  0  0  0  0  0  0  0  0  0  0
  149.8975  145.5075  158.1447 H   0  0  0  0  0  0  0  0  0  0  0  0
  152.8902  142.5946  158.3564 H   0  0  0  0  0  0  0  0  0  0  0  0
  153.6991  140.9979  160.1091 H   0  0  0  0  0  0  0  0  0  0  0  0
  153.3971  141.6084  162.5224 H   0  0  0  0  0  0  0  0  0  0  0  0
  151.5895  145.1929  161.5581 H   0  0  0  0  0  0  0  0  0  0  0  0
  1  2  1  0  0  0  0
  1 11  1  0  0  0  0
  1 12  1  0  0  0  0
  2  3  1  0  0  0  0
  2 13  1  0  0  0  0
  2 14  1  0  0  0  0
  3  4  1  0  0  0  0
  3  5  1  0  0  0  0
  3 15  1  0  0  0  0
  4 16  1  0  0  0  0
  5 10  1  0  0  0  0
  5  6  2  0  0  0  0
  6  7  1  0  0  0  0
  6 17  1  0  0  0  0
  7  8  2  0  0  0  0
  7 18  1  0  0  0  0
  8  9  1  0  0  0  0
  8 19  1  0  0  0  0
  9 10  2  0  0  0  0
 10 20  1  0  0  0  0
M  END
> <s_m_source_file>
AV-unprocessed.smi

> <i_m_source_file_index>
3076

> <i_lp_mmshare_version>
43012

> <i_f3d_flags>
0

> <s_epik_input>
W05IMl1bQ0gyXVtDQEhdKFtPSF0pYzFbY0hdW2NIXVtjSF1uW2NIXTE=

> <s_epik_cmdline>
J2VwaWtfcHl0aG9uJywgJy1waCcsICc3LjAnLCAnLXRuJywgJzgnLCAnLW1hJywgJzIwMCcsICctbWV0YWxfYmluZGluZycsICctaW1hZScsICc8aW5maWxlLm1hZT4nLCAnLW9tYWUnLCAnPG91dGZpbGUubWFlPic=

> <r_epik_Ionization_Penalty>
2.22627

> <r_epik_Ionization_Penalty_Charging>
0

> <r_epik_Ionization_Penalty_Neutral>
2.22627

> <r_epik_State_Penalty>
2.36938

> <r_epik_Charging_Adjusted_Penalty>
2.36938

> <i_epik_Tot_Q>
0

> <i_epik_Tot_abs_Q>
0

> <r_epik_Metal_State_Penalty>
2.36785

> <b_epik_Metal_Only>
0

> <s_lp_Force_Field>
OPLS_2005

> <r_lp_Energy>
11.5599

> <b_lp_Chiralities_Consistent>
1

> <s_lp_Variant>
AV-unprocessed.smi:3076-4

> <Gold.Version>
5.8.1

> <Gold.Id.Protein>
6NUR|6NUR_protein|mol2

> <Gold.PLP.Fitness>
36.9980

> <Gold.PLP.PLP>
-32.0775

> <Gold.PLP.part.hbond>
-2.0000

> <Gold.PLP.part.metal>
0.0000

> <Gold.PLP.part.buried>
-4.9628

> <Gold.PLP.part.nonpolar>
-25.8900

> <Gold.PLP.part.repulsive>
0.1573

> <Gold.PLP.ligand.clash>
0.0000

> <Gold.PLP.ligand.torsion>
0.0493

> <Gold.PLP.Chemscore.Hbond>
1.6721

> <Gold.PLP.Chemscore.CHOScore>
0.0000

> <Gold.PLP.Chemscore.Metal>
0.0000

> <Gold.Chemscore.Hbonds>
donor molecule, donor type, donor heavy atom, donor atom, acceptor molecule, acceptor atom, score
      L1  H     1    11       P1  8028  1.00
      L1  H     4    16       P1  8029  0.46

> <Gold.PLP.Chemscore.Internal.Correction>
0.0027

> <Gold.Rescore>
     Score         DG    S(hbond)    S(metal)    S(lipo)     H(rot)  DE(clash)    DE(int)     intcor
     16.14     -16.49       1.77        0.00      83.83       1.85       0.21       0.15       ----

> <Gold.Chemscore.Fitness>
16.1382

> <Gold.Chemscore.DG>
-16.4897

> <Gold.Chemscore.ZeroCoef>
-5.4800

> <Gold.Chemscore.Hbond>
1.7742

> <Gold.Chemscore.Metal>
0.0000

> <Gold.Chemscore.Lipo>
83.8322

> <Gold.Chemscore.Internal_Hbond>
0.0000

> <Gold.Chemscore.DEClash>
0.2056

> <Gold.Chemscore.DEInternal>
0.1459

> <Gold.Chemscore.Rot>
1.8455

> <Gold.Chemscore.Internal.Correction>
   9.000000E+99

> <Gold.Chemscore.Hbonds>
donor molecule, donor type, donor heavy atom, donor atom, acceptor molecule, acceptor atom, score
      L1  H     1    11       P1  8028  1.00
      L1  H     4    16       P1  8029  0.16

> <Gold.Chemscore.Hbond.Weighted>
-5.9258

> <Gold.Chemscore.Metal.Weighted>
-0.0000

> <Gold.Chemscore.Lipo.Weighted>
-9.8084

> <Gold.Chemscore.Internal_Hbond.Weighted>
0.0000

> <Gold.Chemscore.DEClash.Weighted>
0.2056

> <Gold.Chemscore.DEInternal.Weighted>
0.1459

> <Gold.Chemscore.Rot.Weighted>
4.7245

> <Gold.Chemscore.Internal.Correction.Weighted>
   9.000000E+99

> <Gold.Protein.RotatedTorsions>
[ 6907 6896 6895 6894 ] final  -36.14 input  -60.11 | X-H torsion
[ 7974 7965 7964 7962 ] final  100.28 input  175.53 | X-H torsion
[ 8008 7997 7996 7995 ] final  148.38 input   59.86 | X-H torsion
[ 10167 10162 10161 10158 ] final  -17.53 input  -65.29 | X-H torsion
[ 10718 10713 10712 10709 ] final  164.14 input   66.30 | X-H torsion
[ 10763 10752 10751 10750 ] final   33.25 input  -60.55 | X-H torsion
[ 11005 11000 10999 10996 ] final   59.90 input  -57.11 | X-H torsion

> <Gold.Protein.ActiveResidues>
 VAL166  LYS551  ARG553  GLY616  TRP617  ASP618  TYR619  PRO620  LYS621  CYS622 
 ASP623  PHE694  ASN695  SER759  ASP760  ASP761  ALA762  ILE779  LEU786  VAL792 
 PHE793  MET794  SER795  GLU796  ALA797  LYS798  CYS799  TRP800  GLU811  SER814 

> <Gold.Protein.RotatedAtoms>
  151.0309  134.9538  159.8110 H   0  0  0  0  0  0  0  0  0  0  0  0  # atno 6907 bound_to 6896
  152.5345  134.2781  159.9007 H   0  0  0  0  0  0  0  0  0  0  0  0  # atno 6908 bound_to 6896
  151.2791  133.4176  159.2660 H   0  0  0  0  0  0  0  0  0  0  0  0  # atno 6909 bound_to 6896
  145.3876  139.2368  143.3369 H   0  0  0  0  0  0  0  0  0  0  0  0  # atno 7974 bound_to 7965
  156.2793  140.2130  156.5690 H   0  0  0  0  0  0  0  0  0  0  0  0  # atno 8008 bound_to 7997
  154.7151  140.0508  157.0610 H   0  0  0  0  0  0  0  0  0  0  0  0  # atno 8009 bound_to 7997
  155.0553  140.3160  155.4681 H   0  0  0  0  0  0  0  0  0  0  0  0  # atno 8010 bound_to 7997
  140.7248  143.5006  150.9874 H   0  0  0  0  0  0  0  0  0  0  0  0  # atno 10167 bound_to 10162
  157.0986  131.0437  151.2507 H   0  0  0  0  0  0  0  0  0  0  0  0  # atno 10718 bound_to 10713
  153.0221  135.6392  154.1482 H   0  0  0  0  0  0  0  0  0  0  0  0  # atno 10763 bound_to 10752
  154.1215  135.2846  155.3209 H   0  0  0  0  0  0  0  0  0  0  0  0  # atno 10764 bound_to 10752
  154.6260  135.5509  153.7689 H   0  0  0  0  0  0  0  0  0  0  0  0  # atno 10765 bound_to 10752
  140.0270  134.6067  155.9558 H   0  0  0  0  0  0  0  0  0  0  0  0  # atno 11005 bound_to 11000
  146.2812  140.4554  142.8775 LP  0  0  0  0  0  0  0  0  0  0  0  0  # atno 17320 bound_to 7965
  144.8463  140.6933  143.6197 LP  0  0  0  0  0  0  0  0  0  0  0  0  # atno 17321 bound_to 7965
  139.8715  143.7186  152.3166 LP  0  0  0  0  0  0  0  0  0  0  0  0  # atno 17342 bound_to 10162
  139.7436  144.7553  151.0613 LP  0  0  0  0  0  0  0  0  0  0  0  0  # atno 17343 bound_to 10162
  157.4660  130.7681  149.7280 LP  0  0  0  0  0  0  0  0  0  0  0  0  # atno 17370 bound_to 10713
  155.9879  130.3963  150.3141 LP  0  0  0  0  0  0  0  0  0  0  0  0  # atno 17371 bound_to 10713
  141.1809  133.6546  156.5015 LP  0  0  0  0  0  0  0  0  0  0  0  0  # atno 17394 bound_to 11000
  140.4289  134.7120  157.4931 LP  0  0  0  0  0  0  0  0  0  0  0  0  # atno 17395 bound_to 11000

$$$$
