AV-unprocessed.smi:454|AV-procd|sdf|2612|dock8
  -GOLD-   2262023 13D 1   1.00000     0.00000
 Structure written by MMmdl.
 43 44  0  0  0  0  0  0  0  0  1 V2000
  149.6121  129.0693  153.8685 C   0  0  0  0  0  0  0  0  0  0  0  0
  149.4355  130.4745  153.8320 O   0  0  0  0  0  0  0  0  0  0  0  0
  149.7282  131.0911  155.0751 C   0  0  0  0  0  0  0  0  0  0  0  0
  149.7707  132.6107  154.8847 C   0  0  0  0  0  0  0  0  0  0  0  0
  150.3613  133.2771  156.0367 N   0  0  0  0  0  0  0  0  0  0  0  0
  150.7213  134.6297  155.9710 C   0  0  0  0  0  0  0  0  0  0  0  0
  150.4123  135.3536  154.7989 C   0  0  0  0  0  0  0  0  0  0  0  0
  150.7765  136.7120  154.7221 C   0  0  0  0  0  0  0  0  0  0  0  0
  151.4438  137.2873  155.8200 C   0  0  0  0  0  0  0  0  0  0  0  0
  151.9393  139.0042  155.7834 S   0  0  0  0  0  0  0  0  0  0  0  0
  153.4073  139.0631  155.8649 O   0  0  0  0  0  0  0  0  0  0  0  0
  151.2390  139.6634  154.6699 O   0  0  0  0  0  0  0  0  0  0  0  0
  151.2963  139.6412  157.2694 N   0  0  0  0  0  0  0  0  0  0  0  0
  150.2654  140.6937  157.2215 C   0  0  0  0  0  0  0  0  0  0  0  0
  150.8704  142.0886  157.4728 C   0  0  0  0  0  0  0  0  0  0  0  0
  151.6059  142.1088  158.7342 N   0  0  0  0  0  0  0  0  0  0  0  0
  152.1445  143.4428  158.9581 C   0  0  0  0  0  0  0  0  0  0  0  0
  152.7046  141.1487  158.6684 C   0  0  0  0  0  0  0  0  0  0  0  0
  152.1639  139.7208  158.4585 C   0  0  0  0  0  0  0  0  0  0  0  0
  151.7014  136.4938  156.9548 C   0  0  0  0  0  0  0  0  0  0  0  0
  151.3551  135.1908  157.0295 N   0  0  0  0  0  0  0  0  0  0  0  0
  149.3794  128.6455  152.8917 H   0  0  0  0  0  0  0  0  0  0  0  0
  148.9500  128.6072  154.6022 H   0  0  0  0  0  0  0  0  0  0  0  0
  150.6425  128.8073  154.1124 H   0  0  0  0  0  0  0  0  0  0  0  0
  148.9487  130.8386  155.7956 H   0  0  0  0  0  0  0  0  0  0  0  0
  150.6749  130.7265  155.4777 H   0  0  0  0  0  0  0  0  0  0  0  0
  150.3290  132.8609  153.9818 H   0  0  0  0  0  0  0  0  0  0  0  0
  148.7553  132.9852  154.7511 H   0  0  0  0  0  0  0  0  0  0  0  0
  150.6752  132.7130  156.8132 H   0  0  0  0  0  0  0  0  0  0  0  0
  149.9061  134.8794  153.9708 H   0  0  0  0  0  0  0  0  0  0  0  0
  150.5579  137.2898  153.8363 H   0  0  0  0  0  0  0  0  0  0  0  0
  149.7439  140.6729  156.2650 H   0  0  0  0  0  0  0  0  0  0  0  0
  149.5170  140.4777  157.9849 H   0  0  0  0  0  0  0  0  0  0  0  0
  151.5284  142.3750  156.6526 H   0  0  0  0  0  0  0  0  0  0  0  0
  150.0700  142.8287  157.5078 H   0  0  0  0  0  0  0  0  0  0  0  0
  152.6915  143.4810  159.9008 H   0  0  0  0  0  0  0  0  0  0  0  0
  151.3397  144.1767  159.0120 H   0  0  0  0  0  0  0  0  0  0  0  0
  152.8234  143.7388  158.1568 H   0  0  0  0  0  0  0  0  0  0  0  0
  153.3904  141.4219  157.8666 H   0  0  0  0  0  0  0  0  0  0  0  0
  153.2752  141.1858  159.5971 H   0  0  0  0  0  0  0  0  0  0  0  0
  151.5824  139.4190  159.3302 H   0  0  0  0  0  0  0  0  0  0  0  0
  152.9872  139.0119  158.3772 H   0  0  0  0  0  0  0  0  0  0  0  0
  152.2092  136.9030  157.8156 H   0  0  0  0  0  0  0  0  0  0  0  0
  1  2  1  0  0  0  0
  1 22  1  0  0  0  0
  1 23  1  0  0  0  0
  1 24  1  0  0  0  0
  2  3  1  0  0  0  0
  3  4  1  0  0  0  0
  3 25  1  0  0  0  0
  3 26  1  0  0  0  0
  4  5  1  0  0  0  0
  4 27  1  0  0  0  0
  4 28  1  0  0  0  0
  5  6  1  0  0  0  0
  5 29  1  0  0  0  0
  6 21  1  0  0  0  0
  6  7  2  0  0  0  0
  7  8  1  0  0  0  0
  7 30  1  0  0  0  0
  8  9  2  0  0  0  0
  8 31  1  0  0  0  0
  9 10  1  0  0  0  0
  9 20  1  0  0  0  0
 10 11  2  0  0  0  0
 10 12  2  0  0  0  0
 10 13  1  0  0  0  0
 13 19  1  0  0  0  0
 13 14  1  0  0  0  0
 14 15  1  0  0  0  0
 14 32  1  0  0  0  0
 14 33  1  0  0  0  0
 15 16  1  0  0  0  0
 15 34  1  0  0  0  0
 15 35  1  0  0  0  0
 16 17  1  0  0  0  0
 16 18  1  0  0  0  0
 17 36  1  0  0  0  0
 17 37  1  0  0  0  0
 17 38  1  0  0  0  0
 18 19  1  0  0  0  0
 18 39  1  0  0  0  0
 18 40  1  0  0  0  0
 19 41  1  0  0  0  0
 19 42  1  0  0  0  0
 20 21  2  0  0  0  0
 20 43  1  0  0  0  0
M  END
> <s_m_source_file>
AV-unprocessed.smi

> <i_m_source_file_index>
454

> <i_lp_mmshare_version>
43012

> <i_f3d_flags>
0

> <s_epik_input>
W0NIM11PW0NIMl1bQ0gyXVtOSF1jMVtjSF1bY0hdYyhbY0hdbjEpUyg9TykoPU8pTjJbQ0gyXVtDSDJdTihbQ0gzXSlbQ0gyXVtDSDJdMg==

> <s_epik_cmdline>
J2VwaWtfcHl0aG9uJywgJy1waCcsICc3LjAnLCAnLXRuJywgJzgnLCAnLW1hJywgJzIwMCcsICctbWV0YWxfYmluZGluZycsICctaW1hZScsICc8aW5maWxlLm1hZT4nLCAnLW9tYWUnLCAnPG91dGZpbGUubWFlPic=

> <r_lp_tautomer_probability>
1

> <r_epik_Ionization_Penalty>
0.0786276

> <r_epik_Ionization_Penalty_Charging>
0

> <r_epik_Ionization_Penalty_Neutral>
0.0786276

> <r_epik_State_Penalty>
0.0691961

> <r_epik_Charging_Adjusted_Penalty>
0.0691961

> <i_epik_Tot_Q>
0

> <i_epik_Tot_abs_Q>
0

> <r_epik_Metal_State_Penalty>
0.0691754

> <b_epik_Metal_Only>
0

> <s_lp_Force_Field>
OPLS_2005

> <r_lp_Energy>
0.101834

> <b_lp_Chiralities_Consistent>
1

> <s_lp_Variant>
AV-unprocessed.smi:454-1

> <Gold.Version>
5.8.1

> <Gold.Id.Protein>
6NUR|6NUR_protein|mol2

> <Gold.PLP.Fitness>
38.6837

> <Gold.PLP.PLP>
-33.3820

> <Gold.PLP.part.hbond>
-2.5269

> <Gold.PLP.part.metal>
0.0000

> <Gold.PLP.part.buried>
-6.4224

> <Gold.PLP.part.nonpolar>
-25.6448

> <Gold.PLP.part.repulsive>
0.2569

> <Gold.PLP.ligand.clash>
0.0000

> <Gold.PLP.ligand.torsion>
2.2712

> <Gold.PLP.Chemscore.Hbond>
1.9120

> <Gold.PLP.Chemscore.CHOScore>
0.0000

> <Gold.PLP.Chemscore.Metal>
0.0000

> <Gold.Chemscore.Hbonds>
donor molecule, donor type, donor heavy atom, donor atom, acceptor molecule, acceptor atom, score
      P1  H  7989  7998       L1    12  1.00
      P1  H  7997  8008       L1    11  0.86

> <Gold.PLP.Chemscore.Internal.Correction>
4.1080

> <Gold.Rescore>
     Score         DG    S(hbond)    S(metal)    S(lipo)     H(rot)  DE(clash)    DE(int)     intcor
     14.51     -16.78       1.86        0.00      74.15       1.40       0.01       2.27       ----

> <Gold.Chemscore.Fitness>
14.5067

> <Gold.Chemscore.DG>
-16.7798

> <Gold.Chemscore.ZeroCoef>
-5.4800

> <Gold.Chemscore.Hbond>
1.8564

> <Gold.Chemscore.Metal>
0.0000

> <Gold.Chemscore.Lipo>
74.1537

> <Gold.Chemscore.Internal_Hbond>
0.0000

> <Gold.Chemscore.DEClash>
0.0057

> <Gold.Chemscore.DEInternal>
2.2673

> <Gold.Chemscore.Rot>
1.3970

> <Gold.Chemscore.Internal.Correction>
   9.000000E+99

> <Gold.Chemscore.Hbonds>
donor molecule, donor type, donor heavy atom, donor atom, acceptor molecule, acceptor atom, score
      P1  H  7989  7998       L1    12  1.00
      P1  H  7997  8008       L1    11  0.80

> <Gold.Chemscore.Hbond.Weighted>
-6.2002

> <Gold.Chemscore.Metal.Weighted>
-0.0000

> <Gold.Chemscore.Lipo.Weighted>
-8.6760

> <Gold.Chemscore.Internal_Hbond.Weighted>
0.0000

> <Gold.Chemscore.DEClash.Weighted>
0.0057

> <Gold.Chemscore.DEInternal.Weighted>
2.2673

> <Gold.Chemscore.Rot.Weighted>
3.5764

> <Gold.Chemscore.Internal.Correction.Weighted>
   9.000000E+99

> <Gold.Protein.RotatedTorsions>
[ 6907 6896 6895 6894 ] final   45.08 input  -60.11 | X-H torsion
[ 7974 7965 7964 7962 ] final   13.93 input  175.53 | X-H torsion
[ 8008 7997 7996 7995 ] final  -51.46 input   59.86 | X-H torsion
[ 10167 10162 10161 10158 ] final -167.85 input  -65.29 | X-H torsion
[ 10718 10713 10712 10709 ] final   64.64 input   66.30 | X-H torsion
[ 10763 10752 10751 10750 ] final  114.78 input  -60.55 | X-H torsion
[ 11005 11000 10999 10996 ] final -153.45 input  -57.11 | X-H torsion

> <Gold.Protein.ActiveResidues>
 VAL166  LYS551  ARG553  GLY616  TRP617  ASP618  TYR619  PRO620  LYS621  CYS622 
 ASP623  PHE694  ASN695  SER759  ASP760  ASP761  ALA762  ILE779  LEU786  VAL792 
 PHE793  MET794  SER795  GLU796  ALA797  LYS798  CYS799  TRP800  GLU811  SER814 

> <Gold.Protein.RotatedAtoms>
  152.2403  134.8235  160.0460 H   0  0  0  0  0  0  0  0  0  0  0  0  # atno 6907 bound_to 6896
  151.8952  133.3520  159.3820 H   0  0  0  0  0  0  0  0  0  0  0  0  # atno 6908 bound_to 6896
  150.7052  134.4810  159.5514 H   0  0  0  0  0  0  0  0  0  0  0  0  # atno 6909 bound_to 6896
  146.2317  139.9115  142.8523 H   0  0  0  0  0  0  0  0  0  0  0  0  # atno 7974 bound_to 7965
  154.4083  140.1247  156.4832 H   0  0  0  0  0  0  0  0  0  0  0  0  # atno 8008 bound_to 7997
  155.7064  140.3494  155.4935 H   0  0  0  0  0  0  0  0  0  0  0  0  # atno 8009 bound_to 7997
  155.9339  140.1074  157.1100 H   0  0  0  0  0  0  0  0  0  0  0  0  # atno 8010 bound_to 7997
  139.6023  144.0985  152.1756 H   0  0  0  0  0  0  0  0  0  0  0  0  # atno 10167 bound_to 10162
  157.6053  130.9171  149.9872 H   0  0  0  0  0  0  0  0  0  0  0  0  # atno 10718 bound_to 10713
  153.5123  135.3615  155.2592 H   0  0  0  0  0  0  0  0  0  0  0  0  # atno 10763 bound_to 10752
  154.8741  135.4026  154.3354 H   0  0  0  0  0  0  0  0  0  0  0  0  # atno 10764 bound_to 10752
  153.4010  135.7075  153.6493 H   0  0  0  0  0  0  0  0  0  0  0  0  # atno 10765 bound_to 10752
  140.7079  134.3864  157.5201 H   0  0  0  0  0  0  0  0  0  0  0  0  # atno 11005 bound_to 11000
  145.2225  140.9941  143.4037 LP  0  0  0  0  0  0  0  0  0  0  0  0  # atno 17320 bound_to 7965
  144.9598  139.3992  143.6361 LP  0  0  0  0  0  0  0  0  0  0  0  0  # atno 17321 bound_to 7965
  140.0584  144.5876  150.7282 LP  0  0  0  0  0  0  0  0  0  0  0  0  # atno 17342 bound_to 10162
  140.7259  143.2635  151.4122 LP  0  0  0  0  0  0  0  0  0  0  0  0  # atno 17343 bound_to 10162
  156.1137  130.3649  150.0004 LP  0  0  0  0  0  0  0  0  0  0  0  0  # atno 17370 bound_to 10713
  156.8097  130.9320  151.3644 LP  0  0  0  0  0  0  0  0  0  0  0  0  # atno 17371 bound_to 10713
  139.8879  134.8870  156.2502 LP  0  0  0  0  0  0  0  0  0  0  0  0  # atno 17394 bound_to 11000
  141.0109  133.7096  156.1109 LP  0  0  0  0  0  0  0  0  0  0  0  0  # atno 17395 bound_to 11000

$$$$
