AV-unprocessed.smi:419|AV-procd|sdf|2530|dock4
  -GOLD-   2262022483D 1   1.00000     0.00000
 Structure written by MMmdl.
 44 46  0  0  0  0  0  0  0  0  1 V2000
  149.7066  133.0180  155.6124 C   0  0  0  0  0  0  0  0  0  0  0  0
  149.5715  133.9576  156.6688 O   0  0  0  0  0  0  0  0  0  0  0  0
  149.6493  135.2983  156.3580 C   0  0  0  0  0  0  0  0  0  0  0  0
  149.5128  136.2130  157.4206 C   0  0  0  0  0  0  0  0  0  0  0  0
  149.5798  137.6001  157.1910 C   0  0  0  0  0  0  0  0  0  0  0  0
  149.7857  138.1072  155.8930 C   0  0  0  0  0  0  0  0  0  0  0  0
  149.8399  139.4779  155.7563 O   0  0  0  0  0  0  0  0  0  0  0  0
  149.1643  140.2775  156.7184 C   0  0  0  0  0  0  0  0  0  0  0  0
  149.7347  141.7045  156.6688 C   0  0  2  0  0  0  0  0  0  0  0  0
  149.2560  142.3070  155.4826 O   0  0  0  0  0  0  0  0  0  0  0  0
  151.2760  141.7021  156.6061 C   0  0  0  0  0  0  0  0  0  0  0  0
  151.8758  141.7635  157.9383 N   0  0  0  0  0  0  0  0  0  0  0  0
  152.6411  140.8101  158.5213 C   0  0  0  0  0  0  0  0  0  0  0  0
  152.9535  139.7301  158.0199 O   0  0  0  0  0  0  0  0  0  0  0  0
  153.0014  141.2534  159.7483 N   0  0  0  0  0  0  0  0  0  0  0  0
  153.8296  140.5569  160.7251 C   0  0  0  0  0  0  0  0  0  0  0  0
  152.4542  142.5259  159.9561 C   0  0  0  0  0  0  0  0  0  0  0  0
  152.5397  143.3977  161.0550 C   0  0  0  0  0  0  0  0  0  0  0  0
  151.8586  144.6333  160.9532 C   0  0  0  0  0  0  0  0  0  0  0  0
  151.1228  144.9636  159.7854 C   0  0  0  0  0  0  0  0  0  0  0  0
  151.0545  144.0668  158.6933 C   0  0  0  0  0  0  0  0  0  0  0  0
  151.7432  142.8474  158.8190 C   0  0  0  0  0  0  0  0  0  0  0  0
  149.9237  137.1914  154.8210 C   0  0  0  0  0  0  0  0  0  0  0  0
  149.8563  135.8033  155.0507 C   0  0  0  0  0  0  0  0  0  0  0  0
  149.6225  132.0088  156.0153 H   0  0  0  0  0  0  0  0  0  0  0  0
  150.6809  133.0992  155.1285 H   0  0  0  0  0  0  0  0  0  0  0  0
  148.9205  133.1414  154.8663 H   0  0  0  0  0  0  0  0  0  0  0  0
  149.3553  135.8470  158.4247 H   0  0  0  0  0  0  0  0  0  0  0  0
  149.4731  138.2826  158.0214 H   0  0  0  0  0  0  0  0  0  0  0  0
  148.1055  140.3023  156.4555 H   0  0  0  0  0  0  0  0  0  0  0  0
  149.2486  139.8588  157.7232 H   0  0  0  0  0  0  0  0  0  0  0  0
  149.3910  142.2650  157.5394 H   0  0  0  0  0  0  0  0  0  0  0  0
  149.2825  143.2453  155.5937 H   0  0  0  0  0  0  0  0  0  0  0  0
  151.6230  140.7800  156.1371 H   0  0  0  0  0  0  0  0  0  0  0  0
  151.6455  142.5074  155.9703 H   0  0  0  0  0  0  0  0  0  0  0  0
  153.3404  140.5483  161.6993 H   0  0  0  0  0  0  0  0  0  0  0  0
  154.7907  141.0607  160.8293 H   0  0  0  0  0  0  0  0  0  0  0  0
  154.0183  139.5217  160.4377 H   0  0  0  0  0  0  0  0  0  0  0  0
  153.1006  143.1381  161.9406 H   0  0  0  0  0  0  0  0  0  0  0  0
  151.8987  145.3334  161.7747 H   0  0  0  0  0  0  0  0  0  0  0  0
  150.6082  145.9114  159.7294 H   0  0  0  0  0  0  0  0  0  0  0  0
  150.4941  144.3136  157.8039 H   0  0  0  0  0  0  0  0  0  0  0  0
  150.0833  137.5279  153.8081 H   0  0  0  0  0  0  0  0  0  0  0  0
  149.9675  135.1447  154.2028 H   0  0  0  0  0  0  0  0  0  0  0  0
  1  2  1  0  0  0  0
  1 25  1  0  0  0  0
  1 26  1  0  0  0  0
  1 27  1  0  0  0  0
  2  3  1  0  0  0  0
  3 24  1  0  0  0  0
  3  4  2  0  0  0  0
  4  5  1  0  0  0  0
  4 28  1  0  0  0  0
  5  6  2  0  0  0  0
  5 29  1  0  0  0  0
  6  7  1  0  0  0  0
  6 23  1  0  0  0  0
  7  8  1  0  0  0  0
  8  9  1  0  0  0  0
  8 30  1  0  0  0  0
  8 31  1  0  0  0  0
  9 10  1  0  0  0  0
  9 11  1  0  0  0  0
  9 32  1  0  0  0  0
 10 33  1  0  0  0  0
 11 12  1  0  0  0  0
 11 34  1  0  0  0  0
 11 35  1  0  0  0  0
 12 22  1  0  0  0  0
 12 13  1  0  0  0  0
 13 14  2  0  0  0  0
 13 15  1  0  0  0  0
 15 16  1  0  0  0  0
 15 17  1  0  0  0  0
 16 36  1  0  0  0  0
 16 37  1  0  0  0  0
 16 38  1  0  0  0  0
 17 22  2  0  0  0  0
 17 18  1  0  0  0  0
 18 19  2  0  0  0  0
 18 39  1  0  0  0  0
 19 20  1  0  0  0  0
 19 40  1  0  0  0  0
 20 21  2  0  0  0  0
 20 41  1  0  0  0  0
 21 22  1  0  0  0  0
 21 42  1  0  0  0  0
 23 24  2  0  0  0  0
 23 43  1  0  0  0  0
 24 44  1  0  0  0  0
M  END
> <s_m_source_file>
AV-unprocessed.smi

> <i_m_source_file_index>
419

> <i_lp_mmshare_version>
43012

> <i_f3d_flags>
0

> <s_epik_input>
W0NIM11PYzFbY0hdW2NIXWMoW2NIXVtjSF0xKU9bQ0gyXVtDQEhdKFtPSF0pW0NIMl1uKGMoPU8pbjJbQ0gzXSljKGMyMylbY0hdW2NIXVtjSF1bY0hdMw==

> <s_epik_cmdline>
J2VwaWtfcHl0aG9uJywgJy1waCcsICc3LjAnLCAnLXRuJywgJzgnLCAnLW1hJywgJzIwMCcsICctbWV0YWxfYmluZGluZycsICctaW1hZScsICc8aW5maWxlLm1hZT4nLCAnLW9tYWUnLCAnPG91dGZpbGUubWFlPic=

> <r_lp_tautomer_probability>
1

> <r_epik_Ionization_Penalty>
2.40131e-06

> <r_epik_Ionization_Penalty_Charging>
2.01037e-09

> <r_epik_Ionization_Penalty_Neutral>
2.3993e-06

> <r_epik_State_Penalty>
-0

> <r_epik_Charging_Adjusted_Penalty>
2.01037e-09

> <i_epik_Tot_Q>
0

> <i_epik_Tot_abs_Q>
0

> <r_epik_Metal_State_Penalty>
-0

> <b_epik_Metal_Only>
0

> <s_lp_Force_Field>
OPLS_2005

> <r_lp_Energy>
51.0107

> <b_lp_Chiralities_Consistent>
1

> <s_lp_Variant>
AV-unprocessed.smi:419-1

> <Gold.Version>
5.8.1

> <Gold.Id.Protein>
6NUR|6NUR_protein|mol2

> <Gold.PLP.Fitness>
50.7065

> <Gold.PLP.PLP>
-43.4405

> <Gold.PLP.part.hbond>
-3.0000

> <Gold.PLP.part.metal>
0.0000

> <Gold.PLP.part.buried>
-6.9509

> <Gold.PLP.part.nonpolar>
-33.4007

> <Gold.PLP.part.repulsive>
0.0022

> <Gold.PLP.ligand.clash>
0.0000

> <Gold.PLP.ligand.torsion>
0.9428

> <Gold.PLP.Chemscore.Hbond>
3.0000

> <Gold.PLP.Chemscore.CHOScore>
0.0000

> <Gold.PLP.Chemscore.Metal>
0.0000

> <Gold.Chemscore.Hbonds>
donor molecule, donor type, donor heavy atom, donor atom, acceptor molecule, acceptor atom, score
      L1  H    10    33       P1  8028  0.99
      P1  H  7997  8008       L1    14  1.00

> <Gold.PLP.Chemscore.Internal.Correction>
0.1516

> <Gold.Rescore>
     Score         DG    S(hbond)    S(metal)    S(lipo)     H(rot)  DE(clash)    DE(int)     intcor
     20.24     -21.26       2.73        0.00     109.26       2.40       0.04       0.98       ----

> <Gold.Chemscore.Fitness>
20.2447

> <Gold.Chemscore.DG>
-21.2640

> <Gold.Chemscore.ZeroCoef>
-5.4800

> <Gold.Chemscore.Hbond>
2.7342

> <Gold.Chemscore.Metal>
0.0000

> <Gold.Chemscore.Lipo>
109.2608

> <Gold.Chemscore.Internal_Hbond>
0.0000

> <Gold.Chemscore.DEClash>
0.0396

> <Gold.Chemscore.DEInternal>
0.9796

> <Gold.Chemscore.Rot>
2.3952

> <Gold.Chemscore.Internal.Correction>
   9.000000E+99

> <Gold.Chemscore.Hbonds>
donor molecule, donor type, donor heavy atom, donor atom, acceptor molecule, acceptor atom, score
      L1  H    10    33       P1  8028  0.92
      P1  H  7997  8008       L1    14  0.60

> <Gold.Chemscore.Hbond.Weighted>
-9.1321

> <Gold.Chemscore.Metal.Weighted>
-0.0000

> <Gold.Chemscore.Lipo.Weighted>
-12.7835

> <Gold.Chemscore.Internal_Hbond.Weighted>
0.0000

> <Gold.Chemscore.DEClash.Weighted>
0.0396

> <Gold.Chemscore.DEInternal.Weighted>
0.9796

> <Gold.Chemscore.Rot.Weighted>
6.1316

> <Gold.Chemscore.Internal.Correction.Weighted>
   9.000000E+99

> <Gold.Protein.RotatedTorsions>
[ 6907 6896 6895 6894 ] final -114.21 input  -60.11 | X-H torsion
[ 7974 7965 7964 7962 ] final   36.82 input  175.53 | X-H torsion
[ 8008 7997 7996 7995 ] final  -78.85 input   59.86 | X-H torsion
[ 10167 10162 10161 10158 ] final  -56.17 input  -65.29 | X-H torsion
[ 10718 10713 10712 10709 ] final  -15.59 input   66.30 | X-H torsion
[ 10763 10752 10751 10750 ] final  162.97 input  -60.55 | X-H torsion
[ 11005 11000 10999 10996 ] final  -31.79 input  -57.11 | X-H torsion

> <Gold.Protein.ActiveResidues>
 VAL166  LYS551  ARG553  GLY616  TRP617  ASP618  TYR619  PRO620  LYS621  CYS622 
 ASP623  PHE694  ASN695  SER759  ASP760  ASP761  ALA762  ILE779  LEU786  VAL792 
 PHE793  MET794  SER795  GLU796  ALA797  LYS798  CYS799  TRP800  GLU811  SER814 

> <Gold.Protein.RotatedAtoms>
  150.7885  133.8834  159.3292 H   0  0  0  0  0  0  0  0  0  0  0  0  # atno 6907 bound_to 6896
  151.6678  135.0978  160.0201 H   0  0  0  0  0  0  0  0  0  0  0  0  # atno 6908 bound_to 6896
  152.3954  133.6701  159.6307 H   0  0  0  0  0  0  0  0  0  0  0  0  # atno 6909 bound_to 6896
  146.1183  139.5970  142.9307 H   0  0  0  0  0  0  0  0  0  0  0  0  # atno 7974 bound_to 7965
  154.5729  140.0687  156.8991 H   0  0  0  0  0  0  0  0  0  0  0  0  # atno 8008 bound_to 7997
  155.2602  140.3358  155.4255 H   0  0  0  0  0  0  0  0  0  0  0  0  # atno 8009 bound_to 7997
  156.2132  140.1767  156.7634 H   0  0  0  0  0  0  0  0  0  0  0  0  # atno 8010 bound_to 7997
  140.6332  143.2469  151.5185 H   0  0  0  0  0  0  0  0  0  0  0  0  # atno 10167 bound_to 10162
  156.5995  130.4820  149.6245 H   0  0  0  0  0  0  0  0  0  0  0  0  # atno 10718 bound_to 10713
  154.2865  135.2762  155.2674 H   0  0  0  0  0  0  0  0  0  0  0  0  # atno 10763 bound_to 10752
  154.5171  135.5766  153.6655 H   0  0  0  0  0  0  0  0  0  0  0  0  # atno 10764 bound_to 10752
  152.9921  135.6195  154.3027 H   0  0  0  0  0  0  0  0  0  0  0  0  # atno 10765 bound_to 10752
  140.9498  133.7228  156.1202 H   0  0  0  0  0  0  0  0  0  0  0  0  # atno 11005 bound_to 11000
  145.5520  141.0412  143.2273 LP  0  0  0  0  0  0  0  0  0  0  0  0  # atno 17320 bound_to 7965
  144.7573  139.7043  143.7249 LP  0  0  0  0  0  0  0  0  0  0  0  0  # atno 17321 bound_to 7965
  139.5545  144.2311  152.1588 LP  0  0  0  0  0  0  0  0  0  0  0  0  # atno 17342 bound_to 10162
  140.1561  144.5070  150.6659 LP  0  0  0  0  0  0  0  0  0  0  0  0  # atno 17343 bound_to 10162
  156.2481  130.6891  151.1619 LP  0  0  0  0  0  0  0  0  0  0  0  0  # atno 17370 bound_to 10713
  157.7283  131.0633  150.5826 LP  0  0  0  0  0  0  0  0  0  0  0  0  # atno 17371 bound_to 10713
  140.7619  134.3930  157.5524 LP  0  0  0  0  0  0  0  0  0  0  0  0  # atno 17394 bound_to 11000
  139.8844  134.8967  156.2706 LP  0  0  0  0  0  0  0  0  0  0  0  0  # atno 17395 bound_to 11000

$$$$
