AV-unprocessed.smi:75|AV-procd|sdf|766|dock4
  -GOLD-   2262017103D 1   1.00000     0.00000
 Structure written by MMmdl.
 51 54  0  0  0  0  0  0  0  0  1 V2000
  151.1022  137.2856  155.4403 N   0  0  0  0  0  0  0  0  0  0  0  0
  150.7831  138.4501  154.8701 C   0  0  0  0  0  0  0  0  0  0  0  0
  151.4709  139.4588  155.0106 O   0  0  0  0  0  0  0  0  0  0  0  0
  149.4906  138.4930  154.0475 C   0  0  0  0  0  0  0  0  0  0  0  0
  148.4628  139.5705  154.4956 C   0  0  1  0  0  0  0  0  0  0  0  0
  149.1059  140.9693  154.3615 C   0  0  0  0  0  0  0  0  0  0  0  0
  148.1931  141.9836  154.7633 O   0  0  0  0  0  0  0  0  0  0  0  0
  147.0323  141.9998  153.9439 C   0  0  0  0  0  0  0  0  0  0  0  0
  146.3052  140.6570  154.0891 C   0  0  0  0  0  0  0  0  0  0  0  0
  147.1967  139.5533  153.7453 N   0  0  0  0  0  0  0  0  0  0  0  0
  146.5115  138.3898  153.7126 C   0  0  0  0  0  0  0  0  0  0  0  0
  146.0719  137.9002  154.8975 N   0  0  0  0  0  0  0  0  0  0  0  0
  145.3815  136.7565  154.9303 C   0  0  0  0  0  0  0  0  0  0  0  0
  145.0347  135.9601  153.9165 N   0  0  0  0  0  0  0  0  0  0  0  0
  145.4843  136.4473  152.7239 C   0  0  0  0  0  0  0  0  0  0  0  0
  146.2302  137.6439  152.5327 C   0  0  0  0  0  0  0  0  0  0  0  0
  146.5129  137.8181  151.1835 N   0  0  0  0  0  0  0  0  0  0  0  0
  145.9616  136.7844  150.6085 C   0  0  0  0  0  0  0  0  0  0  0  0
  145.3225  135.9090  151.4583 N   0  0  0  0  0  0  0  0  0  0  0  0
  144.6423  134.6999  151.0912 C   0  0  0  0  0  0  0  0  0  0  0  0
  144.3622  133.6103  152.1289 C   0  0  0  0  0  0  0  0  0  0  0  0
  144.5395  132.5367  151.0290 C   0  0  0  0  0  0  0  0  0  0  0  0
  145.3019  131.2525  151.4102 C   0  0  0  0  0  0  0  0  0  0  0  0
  146.6003  131.5194  151.9024 O   0  0  0  0  0  0  0  0  0  0  0  0
  143.2445  132.1036  150.3164 C   0  0  0  0  0  0  0  0  0  0  0  0
  143.4693  131.8379  148.9465 O   0  0  0  0  0  0  0  0  0  0  0  0
  145.3460  133.6163  150.2697 C   0  0  0  0  0  0  0  0  0  0  0  0
  151.9462  137.2118  155.9897 H   0  0  0  0  0  0  0  0  0  0  0  0
  150.5018  136.4827  155.3200 H   0  0  0  0  0  0  0  0  0  0  0  0
  149.7900  138.6785  153.0149 H   0  0  0  0  0  0  0  0  0  0  0  0
  149.0244  137.5065  154.0429 H   0  0  0  0  0  0  0  0  0  0  0  0
  148.2309  139.4216  155.5511 H   0  0  0  0  0  0  0  0  0  0  0  0
  149.9915  141.0400  154.9935 H   0  0  0  0  0  0  0  0  0  0  0  0
  149.4340  141.1512  153.3364 H   0  0  0  0  0  0  0  0  0  0  0  0
  146.3828  142.8156  154.2614 H   0  0  0  0  0  0  0  0  0  0  0  0
  147.3025  142.1899  152.9038 H   0  0  0  0  0  0  0  0  0  0  0  0
  145.9528  140.5429  155.1150 H   0  0  0  0  0  0  0  0  0  0  0  0
  145.4257  140.6430  153.4433 H   0  0  0  0  0  0  0  0  0  0  0  0
  145.0591  136.4334  155.9089 H   0  0  0  0  0  0  0  0  0  0  0  0
  146.0075  136.6312  149.5399 H   0  0  0  0  0  0  0  0  0  0  0  0
  143.7131  134.9948  150.6010 H   0  0  0  0  0  0  0  0  0  0  0  0
  145.1246  133.5667  152.9076 H   0  0  0  0  0  0  0  0  0  0  0  0
  143.3662  133.6616  152.5694 H   0  0  0  0  0  0  0  0  0  0  0  0
  144.7694  130.6919  152.1790 H   0  0  0  0  0  0  0  0  0  0  0  0
  145.4000  130.5902  150.5494 H   0  0  0  0  0  0  0  0  0  0  0  0
  147.2288  131.1068  151.3296 H   0  0  0  0  0  0  0  0  0  0  0  0
  142.8268  131.2022  150.7652 H   0  0  0  0  0  0  0  0  0  0  0  0
  142.4740  132.8707  150.4021 H   0  0  0  0  0  0  0  0  0  0  0  0
  143.6464  132.6564  148.5083 H   0  0  0  0  0  0  0  0  0  0  0  0
  145.1462  133.6672  149.1989 H   0  0  0  0  0  0  0  0  0  0  0  0
  146.4197  133.5793  150.4583 H   0  0  0  0  0  0  0  0  0  0  0  0
  1  2  1  0  0  0  0
  1 28  1  0  0  0  0
  1 29  1  0  0  0  0
  2  3  2  0  0  0  0
  2  4  1  0  0  0  0
  4  5  1  0  0  0  0
  4 30  1  0  0  0  0
  4 31  1  0  0  0  0
  5 10  1  0  0  0  0
  5  6  1  0  0  0  0
  5 32  1  0  0  0  0
  6  7  1  0  0  0  0
  6 33  1  0  0  0  0
  6 34  1  0  0  0  0
  7  8  1  0  0  0  0
  8  9  1  0  0  0  0
  8 35  1  0  0  0  0
  8 36  1  0  0  0  0
  9 10  1  0  0  0  0
  9 37  1  0  0  0  0
  9 38  1  0  0  0  0
 10 11  1  0  0  0  0
 11 16  1  0  0  0  0
 11 12  2  0  0  0  0
 12 13  1  0  0  0  0
 13 14  2  0  0  0  0
 13 39  1  0  0  0  0
 14 15  1  0  0  0  0
 15 19  1  0  0  0  0
 15 16  2  0  0  0  0
 16 17  1  0  0  0  0
 17 18  2  0  0  0  0
 18 19  1  0  0  0  0
 18 40  1  0  0  0  0
 19 20  1  0  0  0  0
 20 27  1  0  0  0  0
 20 21  1  0  0  0  0
 20 41  1  0  0  0  0
 21 22  1  0  0  0  0
 21 42  1  0  0  0  0
 21 43  1  0  0  0  0
 22 23  1  0  0  0  0
 22 25  1  0  0  0  0
 22 27  1  0  0  0  0
 23 24  1  0  0  0  0
 23 44  1  0  0  0  0
 23 45  1  0  0  0  0
 24 46  1  0  0  0  0
 25 26  1  0  0  0  0
 25 47  1  0  0  0  0
 25 48  1  0  0  0  0
 26 49  1  0  0  0  0
 27 50  1  0  0  0  0
 27 51  1  0  0  0  0
M  END
> <s_m_source_file>
AV-unprocessed.smi

> <i_m_source_file_index>
75

> <i_lp_mmshare_version>
43012

> <i_f3d_flags>
0

> <s_epik_input>
W05IMl1DKD1PKVtDSDJdW0NAQEhdMVtDSDJdT1tDSDJdW0NIMl1OMWMobltjSF1uMiljKGMyMyluW2NIXW4zW0NIXShbQ0gyXTQpW0NIMl1DNChbQ0gyXVtPSF0pW0NIMl1bT0hd

> <s_epik_cmdline>
J2VwaWtfcHl0aG9uJywgJy1waCcsICc3LjAnLCAnLXRuJywgJzgnLCAnLW1hJywgJzIwMCcsICctbWV0YWxfYmluZGluZycsICctaW1hZScsICc8aW5maWxlLm1hZT4nLCAnLW9tYWUnLCAnPG91dGZpbGUubWFlPic=

> <r_lp_tautomer_probability>
1

> <r_epik_Ionization_Penalty>
5.29078e-05

> <r_epik_Ionization_Penalty_Charging>
0

> <r_epik_Ionization_Penalty_Neutral>
5.29078e-05

> <r_epik_State_Penalty>
-0

> <r_epik_Charging_Adjusted_Penalty>
0

> <i_epik_Tot_Q>
0

> <i_epik_Tot_abs_Q>
0

> <r_epik_Metal_State_Penalty>
-0

> <b_epik_Metal_Only>
0

> <s_lp_Force_Field>
OPLS_2005

> <r_lp_Energy>
41.8109

> <b_lp_Chiralities_Consistent>
1

> <s_lp_Variant>
AV-unprocessed.smi:75-2

> <Gold.Version>
5.8.1

> <Gold.Id.Protein>
6NUR|6NUR_protein|mol2

> <Gold.PLP.Fitness>
49.1730

> <Gold.PLP.PLP>
-35.8502

> <Gold.PLP.part.hbond>
-5.1501

> <Gold.PLP.part.metal>
0.0000

> <Gold.PLP.part.buried>
3.2006

> <Gold.PLP.part.nonpolar>
-37.1020

> <Gold.PLP.part.repulsive>
3.6630

> <Gold.PLP.ligand.clash>
0.0000

> <Gold.PLP.ligand.torsion>
0.9215

> <Gold.PLP.Chemscore.Hbond>
3.8361

> <Gold.PLP.Chemscore.CHOScore>
0.9835

> <Gold.PLP.Chemscore.Metal>
0.0000

> <Gold.Chemscore.Hbonds>
donor molecule, donor type, donor heavy atom, donor atom, acceptor molecule, acceptor atom, score
      L1  H    24    46       P1 10747  0.94
      P1  H  7954  7966       L1    17  0.59
      P1  H  7989  7998       L1     3  0.91
      P1  H 10785 10796       L1    26  0.88
      L1  C    18    40       P1  7921  0.81

> <Gold.PLP.Chemscore.Internal.Correction>
0.7070

> <Gold.Rescore>
     Score         DG    S(hbond)    S(metal)    S(lipo)     H(rot)  DE(clash)    DE(int)     intcor
      7.00     -13.02       2.95        0.00      81.44       4.63       3.30       2.72       ----

> <Gold.Chemscore.Fitness>
6.9953

> <Gold.Chemscore.DG>
-13.0237

> <Gold.Chemscore.ZeroCoef>
-5.4800

> <Gold.Chemscore.Hbond>
2.9514

> <Gold.Chemscore.Metal>
0.0000

> <Gold.Chemscore.Lipo>
81.4425

> <Gold.Chemscore.Internal_Hbond>
0.0000

> <Gold.Chemscore.DEClash>
3.3040

> <Gold.Chemscore.DEInternal>
2.7245

> <Gold.Chemscore.Rot>
4.6261

> <Gold.Chemscore.Internal.Correction>
   9.000000E+99

> <Gold.Chemscore.Hbonds>
donor molecule, donor type, donor heavy atom, donor atom, acceptor molecule, acceptor atom, score
      L1  H    24    46       P1 10747  0.89
      P1  H  7954  7966       L1    17  0.06
      P1  H  7989  7998       L1     3  0.85
      P1  H 10785 10796       L1    26  0.52

> <Gold.Chemscore.Hbond.Weighted>
-9.8578

> <Gold.Chemscore.Metal.Weighted>
-0.0000

> <Gold.Chemscore.Lipo.Weighted>
-9.5288

> <Gold.Chemscore.Internal_Hbond.Weighted>
0.0000

> <Gold.Chemscore.DEClash.Weighted>
3.3040

> <Gold.Chemscore.DEInternal.Weighted>
2.7245

> <Gold.Chemscore.Rot.Weighted>
11.8429

> <Gold.Chemscore.Internal.Correction.Weighted>
   9.000000E+99

> <Gold.Protein.RotatedTorsions>
[ 6907 6896 6895 6894 ] final  173.52 input  -60.11 | X-H torsion
[ 7974 7965 7964 7962 ] final   98.69 input  175.53 | X-H torsion
[ 8008 7997 7996 7995 ] final   39.27 input   59.86 | X-H torsion
[ 10167 10162 10161 10158 ] final   17.60 input  -65.29 | X-H torsion
[ 10718 10713 10712 10709 ] final   -1.78 input   66.30 | X-H torsion
[ 10763 10752 10751 10750 ] final  161.66 input  -60.55 | X-H torsion
[ 11005 11000 10999 10996 ] final   94.35 input  -57.11 | X-H torsion

> <Gold.Protein.ActiveResidues>
 VAL166  LYS551  ARG553  GLY616  TRP617  ASP618  TYR619  PRO620  LYS621  CYS622 
 ASP623  PHE694  ASN695  SER759  ASP760  ASP761  ALA762  ILE779  LEU786  VAL792 
 PHE793  MET794  SER795  GLU796  ALA797  LYS798  CYS799  TRP800  GLU811  SER814 

> <Gold.Protein.RotatedAtoms>
  151.7670  133.3338  159.3433 H   0  0  0  0  0  0  0  0  0  0  0  0  # atno 6907 bound_to 6896
  150.7476  134.6053  159.6067 H   0  0  0  0  0  0  0  0  0  0  0  0  # atno 6908 bound_to 6896
  152.3367  134.7191  160.0326 H   0  0  0  0  0  0  0  0  0  0  0  0  # atno 6909 bound_to 6896
  145.4088  139.2336  143.3259 H   0  0  0  0  0  0  0  0  0  0  0  0  # atno 7974 bound_to 7965
  155.2338  140.3340  155.4300 H   0  0  0  0  0  0  0  0  0  0  0  0  # atno 8008 bound_to 7997
  156.2284  140.1839  156.7351 H   0  0  0  0  0  0  0  0  0  0  0  0  # atno 8009 bound_to 7997
  154.5936  140.0634  156.9258 H   0  0  0  0  0  0  0  0  0  0  0  0  # atno 8010 bound_to 7997
  140.5714  143.9154  150.6716 H   0  0  0  0  0  0  0  0  0  0  0  0  # atno 10167 bound_to 10162
  156.8006  130.5391  149.5722 H   0  0  0  0  0  0  0  0  0  0  0  0  # atno 10718 bound_to 10713
  154.2664  135.2767  155.2757 H   0  0  0  0  0  0  0  0  0  0  0  0  # atno 10763 bound_to 10752
  154.5340  135.5721  153.6786 H   0  0  0  0  0  0  0  0  0  0  0  0  # atno 10764 bound_to 10752
  152.9953  135.6234  154.2816 H   0  0  0  0  0  0  0  0  0  0  0  0  # atno 10765 bound_to 10752
  139.8799  134.8840  156.3852 H   0  0  0  0  0  0  0  0  0  0  0  0  # atno 11005 bound_to 11000
  146.2715  140.4797  142.8812 LP  0  0  0  0  0  0  0  0  0  0  0  0  # atno 17320 bound_to 7965
  144.8323  140.6726  143.6283 LP  0  0  0  0  0  0  0  0  0  0  0  0  # atno 17321 bound_to 7965
  140.2630  143.3510  152.1306 LP  0  0  0  0  0  0  0  0  0  0  0  0  # atno 17342 bound_to 10162
  139.5119  144.6909  151.5763 LP  0  0  0  0  0  0  0  0  0  0  0  0  # atno 17343 bound_to 10162
  156.1104  130.6036  151.0037 LP  0  0  0  0  0  0  0  0  0  0  0  0  # atno 17370 bound_to 10713
  157.6556  131.0890  150.7955 LP  0  0  0  0  0  0  0  0  0  0  0  0  # atno 17371 bound_to 10713
  140.9371  133.7539  156.0099 LP  0  0  0  0  0  0  0  0  0  0  0  0  # atno 17394 bound_to 11000
  140.8262  134.3231  157.5364 LP  0  0  0  0  0  0  0  0  0  0  0  0  # atno 17395 bound_to 11000

$$$$
