AV-unprocessed.smi:40|AV-procd|sdf|367|dock6
  -GOLD-   2262016203D 1   1.00000     0.00000
 Structure written by MMmdl.
 47 48  0  0  0  0  0  0  0  0  1 V2000
  152.0633  144.7292  158.3959 C   0  0  0  0  0  0  0  0  0  0  0  0
  151.9174  144.3827  159.8816 C   0  0  0  0  0  0  0  0  0  0  0  0
  153.0015  143.4102  160.3676 C   0  0  0  0  0  0  0  0  0  0  0  0
  152.7341  141.9632  159.9331 C   0  0  0  0  0  0  0  0  0  0  0  0
  154.0230  141.1312  159.8591 C   0  0  0  0  0  0  0  0  0  0  0  0
  154.1456  140.3031  161.0066 O   0  0  0  0  0  0  0  0  0  0  0  0
  154.1381  138.9572  160.8998 C   0  0  0  0  0  0  0  0  0  0  0  0
  153.9929  138.3511  159.8386 O   0  0  0  0  0  0  0  0  0  0  0  0
  154.3557  138.3151  162.1862 N   0  0  0  0  0  0  0  0  0  0  0  0
  154.4155  136.9945  162.4878 C   0  0  0  0  0  0  0  0  0  0  0  0
  154.3014  136.0456  161.5724 N   0  0  0  0  0  0  0  0  0  0  0  0
  154.3755  134.7062  161.8428 C   0  0  0  0  0  0  0  0  0  0  0  0
  154.2057  133.8797  160.9485 O   0  0  0  0  0  0  0  0  0  0  0  0
  154.6409  134.3193  163.1790 N   0  0  0  0  0  0  0  0  0  0  0  0
  154.6915  132.8340  163.5033 C   0  0  2  0  0  0  0  0  0  0  0  0
  153.6652  132.5209  164.4038 O   0  0  0  0  0  0  0  0  0  0  0  0
  154.1729  132.2514  165.7098 C   0  0  2  0  0  0  0  0  0  0  0  0
  154.1778  133.5181  166.5808 C   0  0  0  0  0  0  0  0  0  0  0  0
  155.5732  131.7006  165.4506 C   0  0  1  0  0  0  0  0  0  0  0  0
  155.4790  130.2963  165.2799 O   0  0  0  0  0  0  0  0  0  0  0  0
  156.0212  132.4354  164.1872 C   0  0  1  0  0  0  0  0  0  0  0  0
  156.8500  131.6195  163.3791 O   0  0  0  0  0  0  0  0  0  0  0  0
  154.7403  135.3015  164.1576 C   0  0  0  0  0  0  0  0  0  0  0  0
  154.6523  136.6169  163.8639 C   0  0  0  0  0  0  0  0  0  0  0  0
  154.7747  137.5452  164.8288 F   0  0  0  0  0  0  0  0  0  0  0  0
  154.5095  132.3330  162.5510 H   0  0  0  0  0  0  0  0  0  0  0  0
  153.5355  131.5114  166.1961 H   0  0  0  0  0  0  0  0  0  0  0  0
  156.2501  131.8863  166.2856 H   0  0  0  0  0  0  0  0  0  0  0  0
  156.5654  133.3364  164.4742 H   0  0  0  0  0  0  0  0  0  0  0  0
  151.2876  145.4279  158.0816 H   0  0  0  0  0  0  0  0  0  0  0  0
  151.9808  143.8375  157.7738 H   0  0  0  0  0  0  0  0  0  0  0  0
  153.0296  145.1919  158.1936 H   0  0  0  0  0  0  0  0  0  0  0  0
  151.9593  145.3007  160.4691 H   0  0  0  0  0  0  0  0  0  0  0  0
  150.9314  143.9500  160.0550 H   0  0  0  0  0  0  0  0  0  0  0  0
  153.9732  143.7284  159.9878 H   0  0  0  0  0  0  0  0  0  0  0  0
  153.0652  143.4540  161.4557 H   0  0  0  0  0  0  0  0  0  0  0  0
  152.0439  141.4939  160.6353 H   0  0  0  0  0  0  0  0  0  0  0  0
  152.2377  141.9602  158.9619 H   0  0  0  0  0  0  0  0  0  0  0  0
  154.0569  140.5428  158.9409 H   0  0  0  0  0  0  0  0  0  0  0  0
  154.8857  141.7971  159.8334 H   0  0  0  0  0  0  0  0  0  0  0  0
  154.4616  138.9616  162.9547 H   0  0  0  0  0  0  0  0  0  0  0  0
  154.5507  133.2977  167.5811 H   0  0  0  0  0  0  0  0  0  0  0  0
  153.1704  133.9209  166.6879 H   0  0  0  0  0  0  0  0  0  0  0  0
  154.8103  134.2998  166.1599 H   0  0  0  0  0  0  0  0  0  0  0  0
  155.4226  130.1126  164.3543 H   0  0  0  0  0  0  0  0  0  0  0  0
  157.0788  132.1061  162.6018 H   0  0  0  0  0  0  0  0  0  0  0  0
  154.8932  135.0431  165.1938 H   0  0  0  0  0  0  0  0  0  0  0  0
  1  2  1  0  0  0  0
  1 30  1  0  0  0  0
  1 31  1  0  0  0  0
  1 32  1  0  0  0  0
  2  3  1  0  0  0  0
  2 33  1  0  0  0  0
  2 34  1  0  0  0  0
  3  4  1  0  0  0  0
  3 35  1  0  0  0  0
  3 36  1  0  0  0  0
  4  5  1  0  0  0  0
  4 37  1  0  0  0  0
  4 38  1  0  0  0  0
  5  6  1  0  0  0  0
  5 39  1  0  0  0  0
  5 40  1  0  0  0  0
  6  7  1  0  0  0  0
  7  8  2  0  0  0  0
  7  9  1  0  0  0  0
  9 10  1  0  0  0  0
  9 41  1  0  0  0  0
 10 24  1  0  0  0  0
 10 11  2  0  0  0  0
 11 12  1  0  0  0  0
 12 13  2  0  0  0  0
 12 14  1  0  0  0  0
 14 15  1  0  0  0  0
 14 23  1  0  0  0  0
 15 26  1  0  0  0  0
 15 21  1  0  0  0  0
 15 16  1  0  0  0  0
 16 17  1  0  0  0  0
 17 27  1  0  0  0  0
 17 18  1  0  0  0  0
 17 19  1  0  0  0  0
 18 42  1  0  0  0  0
 18 43  1  0  0  0  0
 18 44  1  0  0  0  0
 19 28  1  0  0  0  0
 19 20  1  0  0  0  0
 19 21  1  0  0  0  0
 20 45  1  0  0  0  0
 21 29  1  0  0  0  0
 21 22  1  0  0  0  0
 22 46  1  0  0  0  0
 23 24  2  0  0  0  0
 23 47  1  0  0  0  0
 24 25  1  0  0  0  0
M  END
> <s_m_source_file>
AV-unprocessed.smi

> <i_m_source_file_index>
40

> <i_lp_mmshare_version>
43012

> <i_f3d_flags>
0

> <s_epik_input>
W0NIM11bQ0gyXVtDSDJdW0NIMl1bQ0gyXU9DKD1PKVtOSF1jMW5jKD1PKW4oW2NIXWMxRilbQ0BASF0yT1tDQEhdKFtDSDNdKVtDQEBIXShbT0hdKVtDQEhdMltPSF0=

> <s_epik_cmdline>
J2VwaWtfcHl0aG9uJywgJy1waCcsICc3LjAnLCAnLXRuJywgJzgnLCAnLW1hJywgJzIwMCcsICctbWV0YWxfYmluZGluZycsICctaW1hZScsICc8aW5maWxlLm1hZT4nLCAnLW9tYWUnLCAnPG91dGZpbGUubWFlPic=

> <r_lp_tautomer_probability>
1

> <r_epik_Ionization_Penalty>
2.29506e-06

> <r_epik_Ionization_Penalty_Charging>
8.26867e-09

> <r_epik_Ionization_Penalty_Neutral>
2.2868e-06

> <r_epik_State_Penalty>
-0

> <r_epik_Charging_Adjusted_Penalty>
8.26867e-09

> <i_epik_Tot_Q>
0

> <i_epik_Tot_abs_Q>
0

> <r_epik_Metal_State_Penalty>
-0

> <b_epik_Metal_Only>
0

> <s_epik_Chemistry_Notes>
This compound has an ester and may undergo hydrolysis at high or low pH. This compound contains an acetal/aminal-like group ( X-CH(R)-Y where X, Y are N, S, or O) that may be acid/base labile, releasing an aldehyde.

> <s_lp_Force_Field>
OPLS_2005

> <r_lp_Energy>
38.6642

> <b_lp_Chiralities_Consistent>
1

> <s_lp_Variant>
AV-unprocessed.smi:40-1

> <Gold.Version>
5.8.1

> <Gold.Id.Protein>
6NUR|6NUR_protein|mol2

> <Gold.PLP.Fitness>
42.9242

> <Gold.PLP.PLP>
-44.6303

> <Gold.PLP.part.hbond>
0.0000

> <Gold.PLP.part.metal>
0.0000

> <Gold.PLP.part.buried>
-5.5669

> <Gold.PLP.part.nonpolar>
-38.8744

> <Gold.PLP.part.repulsive>
0.0022

> <Gold.PLP.ligand.clash>
0.0000

> <Gold.PLP.ligand.torsion>
0.9024

> <Gold.PLP.Chemscore.Hbond>
0.0000

> <Gold.PLP.Chemscore.CHOScore>
0.0000

> <Gold.PLP.Chemscore.Metal>
0.0000

> <Gold.Chemscore.Hbonds>
donor molecule, donor type, donor heavy atom, donor atom, acceptor molecule, acceptor atom, score
      P1  H  6896  6908       L1    13  0.62

> <Gold.PLP.Chemscore.Internal.Correction>
0.0987

> <Gold.Rescore>
     Score         DG    S(hbond)    S(metal)    S(lipo)     H(rot)  DE(clash)    DE(int)     intcor
      5.48      -8.81       0.00        0.00     109.34       3.70       0.49       2.84       ----

> <Gold.Chemscore.Fitness>
5.4777

> <Gold.Chemscore.DG>
-8.8121

> <Gold.Chemscore.ZeroCoef>
-5.4800

> <Gold.Chemscore.Hbond>
0.0000

> <Gold.Chemscore.Metal>
0.0000

> <Gold.Chemscore.Lipo>
109.3428

> <Gold.Chemscore.Internal_Hbond>
0.0000

> <Gold.Chemscore.DEClash>
0.4931

> <Gold.Chemscore.DEInternal>
2.8413

> <Gold.Chemscore.Rot>
3.6957

> <Gold.Chemscore.Internal.Correction>
   9.000000E+99

> <Gold.Chemscore.Hbonds>
donor molecule, donor type, donor heavy atom, donor atom, acceptor molecule, acceptor atom, score
      P1  H  6896  6908       L1    13  0.30

> <Gold.Chemscore.Hbond.Weighted>
-0.0000

> <Gold.Chemscore.Metal.Weighted>
-0.0000

> <Gold.Chemscore.Lipo.Weighted>
-12.7931

> <Gold.Chemscore.Internal_Hbond.Weighted>
0.0000

> <Gold.Chemscore.DEClash.Weighted>
0.4931

> <Gold.Chemscore.DEInternal.Weighted>
2.8413

> <Gold.Chemscore.Rot.Weighted>
9.4610

> <Gold.Chemscore.Internal.Correction.Weighted>
   9.000000E+99

> <Gold.Protein.RotatedTorsions>
[ 6907 6896 6895 6894 ] final  -49.35 input  -60.11 | X-H torsion
[ 7974 7965 7964 7962 ] final   66.60 input  175.53 | X-H torsion
[ 8008 7997 7996 7995 ] final   44.44 input   59.86 | X-H torsion
[ 10167 10162 10161 10158 ] final  -12.91 input  -65.29 | X-H torsion
[ 10718 10713 10712 10709 ] final   11.93 input   66.30 | X-H torsion
[ 10763 10752 10751 10750 ] final  -48.27 input  -60.55 | X-H torsion
[ 11005 11000 10999 10996 ] final  -69.71 input  -57.11 | X-H torsion

> <Gold.Protein.ActiveResidues>
 VAL166  LYS551  ARG553  GLY616  TRP617  ASP618  TYR619  PRO620  LYS621  CYS622 
 ASP623  PHE694  ASN695  SER759  ASP760  ASP761  ALA762  ILE779  LEU786  VAL792 
 PHE793  MET794  SER795  GLU796  ALA797  LYS798  CYS799  TRP800  GLU811  SER814 

> <Gold.Protein.RotatedAtoms>
  150.8814  134.8206  159.7227 H   0  0  0  0  0  0  0  0  0  0  0  0  # atno 6907 bound_to 6896
  152.4780  134.4790  159.9669 H   0  0  0  0  0  0  0  0  0  0  0  0  # atno 6908 bound_to 6896
  151.4864  133.3496  159.2882 H   0  0  0  0  0  0  0  0  0  0  0  0  # atno 6909 bound_to 6896
  145.8247  139.3104  143.1023 H   0  0  0  0  0  0  0  0  0  0  0  0  # atno 7974 bound_to 7965
  155.3193  140.3396  155.4241 H   0  0  0  0  0  0  0  0  0  0  0  0  # atno 8008 bound_to 7997
  156.1917  140.1700  156.8117 H   0  0  0  0  0  0  0  0  0  0  0  0  # atno 8009 bound_to 7997
  154.5449  140.0717  156.8556 H   0  0  0  0  0  0  0  0  0  0  0  0  # atno 8010 bound_to 7997
  140.7171  143.5482  150.9331 H   0  0  0  0  0  0  0  0  0  0  0  0  # atno 10167 bound_to 10162
  157.0027  130.6086  149.5698 H   0  0  0  0  0  0  0  0  0  0  0  0  # atno 10718 bound_to 10713
  154.0750  135.6599  153.4829 H   0  0  0  0  0  0  0  0  0  0  0  0  # atno 10763 bound_to 10752
  153.0376  135.5166  154.7529 H   0  0  0  0  0  0  0  0  0  0  0  0  # atno 10764 bound_to 10752
  154.6607  135.3014  154.9838 H   0  0  0  0  0  0  0  0  0  0  0  0  # atno 10765 bound_to 10752
  141.1559  133.6771  156.6641 H   0  0  0  0  0  0  0  0  0  0  0  0  # atno 11005 bound_to 11000
  145.9637  140.8815  143.0198 LP  0  0  0  0  0  0  0  0  0  0  0  0  # atno 17320 bound_to 7965
  144.6744  140.1848  143.7402 LP  0  0  0  0  0  0  0  0  0  0  0  0  # atno 17321 bound_to 7965
  139.9206  143.6610  152.3097 LP  0  0  0  0  0  0  0  0  0  0  0  0  # atno 17342 bound_to 10162
  139.7026  144.7633  151.1247 LP  0  0  0  0  0  0  0  0  0  0  0  0  # atno 17343 bound_to 10162
  156.0165  130.5259  150.8149 LP  0  0  0  0  0  0  0  0  0  0  0  0  # atno 17370 bound_to 10713
  157.5378  131.0939  150.9868 LP  0  0  0  0  0  0  0  0  0  0  0  0  # atno 17371 bound_to 10713
  140.3225  134.7996  157.4263 LP  0  0  0  0  0  0  0  0  0  0  0  0  # atno 17394 bound_to 11000
  140.1085  134.5377  155.8287 LP  0  0  0  0  0  0  0  0  0  0  0  0  # atno 17395 bound_to 11000

$$$$
