#       Name:                AV-unprocessed.smi:1356
#       Creating user name   scv26
#       Creation time:       Fri Mar 27 05:13:56 2020


#       File generated by GOLD software.
#

@<TRIPOS>MOLECULE
AV-unprocessed.smi:1356
    46    47     1
SMALL
NO_CHARGES


@<TRIPOS>ATOM
      1 ****        -4.3655   6.0246  -1.7059 C.3            1 S1                 0.0000
      2 ****        -3.0930   5.2730  -1.3799 C.3            1 S1                 0.0000
      3 ****        -2.3353   5.5507  -0.1042 C.3            1 S1                 0.0000
      4 ****        -3.0763   4.2393  -0.2696 C.3            1 S1                 0.0000
      5 ****        -2.2588   3.0063  -0.4783 C.2            1 S1                 0.0000
      6 ****        -1.1896   3.0035  -1.0907 O.2            1 S1                 0.0000
      7 ****        -2.7921   1.9012   0.0649 N.am           1 S1                 0.0000
      8 ****        -2.1949   0.5713   0.0179 C.3            1 S1                 0.0000
      9 ****        -1.1127   0.4030   1.1017 C.3            1 S1                 0.0000
     10 ****        -0.4131  -0.9574   1.0381 C.2            1 S1                 0.0000
     11 ****        -1.0434  -1.9733   0.7432 O.2            1 S1                 0.0000
     12 ****         0.8978  -0.9646   1.3250 N.am           1 S1                 0.0000
     13 ****         1.7465  -2.1502   1.3374 C.3            1 S1                 0.0000
     14 ****         2.1571  -2.5722  -0.0835 C.3            1 S1                 0.0000
     15 ****         3.0657  -3.7858  -0.0793 C.ar           1 S1                 0.0000
     16 ****         2.5793  -5.0888  -0.3222 C.ar           1 S1                 0.0000
     17 ****         3.4777  -6.1758  -0.2935 C.ar           1 S1                 0.0000
     18 ****         4.8411  -5.9377  -0.0222 C.ar           1 S1                 0.0000
     19 ****         5.2723  -4.6164   0.2143 C.ar           1 S1                 0.0000
     20 ****         4.3808  -3.6015   0.1785 N.pl3          1 S1                 1.0000
     21 ****        -4.9433   6.2195  -0.8018 H              1 S1                 0.0000
     22 ****        -4.9795   5.4408  -2.3919 H              1 S1                 0.0000
     23 ****        -4.1264   6.9778  -2.1775 H              1 S1                 0.0000
     24 ****        -2.4820   5.0669  -2.2572 H              1 S1                 0.0000
     25 ****        -1.2479   5.5458  -0.1583 H              1 S1                 0.0000
     26 ****        -2.7546   6.2668   0.5999 H              1 S1                 0.0000
     27 ****        -3.9923   4.1214   0.3079 H              1 S1                 0.0000
     28 ****        -3.6743   1.9888   0.5483 H              1 S1                 0.0000
     29 ****        -2.9932  -0.1569   0.1653 H              1 S1                 0.0000
     30 ****        -1.7822   0.3826  -0.9751 H              1 S1                 0.0000
     31 ****        -0.3648   1.1915   1.0024 H              1 S1                 0.0000
     32 ****        -1.5558   0.5164   2.0916 H              1 S1                 0.0000
     33 ****         1.3354  -0.0850   1.5598 H              1 S1                 0.0000
     34 ****         2.6324  -1.9215   1.9302 H              1 S1                 0.0000
     35 ****         1.2349  -2.9689   1.8467 H              1 S1                 0.0000
     36 ****         1.2735  -2.7961  -0.6826 H              1 S1                 0.0000
     37 ****         2.6676  -1.7492  -0.5858 H              1 S1                 0.0000
     38 ****         1.5312  -5.2552  -0.5256 H              1 S1                 0.0000
     39 ****         3.1248  -7.1802  -0.4766 H              1 S1                 0.0000
     40 ****         5.5453  -6.7566   0.0049 H              1 S1                 0.0000
     41 ****         6.2948  -4.3427   0.4302 H              1 S1                 0.0000
     42 ****         4.7145  -2.6533   0.3535 H              1 S1                 0.0000
     43 ****        -0.8315   3.8542  -1.4754 LP             1 S1                 0.0000
     44 ****        -0.6800   2.1504  -1.2030 LP             1 S1                 0.0000
     45 ****        -2.0213  -1.9144   0.5426 LP             1 S1                 0.0000
     46 ****        -0.5774  -2.8573   0.7043 LP             1 S1                 0.0000
@<TRIPOS>BOND
    1    1    2 1     
    2    1   21 1     
    3    1   22 1     
    4    1   23 1     
    5    2    4 1     
    6    2    3 1     
    7    2   24 1     
    8    3    4 1     
    9    3   25 1     
   10    3   26 1     
   11    4    5 1     
   12    4   27 1     
   13    5    6 2     
   14    5    7 am    
   15    7    8 1     
   16    7   28 1     
   17    8    9 1     
   18    8   29 1     
   19    8   30 1     
   20    9   10 1     
   21    9   31 1     
   22    9   32 1     
   23   10   11 2     
   24   10   12 am    
   25   12   13 1     
   26   12   33 1     
   27   13   14 1     
   28   13   34 1     
   29   13   35 1     
   30   14   15 1     
   31   14   36 1     
   32   14   37 1     
   33   15   20 ar    
   34   15   16 ar    
   35   16   17 ar    
   36   16   38 1     
   37   17   18 ar    
   38   17   39 1     
   39   18   19 ar    
   40   18   40 1     
   41   19   20 ar    
   42   19   41 1     
   43   20   42 1     
   44    6   43 1     
   45    6   44 1     
   46   11   45 1     
   47   11   46 1     
@<TRIPOS>SUBSTRUCTURE
      1 S1             1
@<TRIPOS>SET
LONE_PAIRS      STATIC     ATOMS    <user>   **** ""
4 43 44 45 46
DONOR_HYDROGENS      STATIC     ATOMS    <user>   **** ""
3 28 33 42
ATOM$BLUE        STATIC     ATOMS    COLORGROUP SYSTEM
4 43 44 45 46
ATOM$RED        STATIC     ATOMS    COLORGROUP SYSTEM
3 28 33 42
