#       Name:                AV-unprocessed.smi:2249
#       Creating user name   scv26
#       Creation time:       Fri Mar 27 12:29:50 2020


#       File generated by GOLD software.
#

@<TRIPOS>MOLECULE
AV-unprocessed.smi:2249
    43    44     1
SMALL
NO_CHARGES


@<TRIPOS>ATOM
      1 ****        -1.8185  -0.7311  -2.1167 C.3            1 S1                 0.0000
      2 ****        -1.4668  -0.1291  -0.7435 C.3            1 S1                 0.0000
      3 ****        -0.0108  -0.0640  -0.6197 N.am           1 S1                 0.0000
      4 ****         0.7597   0.9709  -0.9857 C.2            1 S1                 0.0000
      5 ****         0.3169   2.0040  -1.4883 O.2            1 S1                 0.0000
      6 ****         2.0562   0.7202  -0.7328 N.am           1 S1                 0.0000
      7 ****         3.1347   1.5192  -0.9495 C.2            1 S1                 0.0000
      8 ****         3.1770   2.7895  -1.4563 C.2            1 S1                 0.0000
      9 ****         4.5707   3.0823  -1.4370 C.2            1 S1                 0.0000
     10 ****         5.3056   2.0842  -0.9624 N.2            1 S1                 0.0000
     11 ****         4.4184   1.1123  -0.6573 N.pl3          1 S1                 0.0000
     12 ****         4.8818  -0.1463  -0.1061 C.3            1 S1                 0.0000
     13 ****        -2.0672  -0.9215   0.4473 C.3            1 S1                 0.0000
     14 ****        -3.6074  -0.9887   0.4024 C.3            1 S1                 0.0000
     15 ****        -4.1714  -1.7110   1.6369 C.3            1 S1                 0.0000
     16 ****        -3.7335  -1.0624   2.8242 O.3            1 S1                 0.0000
     17 ****        -2.3197  -1.0900   2.9738 C.3            1 S1                 0.0000
     18 ****        -1.6535  -0.3332   1.8138 C.3            1 S1                 0.0000
     19 ****        -2.8882  -0.6825  -2.3176 H              1 S1                 0.0000
     20 ****        -1.5105  -1.7750  -2.1839 H              1 S1                 0.0000
     21 ****        -1.3236  -0.1878  -2.9225 H              1 S1                 0.0000
     22 ****        -1.8706   0.8844  -0.7049 H              1 S1                 0.0000
     23 ****         0.4428  -0.8715  -0.2180 H              1 S1                 0.0000
     24 ****         2.2635  -0.1805  -0.3271 H              1 S1                 0.0000
     25 ****         2.3654   3.4187  -1.7891 H              1 S1                 0.0000
     26 ****         5.0691   3.9872  -1.7521 H              1 S1                 0.0000
     27 ****         4.6942  -0.9482  -0.8201 H              1 S1                 0.0000
     28 ****         4.3483  -0.3603   0.8202 H              1 S1                 0.0000
     29 ****         5.9514  -0.1032   0.1050 H              1 S1                 0.0000
     30 ****        -1.6882  -1.9436   0.3977 H              1 S1                 0.0000
     31 ****        -4.0213   0.0193   0.3531 H              1 S1                 0.0000
     32 ****        -3.9465  -1.5105  -0.4918 H              1 S1                 0.0000
     33 ****        -5.2612  -1.6987   1.6117 H              1 S1                 0.0000
     34 ****        -3.8663  -2.7586   1.6476 H              1 S1                 0.0000
     35 ****        -2.0586  -0.6230   3.9235 H              1 S1                 0.0000
     36 ****        -1.9667  -2.1215   3.0193 H              1 S1                 0.0000
     37 ****        -0.5717  -0.3709   1.9429 H              1 S1                 0.0000
     38 ****        -1.9349   0.7197   1.8618 H              1 S1                 0.0000
     39 ****        -0.6660   2.1033  -1.6431 LP             1 S1                 0.0000
     40 ****         0.9402   2.7438  -1.7417 LP             1 S1                 0.0000
     41 ****         6.2994   2.0575  -0.8542 LP             1 S1                 0.0000
     42 ****        -4.1476  -1.5206   3.6107 LP             1 S1                 0.0000
     43 ****        -4.0340  -0.1090   2.7977 LP             1 S1                 0.0000
@<TRIPOS>BOND
    1    1    2 1     
    2    1   19 1     
    3    1   20 1     
    4    1   21 1     
    5    2    3 1     
    6    2   13 1     
    7    2   22 1     
    8    3    4 am    
    9    3   23 1     
   10    4    5 2     
   11    4    6 am    
   12    6    7 1     
   13    6   24 1     
   14    7   11 1     
   15    7    8 2     
   16    8    9 1     
   17    8   25 1     
   18    9   10 2     
   19    9   26 1     
   20   10   11 1     
   21   11   12 1     
   22   12   27 1     
   23   12   28 1     
   24   12   29 1     
   25   13   18 1     
   26   13   14 1     
   27   13   30 1     
   28   14   15 1     
   29   14   31 1     
   30   14   32 1     
   31   15   16 1     
   32   15   33 1     
   33   15   34 1     
   34   16   17 1     
   35   17   18 1     
   36   17   35 1     
   37   17   36 1     
   38   18   37 1     
   39   18   38 1     
   40    5   39 1     
   41    5   40 1     
   42   10   41 1     
   43   16   42 1     
   44   16   43 1     
@<TRIPOS>SUBSTRUCTURE
      1 S1             1
@<TRIPOS>SET
LONE_PAIRS      STATIC     ATOMS    <user>   **** ""
5 39 40 41 42 43
DONOR_HYDROGENS      STATIC     ATOMS    <user>   **** ""
2 23 24
ATOM$BLUE        STATIC     ATOMS    COLORGROUP SYSTEM
5 39 40 41 42 43
ATOM$RED        STATIC     ATOMS    COLORGROUP SYSTEM
2 23 24
