AV-unprocessed.smi:1084|AV-procd|sdf|4717|dock5
  -GOLD-   22720 3243D 1   1.00000     0.00000
 Structure written by MMmdl.
 52 54  0  0  0  0  0  0  0  0  1 V2000
  145.6385  134.9739  151.3159 C   0  0  0  0  0  0  0  0  0  0  0  0
  145.1540  135.6220  152.6381 C   0  0  1  0  0  0  0  0  0  0  0  0
  145.4385  137.1516  152.5802 C   0  0  0  0  0  0  0  0  0  0  0  0
  146.8171  137.5007  152.9138 N   0  0  0  0  0  0  0  0  0  0  0  0
  147.1817  138.3718  153.8652 C   0  0  0  0  0  0  0  0  0  0  0  0
  146.3783  138.9814  154.5706 O   0  0  0  0  0  0  0  0  0  0  0  0
  148.5198  138.4639  153.9518 N   0  0  0  0  0  0  0  0  0  0  0  0
  149.2958  139.2829  154.8156 C   0  0  0  0  0  0  0  0  0  0  0  0
  150.6980  139.2007  154.7232 C   0  0  0  0  0  0  0  0  0  0  0  0
  151.4942  140.0134  155.5519 C   0  0  0  0  0  0  0  0  0  0  0  0
  150.8661  140.9076  156.4556 C   0  0  0  0  0  0  0  0  0  0  0  0
  151.6051  141.7445  157.3241 N   0  0  0  0  0  0  0  0  0  0  0  0
  152.1520  141.1234  158.5311 C   0  0  0  0  0  0  0  0  0  0  0  0
  153.2048  142.0359  159.1827 C   0  0  0  0  0  0  0  0  0  0  0  0
  152.6471  143.3231  159.4203 O   0  0  0  0  0  0  0  0  0  0  0  0
  152.2564  143.9552  158.2070 C   0  0  0  0  0  0  0  0  0  0  0  0
  151.1633  143.1244  157.5137 C   0  0  0  0  0  0  0  0  0  0  0  0
  149.5157  140.9929  156.5306 N   0  0  0  0  0  0  0  0  0  0  0  0
  148.7553  140.2102  155.7364 C   0  0  0  0  0  0  0  0  0  0  0  0
  143.7417  135.3008  152.9503 N   0  0  0  0  0  0  0  0  0  0  0  0
  143.4985  133.8558  153.0347 C   0  0  0  0  0  0  0  0  0  0  0  0
  142.0405  133.5135  153.3870 C   0  0  0  0  0  0  0  0  0  0  0  0
  141.6850  134.1384  154.6122 O   0  0  0  0  0  0  0  0  0  0  0  0
  141.8309  135.5502  154.5515 C   0  0  0  0  0  0  0  0  0  0  0  0
  143.2870  135.9083  154.2066 C   0  0  0  0  0  0  0  0  0  0  0  0
  146.6612  135.2525  151.0653 H   0  0  0  0  0  0  0  0  0  0  0  0
  145.0049  135.2666  150.4783 H   0  0  0  0  0  0  0  0  0  0  0  0
  145.6479  133.8860  151.3682 H   0  0  0  0  0  0  0  0  0  0  0  0
  145.7722  135.2099  153.4373 H   0  0  0  0  0  0  0  0  0  0  0  0
  145.2262  137.5298  151.5798 H   0  0  0  0  0  0  0  0  0  0  0  0
  144.8016  137.7134  153.2620 H   0  0  0  0  0  0  0  0  0  0  0  0
  147.5432  137.0392  152.3856 H   0  0  0  0  0  0  0  0  0  0  0  0
  149.0469  137.8366  153.3622 H   0  0  0  0  0  0  0  0  0  0  0  0
  151.1642  138.5194  154.0264 H   0  0  0  0  0  0  0  0  0  0  0  0
  152.5675  139.9378  155.4669 H   0  0  0  0  0  0  0  0  0  0  0  0
  151.3355  140.9367  159.2297 H   0  0  0  0  0  0  0  0  0  0  0  0
  152.6151  140.1603  158.3166 H   0  0  0  0  0  0  0  0  0  0  0  0
  153.5328  141.6106  160.1312 H   0  0  0  0  0  0  0  0  0  0  0  0
  154.0901  142.1214  158.5505 H   0  0  0  0  0  0  0  0  0  0  0  0
  151.8814  144.9537  158.4313 H   0  0  0  0  0  0  0  0  0  0  0  0
  153.1217  144.0805  157.5543 H   0  0  0  0  0  0  0  0  0  0  0  0
  150.9351  143.5865  156.5529 H   0  0  0  0  0  0  0  0  0  0  0  0
  150.2503  143.1312  158.1104 H   0  0  0  0  0  0  0  0  0  0  0  0
  147.6924  140.3612  155.8411 H   0  0  0  0  0  0  0  0  0  0  0  0
  143.7168  133.3733  152.0837 H   0  0  0  0  0  0  0  0  0  0  0  0
  144.1637  133.4115  153.7766 H   0  0  0  0  0  0  0  0  0  0  0  0
  141.3648  133.8371  152.5938 H   0  0  0  0  0  0  0  0  0  0  0  0
  141.9190  132.4351  153.4897 H   0  0  0  0  0  0  0  0  0  0  0  0
  141.1455  135.9636  153.8097 H   0  0  0  0  0  0  0  0  0  0  0  0
  141.5544  135.9780  155.5153 H   0  0  0  0  0  0  0  0  0  0  0  0
  143.9400  135.5998  155.0245 H   0  0  0  0  0  0  0  0  0  0  0  0
  143.3374  136.9936  154.1524 H   0  0  0  0  0  0  0  0  0  0  0  0
  1  2  1  0  0  0  0
  1 26  1  0  0  0  0
  1 27  1  0  0  0  0
  1 28  1  0  0  0  0
  2  3  1  0  0  0  0
  2 20  1  0  0  0  0
  2 29  1  0  0  0  0
  3  4  1  0  0  0  0
  3 30  1  0  0  0  0
  3 31  1  0  0  0  0
  4  5  1  0  0  0  0
  4 32  1  0  0  0  0
  5  6  2  0  0  0  0
  5  7  1  0  0  0  0
  7  8  1  0  0  0  0
  7 33  1  0  0  0  0
  8 19  1  0  0  0  0
  8  9  2  0  0  0  0
  9 10  1  0  0  0  0
  9 34  1  0  0  0  0
 10 11  2  0  0  0  0
 10 35  1  0  0  0  0
 11 12  1  0  0  0  0
 11 18  1  0  0  0  0
 12 17  1  0  0  0  0
 12 13  1  0  0  0  0
 13 14  1  0  0  0  0
 13 36  1  0  0  0  0
 13 37  1  0  0  0  0
 14 15  1  0  0  0  0
 14 38  1  0  0  0  0
 14 39  1  0  0  0  0
 15 16  1  0  0  0  0
 16 17  1  0  0  0  0
 16 40  1  0  0  0  0
 16 41  1  0  0  0  0
 17 42  1  0  0  0  0
 17 43  1  0  0  0  0
 18 19  2  0  0  0  0
 19 44  1  0  0  0  0
 20 25  1  0  0  0  0
 20 21  1  0  0  0  0
 21 22  1  0  0  0  0
 21 45  1  0  0  0  0
 21 46  1  0  0  0  0
 22 23  1  0  0  0  0
 22 47  1  0  0  0  0
 22 48  1  0  0  0  0
 23 24  1  0  0  0  0
 24 25  1  0  0  0  0
 24 49  1  0  0  0  0
 24 50  1  0  0  0  0
 25 51  1  0  0  0  0
 25 52  1  0  0  0  0
M  END
> <s_m_source_file>
AV-unprocessed.smi

> <i_m_source_file_index>
1084

> <i_lp_mmshare_version>
43012

> <i_f3d_flags>
0

> <s_epik_input>
W0NIMl0xW0NIMl1PW0NIMl1bQ0gyXU4xW0NASF0oW0NIM10pW0NIMl1bTkhdQyg9TylbTkhdYzJbY0hdW2NIXWMobltjSF0yKU4zW0NIMl1bQ0gyXU9bQ0gyXVtDSDJdMw==

> <s_epik_cmdline>
J2VwaWtfcHl0aG9uJywgJy1waCcsICc3LjAnLCAnLXRuJywgJzgnLCAnLW1hJywgJzIwMCcsICctbWV0YWxfYmluZGluZycsICctaW1hZScsICc8aW5maWxlLm1hZT4nLCAnLW9tYWUnLCAnPG91dGZpbGUubWFlPic=

> <r_lp_tautomer_probability>
1

> <r_epik_Ionization_Penalty>
0.268053

> <r_epik_Ionization_Penalty_Charging>
0

> <r_epik_Ionization_Penalty_Neutral>
0.268053

> <r_epik_State_Penalty>
0.269834

> <r_epik_Charging_Adjusted_Penalty>
0.269834

> <i_epik_Tot_Q>
0

> <i_epik_Tot_abs_Q>
0

> <r_epik_Metal_State_Penalty>
0.268436

> <b_epik_Metal_Only>
0

> <s_lp_Force_Field>
OPLS_2005

> <r_lp_Energy>
45.5603

> <b_lp_Chiralities_Consistent>
1

> <s_lp_Variant>
AV-unprocessed.smi:1084-2

> <Gold.Version>
5.8.1

> <Gold.Id.Protein>
6NUR|6NUR_protein|mol2

> <Gold.PLP.Fitness>
49.4192

> <Gold.PLP.PLP>
-42.7145

> <Gold.PLP.part.hbond>
-3.3018

> <Gold.PLP.part.metal>
0.0000

> <Gold.PLP.part.buried>
-5.3947

> <Gold.PLP.part.nonpolar>
-35.0079

> <Gold.PLP.part.repulsive>
0.6026

> <Gold.PLP.ligand.clash>
0.0000

> <Gold.PLP.ligand.torsion>
0.8040

> <Gold.PLP.Chemscore.Hbond>
2.5928

> <Gold.PLP.Chemscore.CHOScore>
0.0000

> <Gold.PLP.Chemscore.Metal>
0.0000

> <Gold.Chemscore.Hbonds>
donor molecule, donor type, donor heavy atom, donor atom, acceptor molecule, acceptor atom, score
      L1  H     4    32       P1  7948  1.00
      L1  H     7    33       P1  7948  0.60
      P1  H 11000 11005       L1    23  0.58

> <Gold.PLP.Chemscore.Internal.Correction>
0.5342

> <Gold.Rescore>
     Score         DG    S(hbond)    S(metal)    S(lipo)     H(rot)  DE(clash)    DE(int)     intcor
     20.15     -22.28       2.80        0.00      99.00       1.62       0.07       2.06       ----

> <Gold.Chemscore.Fitness>
20.1457

> <Gold.Chemscore.DG>
-22.2751

> <Gold.Chemscore.ZeroCoef>
-5.4800

> <Gold.Chemscore.Hbond>
2.8029

> <Gold.Chemscore.Metal>
0.0000

> <Gold.Chemscore.Lipo>
99.0043

> <Gold.Chemscore.Internal_Hbond>
0.0000

> <Gold.Chemscore.DEClash>
0.0710

> <Gold.Chemscore.DEInternal>
2.0584

> <Gold.Chemscore.Rot>
1.6211

> <Gold.Chemscore.Internal.Correction>
   9.000000E+99

> <Gold.Chemscore.Hbonds>
donor molecule, donor type, donor heavy atom, donor atom, acceptor molecule, acceptor atom, score
      L1  H     4    32       P1  7948  1.00
      L1  H     7    33       P1  7948  0.57
      P1  H 11000 11005       L1    23  0.07

> <Gold.Chemscore.Hbond.Weighted>
-9.3617

> <Gold.Chemscore.Metal.Weighted>
-0.0000

> <Gold.Chemscore.Lipo.Weighted>
-11.5835

> <Gold.Chemscore.Internal_Hbond.Weighted>
0.0000

> <Gold.Chemscore.DEClash.Weighted>
0.0710

> <Gold.Chemscore.DEInternal.Weighted>
2.0584

> <Gold.Chemscore.Rot.Weighted>
4.1501

> <Gold.Chemscore.Internal.Correction.Weighted>
   9.000000E+99

> <Gold.Protein.RotatedTorsions>
[ 6907 6896 6895 6894 ] final   12.45 input  -60.11 | X-H torsion
[ 7974 7965 7964 7962 ] final  -70.25 input  175.53 | X-H torsion
[ 8008 7997 7996 7995 ] final   62.51 input   59.86 | X-H torsion
[ 10167 10162 10161 10158 ] final  143.66 input  -65.29 | X-H torsion
[ 10718 10713 10712 10709 ] final  -85.19 input   66.30 | X-H torsion
[ 10763 10752 10751 10750 ] final -144.00 input  -60.55 | X-H torsion
[ 11005 11000 10999 10996 ] final   19.41 input  -57.11 | X-H torsion

> <Gold.Protein.ActiveResidues>
 VAL166  LYS551  ARG553  GLY616  TRP617  ASP618  TYR619  PRO620  LYS621  CYS622 
 ASP623  PHE694  ASN695  SER759  ASP760  ASP761  ALA762  ILE779  LEU786  VAL792 
 PHE793  MET794  SER795  GLU796  ALA797  LYS798  CYS799  TRP800  GLU811  SER814 

> <Gold.Protein.RotatedAtoms>
  151.7705  135.0787  160.0358 H   0  0  0  0  0  0  0  0  0  0  0  0  # atno 6907 bound_to 6896
  152.3292  133.5934  159.5806 H   0  0  0  0  0  0  0  0  0  0  0  0  # atno 6908 bound_to 6896
  150.7413  133.9810  159.3618 H   0  0  0  0  0  0  0  0  0  0  0  0  # atno 6909 bound_to 6896
  145.6934  140.9144  143.0769 H   0  0  0  0  0  0  0  0  0  0  0  0  # atno 7974 bound_to 7965
  155.6154  140.3495  155.4635 H   0  0  0  0  0  0  0  0  0  0  0  0  # atno 8008 bound_to 7997
  156.0121  140.1235  157.0467 H   0  0  0  0  0  0  0  0  0  0  0  0  # atno 8009 bound_to 7997
  154.4284  140.1079  156.5830 H   0  0  0  0  0  0  0  0  0  0  0  0  # atno 8010 bound_to 7997
  139.4964  144.6025  151.6450 H   0  0  0  0  0  0  0  0  0  0  0  0  # atno 10167 bound_to 10162
  155.9999  130.4723  150.4525 H   0  0  0  0  0  0  0  0  0  0  0  0  # atno 10718 bound_to 10713
  154.8446  135.3452  154.6277 H   0  0  0  0  0  0  0  0  0  0  0  0  # atno 10763 bound_to 10752
  153.6887  135.6976  153.5101 H   0  0  0  0  0  0  0  0  0  0  0  0  # atno 10764 bound_to 10752
  153.2612  135.4322  155.0851 H   0  0  0  0  0  0  0  0  0  0  0  0  # atno 10765 bound_to 10752
  140.4140  134.1588  155.7669 H   0  0  0  0  0  0  0  0  0  0  0  0  # atno 11005 bound_to 11000
  144.6990  139.8851  143.7449 LP  0  0  0  0  0  0  0  0  0  0  0  0  # atno 17320 bound_to 7965
  146.0862  139.3850  143.0434 LP  0  0  0  0  0  0  0  0  0  0  0  0  # atno 17321 bound_to 7965
  140.5678  144.0159  150.6201 LP  0  0  0  0  0  0  0  0  0  0  0  0  # atno 17342 bound_to 10162
  140.3267  143.3103  152.0729 LP  0  0  0  0  0  0  0  0  0  0  0  0  # atno 17343 bound_to 10162
  157.2557  131.0556  151.2352 LP  0  0  0  0  0  0  0  0  0  0  0  0  # atno 17370 bound_to 10713
  157.3485  130.7070  149.6425 LP  0  0  0  0  0  0  0  0  0  0  0  0  # atno 17371 bound_to 10713
  141.1810  133.8414  157.1258 LP  0  0  0  0  0  0  0  0  0  0  0  0  # atno 17394 bound_to 11000
  140.0247  134.9929  157.0662 LP  0  0  0  0  0  0  0  0  0  0  0  0  # atno 17395 bound_to 11000

$$$$
