#       Name:                AV-unprocessed.smi:2471
#       Creating user name   scv26
#       Creation time:       Fri Mar 27 13:38:07 2020


#       File generated by GOLD software.
#

@<TRIPOS>MOLECULE
AV-unprocessed.smi:2471
    45    46     1
SMALL
NO_CHARGES


@<TRIPOS>ATOM
      1 ****        -3.3931   4.5314  -1.2691 C.3            1 S1                 0.0000
      2 ****        -3.7537   3.0613  -1.2228 C.ar           1 S1                 0.0000
      3 ****        -5.0994   2.6453  -1.2190 C.ar           1 S1                 0.0000
      4 ****        -5.3659   1.2650  -1.1801 C.ar           1 S1                 0.0000
      5 ****        -4.2839   0.3641  -1.1463 C.ar           1 S1                 0.0000
      6 ****        -2.9623   0.8644  -1.1527 C.ar           1 S1                 0.0000
      7 ****        -1.9427  -0.1241  -1.1173 N.am           1 S1                 0.0000
      8 ****        -0.6101   0.0573  -1.1181 C.2            1 S1                 0.0000
      9 ****        -0.0391   1.1482  -1.1403 O.2            1 S1                 0.0000
     10 ****         0.0408  -1.1147  -1.0887 N.am           1 S1                 0.0000
     11 ****         1.4933  -1.2621  -1.0726 C.3            1 S1                 0.0000
     12 ****         2.0989  -1.0492   0.3357 C.3            1 S1                 0.0000
     13 ****         1.5371  -2.0751   1.3484 C.3            1 S1                 0.0000
     14 ****         2.1506  -1.9077   2.7470 C.3            1 S1                 0.0000
     15 ****         3.6813  -1.9987   2.6940 C.3            1 S1                 0.0000
     16 ****         4.2533  -0.9627   1.7172 C.3            1 S1                 0.0000
     17 ****         3.6463  -1.1179   0.3100 C.3            1 S1                 0.0000
     18 ****         4.1712  -0.0831  -0.4981 O.3            1 S1                 0.0000
     19 ****        -2.7161   2.1977  -1.1916 N.ar           1 S1                 0.0000
     20 ****        -4.2651   5.1578  -1.0789 H              1 S1                 0.0000
     21 ****        -2.9934   4.7904  -2.2498 H              1 S1                 0.0000
     22 ****        -2.6383   4.7646  -0.5172 H              1 S1                 0.0000
     23 ****        -5.9070   3.3620  -1.2462 H              1 S1                 0.0000
     24 ****        -6.3831   0.9022  -1.1762 H              1 S1                 0.0000
     25 ****        -4.4721  -0.6995  -1.1157 H              1 S1                 0.0000
     26 ****        -2.2659  -1.0796  -1.0922 H              1 S1                 0.0000
     27 ****        -0.5040  -1.9645  -1.0723 H              1 S1                 0.0000
     28 ****         1.7354  -2.2619  -1.4338 H              1 S1                 0.0000
     29 ****         1.9276  -0.5674  -1.7932 H              1 S1                 0.0000
     30 ****         1.8176  -0.0532   0.6826 H              1 S1                 0.0000
     31 ****         0.4539  -1.9789   1.4259 H              1 S1                 0.0000
     32 ****         1.7302  -3.0871   0.9897 H              1 S1                 0.0000
     33 ****         1.8539  -0.9444   3.1641 H              1 S1                 0.0000
     34 ****         1.7568  -2.6707   3.4190 H              1 S1                 0.0000
     35 ****         4.0985  -1.8429   3.6892 H              1 S1                 0.0000
     36 ****         3.9807  -3.0009   2.3846 H              1 S1                 0.0000
     37 ****         4.0513   0.0396   2.0990 H              1 S1                 0.0000
     38 ****         5.3384  -1.0617   1.6705 H              1 S1                 0.0000
     39 ****         3.9618  -2.0723  -0.1140 H              1 S1                 0.0000
     40 ****         3.8151  -0.1703  -1.3691 H              1 S1                 0.0000
     41 ****        -0.5745   1.9925  -1.1598 LP             1 S1                 0.0000
     42 ****         0.9601   1.1897  -1.1389 LP             1 S1                 0.0000
     43 ****         5.1680  -0.1557  -0.5329 LP             1 S1                 0.0000
     44 ****         3.9148   0.8050  -0.1168 LP             1 S1                 0.0000
     45 ****        -1.7757   2.5377  -1.1972 LP             1 S1                 0.0000
@<TRIPOS>BOND
    1    1    2 1     
    2    1   20 1     
    3    1   21 1     
    4    1   22 1     
    5    2   19 ar    
    6    2    3 ar    
    7    3    4 ar    
    8    3   23 1     
    9    4    5 ar    
   10    4   24 1     
   11    5    6 ar    
   12    5   25 1     
   13    6    7 1     
   14    6   19 ar    
   15    7    8 am    
   16    7   26 1     
   17    8    9 2     
   18    8   10 am    
   19   10   11 1     
   20   10   27 1     
   21   11   12 1     
   22   11   28 1     
   23   11   29 1     
   24   12   17 1     
   25   12   13 1     
   26   12   30 1     
   27   13   14 1     
   28   13   31 1     
   29   13   32 1     
   30   14   15 1     
   31   14   33 1     
   32   14   34 1     
   33   15   16 1     
   34   15   35 1     
   35   15   36 1     
   36   16   17 1     
   37   16   37 1     
   38   16   38 1     
   39   17   18 1     
   40   17   39 1     
   41   18   40 1     
   42    9   41 1     
   43    9   42 1     
   44   18   43 1     
   45   18   44 1     
   46   19   45 1     
@<TRIPOS>SUBSTRUCTURE
      1 S1             1
@<TRIPOS>SET
LONE_PAIRS      STATIC     ATOMS    <user>   **** ""
5 41 42 43 44 45
DONOR_HYDROGENS      STATIC     ATOMS    <user>   **** ""
3 26 27 40
ATOM$BLUE        STATIC     ATOMS    COLORGROUP SYSTEM
5 41 42 43 44 45
ATOM$RED        STATIC     ATOMS    COLORGROUP SYSTEM
3 26 27 40
