AV-unprocessed.smi:2627|AV-procd|sdf|10239|dock8
  -GOLD-   2272014243D 1   1.00000     0.00000
 Structure written by MMmdl.
 39 41  0  0  0  0  0  0  0  0  1 V2000
  154.1960  138.9621  160.3574 C   0  0  0  0  0  0  0  0  0  0  0  0
  153.2082  139.2368  159.2160 C   0  0  2  0  0  0  0  0  0  0  0  0
  153.8244  138.8604  158.0006 O   0  0  0  0  0  0  0  0  0  0  0  0
  152.7488  140.6697  159.2060 C   0  0  0  0  0  0  0  0  0  0  0  0
  153.2252  141.5759  160.0630 N   0  0  0  0  0  0  0  0  0  0  0  0
  152.5399  142.7219  159.7119 C   0  0  0  0  0  0  0  0  0  0  0  0
  152.6065  144.0304  160.2414 C   0  0  0  0  0  0  0  0  0  0  0  0
  151.7996  145.0575  159.7094 C   0  0  0  0  0  0  0  0  0  0  0  0
  150.9163  144.7911  158.6432 C   0  0  0  0  0  0  0  0  0  0  0  0
  150.8334  143.4935  158.1024 C   0  0  0  0  0  0  0  0  0  0  0  0
  151.6409  142.4720  158.6375 C   0  0  0  0  0  0  0  0  0  0  0  0
  151.7996  141.1210  158.3458 N   0  0  0  0  0  0  0  0  0  0  0  0
  151.0849  140.3807  157.3179 C   0  0  0  0  0  0  0  0  0  0  0  0
  151.1313  141.1062  155.9680 C   0  0  0  0  0  0  0  0  0  0  0  0
  150.4357  140.3226  155.0094 O   0  0  0  0  0  0  0  0  0  0  0  0
  149.1325  140.6611  154.7139 C   0  0  0  0  0  0  0  0  0  0  0  0
  148.4661  139.8658  153.7585 C   0  0  0  0  0  0  0  0  0  0  0  0
  147.1335  140.1395  153.3953 C   0  0  0  0  0  0  0  0  0  0  0  0
  146.4500  141.2167  153.9887 C   0  0  0  0  0  0  0  0  0  0  0  0
  147.1018  142.0180  154.9446 C   0  0  0  0  0  0  0  0  0  0  0  0
  148.4353  141.7446  155.3071 C   0  0  0  0  0  0  0  0  0  0  0  0
  153.7481  139.1879  161.3255 H   0  0  0  0  0  0  0  0  0  0  0  0
  155.0958  139.5705  160.2579 H   0  0  0  0  0  0  0  0  0  0  0  0
  154.5010  137.9153  160.3717 H   0  0  0  0  0  0  0  0  0  0  0  0
  152.3449  138.5818  159.3275 H   0  0  0  0  0  0  0  0  0  0  0  0
  154.4627  138.1885  158.1850 H   0  0  0  0  0  0  0  0  0  0  0  0
  153.2811  144.2445  161.0570 H   0  0  0  0  0  0  0  0  0  0  0  0
  151.8596  146.0545  160.1206 H   0  0  0  0  0  0  0  0  0  0  0  0
  150.3027  145.5838  158.2404 H   0  0  0  0  0  0  0  0  0  0  0  0
  150.1583  143.2868  157.2852 H   0  0  0  0  0  0  0  0  0  0  0  0
  151.5038  139.3780  157.2351 H   0  0  0  0  0  0  0  0  0  0  0  0
  150.0503  140.2503  157.6365 H   0  0  0  0  0  0  0  0  0  0  0  0
  150.6669  142.0889  156.0642 H   0  0  0  0  0  0  0  0  0  0  0  0
  152.1671  141.2479  155.6557 H   0  0  0  0  0  0  0  0  0  0  0  0
  148.9828  139.0368  153.2973 H   0  0  0  0  0  0  0  0  0  0  0  0
  146.6364  139.5225  152.6614 H   0  0  0  0  0  0  0  0  0  0  0  0
  145.4279  141.4279  153.7114 H   0  0  0  0  0  0  0  0  0  0  0  0
  146.5781  142.8448  155.4015 H   0  0  0  0  0  0  0  0  0  0  0  0
  148.9004  142.3813  156.0442 H   0  0  0  0  0  0  0  0  0  0  0  0
  1  2  1  0  0  0  0
  1 22  1  0  0  0  0
  1 23  1  0  0  0  0
  1 24  1  0  0  0  0
  2  3  1  0  0  0  0
  2  4  1  0  0  0  0
  2 25  1  0  0  0  0
  3 26  1  0  0  0  0
  4 12  1  0  0  0  0
  4  5  2  0  0  0  0
  5  6  1  0  0  0  0
  6 11  2  0  0  0  0
  6  7  1  0  0  0  0
  7  8  2  0  0  0  0
  7 27  1  0  0  0  0
  8  9  1  0  0  0  0
  8 28  1  0  0  0  0
  9 10  2  0  0  0  0
  9 29  1  0  0  0  0
 10 11  1  0  0  0  0
 10 30  1  0  0  0  0
 11 12  1  0  0  0  0
 12 13  1  0  0  0  0
 13 14  1  0  0  0  0
 13 31  1  0  0  0  0
 13 32  1  0  0  0  0
 14 15  1  0  0  0  0
 14 33  1  0  0  0  0
 14 34  1  0  0  0  0
 15 16  1  0  0  0  0
 16 21  1  0  0  0  0
 16 17  2  0  0  0  0
 17 18  1  0  0  0  0
 17 35  1  0  0  0  0
 18 19  2  0  0  0  0
 18 36  1  0  0  0  0
 19 20  1  0  0  0  0
 19 37  1  0  0  0  0
 20 21  2  0  0  0  0
 20 38  1  0  0  0  0
 21 39  1  0  0  0  0
M  END
> <s_m_source_file>
AV-unprocessed.smi

> <i_m_source_file_index>
2627

> <i_lp_mmshare_version>
43012

> <i_f3d_flags>
0

> <s_epik_input>
W2NIXTFbY0hdW2NIXVtjSF1jKGMxMiluKGMobjIpW0NASF0oW0NIM10pW09IXSlbQ0gyXVtDSDJdT2MzW2NIXVtjSF1bY0hdW2NIXVtjSF0z

> <s_epik_cmdline>
J2VwaWtfcHl0aG9uJywgJy1waCcsICc3LjAnLCAnLXRuJywgJzgnLCAnLW1hJywgJzIwMCcsICctbWV0YWxfYmluZGluZycsICctaW1hZScsICc8aW5maWxlLm1hZT4nLCAnLW9tYWUnLCAnPG91dGZpbGUubWFlPic=

> <r_lp_tautomer_probability>
1

> <r_epik_Ionization_Penalty>
0.0472514

> <r_epik_Ionization_Penalty_Charging>
0

> <r_epik_Ionization_Penalty_Neutral>
0.0472514

> <r_epik_State_Penalty>
0.040225

> <r_epik_Charging_Adjusted_Penalty>
0.040225

> <i_epik_Tot_Q>
0

> <i_epik_Tot_abs_Q>
0

> <r_epik_Metal_State_Penalty>
4.16204e-05

> <b_epik_Metal_Only>
0

> <s_lp_Force_Field>
OPLS_2005

> <r_lp_Energy>
15.0565

> <b_lp_Chiralities_Consistent>
1

> <s_lp_Variant>
AV-unprocessed.smi:2627-1

> <Gold.Version>
5.8.1

> <Gold.Id.Protein>
6NUR|6NUR_protein|mol2

> <Gold.PLP.Fitness>
49.4524

> <Gold.PLP.PLP>
-44.3154

> <Gold.PLP.part.hbond>
-2.0000

> <Gold.PLP.part.metal>
0.0000

> <Gold.PLP.part.buried>
0.9349

> <Gold.PLP.part.nonpolar>
-42.4927

> <Gold.PLP.part.repulsive>
0.0582

> <Gold.PLP.ligand.clash>
0.0000

> <Gold.PLP.ligand.torsion>
0.3868

> <Gold.PLP.Chemscore.Hbond>
1.9500

> <Gold.PLP.Chemscore.CHOScore>
0.0000

> <Gold.PLP.Chemscore.Metal>
0.0000

> <Gold.Chemscore.Hbonds>
donor molecule, donor type, donor heavy atom, donor atom, acceptor molecule, acceptor atom, score
      P1  H  7989  7998       L1    15  0.70
      P1  H  7997  8010       L1     3  1.00

> <Gold.PLP.Chemscore.Internal.Correction>
0.0606

> <Gold.Rescore>
     Score         DG    S(hbond)    S(metal)    S(lipo)     H(rot)  DE(clash)    DE(int)     intcor
     16.67     -18.28       0.92        0.00     128.27       2.06       0.78       0.83       ----

> <Gold.Chemscore.Fitness>
16.6663

> <Gold.Chemscore.DG>
-18.2769

> <Gold.Chemscore.ZeroCoef>
-5.4800

> <Gold.Chemscore.Hbond>
0.9153

> <Gold.Chemscore.Metal>
0.0000

> <Gold.Chemscore.Lipo>
128.2710

> <Gold.Chemscore.Internal_Hbond>
0.0000

> <Gold.Chemscore.DEClash>
0.7809

> <Gold.Chemscore.DEInternal>
0.8297

> <Gold.Chemscore.Rot>
2.0577

> <Gold.Chemscore.Internal.Correction>
   9.000000E+99

> <Gold.Chemscore.Hbonds>
donor molecule, donor type, donor heavy atom, donor atom, acceptor molecule, acceptor atom, score
      P1  H  7989  7998       L1    15  0.05
      P1  H  7997  8010       L1     3  0.64

> <Gold.Chemscore.Hbond.Weighted>
-3.0570

> <Gold.Chemscore.Metal.Weighted>
-0.0000

> <Gold.Chemscore.Lipo.Weighted>
-15.0077

> <Gold.Chemscore.Internal_Hbond.Weighted>
0.0000

> <Gold.Chemscore.DEClash.Weighted>
0.7809

> <Gold.Chemscore.DEInternal.Weighted>
0.8297

> <Gold.Chemscore.Rot.Weighted>
5.2678

> <Gold.Chemscore.Internal.Correction.Weighted>
   9.000000E+99

> <Gold.Protein.RotatedTorsions>
[ 6907 6896 6895 6894 ] final -173.85 input  -60.11 | X-H torsion
[ 7974 7965 7964 7962 ] final    4.28 input  175.53 | X-H torsion
[ 8008 7997 7996 7995 ] final   40.51 input   59.86 | X-H torsion
[ 10167 10162 10161 10158 ] final   99.69 input  -65.29 | X-H torsion
[ 10718 10713 10712 10709 ] final  177.87 input   66.30 | X-H torsion
[ 10763 10752 10751 10750 ] final   34.72 input  -60.55 | X-H torsion
[ 11005 11000 10999 10996 ] final    0.75 input  -57.11 | X-H torsion

> <Gold.Protein.ActiveResidues>
 VAL166  LYS551  ARG553  GLY616  TRP617  ASP618  TYR619  PRO620  LYS621  CYS622 
 ASP623  PHE694  ASN695  SER759  ASP760  ASP761  ALA762  ILE779  LEU786  VAL792 
 PHE793  MET794  SER795  GLU796  ALA797  LYS798  CYS799  TRP800  GLU811  SER814 

> <Gold.Protein.RotatedAtoms>
  151.5628  133.3400  159.2974 H   0  0  0  0  0  0  0  0  0  0  0  0  # atno 6907 bound_to 6896
  150.8412  134.7708  159.6945 H   0  0  0  0  0  0  0  0  0  0  0  0  # atno 6908 bound_to 6896
  152.4479  134.5462  159.9905 H   0  0  0  0  0  0  0  0  0  0  0  0  # atno 6909 bound_to 6896
  146.2444  140.0558  142.8372 H   0  0  0  0  0  0  0  0  0  0  0  0  # atno 7974 bound_to 7965
  155.2542  140.3354  155.4279 H   0  0  0  0  0  0  0  0  0  0  0  0  # atno 8008 bound_to 7997
  156.2202  140.1806  156.7537 H   0  0  0  0  0  0  0  0  0  0  0  0  # atno 8009 bound_to 7997
  154.5814  140.0653  156.9094 H   0  0  0  0  0  0  0  0  0  0  0  0  # atno 8010 bound_to 7997
  139.7595  144.6959  151.0313 H   0  0  0  0  0  0  0  0  0  0  0  0  # atno 10167 bound_to 10162
  156.8990  130.9872  151.3038 H   0  0  0  0  0  0  0  0  0  0  0  0  # atno 10718 bound_to 10713
  153.0151  135.6353  154.1713 H   0  0  0  0  0  0  0  0  0  0  0  0  # atno 10763 bound_to 10752
  154.1452  135.2832  155.3152 H   0  0  0  0  0  0  0  0  0  0  0  0  # atno 10764 bound_to 10752
  154.6094  135.5561  153.7519 H   0  0  0  0  0  0  0  0  0  0  0  0  # atno 10765 bound_to 10752
  140.6231  133.9643  155.8235 H   0  0  0  0  0  0  0  0  0  0  0  0  # atno 11005 bound_to 11000
  145.0944  140.9305  143.4750 LP  0  0  0  0  0  0  0  0  0  0  0  0  # atno 17320 bound_to 7965
  145.0737  139.3012  143.5819 LP  0  0  0  0  0  0  0  0  0  0  0  0  # atno 17321 bound_to 7965
  140.7806  143.4714  151.0141 LP  0  0  0  0  0  0  0  0  0  0  0  0  # atno 17342 bound_to 10162
  139.8400  143.7576  152.3180 LP  0  0  0  0  0  0  0  0  0  0  0  0  # atno 17343 bound_to 10162
  157.6037  130.8532  149.8842 LP  0  0  0  0  0  0  0  0  0  0  0  0  # atno 17370 bound_to 10713
  156.0591  130.3703  150.1023 LP  0  0  0  0  0  0  0  0  0  0  0  0  # atno 17371 bound_to 10713
  141.0728  134.0180  157.3501 LP  0  0  0  0  0  0  0  0  0  0  0  0  # atno 17394 bound_to 11000
  139.9145  135.0195  156.7827 LP  0  0  0  0  0  0  0  0  0  0  0  0  # atno 17395 bound_to 11000

$$$$
