AV-unprocessed.smi:2860|AV-procd|sdf|11006|dock8
  -GOLD-   2272015463D 1   1.00000     0.00000
 Structure written by MMmdl.
 45 46  0  0  0  0  0  0  0  0  1 V2000
  152.5561  124.7144  150.2326 C   0  0  0  0  0  0  0  0  0  0  0  0
  152.2950  124.4366  151.7190 C   0  0  0  0  0  0  0  0  0  0  0  0
  151.5080  125.5016  152.3284 N   0  0  0  0  0  0  0  0  0  0  0  0
  150.2791  125.3520  152.8475 C   0  0  0  0  0  0  0  0  0  0  0  0
  149.6880  124.2735  152.8933 O   0  0  0  0  0  0  0  0  0  0  0  0
  149.6097  126.6151  153.3903 C   0  0  0  0  0  0  0  0  0  0  0  0
  148.7720  127.2338  152.3786 N   0  0  0  0  0  0  0  0  0  0  0  0
  148.6188  126.8734  151.0538 C   0  0  0  0  0  0  0  0  0  0  0  0
  147.7166  127.7333  150.4949 C   0  0  0  0  0  0  0  0  0  0  0  0
  147.3751  128.5949  151.5732 C   0  0  0  0  0  0  0  0  0  0  0  0
  146.4373  129.6425  151.3913 N   0  0  0  0  0  0  0  0  0  0  0  0
  146.2660  130.7367  152.1551 C   0  0  0  0  0  0  0  0  0  0  0  0
  146.9955  131.0497  153.0959 O   0  0  0  0  0  0  0  0  0  0  0  0
  145.1490  131.6149  151.6906 C   0  0  0  0  0  0  0  0  0  0  0  0
  145.1338  132.1321  150.2527 C   0  0  0  0  0  0  0  0  0  0  0  0
  146.2364  131.8267  149.2384 C   0  0  0  0  0  0  0  0  0  0  0  0
  143.8021  132.1480  149.5137 C   0  0  0  0  0  0  0  0  0  0  0  0
  145.3964  133.0949  151.4112 C   0  0  0  0  0  0  0  0  0  0  0  0
  144.3331  134.0922  151.8514 C   0  0  0  0  0  0  0  0  0  0  0  0
  146.7674  133.7496  151.5845 C   0  0  0  0  0  0  0  0  0  0  0  0
  148.0050  128.2982  152.7014 N   0  0  0  0  0  0  0  0  0  0  0  0
  153.1691  123.9275  149.7934 H   0  0  0  0  0  0  0  0  0  0  0  0
  153.0803  125.6605  150.0950 H   0  0  0  0  0  0  0  0  0  0  0  0
  151.6245  124.7621  149.6676 H   0  0  0  0  0  0  0  0  0  0  0  0
  151.7953  123.4747  151.8448 H   0  0  0  0  0  0  0  0  0  0  0  0
  153.2432  124.3662  152.2520 H   0  0  0  0  0  0  0  0  0  0  0  0
  151.9187  126.4239  152.3385 H   0  0  0  0  0  0  0  0  0  0  0  0
  149.0043  126.3712  154.2648 H   0  0  0  0  0  0  0  0  0  0  0  0
  150.3641  127.3341  153.7127 H   0  0  0  0  0  0  0  0  0  0  0  0
  149.1561  126.0401  150.6257 H   0  0  0  0  0  0  0  0  0  0  0  0
  147.3572  127.7422  149.4765 H   0  0  0  0  0  0  0  0  0  0  0  0
  145.8037  129.5338  150.6131 H   0  0  0  0  0  0  0  0  0  0  0  0
  144.1769  131.3345  152.0927 H   0  0  0  0  0  0  0  0  0  0  0  0
  146.2825  132.6149  148.4867 H   0  0  0  0  0  0  0  0  0  0  0  0
  146.0334  130.8820  148.7328 H   0  0  0  0  0  0  0  0  0  0  0  0
  147.2198  131.7438  149.6966 H   0  0  0  0  0  0  0  0  0  0  0  0
  143.7562  133.0007  148.8360 H   0  0  0  0  0  0  0  0  0  0  0  0
  142.9606  132.2097  150.2027 H   0  0  0  0  0  0  0  0  0  0  0  0
  143.6785  131.2348  148.9307 H   0  0  0  0  0  0  0  0  0  0  0  0
  144.3005  134.9372  151.1631 H   0  0  0  0  0  0  0  0  0  0  0  0
  144.5526  134.4684  152.8512 H   0  0  0  0  0  0  0  0  0  0  0  0
  143.3443  133.6365  151.8859 H   0  0  0  0  0  0  0  0  0  0  0  0
  146.8639  134.6006  150.9097 H   0  0  0  0  0  0  0  0  0  0  0  0
  147.5894  133.0652  151.3829 H   0  0  0  0  0  0  0  0  0  0  0  0
  146.8897  134.1079  152.6070 H   0  0  0  0  0  0  0  0  0  0  0  0
  1  2  1  0  0  0  0
  1 22  1  0  0  0  0
  1 23  1  0  0  0  0
  1 24  1  0  0  0  0
  2  3  1  0  0  0  0
  2 25  1  0  0  0  0
  2 26  1  0  0  0  0
  3  4  1  0  0  0  0
  3 27  1  0  0  0  0
  4  5  2  0  0  0  0
  4  6  1  0  0  0  0
  6  7  1  0  0  0  0
  6 28  1  0  0  0  0
  6 29  1  0  0  0  0
  7 21  1  0  0  0  0
  7  8  1  0  0  0  0
  8  9  2  0  0  0  0
  8 30  1  0  0  0  0
  9 10  1  0  0  0  0
  9 31  1  0  0  0  0
 10 11  1  0  0  0  0
 10 21  2  0  0  0  0
 11 12  1  0  0  0  0
 11 32  1  0  0  0  0
 12 13  2  0  0  0  0
 12 14  1  0  0  0  0
 14 18  1  0  0  0  0
 14 15  1  0  0  0  0
 14 33  1  0  0  0  0
 15 16  1  0  0  0  0
 15 17  1  0  0  0  0
 15 18  1  0  0  0  0
 16 34  1  0  0  0  0
 16 35  1  0  0  0  0
 16 36  1  0  0  0  0
 17 37  1  0  0  0  0
 17 38  1  0  0  0  0
 17 39  1  0  0  0  0
 18 19  1  0  0  0  0
 18 20  1  0  0  0  0
 19 40  1  0  0  0  0
 19 41  1  0  0  0  0
 19 42  1  0  0  0  0
 20 43  1  0  0  0  0
 20 44  1  0  0  0  0
 20 45  1  0  0  0  0
M  END
> <s_m_source_file>
AV-unprocessed.smi

> <i_m_source_file_index>
2860

> <i_lp_mmshare_version>
43012

> <i_f3d_flags>
0

> <s_epik_input>
W0NIM11bQ0gyXVtOSF1DKD1PKVtDSDJdbjFbY0hdW2NIXWMobjEpW05IXUMoPU8pW0NIXShDMihbQ0gzXSlbQ0gzXSlDMihbQ0gzXSlbQ0gzXQ==

> <s_epik_cmdline>
J2VwaWtfcHl0aG9uJywgJy1waCcsICc3LjAnLCAnLXRuJywgJzgnLCAnLW1hJywgJzIwMCcsICctbWV0YWxfYmluZGluZycsICctaW1hZScsICc8aW5maWxlLm1hZT4nLCAnLW9tYWUnLCAnPG91dGZpbGUubWFlPic=

> <r_lp_tautomer_probability>
1

> <r_epik_Ionization_Penalty>
1.3586e-05

> <r_epik_Ionization_Penalty_Charging>
0

> <r_epik_Ionization_Penalty_Neutral>
1.3586e-05

> <r_epik_State_Penalty>
-0

> <r_epik_Charging_Adjusted_Penalty>
0

> <i_epik_Tot_Q>
0

> <i_epik_Tot_abs_Q>
0

> <r_epik_Metal_State_Penalty>
-0

> <b_epik_Metal_Only>
0

> <s_lp_Force_Field>
OPLS_2005

> <r_lp_Energy>
28.3378

> <b_lp_Chiralities_Consistent>
1

> <s_lp_Variant>
AV-unprocessed.smi:2860-1

> <Gold.Version>
5.8.1

> <Gold.Id.Protein>
6NUR|6NUR_protein|mol2

> <Gold.PLP.Fitness>
40.4296

> <Gold.PLP.PLP>
-38.4047

> <Gold.PLP.part.hbond>
-1.6955

> <Gold.PLP.part.metal>
0.0000

> <Gold.PLP.part.buried>
-2.5406

> <Gold.PLP.part.nonpolar>
-33.7774

> <Gold.PLP.part.repulsive>
0.3447

> <Gold.PLP.ligand.clash>
0.0000

> <Gold.PLP.ligand.torsion>
0.5570

> <Gold.PLP.Chemscore.Hbond>
1.0000

> <Gold.PLP.Chemscore.CHOScore>
0.0000

> <Gold.PLP.Chemscore.Metal>
0.0000

> <Gold.Chemscore.Hbonds>
donor molecule, donor type, donor heavy atom, donor atom, acceptor molecule, acceptor atom, score
      L1  H     3    27       P1 10737  0.64

> <Gold.PLP.Chemscore.Internal.Correction>
0.1389

> <Gold.Rescore>
     Score         DG    S(hbond)    S(metal)    S(lipo)     H(rot)  DE(clash)    DE(int)     intcor
     11.96     -14.38       0.99        0.00      84.40       1.68       0.06       2.36       ----

> <Gold.Chemscore.Fitness>
11.9579

> <Gold.Chemscore.DG>
-14.3756

> <Gold.Chemscore.ZeroCoef>
-5.4800

> <Gold.Chemscore.Hbond>
0.9938

> <Gold.Chemscore.Metal>
0.0000

> <Gold.Chemscore.Lipo>
84.3976

> <Gold.Chemscore.Internal_Hbond>
0.0000

> <Gold.Chemscore.DEClash>
0.0614

> <Gold.Chemscore.DEInternal>
2.3563

> <Gold.Chemscore.Rot>
1.6789

> <Gold.Chemscore.Internal.Correction>
   9.000000E+99

> <Gold.Chemscore.Hbonds>
donor molecule, donor type, donor heavy atom, donor atom, acceptor molecule, acceptor atom, score
      L1  H     3    27       P1 10737  0.62

> <Gold.Chemscore.Hbond.Weighted>
-3.3192

> <Gold.Chemscore.Metal.Weighted>
-0.0000

> <Gold.Chemscore.Lipo.Weighted>
-9.8745

> <Gold.Chemscore.Internal_Hbond.Weighted>
0.0000

> <Gold.Chemscore.DEClash.Weighted>
0.0614

> <Gold.Chemscore.DEInternal.Weighted>
2.3563

> <Gold.Chemscore.Rot.Weighted>
4.2981

> <Gold.Chemscore.Internal.Correction.Weighted>
   9.000000E+99

> <Gold.Protein.RotatedTorsions>
[ 6907 6896 6895 6894 ] final  -44.71 input  -60.11 | X-H torsion
[ 7974 7965 7964 7962 ] final -130.75 input  175.53 | X-H torsion
[ 8008 7997 7996 7995 ] final -123.76 input   59.86 | X-H torsion
[ 10167 10162 10161 10158 ] final    2.72 input  -65.29 | X-H torsion
[ 10718 10713 10712 10709 ] final  146.61 input   66.30 | X-H torsion
[ 10763 10752 10751 10750 ] final -141.97 input  -60.55 | X-H torsion
[ 11005 11000 10999 10996 ] final   39.96 input  -57.11 | X-H torsion

> <Gold.Protein.ActiveResidues>
 VAL166  LYS551  ARG553  GLY616  TRP617  ASP618  TYR619  PRO620  LYS621  CYS622 
 ASP623  PHE694  ASN695  SER759  ASP760  ASP761  ALA762  ILE779  LEU786  VAL792 
 PHE793  MET794  SER795  GLU796  ALA797  LYS798  CYS799  TRP800  GLU811  SER814 

> <Gold.Protein.RotatedAtoms>
  150.9298  134.8713  159.7543 H   0  0  0  0  0  0  0  0  0  0  0  0  # atno 6907 bound_to 6896
  152.5032  134.4096  159.9454 H   0  0  0  0  0  0  0  0  0  0  0  0  # atno 6908 bound_to 6896
  151.4123  133.3683  159.2780 H   0  0  0  0  0  0  0  0  0  0  0  0  # atno 6909 bound_to 6896
  144.9445  140.7276  143.4826 H   0  0  0  0  0  0  0  0  0  0  0  0  # atno 7974 bound_to 7965
  155.1857  140.0412  157.2891 H   0  0  0  0  0  0  0  0  0  0  0  0  # atno 8008 bound_to 7997
  154.6173  140.2492  155.7566 H   0  0  0  0  0  0  0  0  0  0  0  0  # atno 8009 bound_to 7997
  156.2413  140.2902  156.0464 H   0  0  0  0  0  0  0  0  0  0  0  0  # atno 8010 bound_to 7997
  140.6621  143.7276  150.7758 H   0  0  0  0  0  0  0  0  0  0  0  0  # atno 10167 bound_to 10162
  157.3311  131.0920  151.1161 H   0  0  0  0  0  0  0  0  0  0  0  0  # atno 10718 bound_to 10713
  154.8526  135.3509  154.5952 H   0  0  0  0  0  0  0  0  0  0  0  0  # atno 10763 bound_to 10752
  153.6562  135.6992  153.5197 H   0  0  0  0  0  0  0  0  0  0  0  0  # atno 10764 bound_to 10752
  153.2854  135.4251  155.1076 H   0  0  0  0  0  0  0  0  0  0  0  0  # atno 10765 bound_to 10752
  140.1977  134.3909  155.8113 H   0  0  0  0  0  0  0  0  0  0  0  0  # atno 11005 bound_to 11000
  145.2939  139.1874  143.4725 LP  0  0  0  0  0  0  0  0  0  0  0  0  # atno 17320 bound_to 7965
  146.3298  140.2920  142.8616 LP  0  0  0  0  0  0  0  0  0  0  0  0  # atno 17321 bound_to 7965
  140.0946  143.4845  152.2459 LP  0  0  0  0  0  0  0  0  0  0  0  0  # atno 17342 bound_to 10162
  139.5858  144.7530  151.3523 LP  0  0  0  0  0  0  0  0  0  0  0  0  # atno 17343 bound_to 10162
  157.2409  130.6569  149.5889 LP  0  0  0  0  0  0  0  0  0  0  0  0  # atno 17370 bound_to 10713
  155.9696  130.4569  150.5941 LP  0  0  0  0  0  0  0  0  0  0  0  0  # atno 17371 bound_to 10713
  141.2227  133.7078  156.8204 LP  0  0  0  0  0  0  0  0  0  0  0  0  # atno 17394 bound_to 11000
  140.2089  134.8842  157.3252 LP  0  0  0  0  0  0  0  0  0  0  0  0  # atno 17395 bound_to 11000

$$$$
