AV-unprocessed.smi:276|AV-procd|sdf|2079|dock2
  -GOLD-   2262021343D 1   1.00000     0.00000
 Structure written by MMmdl.
 57 61  0  0  0  0  0  0  0  0  1 V2000
  153.1898  142.4108  159.9507 C   0  0  0  0  0  0  0  0  0  0  0  0
  152.4373  143.0043  158.9064 O   0  0  0  0  0  0  0  0  0  0  0  0
  151.2532  142.2843  158.6001 C   0  0  1  0  0  0  0  0  0  0  0  0
  150.6587  142.7066  157.2537 C   0  0  0  0  0  0  0  0  0  0  0  0
  150.2679  141.2370  157.0537 C   0  0  1  0  0  0  0  0  0  0  0  0
  150.3742  140.7995  155.6596 N   0  0  0  0  0  0  0  0  0  0  0  0
  149.2241  141.0844  154.8110 C   0  0  0  0  0  0  0  0  0  0  0  0
  150.7929  139.5288  155.4629 C   0  0  0  0  0  0  0  0  0  0  0  0
  151.8089  139.3474  154.5824 N   0  0  0  0  0  0  0  0  0  0  0  0
  152.2781  138.1193  154.3438 C   0  0  0  0  0  0  0  0  0  0  0  0
  151.8764  136.9569  154.8616 N   0  0  0  0  0  0  0  0  0  0  0  0
  150.8396  137.1338  155.7296 C   0  0  0  0  0  0  0  0  0  0  0  0
  150.2356  138.3733  156.0830 C   0  0  0  0  0  0  0  0  0  0  0  0
  149.1981  138.1514  156.9818 N   0  0  0  0  0  0  0  0  0  0  0  0
  149.1988  136.8587  157.1595 C   0  0  0  0  0  0  0  0  0  0  0  0
  150.1518  136.1706  156.4444 N   0  0  0  0  0  0  0  0  0  0  0  0
  150.3768  134.7363  156.4421 C   0  0  0  0  0  0  0  0  0  0  0  0
  149.8743  134.0665  155.1481 C   0  0  2  0  0  0  0  0  0  0  0  0
  148.7137  134.7389  154.6967 O   0  0  0  0  0  0  0  0  0  0  0  0
  149.5405  132.5774  155.3534 C   0  0  1  0  0  0  0  0  0  0  0  0
  149.0049  131.8697  154.1087 C   0  0  0  0  0  0  0  0  0  0  0  0
  149.3258  130.4075  154.3705 C   0  0  0  0  0  0  0  0  0  0  0  0
  150.4145  130.4540  155.4465 C   0  0  0  0  0  0  0  0  0  0  0  0
  150.7189  131.8319  155.6192 O   0  0  0  0  0  0  0  0  0  0  0  0
  151.4532  140.8795  157.9901 C   0  0  0  0  0  0  0  0  0  0  0  0
  151.4247  139.6272  158.8772 C   0  0  0  0  0  0  0  0  0  0  0  0
  152.5743  139.0415  158.0507 C   0  0  0  0  0  0  0  0  0  0  0  0
  152.8341  140.4343  157.4668 C   0  0  0  0  0  0  0  0  0  0  0  0
  154.0742  143.0150  160.1519 H   0  0  0  0  0  0  0  0  0  0  0  0
  153.5246  141.4086  159.6833 H   0  0  0  0  0  0  0  0  0  0  0  0
  152.6072  142.3509  160.8708 H   0  0  0  0  0  0  0  0  0  0  0  0
  150.5032  142.3071  159.3941 H   0  0  0  0  0  0  0  0  0  0  0  0
  149.8186  143.3979  157.3214 H   0  0  0  0  0  0  0  0  0  0  0  0
  151.4145  143.0558  156.5473 H   0  0  0  0  0  0  0  0  0  0  0  0
  149.3012  141.0318  157.5156 H   0  0  0  0  0  0  0  0  0  0  0  0
  148.3407  140.5531  155.1675 H   0  0  0  0  0  0  0  0  0  0  0  0
  149.4115  140.7867  153.7780 H   0  0  0  0  0  0  0  0  0  0  0  0
  149.0014  142.1513  154.8094 H   0  0  0  0  0  0  0  0  0  0  0  0
  153.0931  138.0596  153.6375 H   0  0  0  0  0  0  0  0  0  0  0  0
  148.4954  136.3678  157.8162 H   0  0  0  0  0  0  0  0  0  0  0  0
  151.4463  134.5635  156.5673 H   0  0  0  0  0  0  0  0  0  0  0  0
  149.8868  134.3024  157.3148 H   0  0  0  0  0  0  0  0  0  0  0  0
  150.6381  134.1597  154.3748 H   0  0  0  0  0  0  0  0  0  0  0  0
  148.9336  135.2278  153.9186 H   0  0  0  0  0  0  0  0  0  0  0  0
  148.8452  132.4489  156.1855 H   0  0  0  0  0  0  0  0  0  0  0  0
  147.9416  132.0475  153.9448 H   0  0  0  0  0  0  0  0  0  0  0  0
  149.5434  132.2079  153.2222 H   0  0  0  0  0  0  0  0  0  0  0  0
  148.4497  129.8728  154.7392 H   0  0  0  0  0  0  0  0  0  0  0  0
  149.6675  129.9087  153.4630 H   0  0  0  0  0  0  0  0  0  0  0  0
  150.0425  130.0455  156.3871 H   0  0  0  0  0  0  0  0  0  0  0  0
  151.3059  129.8945  155.1621 H   0  0  0  0  0  0  0  0  0  0  0  0
  151.7108  139.8315  159.9094 H   0  0  0  0  0  0  0  0  0  0  0  0
  150.4990  139.0545  158.8279 H   0  0  0  0  0  0  0  0  0  0  0  0
  153.3975  138.6442  158.6451 H   0  0  0  0  0  0  0  0  0  0  0  0
  152.2364  138.3211  157.3056 H   0  0  0  0  0  0  0  0  0  0  0  0
  152.9584  140.4559  156.3847 H   0  0  0  0  0  0  0  0  0  0  0  0
  153.6672  140.9337  157.9616 H   0  0  0  0  0  0  0  0  0  0  0  0
  1  2  1  0  0  0  0
  1 29  1  0  0  0  0
  1 30  1  0  0  0  0
  1 31  1  0  0  0  0
  2  3  1  0  0  0  0
  3 25  1  0  0  0  0
  3  4  1  0  0  0  0
  3 32  1  0  0  0  0
  4  5  1  0  0  0  0
  4 33  1  0  0  0  0
  4 34  1  0  0  0  0
  5  6  1  0  0  0  0
  5 25  1  0  0  0  0
  5 35  1  0  0  0  0
  6  7  1  0  0  0  0
  6  8  1  0  0  0  0
  7 36  1  0  0  0  0
  7 37  1  0  0  0  0
  7 38  1  0  0  0  0
  8 13  1  0  0  0  0
  8  9  2  0  0  0  0
  9 10  1  0  0  0  0
 10 11  2  0  0  0  0
 10 39  1  0  0  0  0
 11 12  1  0  0  0  0
 12 16  1  0  0  0  0
 12 13  2  0  0  0  0
 13 14  1  0  0  0  0
 14 15  2  0  0  0  0
 15 16  1  0  0  0  0
 15 40  1  0  0  0  0
 16 17  1  0  0  0  0
 17 18  1  0  0  0  0
 17 41  1  0  0  0  0
 17 42  1  0  0  0  0
 18 19  1  0  0  0  0
 18 20  1  0  0  0  0
 18 43  1  0  0  0  0
 19 44  1  0  0  0  0
 20 24  1  0  0  0  0
 20 21  1  0  0  0  0
 20 45  1  0  0  0  0
 21 22  1  0  0  0  0
 21 46  1  0  0  0  0
 21 47  1  0  0  0  0
 22 23  1  0  0  0  0
 22 48  1  0  0  0  0
 22 49  1  0  0  0  0
 23 24  1  0  0  0  0
 23 50  1  0  0  0  0
 23 51  1  0  0  0  0
 25 28  1  0  0  0  0
 25 26  1  0  0  0  0
 26 27  1  0  0  0  0
 26 52  1  0  0  0  0
 26 53  1  0  0  0  0
 27 28  1  0  0  0  0
 27 54  1  0  0  0  0
 27 55  1  0  0  0  0
 28 56  1  0  0  0  0
 28 57  1  0  0  0  0
M  END
> <s_m_source_file>
AV-unprocessed.smi

> <i_m_source_file_index>
276

> <i_lp_mmshare_version>
43012

> <i_f3d_flags>
0

> <s_epik_input>
W0NIMl0xW0NIMl1bQ0gyXUMxMltDQEhdKE9bQ0gzXSlbQ0gyXVtDQEhdMk4oW0NIM10pYyhuW2NIXW4zKWMoYzM0KW5bY0hdbjRbQ0gyXVtDQEhdKFtPSF0pW0NAQEhdNVtDSDJdW0NIMl1bQ0gyXU81

> <s_epik_cmdline>
J2VwaWtfcHl0aG9uJywgJy1waCcsICc3LjAnLCAnLXRuJywgJzgnLCAnLW1hJywgJzIwMCcsICctbWV0YWxfYmluZGluZycsICctaW1hZScsICc8aW5maWxlLm1hZT4nLCAnLW9tYWUnLCAnPG91dGZpbGUubWFlPic=

> <r_lp_tautomer_probability>
1

> <r_epik_Ionization_Penalty>
0.00204117

> <r_epik_Ionization_Penalty_Charging>
0

> <r_epik_Ionization_Penalty_Neutral>
0.00204117

> <r_epik_State_Penalty>
0.00127401

> <r_epik_Charging_Adjusted_Penalty>
0.00127401

> <i_epik_Tot_Q>
0

> <i_epik_Tot_abs_Q>
0

> <r_epik_Metal_State_Penalty>
-0

> <b_epik_Metal_Only>
0

> <s_lp_Force_Field>
OPLS_2005

> <r_lp_Energy>
54.7762

> <b_lp_Chiralities_Consistent>
1

> <s_lp_Variant>
AV-unprocessed.smi:276-10

> <Gold.Version>
5.8.1

> <Gold.Id.Protein>
6NUR|6NUR_protein|mol2

> <Gold.PLP.Fitness>
48.7762

> <Gold.PLP.PLP>
-42.0021

> <Gold.PLP.part.hbond>
-3.0000

> <Gold.PLP.part.metal>
0.0000

> <Gold.PLP.part.buried>
-5.2603

> <Gold.PLP.part.nonpolar>
-34.5531

> <Gold.PLP.part.repulsive>
0.2521

> <Gold.PLP.ligand.clash>
0.0000

> <Gold.PLP.ligand.torsion>
1.3980

> <Gold.PLP.Chemscore.Hbond>
2.9520

> <Gold.PLP.Chemscore.CHOScore>
0.0000

> <Gold.PLP.Chemscore.Metal>
0.0000

> <Gold.Chemscore.Hbonds>
donor molecule, donor type, donor heavy atom, donor atom, acceptor molecule, acceptor atom, score
      L1  H    19    44       P1  7948  0.42
      P1  H  7989  7998       L1     9  1.00
      P1  H 10752 10763       L1    11  0.91

> <Gold.PLP.Chemscore.Internal.Correction>
0.7142

> <Gold.Rescore>
     Score         DG    S(hbond)    S(metal)    S(lipo)     H(rot)  DE(clash)    DE(int)     intcor
     15.22     -17.65       2.57        0.00      90.03       2.72       0.26       2.16       ----

> <Gold.Chemscore.Fitness>
15.2246

> <Gold.Chemscore.DG>
-17.6474

> <Gold.Chemscore.ZeroCoef>
-5.4800

> <Gold.Chemscore.Hbond>
2.5718

> <Gold.Chemscore.Metal>
0.0000

> <Gold.Chemscore.Lipo>
90.0295

> <Gold.Chemscore.Internal_Hbond>
0.0000

> <Gold.Chemscore.DEClash>
0.2580

> <Gold.Chemscore.DEInternal>
2.1647

> <Gold.Chemscore.Rot>
2.7172

> <Gold.Chemscore.Internal.Correction>
   9.000000E+99

> <Gold.Chemscore.Hbonds>
donor molecule, donor type, donor heavy atom, donor atom, acceptor molecule, acceptor atom, score
      L1  H    19    44       P1  7948  0.31
      P1  H  7989  7998       L1     9  0.38
      P1  H 10752 10763       L1    11  0.58

> <Gold.Chemscore.Hbond.Weighted>
-8.5899

> <Gold.Chemscore.Metal.Weighted>
-0.0000

> <Gold.Chemscore.Lipo.Weighted>
-10.5334

> <Gold.Chemscore.Internal_Hbond.Weighted>
0.0000

> <Gold.Chemscore.DEClash.Weighted>
0.2580

> <Gold.Chemscore.DEInternal.Weighted>
2.1647

> <Gold.Chemscore.Rot.Weighted>
6.9560

> <Gold.Chemscore.Internal.Correction.Weighted>
   9.000000E+99

> <Gold.Protein.RotatedTorsions>
[ 6907 6896 6895 6894 ] final   31.38 input  -60.11 | X-H torsion
[ 7974 7965 7964 7962 ] final  -56.56 input  175.53 | X-H torsion
[ 8008 7997 7996 7995 ] final   76.17 input   59.86 | X-H torsion
[ 10167 10162 10161 10158 ] final    4.37 input  -65.29 | X-H torsion
[ 10718 10713 10712 10709 ] final   11.07 input   66.30 | X-H torsion
[ 10763 10752 10751 10750 ] final   38.35 input  -60.55 | X-H torsion
[ 11005 11000 10999 10996 ] final  -24.36 input  -57.11 | X-H torsion

> <Gold.Protein.ActiveResidues>
 VAL166  LYS551  ARG553  GLY616  TRP617  ASP618  TYR619  PRO620  LYS621  CYS622 
 ASP623  PHE694  ASN695  SER759  ASP760  ASP761  ALA762  ILE779  LEU786  VAL792 
 PHE793  MET794  SER795  GLU796  ALA797  LYS798  CYS799  TRP800  GLU811  SER814 

> <Gold.Protein.RotatedAtoms>
  152.0594  134.9604  160.0574 H   0  0  0  0  0  0  0  0  0  0  0  0  # atno 6907 bound_to 6896
  152.0973  133.4226  159.4579 H   0  0  0  0  0  0  0  0  0  0  0  0  # atno 6908 bound_to 6896
  150.6838  134.2721  159.4636 H   0  0  0  0  0  0  0  0  0  0  0  0  # atno 6909 bound_to 6896
  145.8612  140.8283  142.9936 H   0  0  0  0  0  0  0  0  0  0  0  0  # atno 7974 bound_to 7965
  155.8234  140.3469  155.5528 H   0  0  0  0  0  0  0  0  0  0  0  0  # atno 8008 bound_to 7997
  155.8318  140.0928  157.1808 H   0  0  0  0  0  0  0  0  0  0  0  0  # atno 8009 bound_to 7997
  154.4004  140.1411  156.3610 H   0  0  0  0  0  0  0  0  0  0  0  0  # atno 8010 bound_to 7997
  140.6538  143.7478  150.7619 H   0  0  0  0  0  0  0  0  0  0  0  0  # atno 10167 bound_to 10162
  156.9902  130.6039  149.5685 H   0  0  0  0  0  0  0  0  0  0  0  0  # atno 10718 bound_to 10713
  153.0004  135.6252  154.2290 H   0  0  0  0  0  0  0  0  0  0  0  0  # atno 10763 bound_to 10752
  154.2032  135.2803  155.2985 H   0  0  0  0  0  0  0  0  0  0  0  0  # atno 10764 bound_to 10752
  154.5666  135.5689  153.7115 H   0  0  0  0  0  0  0  0  0  0  0  0  # atno 10765 bound_to 10752
  140.8838  133.7636  156.0334 H   0  0  0  0  0  0  0  0  0  0  0  0  # atno 11005 bound_to 11000
  144.6726  140.1099  143.7456 LP  0  0  0  0  0  0  0  0  0  0  0  0  # atno 17320 bound_to 7965
  145.9245  139.2567  143.1361 LP  0  0  0  0  0  0  0  0  0  0  0  0  # atno 17321 bound_to 7965
  140.1134  143.4678  152.2357 LP  0  0  0  0  0  0  0  0  0  0  0  0  # atno 17342 bound_to 10162
  139.5757  144.7486  151.3770 LP  0  0  0  0  0  0  0  0  0  0  0  0  # atno 17343 bound_to 10162
  156.0210  130.5305  150.8275 LP  0  0  0  0  0  0  0  0  0  0  0  0  # atno 17370 bound_to 10713
  157.5464  131.0942  150.9756 LP  0  0  0  0  0  0  0  0  0  0  0  0  # atno 17371 bound_to 10713
  140.8430  134.3044  157.5306 LP  0  0  0  0  0  0  0  0  0  0  0  0  # atno 17394 bound_to 11000
  139.8722  134.9426  156.3830 LP  0  0  0  0  0  0  0  0  0  0  0  0  # atno 17395 bound_to 11000

$$$$
