#       Name:                AV-unprocessed.smi:1867
#       Creating user name   scv26
#       Creation time:       Fri Mar 27 09:28:46 2020


#       File generated by GOLD software.
#

@<TRIPOS>MOLECULE
AV-unprocessed.smi:1867
    56    59     1
SMALL
NO_CHARGES


@<TRIPOS>ATOM
      1 ****        -0.5140   2.9744  -0.0848 O.2            1 S1                 0.0000
      2 ****        -0.8351   1.7960   0.0422 C.2            1 S1                 0.0000
      3 ****         0.0281   0.7699   0.1850 N.am           1 S1                 0.0000
      4 ****         1.4508   0.7798   0.1853 C.ar           1 S1                 0.0000
      5 ****         2.1080  -0.4699   0.1911 C.ar           1 S1                 0.0000
      6 ****         3.5168  -0.5239   0.1903 C.ar           1 S1                 0.0000
      7 ****         4.2564   0.6811   0.1859 C.ar           1 S1                 0.0000
      8 ****         5.6572   0.7390   0.1801 N.3            1 S1                 0.0000
      9 ****         6.2956   0.0929  -0.9547 C.3            1 S1                 0.0000
     10 ****         7.7611  -0.0893  -0.5519 C.3            1 S1                 0.0000
     11 ****         7.7588  -0.0310   0.9804 C.3            1 S1                 0.0000
     12 ****         6.2928   0.1870   1.3646 C.3            1 S1                 0.0000
     13 ****         3.5929   1.8571   0.1906 N.pl3          1 S1                 1.0000
     14 ****         2.2455   1.9533   0.1917 C.ar           1 S1                 0.0000
     15 ****        -2.1296   1.4321   0.0519 N.am           1 S1                 0.0000
     16 ****        -3.3110   2.2854  -0.0787 C.3            1 S1                 0.0000
     17 ****        -3.6624   2.6526  -1.5338 C.3            1 S1                 0.0000
     18 ****        -5.2024   2.6078  -1.6068 C.3            1 S1                 0.0000
     19 ****        -5.6509   2.3386  -0.2273 N.4            1 S1                 1.0000
     20 ****        -6.9793   1.7100  -0.0576 C.3            1 S1                 0.0000
     21 ****        -7.2938   1.5857   1.4473 C.3            1 S1                 0.0000
     22 ****        -6.1659   0.8618   2.2119 C.3            1 S1                 0.0000
     23 ****        -4.7951   1.5027   1.9208 C.3            1 S1                 0.0000
     24 ****        -4.5701   1.5648   0.4014 C.3            1 S1                 0.0000
     25 ****        -0.3928  -0.1437   0.2668 H              1 S1                 0.0000
     26 ****         1.5379  -1.3877   0.1928 H              1 S1                 0.0000
     27 ****         4.0180  -1.4810   0.1931 H              1 S1                 0.0000
     28 ****         5.8396  -0.8775  -1.1545 H              1 S1                 0.0000
     29 ****         6.2008   0.7000  -1.8556 H              1 S1                 0.0000
     30 ****         8.1680  -1.0271  -0.9316 H              1 S1                 0.0000
     31 ****         8.3686   0.7228  -0.9529 H              1 S1                 0.0000
     32 ****         8.1605  -0.9390   1.4313 H              1 S1                 0.0000
     33 ****         8.3692   0.8066   1.3202 H              1 S1                 0.0000
     34 ****         6.1981   0.8656   2.2128 H              1 S1                 0.0000
     35 ****         5.8313  -0.7623   1.6399 H              1 S1                 0.0000
     36 ****         1.8733   2.9657   0.2010 H              1 S1                 0.0000
     37 ****        -2.3132   0.4482   0.1893 H              1 S1                 0.0000
     38 ****        -3.1910   3.1987   0.5080 H              1 S1                 0.0000
     39 ****        -3.2724   3.6369  -1.7958 H              1 S1                 0.0000
     40 ****        -3.2394   1.9352  -2.2389 H              1 S1                 0.0000
     41 ****        -5.6299   3.5399  -1.9774 H              1 S1                 0.0000
     42 ****        -5.5218   1.8012  -2.2687 H              1 S1                 0.0000
     43 ****        -7.7381   2.3174  -0.5521 H              1 S1                 0.0000
     44 ****        -6.9903   0.7279  -0.5329 H              1 S1                 0.0000
     45 ****        -7.4303   2.5822   1.8697 H              1 S1                 0.0000
     46 ****        -8.2384   1.0599   1.5894 H              1 S1                 0.0000
     47 ****        -6.3681   0.8778   3.2833 H              1 S1                 0.0000
     48 ****        -6.1453  -0.1882   1.9173 H              1 S1                 0.0000
     49 ****        -4.7561   2.5052   2.3493 H              1 S1                 0.0000
     50 ****        -4.0020   0.9261   2.3981 H              1 S1                 0.0000
     51 ****        -4.5843   0.5527  -0.0104 H              1 S1                 0.0000
     52 ****        -5.6774   3.2304   0.2458 H              1 S1                 0.0000
     53 ****         4.1378   2.7196   0.1926 H              1 S1                 0.0000
     54 ****         0.4523   3.2319  -0.0873 LP             1 S1                 0.0000
     55 ****        -1.2188   3.6766  -0.1857 LP             1 S1                 0.0000
     56 ****         5.7972   1.7282   0.1361 LP             1 S1                 0.0000
@<TRIPOS>BOND
    1    1    2 2     
    2    2    3 am    
    3    2   15 am    
    4    3    4 1     
    5    3   25 1     
    6    4   14 ar    
    7    4    5 ar    
    8    5    6 ar    
    9    5   26 1     
   10    6    7 ar    
   11    6   27 1     
   12    7    8 1     
   13    7   13 ar    
   14    8   12 1     
   15    8    9 1     
   16    9   10 1     
   17    9   28 1     
   18    9   29 1     
   19   10   11 1     
   20   10   30 1     
   21   10   31 1     
   22   11   12 1     
   23   11   32 1     
   24   11   33 1     
   25   12   34 1     
   26   12   35 1     
   27   13   14 ar    
   28   13   53 1     
   29   14   36 1     
   30   15   16 1     
   31   15   37 1     
   32   16   24 1     
   33   16   17 1     
   34   16   38 1     
   35   17   18 1     
   36   17   39 1     
   37   17   40 1     
   38   18   19 1     
   39   18   41 1     
   40   18   42 1     
   41   19   24 1     
   42   19   20 1     
   43   19   52 1     
   44   20   21 1     
   45   20   43 1     
   46   20   44 1     
   47   21   22 1     
   48   21   45 1     
   49   21   46 1     
   50   22   23 1     
   51   22   47 1     
   52   22   48 1     
   53   23   24 1     
   54   23   49 1     
   55   23   50 1     
   56   24   51 1     
   57    1   54 1     
   58    1   55 1     
   59    8   56 1     
@<TRIPOS>SUBSTRUCTURE
      1 S1             1
@<TRIPOS>SET
LONE_PAIRS      STATIC     ATOMS    <user>   **** ""
3 54 55 56
DONOR_HYDROGENS      STATIC     ATOMS    <user>   **** ""
4 25 53 37 52
ATOM$BLUE        STATIC     ATOMS    COLORGROUP SYSTEM
3 54 55 56
ATOM$RED        STATIC     ATOMS    COLORGROUP SYSTEM
4 25 53 37 52
