AV-unprocessed.smi:72|AV-procd|sdf|709|dock3
  -GOLD-   2262017 33D 1   1.00000     0.00000
 Structure written by MMmdl.
 30 31  0  0  0  0  0  0  0  0  2 V2000
  148.9815  134.3183  154.0486 N   0  0  0  0  0  0  0  0  0  0  0  0
  149.2055  135.2301  155.0590 C   0  0  0  0  0  0  0  0  0  0  0  0
  149.3208  136.5632  154.7073 N   0  3  0  0  0  0  0  0  0  0  0  0
  149.5328  137.5711  155.5644 C   0  0  0  0  0  0  0  0  0  0  0  0
  149.6450  137.3042  156.8499 N   0  0  0  0  0  0  0  0  0  0  0  0
  149.8984  138.3911  157.8657 C   0  0  2  0  0  0  0  0  0  0  0  0
  149.7703  139.6283  157.2295 O   0  0  0  0  0  0  0  0  0  0  0  0
  151.0486  140.2421  157.0819 C   0  0  1  0  0  0  0  0  0  0  0  0
  150.8849  141.7654  156.9712 C   0  0  0  0  0  0  0  0  0  0  0  0
  150.0983  142.0819  155.8428 O   0  0  0  0  0  0  0  0  0  0  0  0
  151.7553  139.7874  158.3578 C   0  0  2  0  0  0  0  0  0  0  0  0
  153.1603  139.9522  158.3102 O   0  0  0  0  0  0  0  0  0  0  0  0
  151.3207  138.3301  158.4689 C   0  0  2  0  0  0  0  0  0  0  0  0
  152.1964  137.4626  157.7623 O   0  0  0  0  0  0  0  0  0  0  0  0
  149.5526  135.9641  157.3058 C   0  0  0  0  0  0  0  0  0  0  0  0
  149.6764  135.7035  158.5021 O   0  0  0  0  0  0  0  0  0  0  0  0
  149.3234  134.9796  156.3336 N   0  0  0  0  0  0  0  0  0  0  0  0
  149.1011  138.3096  158.6065 H   0  0  0  0  0  0  0  0  0  0  0  0
  151.5679  139.8364  156.2117 H   0  0  0  0  0  0  0  0  0  0  0  0
  151.3628  140.3464  159.2090 H   0  0  0  0  0  0  0  0  0  0  0  0
  151.2678  138.0031  159.5080 H   0  0  0  0  0  0  0  0  0  0  0  0
  148.8838  133.3259  154.2116 H   0  0  0  0  0  0  0  0  0  0  0  0
  148.8992  134.5662  153.0731 H   0  0  0  0  0  0  0  0  0  0  0  0
  149.6078  138.5806  155.1837 H   0  0  0  0  0  0  0  0  0  0  0  0
  150.4423  142.1860  157.8747 H   0  0  0  0  0  0  0  0  0  0  0  0
  151.8574  142.2395  156.8353 H   0  0  0  0  0  0  0  0  0  0  0  0
  149.9566  143.0164  155.8280 H   0  0  0  0  0  0  0  0  0  0  0  0
  153.4115  140.5891  158.9619 H   0  0  0  0  0  0  0  0  0  0  0  0
  152.4125  136.7334  158.3240 H   0  0  0  0  0  0  0  0  0  0  0  0
  149.2387  136.7916  153.7269 H   0  0  0  0  0  0  0  0  0  0  0  0
  1  2  1  0  0  0  0
  1 22  1  0  0  0  0
  1 23  1  0  0  0  0
  2 17  2  0  0  0  0
  2  3  1  0  0  0  0
  3  4  2  0  0  0  0
  3 30  1  0  0  0  0
  4  5  1  0  0  0  0
  4 24  1  0  0  0  0
  5  6  1  0  0  0  0
  5 15  1  0  0  0  0
  6 18  1  0  0  0  0
  6 13  1  0  0  0  0
  6  7  1  0  0  0  0
  7  8  1  0  0  0  0
  8 19  1  0  0  0  0
  8  9  1  0  0  0  0
  8 11  1  0  0  0  0
  9 10  1  0  0  0  0
  9 25  1  0  0  0  0
  9 26  1  0  0  0  0
 10 27  1  0  0  0  0
 11 20  1  0  0  0  0
 11 12  1  0  0  0  0
 11 13  1  0  0  0  0
 12 28  1  0  0  0  0
 13 21  1  0  0  0  0
 13 14  1  0  0  0  0
 14 29  1  0  0  0  0
 15 16  2  0  0  0  0
 15 17  1  0  0  0  0
M  CHG  1   3   1
M  END
> <s_m_source_file>
AV-unprocessed.smi

> <i_m_source_file_index>
72

> <i_lp_mmshare_version>
43012

> <i_f3d_flags>
0

> <s_epik_input>
W05IMl1jMW5bY0hdbihjKD1PKW4xKVtDQEBIXTJPW0NASF0oW0NIMl1bT0hdKVtDQEBIXShbT0hdKVtDQEhdMltPSF0=

> <s_epik_cmdline>
J2VwaWtfcHl0aG9uJywgJy1waCcsICc3LjAnLCAnLXRuJywgJzgnLCAnLW1hJywgJzIwMCcsICctbWV0YWxfYmluZGluZycsICctaW1hZScsICc8aW5maWxlLm1hZT4nLCAnLW9tYWUnLCAnPG91dGZpbGUubWFlPic=

> <r_lp_tautomer_probability>
4.77166e-05

> <r_epik_Ionization_Penalty>
0.104979

> <r_epik_Ionization_Penalty_Charging>
0.0999619

> <r_epik_Ionization_Penalty_Neutral>
0.00501745

> <r_epik_State_Penalty>
2.51541

> <r_epik_Charging_Adjusted_Penalty>
2.61537

> <i_epik_Tot_Q>
1

> <i_epik_Tot_abs_Q>
1

> <r_epik_Metal_State_Penalty>
3.53763

> <b_epik_Metal_Only>
0

> <s_epik_Chemistry_Notes>
This compound contains an acetal/aminal-like group ( X-CH(R)-Y where X, Y are N, S, or O) that may be acid/base labile, releasing an aldehyde.

> <s_lp_Force_Field>
OPLS_2005

> <r_lp_Energy>
36.649

> <b_lp_Chiralities_Consistent>
1

> <s_lp_Variant>
AV-unprocessed.smi:72-47

> <Gold.Version>
5.8.1

> <Gold.Id.Protein>
6NUR|6NUR_protein|mol2

> <Gold.PLP.Fitness>
33.9150

> <Gold.PLP.PLP>
-16.6922

> <Gold.PLP.part.hbond>
-5.0000

> <Gold.PLP.part.metal>
0.0000

> <Gold.PLP.part.buried>
-3.9004

> <Gold.PLP.part.nonpolar>
-8.3178

> <Gold.PLP.part.repulsive>
0.0182

> <Gold.PLP.ligand.clash>
0.0000

> <Gold.PLP.ligand.torsion>
0.1723

> <Gold.PLP.Chemscore.Hbond>
5.8160

> <Gold.PLP.Chemscore.CHOScore>
0.0000

> <Gold.PLP.Chemscore.Metal>
0.0000

> <Gold.Chemscore.Hbonds>
donor molecule, donor type, donor heavy atom, donor atom, acceptor molecule, acceptor atom, score
      L1  H     1    23       P1  7948  0.57
      L1  H     3    30       P1  7948  2.00
      L1  H    10    27       P1  8028  1.00
      P1  H  6896  6909       L1    16  0.99
      P1  H  7997  8010       L1    12  0.98

> <Gold.PLP.Chemscore.Internal.Correction>
0.1194

> <Gold.Rescore>
     Score         DG    S(hbond)    S(metal)    S(lipo)     H(rot)  DE(clash)    DE(int)     intcor
     10.03     -10.31       3.84        0.00      20.99       4.08       0.02       0.26       ----

> <Gold.Chemscore.Fitness>
10.0270

> <Gold.Chemscore.DG>
-10.3061

> <Gold.Chemscore.ZeroCoef>
-5.4800

> <Gold.Chemscore.Hbond>
3.8354

> <Gold.Chemscore.Metal>
0.0000

> <Gold.Chemscore.Lipo>
20.9927

> <Gold.Chemscore.Internal_Hbond>
0.0000

> <Gold.Chemscore.DEClash>
0.0158

> <Gold.Chemscore.DEInternal>
0.2633

> <Gold.Chemscore.Rot>
4.0783

> <Gold.Chemscore.Internal.Correction>
   9.000000E+99

> <Gold.Chemscore.Hbonds>
donor molecule, donor type, donor heavy atom, donor atom, acceptor molecule, acceptor atom, score
      L1  H     1    23       P1  7948  0.06
      L1  H     3    30       P1  7948  0.91
      L1  H    10    27       P1  8028  0.93
      P1  H  6896  6909       L1    16  0.94
      P1  H  7997  8010       L1    12  0.56

> <Gold.Chemscore.Hbond.Weighted>
-12.8104

> <Gold.Chemscore.Metal.Weighted>
-0.0000

> <Gold.Chemscore.Lipo.Weighted>
-2.4561

> <Gold.Chemscore.Internal_Hbond.Weighted>
0.0000

> <Gold.Chemscore.DEClash.Weighted>
0.0158

> <Gold.Chemscore.DEInternal.Weighted>
0.2633

> <Gold.Chemscore.Rot.Weighted>
10.4404

> <Gold.Chemscore.Internal.Correction.Weighted>
   9.000000E+99

> <Gold.Protein.RotatedTorsions>
[ 6907 6896 6895 6894 ] final   38.27 input  -60.11 | X-H torsion
[ 7974 7965 7964 7962 ] final   88.58 input  175.53 | X-H torsion
[ 8008 7997 7996 7995 ] final   47.30 input   59.86 | X-H torsion
[ 10167 10162 10161 10158 ] final   19.29 input  -65.29 | X-H torsion
[ 10718 10713 10712 10709 ] final  -46.07 input   66.30 | X-H torsion
[ 10763 10752 10751 10750 ] final  130.90 input  -60.55 | X-H torsion
[ 11005 11000 10999 10996 ] final  156.81 input  -57.11 | X-H torsion

> <Gold.Protein.ActiveResidues>
 VAL166  LYS551  ARG553  GLY616  TRP617  ASP618  TYR619  PRO620  LYS621  CYS622 
 ASP623  PHE694  ASN695  SER759  ASP760  ASP761  ALA762  ILE779  LEU786  VAL792 
 PHE793  MET794  SER795  GLU796  ALA797  LYS798  CYS799  TRP800  GLU811  SER814 

> <Gold.Protein.RotatedAtoms>
  152.1543  134.8963  160.0545 H   0  0  0  0  0  0  0  0  0  0  0  0  # atno 6907 bound_to 6896
  151.9983  133.3811  159.4180 H   0  0  0  0  0  0  0  0  0  0  0  0  # atno 6908 bound_to 6896
  150.6879  134.3783  159.5066 H   0  0  0  0  0  0  0  0  0  0  0  0  # atno 6909 bound_to 6896
  145.5438  139.2290  143.2551 H   0  0  0  0  0  0  0  0  0  0  0  0  # atno 7974 bound_to 7965
  155.3668  140.3421  155.4242 H   0  0  0  0  0  0  0  0  0  0  0  0  # atno 8008 bound_to 7997
  156.1684  140.1623  156.8525 H   0  0  0  0  0  0  0  0  0  0  0  0  # atno 8009 bound_to 7997
  154.5208  140.0767  156.8150 H   0  0  0  0  0  0  0  0  0  0  0  0  # atno 8010 bound_to 7997
  140.5590  143.9372  150.6629 H   0  0  0  0  0  0  0  0  0  0  0  0  # atno 10167 bound_to 10162
  156.2219  130.4167  149.8982 H   0  0  0  0  0  0  0  0  0  0  0  0  # atno 10718 bound_to 10713
  153.7655  135.3189  155.3344 H   0  0  0  0  0  0  0  0  0  0  0  0  # atno 10763 bound_to 10752
  154.8215  135.4600  154.0795 H   0  0  0  0  0  0  0  0  0  0  0  0  # atno 10764 bound_to 10752
  153.2039  135.6926  153.8281 H   0  0  0  0  0  0  0  0  0  0  0  0  # atno 10765 bound_to 10752
  140.1710  134.8543  157.2690 H   0  0  0  0  0  0  0  0  0  0  0  0  # atno 11005 bound_to 11000
  146.1963  140.6259  142.9122 LP  0  0  0  0  0  0  0  0  0  0  0  0  # atno 17320 bound_to 7965
  144.7563  140.5316  143.6766 LP  0  0  0  0  0  0  0  0  0  0  0  0  # atno 17321 bound_to 7965
  140.2818  143.3384  152.1144 LP  0  0  0  0  0  0  0  0  0  0  0  0  # atno 17342 bound_to 10162
  139.5061  144.6807  151.6014 LP  0  0  0  0  0  0  0  0  0  0  0  0  # atno 17343 bound_to 10162
  156.6625  130.8788  151.3549 LP  0  0  0  0  0  0  0  0  0  0  0  0  # atno 17370 bound_to 10713
  157.7092  130.9420  150.1031 LP  0  0  0  0  0  0  0  0  0  0  0  0  # atno 17371 bound_to 10713
  140.2377  134.3833  155.7494 LP  0  0  0  0  0  0  0  0  0  0  0  0  # atno 17394 bound_to 11000
  141.2217  133.7248  156.8740 LP  0  0  0  0  0  0  0  0  0  0  0  0  # atno 17395 bound_to 11000

$$$$
