AV-unprocessed.smi:928|AV-procd|sdf|4194|dock4
  -GOLD-   22720 2103D 1   1.00000     0.00000
 Structure written by MMmdl.
 43 44  0  0  0  0  0  0  0  0  1 V2000
  151.2433  142.2572  157.2272 C   0  0  0  0  0  0  0  0  0  0  0  0
  151.1617  140.9875  156.3731 C   0  0  0  0  0  0  0  0  0  0  0  0
  149.8958  140.8861  155.5880 C   0  0  0  0  0  0  0  0  0  0  0  0
  148.7933  141.7006  155.6684 C   0  0  0  0  0  0  0  0  0  0  0  0
  147.7641  141.3479  154.7929 N   0  0  0  0  0  0  0  0  0  0  0  0
  148.0667  140.2775  154.0551 C   0  0  0  0  0  0  0  0  0  0  0  0
  147.1592  139.7187  153.0069 C   0  0  0  0  0  0  0  0  0  0  0  0
  146.2317  138.5966  153.5112 C   0  0  0  0  0  0  0  0  0  0  0  0
  146.5638  137.2962  152.9353 N   0  0  0  0  0  0  0  0  0  0  0  0
  145.7517  136.2302  152.9018 C   0  0  0  0  0  0  0  0  0  0  0  0
  144.6164  136.2092  153.3765 O   0  0  0  0  0  0  0  0  0  0  0  0
  146.3247  135.1940  152.2752 N   0  0  0  0  0  0  0  0  0  0  0  0
  145.6997  133.8958  152.0310 C   0  0  1  0  0  0  0  0  0  0  0  0
  144.2997  134.1668  151.4404 C   0  0  0  0  0  0  0  0  0  0  0  0
  143.6044  132.8861  150.9598 C   0  0  0  0  0  0  0  0  0  0  0  0
  144.4759  132.1455  149.9386 C   0  0  0  0  0  0  0  0  0  0  0  0
  145.8419  131.8059  150.5471 C   0  0  0  0  0  0  0  0  0  0  0  0
  146.5734  133.0614  151.0606 C   0  0  2  0  0  0  0  0  0  0  0  0
  147.7365  132.6145  151.7287 O   0  0  0  0  0  0  0  0  0  0  0  0
  149.6690  139.6315  154.3968 S   0  0  0  0  0  0  0  0  0  0  0  0
  152.1823  142.2940  157.7797 H   0  0  0  0  0  0  0  0  0  0  0  0
  150.4296  142.2992  157.9518 H   0  0  0  0  0  0  0  0  0  0  0  0
  151.1863  143.1521  156.6070 H   0  0  0  0  0  0  0  0  0  0  0  0
  152.0142  140.9567  155.6937 H   0  0  0  0  0  0  0  0  0  0  0  0
  151.2581  140.1125  157.0163 H   0  0  0  0  0  0  0  0  0  0  0  0
  148.6576  142.5535  156.3170 H   0  0  0  0  0  0  0  0  0  0  0  0
  146.5626  140.5347  152.5978 H   0  0  0  0  0  0  0  0  0  0  0  0
  147.7700  139.3452  152.1844 H   0  0  0  0  0  0  0  0  0  0  0  0
  146.3206  138.5137  154.5944 H   0  0  0  0  0  0  0  0  0  0  0  0
  145.1901  138.8542  153.3117 H   0  0  0  0  0  0  0  0  0  0  0  0
  147.4779  137.2071  152.5162 H   0  0  0  0  0  0  0  0  0  0  0  0
  147.2618  135.3164  151.9203 H   0  0  0  0  0  0  0  0  0  0  0  0
  145.5682  133.3458  152.9655 H   0  0  0  0  0  0  0  0  0  0  0  0
  143.6748  134.6667  152.1818 H   0  0  0  0  0  0  0  0  0  0  0  0
  144.3832  134.8551  150.5976 H   0  0  0  0  0  0  0  0  0  0  0  0
  143.3987  132.2363  151.8116 H   0  0  0  0  0  0  0  0  0  0  0  0
  142.6390  133.1323  150.5167 H   0  0  0  0  0  0  0  0  0  0  0  0
  143.9759  131.2324  149.6141 H   0  0  0  0  0  0  0  0  0  0  0  0
  144.6095  132.7611  149.0480 H   0  0  0  0  0  0  0  0  0  0  0  0
  145.6968  131.1022  151.3685 H   0  0  0  0  0  0  0  0  0  0  0  0
  146.4567  131.2916  149.8075 H   0  0  0  0  0  0  0  0  0  0  0  0
  146.8711  133.6751  150.2089 H   0  0  0  0  0  0  0  0  0  0  0  0
  148.1340  131.9296  151.2125 H   0  0  0  0  0  0  0  0  0  0  0  0
  1  2  1  0  0  0  0
  1 21  1  0  0  0  0
  1 22  1  0  0  0  0
  1 23  1  0  0  0  0
  2  3  1  0  0  0  0
  2 24  1  0  0  0  0
  2 25  1  0  0  0  0
  3 20  1  0  0  0  0
  3  4  2  0  0  0  0
  4  5  1  0  0  0  0
  4 26  1  0  0  0  0
  5  6  2  0  0  0  0
  6  7  1  0  0  0  0
  6 20  1  0  0  0  0
  7  8  1  0  0  0  0
  7 27  1  0  0  0  0
  7 28  1  0  0  0  0
  8  9  1  0  0  0  0
  8 29  1  0  0  0  0
  8 30  1  0  0  0  0
  9 10  1  0  0  0  0
  9 31  1  0  0  0  0
 10 11  2  0  0  0  0
 10 12  1  0  0  0  0
 12 13  1  0  0  0  0
 12 32  1  0  0  0  0
 13 18  1  0  0  0  0
 13 14  1  0  0  0  0
 13 33  1  0  0  0  0
 14 15  1  0  0  0  0
 14 34  1  0  0  0  0
 14 35  1  0  0  0  0
 15 16  1  0  0  0  0
 15 36  1  0  0  0  0
 15 37  1  0  0  0  0
 16 17  1  0  0  0  0
 16 38  1  0  0  0  0
 16 39  1  0  0  0  0
 17 18  1  0  0  0  0
 17 40  1  0  0  0  0
 17 41  1  0  0  0  0
 18 19  1  0  0  0  0
 18 42  1  0  0  0  0
 19 43  1  0  0  0  0
M  END
> <s_m_source_file>
AV-unprocessed.smi

> <i_m_source_file_index>
928

> <i_lp_mmshare_version>
43012

> <i_f3d_flags>
0

> <s_epik_input>
W0NIM11bQ0gyXWMxW2NIXW5jKHMxKVtDSDJdW0NIMl1bTkhdQyg9TylbTkhdW0NAQEhdMltDSDJdW0NIMl1bQ0gyXVtDSDJdW0NASF0yW09IXQ==

> <s_epik_cmdline>
J2VwaWtfcHl0aG9uJywgJy1waCcsICc3LjAnLCAnLXRuJywgJzgnLCAnLW1hJywgJzIwMCcsICctbWV0YWxfYmluZGluZycsICctaW1hZScsICc8aW5maWxlLm1hZT4nLCAnLW9tYWUnLCAnPG91dGZpbGUubWFlPic=

> <r_epik_Ionization_Penalty>
0.000957396

> <r_epik_Ionization_Penalty_Charging>
0

> <r_epik_Ionization_Penalty_Neutral>
0.000957396

> <r_epik_State_Penalty>
0.000586538

> <r_epik_Charging_Adjusted_Penalty>
0.000586538

> <i_epik_Tot_Q>
0

> <i_epik_Tot_abs_Q>
0

> <r_epik_Metal_State_Penalty>
-0

> <b_epik_Metal_Only>
0

> <s_lp_Force_Field>
OPLS_2005

> <r_lp_Energy>
-1.18646

> <b_lp_Chiralities_Consistent>
1

> <s_lp_Variant>
AV-unprocessed.smi:928-4

> <Gold.Version>
5.8.1

> <Gold.Id.Protein>
6NUR|6NUR_protein|mol2

> <Gold.PLP.Fitness>
45.6771

> <Gold.PLP.PLP>
-35.6986

> <Gold.PLP.part.hbond>
-3.0000

> <Gold.PLP.part.metal>
0.0000

> <Gold.PLP.part.buried>
-0.0185

> <Gold.PLP.part.nonpolar>
-33.2627

> <Gold.PLP.part.repulsive>
0.2732

> <Gold.PLP.ligand.clash>
0.0000

> <Gold.PLP.ligand.torsion>
1.0249

> <Gold.PLP.Chemscore.Hbond>
3.0000

> <Gold.PLP.Chemscore.CHOScore>
1.0000

> <Gold.PLP.Chemscore.Metal>
0.0000

> <Gold.Chemscore.Hbonds>
donor molecule, donor type, donor heavy atom, donor atom, acceptor molecule, acceptor atom, score
      L1  H     9    31       P1  7948  1.00
      L1  H    12    32       P1  7948  1.00
      L1  H    19    43       P1 10747  1.00
      L1  C     4    26       P1  8028  0.89

> <Gold.PLP.Chemscore.Internal.Correction>
0.0283

> <Gold.Rescore>
     Score         DG    S(hbond)    S(metal)    S(lipo)     H(rot)  DE(clash)    DE(int)     intcor
     17.82     -21.26       2.94        0.00      99.19       2.21       1.25       2.19       ----

> <Gold.Chemscore.Fitness>
17.8216

> <Gold.Chemscore.DG>
-21.2621

> <Gold.Chemscore.ZeroCoef>
-5.4800

> <Gold.Chemscore.Hbond>
2.9431

> <Gold.Chemscore.Metal>
0.0000

> <Gold.Chemscore.Lipo>
99.1949

> <Gold.Chemscore.Internal_Hbond>
0.0000

> <Gold.Chemscore.DEClash>
1.2537

> <Gold.Chemscore.DEInternal>
2.1868

> <Gold.Chemscore.Rot>
2.2084

> <Gold.Chemscore.Internal.Correction>
   9.000000E+99

> <Gold.Chemscore.Hbonds>
donor molecule, donor type, donor heavy atom, donor atom, acceptor molecule, acceptor atom, score
      L1  H     9    31       P1  7948  0.98
      L1  H    12    32       P1  7948  0.97
      L1  H    19    43       P1 10747  1.00

> <Gold.Chemscore.Hbond.Weighted>
-9.8299

> <Gold.Chemscore.Metal.Weighted>
-0.0000

> <Gold.Chemscore.Lipo.Weighted>
-11.6058

> <Gold.Chemscore.Internal_Hbond.Weighted>
0.0000

> <Gold.Chemscore.DEClash.Weighted>
1.2537

> <Gold.Chemscore.DEInternal.Weighted>
2.1868

> <Gold.Chemscore.Rot.Weighted>
5.6535

> <Gold.Chemscore.Internal.Correction.Weighted>
   9.000000E+99

> <Gold.Protein.RotatedTorsions>
[ 6907 6896 6895 6894 ] final  -25.75 input  -60.11 | X-H torsion
[ 7974 7965 7964 7962 ] final   12.25 input  175.53 | X-H torsion
[ 8008 7997 7996 7995 ] final   37.37 input   59.86 | X-H torsion
[ 10167 10162 10161 10158 ] final  -63.58 input  -65.29 | X-H torsion
[ 10718 10713 10712 10709 ] final -135.58 input   66.30 | X-H torsion
[ 10763 10752 10751 10750 ] final   31.42 input  -60.55 | X-H torsion
[ 11005 11000 10999 10996 ] final  137.50 input  -57.11 | X-H torsion

> <Gold.Protein.ActiveResidues>
 VAL166  LYS551  ARG553  GLY616  TRP617  ASP618  TYR619  PRO620  LYS621  CYS622 
 ASP623  PHE694  ASN695  SER759  ASP760  ASP761  ALA762  ILE779  LEU786  VAL792 
 PHE793  MET794  SER795  GLU796  ALA797  LYS798  CYS799  TRP800  GLU811  SER814 

> <Gold.Protein.RotatedAtoms>
  151.1707  135.0316  159.8750 H   0  0  0  0  0  0  0  0  0  0  0  0  # atno 6907 bound_to 6896
  152.5449  134.1173  159.8394 H   0  0  0  0  0  0  0  0  0  0  0  0  # atno 6908 bound_to 6896
  151.1279  133.5011  159.2632 H   0  0  0  0  0  0  0  0  0  0  0  0  # atno 6909 bound_to 6896
  146.2355  139.9365  142.8489 H   0  0  0  0  0  0  0  0  0  0  0  0  # atno 7974 bound_to 7965
  155.2026  140.3317  155.4341 H   0  0  0  0  0  0  0  0  0  0  0  0  # atno 8008 bound_to 7997
  156.2401  140.1891  156.7062 H   0  0  0  0  0  0  0  0  0  0  0  0  # atno 8009 bound_to 7997
  154.6131  140.0606  156.9505 H   0  0  0  0  0  0  0  0  0  0  0  0  # atno 8010 bound_to 7997
  140.5861  143.2334  151.6240 H   0  0  0  0  0  0  0  0  0  0  0  0  # atno 10167 bound_to 10162
  156.2677  130.7247  151.1203 H   0  0  0  0  0  0  0  0  0  0  0  0  # atno 10718 bound_to 10713
  153.0317  135.6439  154.1196 H   0  0  0  0  0  0  0  0  0  0  0  0  # atno 10763 bound_to 10752
  154.0918  135.2866  155.3271 H   0  0  0  0  0  0  0  0  0  0  0  0  # atno 10764 bound_to 10752
  154.6460  135.5443  153.7908 H   0  0  0  0  0  0  0  0  0  0  0  0  # atno 10765 bound_to 10752
  140.0118  134.9435  157.0293 H   0  0  0  0  0  0  0  0  0  0  0  0  # atno 11005 bound_to 11000
  145.1994  140.9847  143.4165 LP  0  0  0  0  0  0  0  0  0  0  0  0  # atno 17320 bound_to 7965
  144.9787  139.3805  143.6273 LP  0  0  0  0  0  0  0  0  0  0  0  0  # atno 17321 bound_to 7965
  139.5198  144.3241  152.0884 LP  0  0  0  0  0  0  0  0  0  0  0  0  # atno 17342 bound_to 10162
  140.2398  144.4281  150.6264 LP  0  0  0  0  0  0  0  0  0  0  0  0  # atno 17343 bound_to 10162
  157.7273  131.0640  150.5871 LP  0  0  0  0  0  0  0  0  0  0  0  0  # atno 17370 bound_to 10713
  156.5965  130.4343  149.5915 LP  0  0  0  0  0  0  0  0  0  0  0  0  # atno 17371 bound_to 10713
  140.4541  134.1552  155.7184 LP  0  0  0  0  0  0  0  0  0  0  0  0  # atno 17394 bound_to 11000
  141.1716  133.8597  157.1553 LP  0  0  0  0  0  0  0  0  0  0  0  0  # atno 17395 bound_to 11000

$$$$
