AV-unprocessed.smi:763|AV-procd|sdf|3640|dock4
  -GOLD-   22720 1 43D 1   1.00000     0.00000
 Structure written by MMmdl.
 43 44  0  0  0  0  0  0  0  0  2 V2000
  145.7589  143.4866  153.1274 C   0  0  0  0  0  0  0  0  0  0  0  0
  145.6885  142.3071  153.9130 O   0  0  0  0  0  0  0  0  0  0  0  0
  146.8027  142.1196  154.7752 C   0  0  0  0  0  0  0  0  0  0  0  0
  148.0648  141.7056  154.0048 C   0  0  0  0  0  0  0  0  0  0  0  0
  149.1676  141.7310  154.9053 O   0  0  0  0  0  0  0  0  0  0  0  0
  149.9749  140.6127  155.0083 C   0  0  0  0  0  0  0  0  0  0  0  0
  149.6537  139.5258  154.2608 N   0  0  0  0  0  0  0  0  0  0  0  0
  150.4326  138.4307  154.3494 C   0  0  0  0  0  0  0  0  0  0  0  0
  151.5638  138.3618  155.1787 C   0  0  0  0  0  0  0  0  0  0  0  0
  151.8929  139.4905  155.9504 C   0  0  0  0  0  0  0  0  0  0  0  0
  151.0920  140.6572  155.8810 C   0  0  0  0  0  0  0  0  0  0  0  0
  151.3516  141.7684  156.5915 N   0  5  0  0  0  0  0  0  0  0  0  0
  150.8725  142.0764  158.1063 S   0  0  0  0  0  0  0  0  0  0  0  0
  149.4991  142.6020  158.1388 O   0  0  0  0  0  0  0  0  0  0  0  0
  151.1607  140.9452  159.0003 O   0  0  0  0  0  0  0  0  0  0  0  0
  152.0223  143.4849  158.5560 C   0  0  2  0  0  0  0  0  0  0  0  0
  153.0309  143.0858  159.6616 C   0  0  0  0  0  0  0  0  0  0  0  0
  152.4303  143.0355  161.0832 C   0  0  0  0  0  0  0  0  0  0  0  0
  151.6330  144.3052  161.4266 C   0  0  0  0  0  0  0  0  0  0  0  0
  150.6016  144.6504  160.3394 C   0  0  0  0  0  0  0  0  0  0  0  0
  151.2974  144.7885  158.9757 C   0  0  2  0  0  0  0  0  0  0  0  0
  150.3928  145.2529  157.9956 O   0  0  0  0  0  0  0  0  0  0  0  0
  144.8465  143.5852  152.5394 H   0  0  0  0  0  0  0  0  0  0  0  0
  146.5979  143.4611  152.4321 H   0  0  0  0  0  0  0  0  0  0  0  0
  145.8491  144.3748  153.7543 H   0  0  0  0  0  0  0  0  0  0  0  0
  146.9844  143.0082  155.3818 H   0  0  0  0  0  0  0  0  0  0  0  0
  146.5386  141.3213  155.4692 H   0  0  0  0  0  0  0  0  0  0  0  0
  147.9329  140.7002  153.6020 H   0  0  0  0  0  0  0  0  0  0  0  0
  148.2450  142.3865  153.1721 H   0  0  0  0  0  0  0  0  0  0  0  0
  150.1457  137.5855  153.7416 H   0  0  0  0  0  0  0  0  0  0  0  0
  152.1654  137.4662  155.2232 H   0  0  0  0  0  0  0  0  0  0  0  0
  152.7613  139.4436  156.5904 H   0  0  0  0  0  0  0  0  0  0  0  0
  152.5819  143.6997  157.6448 H   0  0  0  0  0  0  0  0  0  0  0  0
  153.4958  142.1292  159.4224 H   0  0  0  0  0  0  0  0  0  0  0  0
  153.8417  143.8152  159.6614 H   0  0  0  0  0  0  0  0  0  0  0  0
  151.7943  142.1614  161.2042 H   0  0  0  0  0  0  0  0  0  0  0  0
  153.2335  142.9054  161.8090 H   0  0  0  0  0  0  0  0  0  0  0  0
  151.1343  144.1819  162.3884 H   0  0  0  0  0  0  0  0  0  0  0  0
  152.3233  145.1413  161.5438 H   0  0  0  0  0  0  0  0  0  0  0  0
  149.8242  143.8870  160.2994 H   0  0  0  0  0  0  0  0  0  0  0  0
  150.1025  145.5844  160.6001 H   0  0  0  0  0  0  0  0  0  0  0  0
  152.0494  145.5735  159.0668 H   0  0  0  0  0  0  0  0  0  0  0  0
  149.6275  145.5952  158.4347 H   0  0  0  0  0  0  0  0  0  0  0  0
  1  2  1  0  0  0  0
  1 23  1  0  0  0  0
  1 24  1  0  0  0  0
  1 25  1  0  0  0  0
  2  3  1  0  0  0  0
  3  4  1  0  0  0  0
  3 26  1  0  0  0  0
  3 27  1  0  0  0  0
  4  5  1  0  0  0  0
  4 28  1  0  0  0  0
  4 29  1  0  0  0  0
  5  6  1  0  0  0  0
  6 11  1  0  0  0  0
  6  7  2  0  0  0  0
  7  8  1  0  0  0  0
  8  9  2  0  0  0  0
  8 30  1  0  0  0  0
  9 10  1  0  0  0  0
  9 31  1  0  0  0  0
 10 11  2  0  0  0  0
 10 32  1  0  0  0  0
 11 12  1  0  0  0  0
 12 13  1  0  0  0  0
 13 14  2  0  0  0  0
 13 15  2  0  0  0  0
 13 16  1  0  0  0  0
 16 21  1  0  0  0  0
 16 17  1  0  0  0  0
 16 33  1  0  0  0  0
 17 18  1  0  0  0  0
 17 34  1  0  0  0  0
 17 35  1  0  0  0  0
 18 19  1  0  0  0  0
 18 36  1  0  0  0  0
 18 37  1  0  0  0  0
 19 20  1  0  0  0  0
 19 38  1  0  0  0  0
 19 39  1  0  0  0  0
 20 21  1  0  0  0  0
 20 40  1  0  0  0  0
 20 41  1  0  0  0  0
 21 22  1  0  0  0  0
 21 42  1  0  0  0  0
 22 43  1  0  0  0  0
M  CHG  1  12  -1
M  END
> <s_m_source_file>
AV-unprocessed.smi

> <i_m_source_file_index>
763

> <i_lp_mmshare_version>
43012

> <i_f3d_flags>
0

> <s_epik_input>
W0NIM11PW0NIMl1bQ0gyXU9jMW5bY0hdW2NIXVtjSF1jMVtOSF1TKD1PKSg9TylbQ0BASF0yW0NIMl1bQ0gyXVtDSDJdW0NIMl1bQ0BIXTJbT0hd

> <s_epik_cmdline>
J2VwaWtfcHl0aG9uJywgJy1waCcsICc3LjAnLCAnLXRuJywgJzgnLCAnLW1hJywgJzIwMCcsICctbWV0YWxfYmluZGluZycsICctaW1hZScsICc8aW5maWxlLm1hZT4nLCAnLW9tYWUnLCAnPG91dGZpbGUubWFlPic=

> <r_epik_Ionization_Penalty>
0.985866

> <r_epik_Ionization_Penalty_Charging>
0.984689

> <r_epik_Ionization_Penalty_Neutral>
0.00117669

> <r_epik_State_Penalty>
1.03185

> <r_epik_Charging_Adjusted_Penalty>
2.01654

> <i_epik_Tot_Q>
-1

> <i_epik_Tot_abs_Q>
1

> <r_epik_Metal_State_Penalty>
0.379327

> <b_epik_Metal_Only>
0

> <s_lp_Force_Field>
OPLS_2005

> <r_lp_Energy>
11.7701

> <b_lp_Chiralities_Consistent>
1

> <s_lp_Variant>
AV-unprocessed.smi:763-7

> <Gold.Version>
5.8.1

> <Gold.Id.Protein>
6NUR|6NUR_protein|mol2

> <Gold.PLP.Fitness>
50.4151

> <Gold.PLP.PLP>
-49.9210

> <Gold.PLP.part.hbond>
-1.6042

> <Gold.PLP.part.metal>
0.0000

> <Gold.PLP.part.buried>
-6.1346

> <Gold.PLP.part.nonpolar>
-43.8512

> <Gold.PLP.part.repulsive>
1.0027

> <Gold.PLP.ligand.clash>
0.0000

> <Gold.PLP.ligand.torsion>
1.8764

> <Gold.PLP.Chemscore.Hbond>
0.0000

> <Gold.PLP.Chemscore.CHOScore>
1.0000

> <Gold.PLP.Chemscore.Metal>
0.0000

> <Gold.Chemscore.Hbonds>
donor molecule, donor type, donor heavy atom, donor atom, acceptor molecule, acceptor atom, score
      L1  H    22    43       P1  8029  0.29
      L1  C     8    30       P1  7948  0.92

> <Gold.PLP.Chemscore.Internal.Correction>
1.2470

> <Gold.Rescore>
     Score         DG    S(hbond)    S(metal)    S(lipo)     H(rot)  DE(clash)    DE(int)     intcor
     10.51     -12.95       0.00        0.00     115.29       2.35       0.24       2.20       ----

> <Gold.Chemscore.Fitness>
10.5124

> <Gold.Chemscore.DG>
-12.9502

> <Gold.Chemscore.ZeroCoef>
-5.4800

> <Gold.Chemscore.Hbond>
0.0000

> <Gold.Chemscore.Metal>
0.0000

> <Gold.Chemscore.Lipo>
115.2862

> <Gold.Chemscore.Internal_Hbond>
0.0000

> <Gold.Chemscore.DEClash>
0.2407

> <Gold.Chemscore.DEInternal>
2.1971

> <Gold.Chemscore.Rot>
2.3509

> <Gold.Chemscore.Internal.Correction>
   9.000000E+99

> <Gold.Chemscore.Hbonds>
donor molecule, donor type, donor heavy atom, donor atom, acceptor molecule, acceptor atom, score
      L1  H    22    43       P1  8029  0.22

> <Gold.Chemscore.Hbond.Weighted>
-0.0000

> <Gold.Chemscore.Metal.Weighted>
-0.0000

> <Gold.Chemscore.Lipo.Weighted>
-13.4885

> <Gold.Chemscore.Internal_Hbond.Weighted>
0.0000

> <Gold.Chemscore.DEClash.Weighted>
0.2407

> <Gold.Chemscore.DEInternal.Weighted>
2.1971

> <Gold.Chemscore.Rot.Weighted>
6.0182

> <Gold.Chemscore.Internal.Correction.Weighted>
   9.000000E+99

> <Gold.Protein.RotatedTorsions>
[ 6907 6896 6895 6894 ] final  -70.97 input  -60.11 | X-H torsion
[ 7974 7965 7964 7962 ] final   68.95 input  175.53 | X-H torsion
[ 8008 7997 7996 7995 ] final   -1.32 input   59.86 | X-H torsion
[ 10167 10162 10161 10158 ] final  110.36 input  -65.29 | X-H torsion
[ 10718 10713 10712 10709 ] final -102.99 input   66.30 | X-H torsion
[ 10763 10752 10751 10750 ] final -120.69 input  -60.55 | X-H torsion
[ 11005 11000 10999 10996 ] final  -12.32 input  -57.11 | X-H torsion

> <Gold.Protein.ActiveResidues>
 VAL166  LYS551  ARG553  GLY616  TRP617  ASP618  TYR619  PRO620  LYS621  CYS622 
 ASP623  PHE694  ASN695  SER759  ASP760  ASP761  ALA762  ILE779  LEU786  VAL792 
 PHE793  MET794  SER795  GLU796  ALA797  LYS798  CYS799  TRP800  GLU811  SER814 

> <Gold.Protein.RotatedAtoms>
  150.7233  134.5376  159.5730 H   0  0  0  0  0  0  0  0  0  0  0  0  # atno 6907 bound_to 6896
  152.2894  134.7736  160.0390 H   0  0  0  0  0  0  0  0  0  0  0  0  # atno 6908 bound_to 6896
  151.8354  133.3379  159.3663 H   0  0  0  0  0  0  0  0  0  0  0  0  # atno 6909 bound_to 6896
  145.7963  139.2959  143.1181 H   0  0  0  0  0  0  0  0  0  0  0  0  # atno 7974 bound_to 7965
  154.6481  140.2562  155.7244 H   0  0  0  0  0  0  0  0  0  0  0  0  # atno 8008 bound_to 7997
  156.2562  140.2873  156.0824 H   0  0  0  0  0  0  0  0  0  0  0  0  # atno 8009 bound_to 7997
  155.1492  140.0382  157.2807 H   0  0  0  0  0  0  0  0  0  0  0  0  # atno 8010 bound_to 7997
  139.6694  144.7126  151.1715 H   0  0  0  0  0  0  0  0  0  0  0  0  # atno 10167 bound_to 10162
  156.0248  130.5446  150.7188 H   0  0  0  0  0  0  0  0  0  0  0  0  # atno 10718 bound_to 10713
  154.8650  135.4194  154.2500 H   0  0  0  0  0  0  0  0  0  0  0  0  # atno 10763 bound_to 10752
  153.3449  135.6995  153.6842 H   0  0  0  0  0  0  0  0  0  0  0  0  # atno 10764 bound_to 10752
  153.5805  135.3574  155.2846 H   0  0  0  0  0  0  0  0  0  0  0  0  # atno 10765 bound_to 10752
  140.7645  133.8488  155.9153 H   0  0  0  0  0  0  0  0  0  0  0  0  # atno 11005 bound_to 11000
  145.9924  140.8591  143.0059 LP  0  0  0  0  0  0  0  0  0  0  0  0  # atno 17320 bound_to 7965
  144.6775  140.2235  143.7363 LP  0  0  0  0  0  0  0  0  0  0  0  0  # atno 17321 bound_to 7965
  140.7612  143.5867  150.8838 LP  0  0  0  0  0  0  0  0  0  0  0  0  # atno 17342 bound_to 10162
  139.9531  143.6249  152.3023 LP  0  0  0  0  0  0  0  0  0  0  0  0  # atno 17343 bound_to 10162
  157.4808  131.0902  151.0538 LP  0  0  0  0  0  0  0  0  0  0  0  0  # atno 17370 bound_to 10713
  157.0972  130.5966  149.5452 LP  0  0  0  0  0  0  0  0  0  0  0  0  # atno 17371 bound_to 10713
  140.9632  134.1628  157.4637 LP  0  0  0  0  0  0  0  0  0  0  0  0  # atno 17394 bound_to 11000
  139.8765  134.9952  156.5733 LP  0  0  0  0  0  0  0  0  0  0  0  0  # atno 17395 bound_to 11000

$$$$
