AV-unprocessed.smi:2346|AV-procd|sdf|9368|dock5
  -GOLD-   2272012593D 1   1.00000     0.00000
 Structure written by MMmdl.
 45 47  0  0  0  0  0  0  0  0  2 V2000
  152.7575  133.2477  156.8929 C   0  0  0  0  0  0  0  0  0  0  0  0
  152.1939  134.5370  156.7012 O   0  0  0  0  0  0  0  0  0  0  0  0
  151.0162  134.6388  155.9893 C   0  0  0  0  0  0  0  0  0  0  0  0
  150.3924  133.5414  155.3431 C   0  0  0  0  0  0  0  0  0  0  0  0
  149.1909  133.7189  154.6298 C   0  0  0  0  0  0  0  0  0  0  0  0
  148.5605  132.5869  153.9712 C   0  0  0  0  0  0  0  0  0  0  0  0
  148.0589  131.6859  153.4469 N   0  0  0  0  0  0  0  0  0  0  0  0
  148.6028  134.9948  154.5562 C   0  0  0  0  0  0  0  0  0  0  0  0
  149.2130  136.0889  155.1954 C   0  0  0  0  0  0  0  0  0  0  0  0
  150.4224  135.9201  155.9159 C   0  0  0  0  0  0  0  0  0  0  0  0
  151.0757  136.9475  156.5650 O   0  0  0  0  0  0  0  0  0  0  0  0
  150.5040  138.2466  156.5259 C   0  0  0  0  0  0  0  0  0  0  0  0
  151.6356  139.2755  156.6306 C   0  0  0  0  0  0  0  0  0  0  0  0
  151.1224  140.6521  156.6792 N   0  0  0  0  0  0  0  0  0  0  0  0
  150.1841  141.2799  155.9103 C   0  0  0  0  0  0  0  0  0  0  0  0
  149.3877  140.6946  154.7844 C   0  0  1  0  0  0  0  0  0  0  0  0
  148.4577  141.7487  154.1694 C   0  0  0  0  0  0  0  0  0  0  0  0
  150.2158  140.1761  153.7646 O   0  0  0  0  0  0  0  0  0  0  0  0
  150.0721  142.5562  156.3779 N   0  3  0  0  0  0  0  0  0  0  0  0
  150.9405  142.7473  157.4521 C   0  0  0  0  0  0  0  0  0  0  0  0
  151.1774  143.8671  158.2433 C   0  0  0  0  0  0  0  0  0  0  0  0
  152.1301  143.7236  159.2731 C   0  0  0  0  0  0  0  0  0  0  0  0
  152.8037  142.5031  159.4848 C   0  0  0  0  0  0  0  0  0  0  0  0
  152.5555  141.3749  158.6748 C   0  0  0  0  0  0  0  0  0  0  0  0
  151.6144  141.5261  157.6563 C   0  0  0  0  0  0  0  0  0  0  0  0
  153.6903  133.3427  157.4482 H   0  0  0  0  0  0  0  0  0  0  0  0
  152.9898  132.7682  155.9409 H   0  0  0  0  0  0  0  0  0  0  0  0
  152.0939  132.6033  157.4710 H   0  0  0  0  0  0  0  0  0  0  0  0
  150.8225  132.5517  155.3841 H   0  0  0  0  0  0  0  0  0  0  0  0
  147.6818  135.1425  154.0104 H   0  0  0  0  0  0  0  0  0  0  0  0
  148.7302  137.0509  155.1167 H   0  0  0  0  0  0  0  0  0  0  0  0
  149.9622  138.3900  155.5901 H   0  0  0  0  0  0  0  0  0  0  0  0
  149.8038  138.3773  157.3523 H   0  0  0  0  0  0  0  0  0  0  0  0
  152.2518  139.0917  157.5109 H   0  0  0  0  0  0  0  0  0  0  0  0
  152.3031  139.1916  155.7736 H   0  0  0  0  0  0  0  0  0  0  0  0
  148.7855  139.8682  155.1597 H   0  0  0  0  0  0  0  0  0  0  0  0
  147.7712  142.1501  154.9150 H   0  0  0  0  0  0  0  0  0  0  0  0
  147.8561  141.3213  153.3666 H   0  0  0  0  0  0  0  0  0  0  0  0
  149.0218  142.5845  153.7538 H   0  0  0  0  0  0  0  0  0  0  0  0
  149.7464  140.2198  152.9453 H   0  0  0  0  0  0  0  0  0  0  0  0
  150.6604  144.8021  158.0840 H   0  0  0  0  0  0  0  0  0  0  0  0
  152.3470  144.5655  159.9143 H   0  0  0  0  0  0  0  0  0  0  0  0
  153.5260  142.4303  160.2851 H   0  0  0  0  0  0  0  0  0  0  0  0
  153.0759  140.4448  158.8490 H   0  0  0  0  0  0  0  0  0  0  0  0
  149.4400  143.2426  155.9860 H   0  0  0  0  0  0  0  0  0  0  0  0
  1  2  1  0  0  0  0
  1 26  1  0  0  0  0
  1 27  1  0  0  0  0
  1 28  1  0  0  0  0
  2  3  1  0  0  0  0
  3 10  1  0  0  0  0
  3  4  2  0  0  0  0
  4  5  1  0  0  0  0
  4 29  1  0  0  0  0
  5  6  1  0  0  0  0
  5  8  2  0  0  0  0
  6  7  3  0  0  0  0
  8  9  1  0  0  0  0
  8 30  1  0  0  0  0
  9 10  2  0  0  0  0
  9 31  1  0  0  0  0
 10 11  1  0  0  0  0
 11 12  1  0  0  0  0
 12 13  1  0  0  0  0
 12 32  1  0  0  0  0
 12 33  1  0  0  0  0
 13 14  1  0  0  0  0
 13 34  1  0  0  0  0
 13 35  1  0  0  0  0
 14 25  1  0  0  0  0
 14 15  1  0  0  0  0
 15 16  1  0  0  0  0
 15 19  2  0  0  0  0
 16 17  1  0  0  0  0
 16 18  1  0  0  0  0
 16 36  1  0  0  0  0
 17 37  1  0  0  0  0
 17 38  1  0  0  0  0
 17 39  1  0  0  0  0
 18 40  1  0  0  0  0
 19 20  1  0  0  0  0
 19 45  1  0  0  0  0
 20 25  2  0  0  0  0
 20 21  1  0  0  0  0
 21 22  2  0  0  0  0
 21 41  1  0  0  0  0
 22 23  1  0  0  0  0
 22 42  1  0  0  0  0
 23 24  2  0  0  0  0
 23 43  1  0  0  0  0
 24 25  1  0  0  0  0
 24 44  1  0  0  0  0
M  CHG  1  19   1
M  END
> <s_m_source_file>
AV-unprocessed.smi

> <i_m_source_file_index>
2346

> <i_lp_mmshare_version>
43012

> <i_f3d_flags>
0

> <s_epik_input>
W0NIM11PYzFbY0hdYyhDI04pW2NIXVtjSF1jMU9bQ0gyXVtDSDJdbihjKG4yKVtDQEhdKFtDSDNdKVtPSF0pYyhjMjMpW2NIXVtjSF1bY0hdW2NIXTM=

> <s_epik_cmdline>
J2VwaWtfcHl0aG9uJywgJy1waCcsICc3LjAnLCAnLXRuJywgJzgnLCAnLW1hJywgJzIwMCcsICctbWV0YWxfYmluZGluZycsICctaW1hZScsICc8aW5maWxlLm1hZT4nLCAnLW9tYWUnLCAnPG91dGZpbGUubWFlPic=

> <r_epik_Ionization_Penalty>
1.58928

> <r_epik_Ionization_Penalty_Charging>
1.58925

> <r_epik_Ionization_Penalty_Neutral>
2.92192e-05

> <r_epik_State_Penalty>
1.68649

> <r_epik_Charging_Adjusted_Penalty>
3.27574

> <i_epik_Tot_Q>
1

> <i_epik_Tot_abs_Q>
1

> <r_epik_Metal_State_Penalty>
5.74385

> <b_epik_Metal_Only>
0

> <s_lp_Force_Field>
OPLS_2005

> <r_lp_Energy>
24.4742

> <b_lp_Chiralities_Consistent>
1

> <s_lp_Variant>
AV-unprocessed.smi:2346-4

> <Gold.Version>
5.8.1

> <Gold.Id.Protein>
6NUR|6NUR_protein|mol2

> <Gold.PLP.Fitness>
56.5210

> <Gold.PLP.PLP>
-44.0384

> <Gold.PLP.part.hbond>
-4.3624

> <Gold.PLP.part.metal>
0.0000

> <Gold.PLP.part.buried>
-3.1455

> <Gold.PLP.part.nonpolar>
-35.7308

> <Gold.PLP.part.repulsive>
0.1563

> <Gold.PLP.ligand.clash>
0.0000

> <Gold.PLP.ligand.torsion>
0.3606

> <Gold.PLP.Chemscore.Hbond>
4.3718

> <Gold.PLP.Chemscore.CHOScore>
0.0000

> <Gold.PLP.Chemscore.Metal>
0.0000

> <Gold.Chemscore.Hbonds>
donor molecule, donor type, donor heavy atom, donor atom, acceptor molecule, acceptor atom, score
      L1  H    18    40       P1  7957  1.00
      L1  H    19    45       P1  8028  2.00
      P1  H  7989  7998       L1    18  0.80
      P1  H 10752 10765       L1     2  0.57

> <Gold.PLP.Chemscore.Internal.Correction>
0.0885

> <Gold.Rescore>
     Score         DG    S(hbond)    S(metal)    S(lipo)     H(rot)  DE(clash)    DE(int)     intcor
     20.20     -20.77       2.58        0.00     114.96       2.65       0.25       0.31       ----

> <Gold.Chemscore.Fitness>
20.2008

> <Gold.Chemscore.DG>
-20.7652

> <Gold.Chemscore.ZeroCoef>
-5.4800

> <Gold.Chemscore.Hbond>
2.5779

> <Gold.Chemscore.Metal>
0.0000

> <Gold.Chemscore.Lipo>
114.9627

> <Gold.Chemscore.Internal_Hbond>
0.0000

> <Gold.Chemscore.DEClash>
0.2546

> <Gold.Chemscore.DEInternal>
0.3098

> <Gold.Chemscore.Rot>
2.6467

> <Gold.Chemscore.Internal.Correction>
   9.000000E+99

> <Gold.Chemscore.Hbonds>
donor molecule, donor type, donor heavy atom, donor atom, acceptor molecule, acceptor atom, score
      L1  H    18    40       P1  7957  0.97
      L1  H    19    45       P1  8028  0.97
      P1  H  7989  7998       L1    18  0.34
      P1  H 10752 10765       L1     2  0.02

> <Gold.Chemscore.Hbond.Weighted>
-8.6102

> <Gold.Chemscore.Metal.Weighted>
-0.0000

> <Gold.Chemscore.Lipo.Weighted>
-13.4506

> <Gold.Chemscore.Internal_Hbond.Weighted>
0.0000

> <Gold.Chemscore.DEClash.Weighted>
0.2546

> <Gold.Chemscore.DEInternal.Weighted>
0.3098

> <Gold.Chemscore.Rot.Weighted>
6.7756

> <Gold.Chemscore.Internal.Correction.Weighted>
   9.000000E+99

> <Gold.Protein.RotatedTorsions>
[ 6907 6896 6895 6894 ] final   21.05 input  -60.11 | X-H torsion
[ 7974 7965 7964 7962 ] final  112.44 input  175.53 | X-H torsion
[ 8008 7997 7996 7995 ] final  114.57 input   59.86 | X-H torsion
[ 10167 10162 10161 10158 ] final   63.22 input  -65.29 | X-H torsion
[ 10718 10713 10712 10709 ] final    8.24 input   66.30 | X-H torsion
[ 10763 10752 10751 10750 ] final -134.69 input  -60.55 | X-H torsion
[ 11005 11000 10999 10996 ] final  -21.59 input  -57.11 | X-H torsion

> <Gold.Protein.ActiveResidues>
 VAL166  LYS551  ARG553  GLY616  TRP617  ASP618  TYR619  PRO620  LYS621  CYS622 
 ASP623  PHE694  ASN695  SER759  ASP760  ASP761  ALA762  ILE779  LEU786  VAL792 
 PHE793  MET794  SER795  GLU796  ALA797  LYS798  CYS799  TRP800  GLU811  SER814 

> <Gold.Protein.RotatedAtoms>
  151.9059  135.0359  160.0510 H   0  0  0  0  0  0  0  0  0  0  0  0  # atno 6907 bound_to 6896
  152.2320  133.5061  159.5229 H   0  0  0  0  0  0  0  0  0  0  0  0  # atno 6908 bound_to 6896
  150.7028  134.1121  159.4046 H   0  0  0  0  0  0  0  0  0  0  0  0  # atno 6909 bound_to 6896
  145.2295  139.2826  143.4175 H   0  0  0  0  0  0  0  0  0  0  0  0  # atno 7974 bound_to 7965
  156.2329  140.2956  156.0236 H   0  0  0  0  0  0  0  0  0  0  0  0  # atno 8008 bound_to 7997
  155.2173  140.0414  157.2960 H   0  0  0  0  0  0  0  0  0  0  0  0  # atno 8009 bound_to 7997
  154.6028  140.2431  155.7778 H   0  0  0  0  0  0  0  0  0  0  0  0  # atno 8010 bound_to 7997
  140.1354  144.4604  150.6841 H   0  0  0  0  0  0  0  0  0  0  0  0  # atno 10167 bound_to 10162
  156.9487  130.5888  149.5655 H   0  0  0  0  0  0  0  0  0  0  0  0  # atno 10718 bound_to 10713
  154.8715  135.3726  154.4777 H   0  0  0  0  0  0  0  0  0  0  0  0  # atno 10763 bound_to 10752
  153.5433  135.7026  153.5631 H   0  0  0  0  0  0  0  0  0  0  0  0  # atno 10764 bound_to 10752
  153.3783  135.4003  155.1803 H   0  0  0  0  0  0  0  0  0  0  0  0  # atno 10765 bound_to 10752
  140.8576  133.7812  156.0037 H   0  0  0  0  0  0  0  0  0  0  0  0  # atno 11005 bound_to 11000
  146.3356  140.2626  142.8602 LP  0  0  0  0  0  0  0  0  0  0  0  0  # atno 17320 bound_to 7965
  144.9689  140.8349  143.5467 LP  0  0  0  0  0  0  0  0  0  0  0  0  # atno 17321 bound_to 7965
  140.6792  143.2319  151.5427 LP  0  0  0  0  0  0  0  0  0  0  0  0  # atno 17342 bound_to 10162
  139.5499  144.2424  152.1511 LP  0  0  0  0  0  0  0  0  0  0  0  0  # atno 17343 bound_to 10162
  156.0372  130.5458  150.8683 LP  0  0  0  0  0  0  0  0  0  0  0  0  # atno 17370 bound_to 10713
  157.5736  131.0946  150.9379 LP  0  0  0  0  0  0  0  0  0  0  0  0  # atno 17371 bound_to 10713
  140.8720  134.2715  157.5186 LP  0  0  0  0  0  0  0  0  0  0  0  0  # atno 17394 bound_to 11000
  139.8706  134.9572  156.4261 LP  0  0  0  0  0  0  0  0  0  0  0  0  # atno 17395 bound_to 11000

$$$$
