AV-unprocessed.smi:2037|AV-procd|sdf|8277|dock3
  -GOLD-   2272010543D 1   1.00000     0.00000
 Structure written by MMmdl.
 39 40  0  0  0  0  0  0  0  0  2 V2000
  144.8097  132.1089  151.8118 C   0  0  0  0  0  0  0  0  0  0  0  0
  146.2054  132.6833  151.5123 C   0  0  2  0  0  0  0  0  0  0  0  0
  146.9366  133.1640  152.7787 C   0  0  0  0  0  0  0  0  0  0  0  0
  146.3583  134.4840  153.3202 C   0  0  0  0  0  0  0  0  0  0  0  0
  146.3658  135.5456  152.2804 N   0  3  2  0  0  0  0  0  0  0  0  0
  145.9326  136.8595  152.8199 C   0  0  0  0  0  0  0  0  0  0  0  0
  146.2567  138.0248  151.8642 C   0  0  0  0  0  0  0  0  0  0  0  0
  147.4765  138.7209  152.2580 N   0  0  0  0  0  0  0  0  0  0  0  0
  147.7294  139.1847  153.4905 C   0  0  0  0  0  0  0  0  0  0  0  0
  146.9378  139.0768  154.4275 O   0  0  0  0  0  0  0  0  0  0  0  0
  148.9389  139.7684  153.5559 N   0  0  0  0  0  0  0  0  0  0  0  0
  149.5488  140.3969  154.6732 C   0  0  0  0  0  0  0  0  0  0  0  0
  150.8608  140.3628  154.9345 N   0  0  0  0  0  0  0  0  0  0  0  0
  151.1814  141.0616  156.1010 C   0  0  0  0  0  0  0  0  0  0  0  0
  150.0933  141.6250  156.7200 C   0  0  0  0  0  0  0  0  0  0  0  0
  148.6134  141.2962  155.8589 S   0  0  0  0  0  0  0  0  0  0  0  0
  145.6092  135.1297  151.0694 C   0  0  0  0  0  0  0  0  0  0  0  0
  146.1721  133.8239  150.4796 C   0  0  0  0  0  0  0  0  0  0  0  0
  144.1440  132.8503  152.2527 H   0  0  0  0  0  0  0  0  0  0  0  0
  144.8742  131.2705  152.5059 H   0  0  0  0  0  0  0  0  0  0  0  0
  144.3356  131.7414  150.9013 H   0  0  0  0  0  0  0  0  0  0  0  0
  146.7889  131.8672  151.0837 H   0  0  0  0  0  0  0  0  0  0  0  0
  146.9009  132.3948  153.5511 H   0  0  0  0  0  0  0  0  0  0  0  0
  147.9928  133.3098  152.5477 H   0  0  0  0  0  0  0  0  0  0  0  0
  145.3414  134.3365  153.6866 H   0  0  0  0  0  0  0  0  0  0  0  0
  146.9549  134.8040  154.1753 H   0  0  0  0  0  0  0  0  0  0  0  0
  144.8669  136.8323  153.0526 H   0  0  0  0  0  0  0  0  0  0  0  0
  146.4473  137.0374  153.7651 H   0  0  0  0  0  0  0  0  0  0  0  0
  146.3515  137.6635  150.8386 H   0  0  0  0  0  0  0  0  0  0  0  0
  145.4536  138.7607  151.8611 H   0  0  0  0  0  0  0  0  0  0  0  0
  148.1810  138.8487  151.5459 H   0  0  0  0  0  0  0  0  0  0  0  0
  149.4873  139.7666  152.7084 H   0  0  0  0  0  0  0  0  0  0  0  0
  152.2126  141.1071  156.4187 H   0  0  0  0  0  0  0  0  0  0  0  0
  150.0729  142.2102  157.6272 H   0  0  0  0  0  0  0  0  0  0  0  0
  144.5539  135.0115  151.3182 H   0  0  0  0  0  0  0  0  0  0  0  0
  145.6627  135.9047  150.3061 H   0  0  0  0  0  0  0  0  0  0  0  0
  147.1848  134.0080  150.1184 H   0  0  0  0  0  0  0  0  0  0  0  0
  145.5904  133.5257  149.6065 H   0  0  0  0  0  0  0  0  0  0  0  0
  147.3307  135.6562  152.0030 H   0  0  0  0  0  0  0  0  0  0  0  0
  1  2  1  0  0  0  0
  1 19  1  0  0  0  0
  1 20  1  0  0  0  0
  1 21  1  0  0  0  0
  2 18  1  0  0  0  0
  2  3  1  0  0  0  0
  2 22  1  0  0  0  0
  3  4  1  0  0  0  0
  3 23  1  0  0  0  0
  3 24  1  0  0  0  0
  4  5  1  0  0  0  0
  4 25  1  0  0  0  0
  4 26  1  0  0  0  0
  5  6  1  0  0  0  0
  5 17  1  0  0  0  0
  5 39  1  0  0  0  0
  6  7  1  0  0  0  0
  6 27  1  0  0  0  0
  6 28  1  0  0  0  0
  7  8  1  0  0  0  0
  7 29  1  0  0  0  0
  7 30  1  0  0  0  0
  8  9  1  0  0  0  0
  8 31  1  0  0  0  0
  9 10  2  0  0  0  0
  9 11  1  0  0  0  0
 11 12  1  0  0  0  0
 11 32  1  0  0  0  0
 12 16  1  0  0  0  0
 12 13  2  0  0  0  0
 13 14  1  0  0  0  0
 14 15  2  0  0  0  0
 14 33  1  0  0  0  0
 15 16  1  0  0  0  0
 15 34  1  0  0  0  0
 17 18  1  0  0  0  0
 17 35  1  0  0  0  0
 17 36  1  0  0  0  0
 18 37  1  0  0  0  0
 18 38  1  0  0  0  0
M  CHG  1   5   1
M  END
> <s_m_source_file>
AV-unprocessed.smi

> <i_m_source_file_index>
2037

> <i_lp_mmshare_version>
43012

> <i_f3d_flags>
0

> <s_epik_input>
W0NIM11bQ0hdMVtDSDJdW0NIMl1OKFtDSDJdW0NIMl0xKVtDSDJdW0NIMl1bTkhdQyg9TylbTkhdYzJuW2NIXVtjSF1zMg==

> <s_epik_cmdline>
J2VwaWtfcHl0aG9uJywgJy1waCcsICc3LjAnLCAnLXRuJywgJzgnLCAnLW1hJywgJzIwMCcsICctbWV0YWxfYmluZGluZycsICctaW1hZScsICc8aW5maWxlLm1hZT4nLCAnLW9tYWUnLCAnPG91dGZpbGUubWFlPic=

> <r_lp_tautomer_probability>
0.999

> <r_epik_Ionization_Penalty>
0.00182893

> <r_epik_Ionization_Penalty_Charging>
0.00168873

> <r_epik_Ionization_Penalty_Neutral>
0.000140204

> <r_epik_State_Penalty>
0.00114045

> <r_epik_Charging_Adjusted_Penalty>
0.00282917

> <i_epik_Tot_Q>
1

> <i_epik_Tot_abs_Q>
1

> <r_epik_Metal_State_Penalty>
0.0569426

> <b_epik_Metal_Only>
0

> <s_lp_Force_Field>
OPLS_2005

> <r_lp_Energy>
15.966

> <b_lp_Chiralities_Consistent>
1

> <s_lp_Variant>
AV-unprocessed.smi:2037-2

> <Gold.Version>
5.8.1

> <Gold.Id.Protein>
6NUR|6NUR_protein|mol2

> <Gold.PLP.Fitness>
45.5698

> <Gold.PLP.PLP>
-32.2837

> <Gold.PLP.part.hbond>
-4.9534

> <Gold.PLP.part.metal>
0.0000

> <Gold.PLP.part.buried>
-2.2874

> <Gold.PLP.part.nonpolar>
-24.2223

> <Gold.PLP.part.repulsive>
0.4049

> <Gold.PLP.ligand.clash>
0.0000

> <Gold.PLP.ligand.torsion>
0.6133

> <Gold.PLP.Chemscore.Hbond>
4.8320

> <Gold.PLP.Chemscore.CHOScore>
0.0000

> <Gold.PLP.Chemscore.Metal>
0.0000

> <Gold.Chemscore.Hbonds>
donor molecule, donor type, donor heavy atom, donor atom, acceptor molecule, acceptor atom, score
      L1  H     5    39       P1  7948  2.00
      L1  H     8    31       P1  7957  0.80
      L1  H    11    32       P1  7957  1.00
      P1  H  7989  7998       L1    13  1.00

> <Gold.PLP.Chemscore.Internal.Correction>
0.0166

> <Gold.Rescore>
     Score         DG    S(hbond)    S(metal)    S(lipo)     H(rot)  DE(clash)    DE(int)     intcor
     18.88     -21.03       3.70        0.00      62.29       1.60       0.09       2.05       ----

> <Gold.Chemscore.Fitness>
18.8820

> <Gold.Chemscore.DG>
-21.0267

> <Gold.Chemscore.ZeroCoef>
-5.4800

> <Gold.Chemscore.Hbond>
3.6990

> <Gold.Chemscore.Metal>
0.0000

> <Gold.Chemscore.Lipo>
62.2940

> <Gold.Chemscore.Internal_Hbond>
0.0000

> <Gold.Chemscore.DEClash>
0.0930

> <Gold.Chemscore.DEInternal>
2.0517

> <Gold.Chemscore.Rot>
1.6001

> <Gold.Chemscore.Internal.Correction>
   9.000000E+99

> <Gold.Chemscore.Hbonds>
donor molecule, donor type, donor heavy atom, donor atom, acceptor molecule, acceptor atom, score
      L1  H     5    39       P1  7948  1.00
      L1  H     8    31       P1  7957  0.52
      L1  H    11    32       P1  7957  0.92
      P1  H  7989  7998       L1    13  0.50

> <Gold.Chemscore.Hbond.Weighted>
-12.3546

> <Gold.Chemscore.Metal.Weighted>
-0.0000

> <Gold.Chemscore.Lipo.Weighted>
-7.2884

> <Gold.Chemscore.Internal_Hbond.Weighted>
0.0000

> <Gold.Chemscore.DEClash.Weighted>
0.0930

> <Gold.Chemscore.DEInternal.Weighted>
2.0517

> <Gold.Chemscore.Rot.Weighted>
4.0963

> <Gold.Chemscore.Internal.Correction.Weighted>
   9.000000E+99

> <Gold.Protein.RotatedTorsions>
[ 6907 6896 6895 6894 ] final  138.70 input  -60.11 | X-H torsion
[ 7974 7965 7964 7962 ] final   84.45 input  175.53 | X-H torsion
[ 8008 7997 7996 7995 ] final   64.78 input   59.86 | X-H torsion
[ 10167 10162 10161 10158 ] final   15.21 input  -65.29 | X-H torsion
[ 10718 10713 10712 10709 ] final  128.24 input   66.30 | X-H torsion
[ 10763 10752 10751 10750 ] final  -90.45 input  -60.55 | X-H torsion
[ 11005 11000 10999 10996 ] final -169.68 input  -57.11 | X-H torsion

> <Gold.Protein.ActiveResidues>
 VAL166  LYS551  ARG553  GLY616  TRP617  ASP618  TYR619  PRO620  LYS621  CYS622 
 ASP623  PHE694  ASN695  SER759  ASP760  ASP761  ALA762  ILE779  LEU786  VAL792 
 PHE793  MET794  SER795  GLU796  ALA797  LYS798  CYS799  TRP800  GLU811  SER814 

> <Gold.Protein.RotatedAtoms>
  152.2636  133.5319  159.5396 H   0  0  0  0  0  0  0  0  0  0  0  0  # atno 6907 bound_to 6896
  150.7134  134.0796  159.3902 H   0  0  0  0  0  0  0  0  0  0  0  0  # atno 6908 bound_to 6896
  151.8713  135.0488  160.0530 H   0  0  0  0  0  0  0  0  0  0  0  0  # atno 6909 bound_to 6896
  145.5986  139.2349  143.2258 H   0  0  0  0  0  0  0  0  0  0  0  0  # atno 7974 bound_to 7965
  155.6514  140.3497  155.4749 H   0  0  0  0  0  0  0  0  0  0  0  0  # atno 8008 bound_to 7997
  155.9845  140.1181  157.0719 H   0  0  0  0  0  0  0  0  0  0  0  0  # atno 8009 bound_to 7997
  154.4201  140.1132  156.5466 H   0  0  0  0  0  0  0  0  0  0  0  0  # atno 8010 bound_to 7997
  140.5883  143.8847  150.6850 H   0  0  0  0  0  0  0  0  0  0  0  0  # atno 10167 bound_to 10162
  157.5262  131.1098  150.9079 H   0  0  0  0  0  0  0  0  0  0  0  0  # atno 10718 bound_to 10713
  154.6658  135.5304  153.8076 H   0  0  0  0  0  0  0  0  0  0  0  0  # atno 10763 bound_to 10752
  153.0470  135.6517  154.0801 H   0  0  0  0  0  0  0  0  0  0  0  0  # atno 10764 bound_to 10752
  154.0705  135.2954  155.3289 H   0  0  0  0  0  0  0  0  0  0  0  0  # atno 10765 bound_to 10752
  140.5280  134.5644  157.5067 H   0  0  0  0  0  0  0  0  0  0  0  0  # atno 11005 bound_to 11000
  146.1593  140.6811  142.9285 LP  0  0  0  0  0  0  0  0  0  0  0  0  # atno 17320 bound_to 7965
  144.7320  140.4698  143.6931 LP  0  0  0  0  0  0  0  0  0  0  0  0  # atno 17321 bound_to 7965
  140.2363  143.3697  152.1524 LP  0  0  0  0  0  0  0  0  0  0  0  0  # atno 17342 bound_to 10162
  139.5211  144.7042  151.5405 LP  0  0  0  0  0  0  0  0  0  0  0  0  # atno 17343 bound_to 10162
  156.9674  130.5478  149.5289 LP  0  0  0  0  0  0  0  0  0  0  0  0  # atno 17370 bound_to 10713
  156.0389  130.5473  150.8722 LP  0  0  0  0  0  0  0  0  0  0  0  0  # atno 17371 bound_to 10713
  139.9569  134.7519  156.0321 LP  0  0  0  0  0  0  0  0  0  0  0  0  # atno 17394 bound_to 11000
  141.1297  133.6590  156.3431 LP  0  0  0  0  0  0  0  0  0  0  0  0  # atno 17395 bound_to 11000

$$$$
