AV-unprocessed.smi:3234|AV-procd|sdf|12357|dock2
  -GOLD-   2272018213D 1   1.00000     0.00000
 Structure written by MMmdl.
 37 39  0  0  0  0  0  0  0  0  4 V2000
  153.8666  140.3189  159.2309 O   0  0  0  0  0  0  0  0  0  0  0  0
  154.0041  141.0322  160.2314 C   0  0  0  0  0  0  0  0  0  0  0  0
  153.2316  142.1202  160.4024 N   0  0  0  0  0  0  0  0  0  0  0  0
  152.2458  142.6654  159.5358 C   0  0  0  0  0  0  0  0  0  0  0  0
  152.0315  144.0606  159.5830 C   0  0  0  0  0  0  0  0  0  0  0  0
  151.0778  144.6469  158.7264 C   0  0  0  0  0  0  0  0  0  0  0  0
  150.3867  143.8745  157.8604 N   0  3  0  0  0  0  0  0  0  0  0  0
  150.5703  142.5400  157.7659 C   0  0  0  0  0  0  0  0  0  0  0  0
  151.5107  141.8981  158.5967 C   0  0  0  0  0  0  0  0  0  0  0  0
  154.8665  140.8464  161.2675 N   0  5  0  0  0  0  0  0  0  0  0  0
  155.5281  139.5789  161.5838 C   0  0  1  0  0  0  0  0  0  0  0  0
  156.1172  139.5849  162.9953 C   0  0  0  0  0  0  0  0  0  0  0  0
  156.1243  138.1061  163.4122 C   0  0  0  0  0  0  0  0  0  0  0  0
  155.2431  137.3907  162.4594 N   0  3  1  0  0  0  0  0  0  0  0  0
  154.3499  136.3903  163.0821 C   0  0  0  0  0  0  0  0  0  0  0  0
  154.0656  136.6610  164.5401 C   0  0  0  0  0  0  0  0  0  0  0  0
  155.0252  135.5587  164.1462 C   0  0  0  0  0  0  0  0  0  0  0  0
  154.5443  138.4100  161.6534 C   0  0  0  0  0  0  0  0  0  0  0  0
  153.3320  142.5832  161.2937 H   0  0  0  0  0  0  0  0  0  0  0  0
  152.5886  144.6774  160.2737 H   0  0  0  0  0  0  0  0  0  0  0  0
  150.8513  145.7029  158.7059 H   0  0  0  0  0  0  0  0  0  0  0  0
  149.9693  142.0292  157.0279 H   0  0  0  0  0  0  0  0  0  0  0  0
  151.6616  140.8347  158.4904 H   0  0  0  0  0  0  0  0  0  0  0  0
  156.3222  139.3319  160.8769 H   0  0  0  0  0  0  0  0  0  0  0  0
  157.1099  140.0351  163.0317 H   0  0  0  0  0  0  0  0  0  0  0  0
  155.4750  140.1456  163.6772 H   0  0  0  0  0  0  0  0  0  0  0  0
  157.1267  137.6789  163.3567 H   0  0  0  0  0  0  0  0  0  0  0  0
  155.7797  137.9991  164.4422 H   0  0  0  0  0  0  0  0  0  0  0  0
  153.5875  135.9525  162.4400 H   0  0  0  0  0  0  0  0  0  0  0  0
  154.4876  137.5589  164.9886 H   0  0  0  0  0  0  0  0  0  0  0  0
  153.0934  136.3612  164.9262 H   0  0  0  0  0  0  0  0  0  0  0  0
  154.6853  134.5325  164.2711 H   0  0  0  0  0  0  0  0  0  0  0  0
  156.0853  135.7230  164.3323 H   0  0  0  0  0  0  0  0  0  0  0  0
  153.6259  138.7103  162.1623 H   0  0  0  0  0  0  0  0  0  0  0  0
  154.2769  138.0263  160.6683 H   0  0  0  0  0  0  0  0  0  0  0  0
  155.8553  136.9028  161.8215 H   0  0  0  0  0  0  0  0  0  0  0  0
  149.7023  144.3183  157.2476 H   0  0  0  0  0  0  0  0  0  0  0  0
  1  2  2  0  0  0  0
  2  3  1  0  0  0  0
  2 10  1  0  0  0  0
  3  4  1  0  0  0  0
  3 19  1  0  0  0  0
  4  9  1  0  0  0  0
  4  5  2  0  0  0  0
  5  6  1  0  0  0  0
  5 20  1  0  0  0  0
  6  7  2  0  0  0  0
  6 21  1  0  0  0  0
  7  8  1  0  0  0  0
  7 37  1  0  0  0  0
  8  9  2  0  0  0  0
  8 22  1  0  0  0  0
  9 23  1  0  0  0  0
 10 11  1  0  0  0  0
 11 18  1  0  0  0  0
 11 12  1  0  0  0  0
 11 24  1  0  0  0  0
 12 13  1  0  0  0  0
 12 25  1  0  0  0  0
 12 26  1  0  0  0  0
 13 14  1  0  0  0  0
 13 27  1  0  0  0  0
 13 28  1  0  0  0  0
 14 15  1  0  0  0  0
 14 18  1  0  0  0  0
 14 36  1  0  0  0  0
 15 17  1  0  0  0  0
 15 16  1  0  0  0  0
 15 29  1  0  0  0  0
 16 17  1  0  0  0  0
 16 30  1  0  0  0  0
 16 31  1  0  0  0  0
 17 32  1  0  0  0  0
 17 33  1  0  0  0  0
 18 34  1  0  0  0  0
 18 35  1  0  0  0  0
M  CHG  1   7   1
M  CHG  1  10  -1
M  CHG  1  14   1
M  END
> <s_m_source_file>
AV-unprocessed.smi

> <i_m_source_file_index>
3234

> <i_lp_mmshare_version>
43012

> <i_f3d_flags>
0

> <s_epik_input>
W2NIXTFbY0hdbltjSF1bY0hdYzFbTkhdQyg9TylbTkhdW0NAQEhdMltDSDJdW0NIMl1OKFtDSDJdMilbQ0hdM1tDSDJdW0NIMl0z

> <s_epik_cmdline>
J2VwaWtfcHl0aG9uJywgJy1waCcsICc3LjAnLCAnLXRuJywgJzgnLCAnLW1hJywgJzIwMCcsICctbWV0YWxfYmluZGluZycsICctaW1hZScsICc8aW5maWxlLm1hZT4nLCAnLW9tYWUnLCAnPG91dGZpbGUubWFlPic=

> <r_epik_Ionization_Penalty>
8.3234

> <r_epik_Ionization_Penalty_Charging>
8.3234

> <r_epik_Ionization_Penalty_Neutral>
3.58513e-06

> <r_epik_State_Penalty>
7.99376

> <r_epik_Charging_Adjusted_Penalty>
16.3172

> <i_epik_Tot_Q>
1

> <i_epik_Tot_abs_Q>
3

> <r_epik_Metal_State_Penalty>
3.98956

> <b_epik_Metal_Only>
1

> <s_lp_Force_Field>
OPLS_2005

> <r_lp_Energy>
39.5194

> <b_lp_Chiralities_Consistent>
1

> <s_lp_Variant>
AV-unprocessed.smi:3234-10

> <Gold.Version>
5.8.1

> <Gold.Id.Protein>
6NUR|6NUR_protein|mol2

> <Gold.PLP.Fitness>
47.7330

> <Gold.PLP.PLP>
-40.3403

> <Gold.PLP.part.hbond>
-3.0000

> <Gold.PLP.part.metal>
0.0000

> <Gold.PLP.part.buried>
-4.7766

> <Gold.PLP.part.nonpolar>
-32.0642

> <Gold.PLP.part.repulsive>
0.0607

> <Gold.PLP.ligand.clash>
0.0000

> <Gold.PLP.ligand.torsion>
1.0409

> <Gold.PLP.Chemscore.Hbond>
2.7293

> <Gold.PLP.Chemscore.CHOScore>
0.0000

> <Gold.PLP.Chemscore.Metal>
0.0000

> <Gold.Chemscore.Hbonds>
donor molecule, donor type, donor heavy atom, donor atom, acceptor molecule, acceptor atom, score
      L1  H     7    37       P1  8028  2.00
      P1  H  7997  8008       L1     1  0.34

> <Gold.PLP.Chemscore.Internal.Correction>
1.2866

> <Gold.Rescore>
     Score         DG    S(hbond)    S(metal)    S(lipo)     H(rot)  DE(clash)    DE(int)     intcor
     17.25     -20.57       1.70        0.00     107.03       1.21       0.97       2.35       ----

> <Gold.Chemscore.Fitness>
17.2500

> <Gold.Chemscore.DG>
-20.5676

> <Gold.Chemscore.ZeroCoef>
-5.4800

> <Gold.Chemscore.Hbond>
1.6961

> <Gold.Chemscore.Metal>
0.0000

> <Gold.Chemscore.Lipo>
107.0265

> <Gold.Chemscore.Internal_Hbond>
0.0000

> <Gold.Chemscore.DEClash>
0.9704

> <Gold.Chemscore.DEInternal>
2.3471

> <Gold.Chemscore.Rot>
1.2108

> <Gold.Chemscore.Internal.Correction>
   9.000000E+99

> <Gold.Chemscore.Hbonds>
donor molecule, donor type, donor heavy atom, donor atom, acceptor molecule, acceptor atom, score
      L1  H     7    37       P1  8028  0.30
      P1  H  7997  8008       L1     1  0.34

> <Gold.Chemscore.Hbond.Weighted>
-5.6650

> <Gold.Chemscore.Metal.Weighted>
-0.0000

> <Gold.Chemscore.Lipo.Weighted>
-12.5221

> <Gold.Chemscore.Internal_Hbond.Weighted>
0.0000

> <Gold.Chemscore.DEClash.Weighted>
0.9704

> <Gold.Chemscore.DEInternal.Weighted>
2.3471

> <Gold.Chemscore.Rot.Weighted>
3.0996

> <Gold.Chemscore.Internal.Correction.Weighted>
   9.000000E+99

> <Gold.Protein.RotatedTorsions>
[ 6907 6896 6895 6894 ] final  -51.75 input  -60.11 | X-H torsion
[ 7974 7965 7964 7962 ] final   49.30 input  175.53 | X-H torsion
[ 8008 7997 7996 7995 ] final -118.49 input   59.86 | X-H torsion
[ 10167 10162 10161 10158 ] final   63.29 input  -65.29 | X-H torsion
[ 10718 10713 10712 10709 ] final  -61.12 input   66.30 | X-H torsion
[ 10763 10752 10751 10750 ] final  120.33 input  -60.55 | X-H torsion
[ 11005 11000 10999 10996 ] final -175.89 input  -57.11 | X-H torsion

> <Gold.Protein.ActiveResidues>
 VAL166  LYS551  ARG553  GLY616  TRP617  ASP618  TYR619  PRO620  LYS621  CYS622 
 ASP623  PHE694  ASN695  SER759  ASP760  ASP761  ALA762  ILE779  LEU786  VAL792 
 PHE793  MET794  SER795  GLU796  ALA797  LYS798  CYS799  TRP800  GLU811  SER814 

> <Gold.Protein.RotatedAtoms>
  150.8582  134.7927  159.7061 H   0  0  0  0  0  0  0  0  0  0  0  0  # atno 6907 bound_to 6896
  152.4627  134.5143  159.9773 H   0  0  0  0  0  0  0  0  0  0  0  0  # atno 6908 bound_to 6896
  151.5252  133.3421  159.2944 H   0  0  0  0  0  0  0  0  0  0  0  0  # atno 6909 bound_to 6896
  146.0122  139.4555  142.9949 H   0  0  0  0  0  0  0  0  0  0  0  0  # atno 7974 bound_to 7965
  155.1005  140.0396  157.2695 H   0  0  0  0  0  0  0  0  0  0  0  0  # atno 8008 bound_to 7997
  154.6761  140.2623  155.6931 H   0  0  0  0  0  0  0  0  0  0  0  0  # atno 8009 bound_to 7997
  156.2677  140.2788  156.1289 H   0  0  0  0  0  0  0  0  0  0  0  0  # atno 8010 bound_to 7997
  140.1347  144.4610  150.6845 H   0  0  0  0  0  0  0  0  0  0  0  0  # atno 10167 bound_to 10162
  156.0943  130.4195  150.0950 H   0  0  0  0  0  0  0  0  0  0  0  0  # atno 10718 bound_to 10713
  153.5969  135.3455  155.2931 H   0  0  0  0  0  0  0  0  0  0  0  0  # atno 10763 bound_to 10752
  154.8643  135.4218  154.2455 H   0  0  0  0  0  0  0  0  0  0  0  0  # atno 10764 bound_to 10752
  153.3275  135.7042  153.7048 H   0  0  0  0  0  0  0  0  0  0  0  0  # atno 10765 bound_to 10752
  140.4583  134.6279  157.4831 H   0  0  0  0  0  0  0  0  0  0  0  0  # atno 11005 bound_to 11000
  145.7325  141.0037  143.1344 LP  0  0  0  0  0  0  0  0  0  0  0  0  # atno 17320 bound_to 7965
  144.6957  139.9001  143.7458 LP  0  0  0  0  0  0  0  0  0  0  0  0  # atno 17321 bound_to 7965
  140.6796  143.2320  151.5418 LP  0  0  0  0  0  0  0  0  0  0  0  0  # atno 17342 bound_to 10162
  139.5502  144.2416  152.1516 LP  0  0  0  0  0  0  0  0  0  0  0  0  # atno 17343 bound_to 10162
  156.8952  130.9602  151.3583 LP  0  0  0  0  0  0  0  0  0  0  0  0  # atno 17370 bound_to 10713
  157.6100  130.8576  149.8937 LP  0  0  0  0  0  0  0  0  0  0  0  0  # atno 17371 bound_to 10713
  139.9962  134.6908  155.9606 LP  0  0  0  0  0  0  0  0  0  0  0  0  # atno 17394 bound_to 11000
  141.1633  133.6538  156.4393 LP  0  0  0  0  0  0  0  0  0  0  0  0  # atno 17395 bound_to 11000

$$$$
