#       Name:                AV-unprocessed.smi:2712
#       Creating user name   scv26
#       Creation time:       Fri Mar 27 14:51:34 2020


#       File generated by GOLD software.
#

@<TRIPOS>MOLECULE
AV-unprocessed.smi:2712
    57    58     1
SMALL
NO_CHARGES


@<TRIPOS>ATOM
      1 ****        -3.3362   4.0703   3.3787 C.3            1 S1                 0.0000
      2 ****        -3.5539   2.7881   2.6311 C.2            1 S1                 0.0000
      3 ****        -4.1892   2.7333   1.3284 C.2            1 S1                 0.0000
      4 ****        -4.3493   1.5388   0.7198 C.2            1 S1                 0.0000
      5 ****        -3.8954   0.2950   1.3378 C.2            1 S1                 0.0000
      6 ****        -4.0135  -0.8068   0.8026 O.2            1 S1                 0.0000
      7 ****        -3.3129   0.4698   2.5616 N.am           1 S1                 0.0000
      8 ****        -2.7718  -0.6703   3.3204 C.3            1 S1                 0.0000
      9 ****        -1.3462  -1.0924   2.9223 C.2            1 S1                 0.0000
     10 ****        -0.8518  -2.0946   3.4372 O.2            1 S1                 0.0000
     11 ****        -0.6976  -0.3427   2.0149 N.am           1 S1                 0.0000
     12 ****         0.6378  -0.5939   1.4821 C.3            1 S1                 0.0000
     13 ****         1.2628   0.7374   1.0251 C.3            1 S1                 0.0000
     14 ****         0.8648   1.1810  -0.3906 C.3            1 S1                 0.0000
     15 ****         1.8014   0.6315  -1.4828 C.3            1 S1                 0.0000
     16 ****         1.6586  -0.8798  -1.8175 C.3            1 S1                 0.0000
     17 ****         2.6004  -1.3492  -2.9880 C.3            1 S1                 0.0000
     18 ****         4.0785  -1.4143  -2.5453 C.3            1 S1                 0.0000
     19 ****         2.5018  -0.3984  -4.2035 C.3            1 S1                 0.0000
     20 ****         2.1759  -2.7464  -3.5006 C.3            1 S1                 0.0000
     21 ****         1.7807  -1.7659  -0.5438 C.3            1 S1                 0.0000
     22 ****         0.5607  -1.6813   0.3895 C.3            1 S1                 0.0000
     23 ****        -3.1514   1.6940   3.1895 N.2            1 S1                 0.0000
     24 ****        -3.6484   4.9307   2.7863 H              1 S1                 0.0000
     25 ****        -2.2828   4.2018   3.6280 H              1 S1                 0.0000
     26 ****        -3.9074   4.0789   4.3073 H              1 S1                 0.0000
     27 ****        -4.5293   3.6436   0.8573 H              1 S1                 0.0000
     28 ****        -4.8237   1.4994  -0.2500 H              1 S1                 0.0000
     29 ****        -2.7654  -0.4343   4.3860 H              1 S1                 0.0000
     30 ****        -3.4307  -1.5350   3.2222 H              1 S1                 0.0000
     31 ****        -1.1818   0.4643   1.6490 H              1 S1                 0.0000
     32 ****         1.2624  -0.9664   2.2962 H              1 S1                 0.0000
     33 ****         0.9892   1.5187   1.7359 H              1 S1                 0.0000
     34 ****         2.3496   0.6718   1.0893 H              1 S1                 0.0000
     35 ****        -0.1770   0.9386  -0.6048 H              1 S1                 0.0000
     36 ****         0.9253   2.2692  -0.4260 H              1 S1                 0.0000
     37 ****         1.5848   1.2181  -2.3741 H              1 S1                 0.0000
     38 ****         2.8327   0.8646  -1.2185 H              1 S1                 0.0000
     39 ****         0.6419  -1.0046  -2.1929 H              1 S1                 0.0000
     40 ****         4.7215  -1.7220  -3.3707 H              1 S1                 0.0000
     41 ****         4.2320  -2.1332  -1.7404 H              1 S1                 0.0000
     42 ****         4.4436  -0.4477  -2.1991 H              1 S1                 0.0000
     43 ****         2.9441   0.5768  -4.0005 H              1 S1                 0.0000
     44 ****         1.4653  -0.2427  -4.5054 H              1 S1                 0.0000
     45 ****         3.0352  -0.7983  -5.0665 H              1 S1                 0.0000
     46 ****         2.7357  -3.0275  -4.3935 H              1 S1                 0.0000
     47 ****         1.1182  -2.7695  -3.7649 H              1 S1                 0.0000
     48 ****         2.3538  -3.5377  -2.7743 H              1 S1                 0.0000
     49 ****         1.8636  -2.8116  -0.8284 H              1 S1                 0.0000
     50 ****         2.6979  -1.5461   0.0034 H              1 S1                 0.0000
     51 ****         0.4391  -2.6438   0.8883 H              1 S1                 0.0000
     52 ****        -0.3442  -1.5585  -0.2075 H              1 S1                 0.0000
     53 ****        -4.4377  -0.8814  -0.0999 LP             1 S1                 0.0000
     54 ****        -3.6853  -1.6276   1.2702 LP             1 S1                 0.0000
     55 ****        -1.3753  -2.6235   4.1052 LP             1 S1                 0.0000
     56 ****         0.0735  -2.3802   3.1877 LP             1 S1                 0.0000
     57 ****        -2.7165   1.7319   4.0892 LP             1 S1                 0.0000
@<TRIPOS>BOND
    1    1    2 1     
    2    1   24 1     
    3    1   25 1     
    4    1   26 1     
    5    2   23 2     
    6    2    3 1     
    7    3    4 2     
    8    3   27 1     
    9    4    5 1     
   10    4   28 1     
   11    5    6 2     
   12    5    7 am    
   13    7    8 1     
   14    7   23 1     
   15    8    9 1     
   16    8   29 1     
   17    8   30 1     
   18    9   10 2     
   19    9   11 am    
   20   11   12 1     
   21   11   31 1     
   22   12   22 1     
   23   12   13 1     
   24   12   32 1     
   25   13   14 1     
   26   13   33 1     
   27   13   34 1     
   28   14   15 1     
   29   14   35 1     
   30   14   36 1     
   31   15   16 1     
   32   15   37 1     
   33   15   38 1     
   34   16   17 1     
   35   16   21 1     
   36   16   39 1     
   37   17   18 1     
   38   17   19 1     
   39   17   20 1     
   40   18   40 1     
   41   18   41 1     
   42   18   42 1     
   43   19   43 1     
   44   19   44 1     
   45   19   45 1     
   46   20   46 1     
   47   20   47 1     
   48   20   48 1     
   49   21   22 1     
   50   21   49 1     
   51   21   50 1     
   52   22   51 1     
   53   22   52 1     
   54    6   53 1     
   55    6   54 1     
   56   10   55 1     
   57   10   56 1     
   58   23   57 1     
@<TRIPOS>SUBSTRUCTURE
      1 S1             1
@<TRIPOS>SET
LONE_PAIRS      STATIC     ATOMS    <user>   **** ""
5 53 54 55 56 57
DONOR_HYDROGENS      STATIC     ATOMS    <user>   **** ""
1 31
ATOM$BLUE        STATIC     ATOMS    COLORGROUP SYSTEM
5 53 54 55 56 57
ATOM$RED        STATIC     ATOMS    COLORGROUP SYSTEM
1 31
