AV-unprocessed.smi:1637|AV-procd|sdf|6544|dock1
  -GOLD-   22720 7223D 1   1.00000     0.00000
 Structure written by MMmdl.
 38 39  0  0  0  0  0  0  0  0  1 V2000
  154.3482  141.1038  161.6429 C   0  0  0  0  0  0  0  0  0  0  0  0
  153.9176  142.3853  161.1974 O   0  0  0  0  0  0  0  0  0  0  0  0
  153.0358  142.4481  160.1379 C   0  0  0  0  0  0  0  0  0  0  0  0
  152.6993  143.7126  159.6149 C   0  0  0  0  0  0  0  0  0  0  0  0
  151.7971  143.7863  158.5363 C   0  0  0  0  0  0  0  0  0  0  0  0
  151.2524  142.5874  158.0177 C   0  0  0  0  0  0  0  0  0  0  0  0
  150.3480  142.5278  156.9237 N   0  0  0  0  0  0  0  0  0  0  0  0
  149.7722  141.4448  156.3747 C   0  0  0  0  0  0  0  0  0  0  0  0
  149.9488  140.2825  156.7392 O   0  0  0  0  0  0  0  0  0  0  0  0
  148.9821  141.7868  155.3470 N   0  0  0  0  0  0  0  0  0  0  0  0
  148.1995  140.8625  154.5264 C   0  0  2  0  0  0  0  0  0  0  0  0
  147.0219  140.2684  155.3418 C   0  0  0  0  0  0  0  0  0  0  0  0
  146.4866  138.9018  154.8649 C   0  0  0  0  0  0  0  0  0  0  0  0
  146.0859  138.8275  153.3776 C   0  0  0  0  0  0  0  0  0  0  0  0
  147.1646  139.2343  152.3456 C   0  0  0  0  0  0  0  0  0  0  0  0
  148.5398  139.1020  152.8254 N   0  0  0  0  0  0  0  0  0  0  0  0
  149.0931  139.8324  153.8091 C   0  0  0  0  0  0  0  0  0  0  0  0
  150.2662  139.6738  154.1446 O   0  0  0  0  0  0  0  0  0  0  0  0
  151.6671  141.3722  158.6007 C   0  0  0  0  0  0  0  0  0  0  0  0
  152.5294  141.2947  159.6360 N   0  0  0  0  0  0  0  0  0  0  0  0
  155.0408  141.2250  162.4755 H   0  0  0  0  0  0  0  0  0  0  0  0
  154.8714  140.5616  160.8541 H   0  0  0  0  0  0  0  0  0  0  0  0
  153.5092  140.5022  161.9956 H   0  0  0  0  0  0  0  0  0  0  0  0
  153.1284  144.6117  160.0319 H   0  0  0  0  0  0  0  0  0  0  0  0
  151.5542  144.7532  158.1236 H   0  0  0  0  0  0  0  0  0  0  0  0
  150.1680  143.4077  156.4625 H   0  0  0  0  0  0  0  0  0  0  0  0
  148.8964  142.7668  155.1194 H   0  0  0  0  0  0  0  0  0  0  0  0
  147.7685  141.4660  153.7265 H   0  0  0  0  0  0  0  0  0  0  0  0
  147.3252  140.1541  156.3834 H   0  0  0  0  0  0  0  0  0  0  0  0
  146.2036  140.9892  155.3532 H   0  0  0  0  0  0  0  0  0  0  0  0
  147.2265  138.1289  155.0776 H   0  0  0  0  0  0  0  0  0  0  0  0
  145.6208  138.6371  155.4726 H   0  0  0  0  0  0  0  0  0  0  0  0
  145.7846  137.8002  153.1703 H   0  0  0  0  0  0  0  0  0  0  0  0
  145.1931  139.4307  153.2098 H   0  0  0  0  0  0  0  0  0  0  0  0
  147.0550  138.6264  151.4474 H   0  0  0  0  0  0  0  0  0  0  0  0
  146.9988  140.2610  152.0174 H   0  0  0  0  0  0  0  0  0  0  0  0
  149.1202  138.4163  152.3642 H   0  0  0  0  0  0  0  0  0  0  0  0
  151.2908  140.4300  158.2297 H   0  0  0  0  0  0  0  0  0  0  0  0
  1  2  1  0  0  0  0
  1 21  1  0  0  0  0
  1 22  1  0  0  0  0
  1 23  1  0  0  0  0
  2  3  1  0  0  0  0
  3 20  1  0  0  0  0
  3  4  2  0  0  0  0
  4  5  1  0  0  0  0
  4 24  1  0  0  0  0
  5  6  2  0  0  0  0
  5 25  1  0  0  0  0
  6  7  1  0  0  0  0
  6 19  1  0  0  0  0
  7  8  1  0  0  0  0
  7 26  1  0  0  0  0
  8  9  2  0  0  0  0
  8 10  1  0  0  0  0
 10 11  1  0  0  0  0
 10 27  1  0  0  0  0
 11 17  1  0  0  0  0
 11 12  1  0  0  0  0
 11 28  1  0  0  0  0
 12 13  1  0  0  0  0
 12 29  1  0  0  0  0
 12 30  1  0  0  0  0
 13 14  1  0  0  0  0
 13 31  1  0  0  0  0
 13 32  1  0  0  0  0
 14 15  1  0  0  0  0
 14 33  1  0  0  0  0
 14 34  1  0  0  0  0
 15 16  1  0  0  0  0
 15 35  1  0  0  0  0
 15 36  1  0  0  0  0
 16 17  1  0  0  0  0
 16 37  1  0  0  0  0
 17 18  2  0  0  0  0
 19 20  2  0  0  0  0
 19 38  1  0  0  0  0
M  END
> <s_m_source_file>
AV-unprocessed.smi

> <i_m_source_file_index>
1637

> <i_lp_mmshare_version>
43012

> <i_f3d_flags>
0

> <s_epik_input>
W0NIM11PYzFbY0hdW2NIXWMoW2NIXW4xKVtOSF1DKD1PKVtOSF1bQ0BASF0yW0NIMl1bQ0gyXVtDSDJdW0NIMl1bTkhdQzI9Tw==

> <s_epik_cmdline>
J2VwaWtfcHl0aG9uJywgJy1waCcsICc3LjAnLCAnLXRuJywgJzgnLCAnLW1hJywgJzIwMCcsICctbWV0YWxfYmluZGluZycsICctaW1hZScsICc8aW5maWxlLm1hZT4nLCAnLW9tYWUnLCAnPG91dGZpbGUubWFlPic=

> <r_lp_tautomer_probability>
1

> <r_epik_Ionization_Penalty>
8.30847e-05

> <r_epik_Ionization_Penalty_Charging>
0

> <r_epik_Ionization_Penalty_Neutral>
8.30847e-05

> <r_epik_State_Penalty>
-0

> <r_epik_Charging_Adjusted_Penalty>
0

> <i_epik_Tot_Q>
0

> <i_epik_Tot_abs_Q>
0

> <r_epik_Metal_State_Penalty>
-0

> <b_epik_Metal_Only>
0

> <s_lp_Force_Field>
OPLS_2005

> <r_lp_Energy>
17.0101

> <b_lp_Chiralities_Consistent>
1

> <s_lp_Variant>
AV-unprocessed.smi:1637-1

> <Gold.Version>
5.8.1

> <Gold.Id.Protein>
6NUR|6NUR_protein|mol2

> <Gold.PLP.Fitness>
41.2902

> <Gold.PLP.PLP>
-30.7272

> <Gold.PLP.part.hbond>
-4.8260

> <Gold.PLP.part.metal>
0.0000

> <Gold.PLP.part.buried>
4.1357

> <Gold.PLP.part.nonpolar>
-29.3769

> <Gold.PLP.part.repulsive>
0.4472

> <Gold.PLP.ligand.clash>
0.0000

> <Gold.PLP.ligand.torsion>
0.0782

> <Gold.PLP.Chemscore.Hbond>
3.5529

> <Gold.PLP.Chemscore.CHOScore>
0.0000

> <Gold.PLP.Chemscore.Metal>
0.0000

> <Gold.Chemscore.Hbonds>
donor molecule, donor type, donor heavy atom, donor atom, acceptor molecule, acceptor atom, score
      L1  H     7    26       P1  8028  1.00
      L1  H    10    27       P1  8028  1.00
      L1  H    16    37       P1  7948  0.43
      P1  H  7989  7998       L1    18  1.00

> <Gold.PLP.Chemscore.Internal.Correction>
0.0605

> <Gold.Rescore>
     Score         DG    S(hbond)    S(metal)    S(lipo)     H(rot)  DE(clash)    DE(int)     intcor
     13.76     -20.81       3.10        0.00      71.27       1.31       2.89       4.16       ----

> <Gold.Chemscore.Fitness>
13.7557

> <Gold.Chemscore.DG>
-20.8121

> <Gold.Chemscore.ZeroCoef>
-5.4800

> <Gold.Chemscore.Hbond>
3.0971

> <Gold.Chemscore.Metal>
0.0000

> <Gold.Chemscore.Lipo>
71.2704

> <Gold.Chemscore.Internal_Hbond>
0.0000

> <Gold.Chemscore.DEClash>
2.8914

> <Gold.Chemscore.DEInternal>
4.1649

> <Gold.Chemscore.Rot>
1.3090

> <Gold.Chemscore.Internal.Correction>
   9.000000E+99

> <Gold.Chemscore.Hbonds>
donor molecule, donor type, donor heavy atom, donor atom, acceptor molecule, acceptor atom, score
      L1  H     7    26       P1  8028  0.92
      L1  H    10    27       P1  8028  0.91
      L1  H    16    37       P1  7948  0.39
      P1  H  7989  7998       L1    18  0.96

> <Gold.Chemscore.Hbond.Weighted>
-10.3444

> <Gold.Chemscore.Metal.Weighted>
-0.0000

> <Gold.Chemscore.Lipo.Weighted>
-8.3386

> <Gold.Chemscore.Internal_Hbond.Weighted>
0.0000

> <Gold.Chemscore.DEClash.Weighted>
2.8914

> <Gold.Chemscore.DEInternal.Weighted>
4.1649

> <Gold.Chemscore.Rot.Weighted>
3.3509

> <Gold.Chemscore.Internal.Correction.Weighted>
   9.000000E+99

> <Gold.Protein.RotatedTorsions>
[ 6907 6896 6895 6894 ] final -170.03 input  -60.11 | X-H torsion
[ 7974 7965 7964 7962 ] final  -36.24 input  175.53 | X-H torsion
[ 8008 7997 7996 7995 ] final  160.82 input   59.86 | X-H torsion
[ 10167 10162 10161 10158 ] final  -60.07 input  -65.29 | X-H torsion
[ 10718 10713 10712 10709 ] final -143.11 input   66.30 | X-H torsion
[ 10763 10752 10751 10750 ] final  127.83 input  -60.55 | X-H torsion
[ 11005 11000 10999 10996 ] final   12.17 input  -57.11 | X-H torsion

> <Gold.Protein.ActiveResidues>
 VAL166  LYS551  ARG553  GLY616  TRP617  ASP618  TYR619  PRO620  LYS621  CYS622 
 ASP623  PHE694  ASN695  SER759  ASP760  ASP761  ALA762  ILE779  LEU786  VAL792 
 PHE793  MET794  SER795  GLU796  ALA797  LYS798  CYS799  TRP800  GLU811  SER814 

> <Gold.Protein.RotatedAtoms>
  151.5012  133.3504  159.2869 H   0  0  0  0  0  0  0  0  0  0  0  0  # atno 6907 bound_to 6896
  150.8772  134.8159  159.7209 H   0  0  0  0  0  0  0  0  0  0  0  0  # atno 6908 bound_to 6896
  152.4738  134.4905  159.9745 H   0  0  0  0  0  0  0  0  0  0  0  0  # atno 6909 bound_to 6896
  146.0678  140.6255  142.8966 H   0  0  0  0  0  0  0  0  0  0  0  0  # atno 7974 bound_to 7965
  156.2146  140.1794  156.7619 H   0  0  0  0  0  0  0  0  0  0  0  0  # atno 8008 bound_to 7997
  154.5772  140.0672  156.9081 H   0  0  0  0  0  0  0  0  0  0  0  0  # atno 8009 bound_to 7997
  155.2567  140.3333  155.4279 H   0  0  0  0  0  0  0  0  0  0  0  0  # atno 8010 bound_to 7997
  140.6095  143.2383  151.5743 H   0  0  0  0  0  0  0  0  0  0  0  0  # atno 10167 bound_to 10162
  156.3540  130.7703  151.1861 H   0  0  0  0  0  0  0  0  0  0  0  0  # atno 10718 bound_to 10713
  153.7158  135.3261  155.3256 H   0  0  0  0  0  0  0  0  0  0  0  0  # atno 10763 bound_to 10752
  154.8371  135.4487  154.1268 H   0  0  0  0  0  0  0  0  0  0  0  0  # atno 10764 bound_to 10752
  153.2374  135.6967  153.7901 H   0  0  0  0  0  0  0  0  0  0  0  0  # atno 10765 bound_to 10752
  140.4950  134.0802  155.7780 H   0  0  0  0  0  0  0  0  0  0  0  0  # atno 11005 bound_to 11000
  144.7213  140.4382  143.7006 LP  0  0  0  0  0  0  0  0  0  0  0  0  # atno 17320 bound_to 7965
  145.6445  139.1555  143.2897 LP  0  0  0  0  0  0  0  0  0  0  0  0  # atno 17321 bound_to 7965
  139.5350  144.2806  152.1232 LP  0  0  0  0  0  0  0  0  0  0  0  0  # atno 17342 bound_to 10162
  140.2003  144.4665  150.6435 LP  0  0  0  0  0  0  0  0  0  0  0  0  # atno 17343 bound_to 10162
  157.7465  131.0419  150.4669 LP  0  0  0  0  0  0  0  0  0  0  0  0  # atno 17370 bound_to 10713
  156.4869  130.4086  149.6429 LP  0  0  0  0  0  0  0  0  0  0  0  0  # atno 17371 bound_to 10713
  141.1465  133.9046  157.2204 LP  0  0  0  0  0  0  0  0  0  0  0  0  # atno 17394 bound_to 11000
  139.9747  135.0117  156.9600 LP  0  0  0  0  0  0  0  0  0  0  0  0  # atno 17395 bound_to 11000

$$$$
