#       Name:                AV-unprocessed.smi:1595
#       Creating user name   scv26
#       Creation time:       Fri Mar 27 07:05:07 2020


#       File generated by GOLD software.
#

@<TRIPOS>MOLECULE
AV-unprocessed.smi:1595
    33    34     1
SMALL
NO_CHARGES


@<TRIPOS>ATOM
      1 ****        -1.5315   0.2439   0.0513 O.2            1 S1                 0.0000
      2 ****        -0.8466  -0.7793   0.0082 C.2            1 S1                 0.0000
      3 ****         0.6859  -0.7044   0.0719 C.3            1 S1                 0.0000
      4 ****         1.2215   0.6264  -0.2616 N.am           1 S1                 0.0000
      5 ****         1.5294   1.4823   0.8143 C.2            1 S1                 0.0000
      6 ****         2.0137   2.7278   0.6446 C.2            1 S1                 0.0000
      7 ****         2.3861   3.6147   1.8226 C.3            1 S1                 0.0000
      8 ****         3.4409   4.3757   1.5302 F              1 S1                 0.0000
      9 ****         1.3672   4.4183   2.1242 F              1 S1                 0.0000
     10 ****         2.6791   2.8903   2.9034 F              1 S1                 0.0000
     11 ****         2.2426   3.1500  -0.7230 C.2            1 S1                 0.0000
     12 ****         1.9566   2.3428  -1.7632 C.2            1 S1                 0.0000
     13 ****         1.4057   1.0005  -1.5632 C.2            1 S1                 0.0000
     14 ****         1.1296   0.2582  -2.5061 O.2            1 S1                 0.0000
     15 ****        -1.3673  -2.0121  -0.0758 N.am           1 S1                 0.0000
     16 ****        -2.7588  -2.3230  -0.1380 C.3            1 S1                 0.0000
     17 ****        -3.2266  -3.5902   0.5449 C.3            1 S1                 0.0000
     18 ****        -3.1734  -3.5267  -0.9566 C.3            1 S1                 0.0000
     19 ****         0.9982  -1.0015   1.0741 H              1 S1                 0.0000
     20 ****         1.1120  -1.4581  -0.5929 H              1 S1                 0.0000
     21 ****         1.3407   1.0604   1.7909 H              1 S1                 0.0000
     22 ****         2.6450   4.1334  -0.9166 H              1 S1                 0.0000
     23 ****         2.1366   2.6923  -2.7694 H              1 S1                 0.0000
     24 ****        -0.7276  -2.7930  -0.1009 H              1 S1                 0.0000
     25 ****        -3.4592  -1.4890  -0.1287 H              1 S1                 0.0000
     26 ****        -2.4815  -4.2036   1.0480 H              1 S1                 0.0000
     27 ****        -4.2083  -3.5733   1.0141 H              1 S1                 0.0000
     28 ****        -4.1194  -3.4678  -1.4907 H              1 S1                 0.0000
     29 ****        -2.3920  -4.0962  -1.4562 H              1 S1                 0.0000
     30 ****        -1.0903   1.1380   0.1287 LP             1 S1                 0.0000
     31 ****        -2.5285   0.1804   0.0089 LP             1 S1                 0.0000
     32 ****         0.7569  -0.6533  -2.3323 LP             1 S1                 0.0000
     33 ****         1.2782   0.5669  -3.4456 LP             1 S1                 0.0000
@<TRIPOS>BOND
    1    1    2 2     
    2    2    3 1     
    3    2   15 am    
    4    3    4 1     
    5    3   19 1     
    6    3   20 1     
    7    4   13 am    
    8    4    5 1     
    9    5    6 2     
   10    5   21 1     
   11    6    7 1     
   12    6   11 1     
   13    7    8 1     
   14    7    9 1     
   15    7   10 1     
   16   11   12 2     
   17   11   22 1     
   18   12   13 1     
   19   12   23 1     
   20   13   14 2     
   21   15   16 1     
   22   15   24 1     
   23   16   18 1     
   24   16   17 1     
   25   16   25 1     
   26   17   18 1     
   27   17   26 1     
   28   17   27 1     
   29   18   28 1     
   30   18   29 1     
   31    1   30 1     
   32    1   31 1     
   33   14   32 1     
   34   14   33 1     
@<TRIPOS>SUBSTRUCTURE
      1 S1             1
@<TRIPOS>SET
LONE_PAIRS      STATIC     ATOMS    <user>   **** ""
4 30 31 32 33
DONOR_HYDROGENS      STATIC     ATOMS    <user>   **** ""
1 24
ATOM$BLUE        STATIC     ATOMS    COLORGROUP SYSTEM
4 30 31 32 33
ATOM$RED        STATIC     ATOMS    COLORGROUP SYSTEM
1 24
