AV-unprocessed.smi:728|AV-procd|sdf|3518|dock3
  -GOLD-   22720 0513D 1   1.00000     0.00000
 Structure written by MMmdl.
 39 40  0  0  0  0  0  0  0  0  1 V2000
  160.5197  142.2684  159.6052 C   0  0  0  0  0  0  0  0  0  0  0  0
  159.6009  141.4716  158.6663 C   0  0  0  0  0  0  0  0  0  0  0  0
  159.1768  142.2903  157.4386 C   0  0  0  0  0  0  0  0  0  0  0  0
  158.4132  140.9113  159.3837 C   0  0  0  0  0  0  0  0  0  0  0  0
  157.4291  140.1814  158.8619 N   0  0  0  0  0  0  0  0  0  0  0  0
  156.7240  139.8503  159.9796 C   0  0  0  0  0  0  0  0  0  0  0  0
  155.4832  139.0161  159.9378 C   0  0  0  0  0  0  0  0  0  0  0  0
  154.2566  139.8942  159.6849 C   0  0  0  0  0  0  0  0  0  0  0  0
  153.5056  139.6474  158.7414 O   0  0  0  0  0  0  0  0  0  0  0  0
  154.0704  140.9187  160.5327 N   0  0  0  0  0  0  0  0  0  0  0  0
  152.9991  141.9055  160.4462 C   0  0  0  0  0  0  0  0  0  0  0  0
  153.0288  142.6114  159.0745 C   0  0  0  0  0  0  0  0  0  0  0  0
  151.9660  143.7186  158.9868 C   0  0  0  0  0  0  0  0  0  0  0  0
  152.1174  144.7310  160.1331 C   0  0  0  0  0  0  0  0  0  0  0  0
  152.0792  144.0300  161.5002 C   0  0  0  0  0  0  0  0  0  0  0  0
  153.1459  142.9267  161.5903 C   0  0  0  0  0  0  0  0  0  0  0  0
  157.2115  140.3073  161.1269 N   0  0  0  0  0  0  0  0  0  0  0  0
  158.3664  140.9992  160.7353 O   0  0  0  0  0  0  0  0  0  0  0  0
  160.8558  141.6532  160.4405 H   0  0  0  0  0  0  0  0  0  0  0  0
  160.0090  143.1397  160.0170 H   0  0  0  0  0  0  0  0  0  0  0  0
  161.4065  142.6222  159.0790 H   0  0  0  0  0  0  0  0  0  0  0  0
  160.1804  140.6218  158.3024 H   0  0  0  0  0  0  0  0  0  0  0  0
  158.5864  141.6854  156.7493 H   0  0  0  0  0  0  0  0  0  0  0  0
  160.0451  142.6603  156.8928 H   0  0  0  0  0  0  0  0  0  0  0  0
  158.5723  143.1513  157.7266 H   0  0  0  0  0  0  0  0  0  0  0  0
  155.5680  138.2626  159.1530 H   0  0  0  0  0  0  0  0  0  0  0  0
  155.3684  138.4806  160.8811 H   0  0  0  0  0  0  0  0  0  0  0  0
  154.7416  141.0421  161.2769 H   0  0  0  0  0  0  0  0  0  0  0  0
  152.0376  141.4017  160.5639 H   0  0  0  0  0  0  0  0  0  0  0  0
  154.0159  143.0439  158.9032 H   0  0  0  0  0  0  0  0  0  0  0  0
  152.8670  141.8876  158.2746 H   0  0  0  0  0  0  0  0  0  0  0  0
  152.0406  144.2300  158.0266 H   0  0  0  0  0  0  0  0  0  0  0  0
  150.9715  143.2723  159.0227 H   0  0  0  0  0  0  0  0  0  0  0  0
  153.0599  145.2690  160.0243 H   0  0  0  0  0  0  0  0  0  0  0  0
  151.3257  145.4785  160.0760 H   0  0  0  0  0  0  0  0  0  0  0  0
  152.2305  144.7596  162.2964 H   0  0  0  0  0  0  0  0  0  0  0  0
  151.0912  143.5969  161.6613 H   0  0  0  0  0  0  0  0  0  0  0  0
  153.0710  142.4219  162.5541 H   0  0  0  0  0  0  0  0  0  0  0  0
  154.1373  143.3811  161.5560 H   0  0  0  0  0  0  0  0  0  0  0  0
  1  2  1  0  0  0  0
  1 19  1  0  0  0  0
  1 20  1  0  0  0  0
  1 21  1  0  0  0  0
  2  3  1  0  0  0  0
  2  4  1  0  0  0  0
  2 22  1  0  0  0  0
  3 23  1  0  0  0  0
  3 24  1  0  0  0  0
  3 25  1  0  0  0  0
  4 18  1  0  0  0  0
  4  5  2  0  0  0  0
  5  6  1  0  0  0  0
  6  7  1  0  0  0  0
  6 17  2  0  0  0  0
  7  8  1  0  0  0  0
  7 26  1  0  0  0  0
  7 27  1  0  0  0  0
  8  9  2  0  0  0  0
  8 10  1  0  0  0  0
 10 11  1  0  0  0  0
 10 28  1  0  0  0  0
 11 16  1  0  0  0  0
 11 12  1  0  0  0  0
 11 29  1  0  0  0  0
 12 13  1  0  0  0  0
 12 30  1  0  0  0  0
 12 31  1  0  0  0  0
 13 14  1  0  0  0  0
 13 32  1  0  0  0  0
 13 33  1  0  0  0  0
 14 15  1  0  0  0  0
 14 34  1  0  0  0  0
 14 35  1  0  0  0  0
 15 16  1  0  0  0  0
 15 36  1  0  0  0  0
 15 37  1  0  0  0  0
 16 38  1  0  0  0  0
 16 39  1  0  0  0  0
 17 18  1  0  0  0  0
M  END
> <s_m_source_file>
AV-unprocessed.smi

> <i_m_source_file_index>
728

> <i_lp_mmshare_version>
43012

> <i_f3d_flags>
0

> <s_epik_input>
W0NIM11bQ0hdKFtDSDNdKWMxbmMobm8xKVtDSDJdQyg9TylbTkhdW0NIXTJbQ0gyXVtDSDJdW0NIMl1bQ0gyXVtDSDJdMg==

> <s_epik_cmdline>
J2VwaWtfcHl0aG9uJywgJy1waCcsICc3LjAnLCAnLXRuJywgJzgnLCAnLW1hJywgJzIwMCcsICctbWV0YWxfYmluZGluZycsICctaW1hZScsICc8aW5maWxlLm1hZT4nLCAnLW9tYWUnLCAnPG91dGZpbGUubWFlPic=

> <r_lp_tautomer_probability>
1

> <r_epik_Ionization_Penalty>
6.23623e-08

> <r_epik_Ionization_Penalty_Charging>
0

> <r_epik_Ionization_Penalty_Neutral>
6.23623e-08

> <r_epik_State_Penalty>
-0

> <r_epik_Charging_Adjusted_Penalty>
0

> <i_epik_Tot_Q>
0

> <i_epik_Tot_abs_Q>
0

> <r_epik_Metal_State_Penalty>
-0

> <b_epik_Metal_Only>
0

> <s_lp_Force_Field>
OPLS_2005

> <r_lp_Energy>
7.21718

> <b_lp_Chiralities_Consistent>
1

> <s_lp_Variant>
AV-unprocessed.smi:728-1

> <Gold.Version>
5.8.1

> <Gold.Id.Protein>
6NUR|6NUR_protein|mol2

> <Gold.PLP.Fitness>
42.4746

> <Gold.PLP.PLP>
-40.4650

> <Gold.PLP.part.hbond>
-3.0000

> <Gold.PLP.part.metal>
0.0000

> <Gold.PLP.part.buried>
-2.9431

> <Gold.PLP.part.nonpolar>
-34.2020

> <Gold.PLP.part.repulsive>
0.1383

> <Gold.PLP.ligand.clash>
0.0000

> <Gold.PLP.ligand.torsion>
0.5423

> <Gold.PLP.Chemscore.Hbond>
0.9920

> <Gold.PLP.Chemscore.CHOScore>
0.0000

> <Gold.PLP.Chemscore.Metal>
0.0000

> <Gold.Chemscore.Hbonds>
donor molecule, donor type, donor heavy atom, donor atom, acceptor molecule, acceptor atom, score
      P1  H  7997  8009       L1     9  0.60

> <Gold.PLP.Chemscore.Internal.Correction>
0.1182

> <Gold.Rescore>
     Score         DG    S(hbond)    S(metal)    S(lipo)     H(rot)  DE(clash)    DE(int)     intcor
     13.63     -15.71       0.96        0.00      95.83       1.63       0.02       2.06       ----

> <Gold.Chemscore.Fitness>
13.6273

> <Gold.Chemscore.DG>
-15.7089

> <Gold.Chemscore.ZeroCoef>
-5.4800

> <Gold.Chemscore.Hbond>
0.9573

> <Gold.Chemscore.Metal>
0.0000

> <Gold.Chemscore.Lipo>
95.8257

> <Gold.Chemscore.Internal_Hbond>
0.0000

> <Gold.Chemscore.DEClash>
0.0177

> <Gold.Chemscore.DEInternal>
2.0639

> <Gold.Chemscore.Rot>
1.6329

> <Gold.Chemscore.Internal.Correction>
   9.000000E+99

> <Gold.Chemscore.Hbonds>
donor molecule, donor type, donor heavy atom, donor atom, acceptor molecule, acceptor atom, score
      P1  H  7997  8009       L1     9  0.06

> <Gold.Chemscore.Hbond.Weighted>
-3.1975

> <Gold.Chemscore.Metal.Weighted>
-0.0000

> <Gold.Chemscore.Lipo.Weighted>
-11.2116

> <Gold.Chemscore.Internal_Hbond.Weighted>
0.0000

> <Gold.Chemscore.DEClash.Weighted>
0.0177

> <Gold.Chemscore.DEInternal.Weighted>
2.0639

> <Gold.Chemscore.Rot.Weighted>
4.1802

> <Gold.Chemscore.Internal.Correction.Weighted>
   9.000000E+99

> <Gold.Protein.RotatedTorsions>
[ 6907 6896 6895 6894 ] final -179.07 input  -60.11 | X-H torsion
[ 7974 7965 7964 7962 ] final  115.30 input  175.53 | X-H torsion
[ 8008 7997 7996 7995 ] final  127.94 input   59.86 | X-H torsion
[ 10167 10162 10161 10158 ] final  148.49 input  -65.29 | X-H torsion
[ 10718 10713 10712 10709 ] final   95.00 input   66.30 | X-H torsion
[ 10763 10752 10751 10750 ] final  175.52 input  -60.55 | X-H torsion
[ 11005 11000 10999 10996 ] final  159.76 input  -57.11 | X-H torsion

> <Gold.Protein.ActiveResidues>
 VAL166  LYS551  ARG553  GLY616  TRP617  ASP618  TYR619  PRO620  LYS621  CYS622 
 ASP623  PHE694  ASN695  SER759  ASP760  ASP761  ALA762  ILE779  LEU786  VAL792 
 PHE793  MET794  SER795  GLU796  ALA797  LYS798  CYS799  TRP800  GLU811  SER814 

> <Gold.Protein.RotatedAtoms>
  151.6475  133.3322  159.3143 H   0  0  0  0  0  0  0  0  0  0  0  0  # atno 6907 bound_to 6896
  150.7977  134.7052  159.6582 H   0  0  0  0  0  0  0  0  0  0  0  0  # atno 6908 bound_to 6896
  152.4066  134.6201  160.0100 H   0  0  0  0  0  0  0  0  0  0  0  0  # atno 6909 bound_to 6896
  145.1937  139.2987  143.4355 H   0  0  0  0  0  0  0  0  0  0  0  0  # atno 7974 bound_to 7965
  156.2903  140.2657  156.2355 H   0  0  0  0  0  0  0  0  0  0  0  0  # atno 8008 bound_to 7997
  155.0030  140.0387  157.2386 H   0  0  0  0  0  0  0  0  0  0  0  0  # atno 8009 bound_to 7997
  154.7585  140.2756  155.6238 H   0  0  0  0  0  0  0  0  0  0  0  0  # atno 8010 bound_to 7997
  139.4874  144.5675  151.7117 H   0  0  0  0  0  0  0  0  0  0  0  0  # atno 10167 bound_to 10162
  157.6943  131.0531  150.4272 H   0  0  0  0  0  0  0  0  0  0  0  0  # atno 10718 bound_to 10713
  154.4687  135.2770  155.1659 H   0  0  0  0  0  0  0  0  0  0  0  0  # atno 10763 bound_to 10752
  154.3416  135.6169  153.5603 H   0  0  0  0  0  0  0  0  0  0  0  0  # atno 10764 bound_to 10752
  152.9862  135.5790  154.5064 H   0  0  0  0  0  0  0  0  0  0  0  0  # atno 10765 bound_to 10752
  140.1993  134.8350  157.3000 H   0  0  0  0  0  0  0  0  0  0  0  0  # atno 11005 bound_to 11000
  146.3431  140.2158  142.8590 LP  0  0  0  0  0  0  0  0  0  0  0  0  # atno 17320 bound_to 7965
  145.0016  140.8637  143.5278 LP  0  0  0  0  0  0  0  0  0  0  0  0  # atno 17321 bound_to 7965
  140.5256  144.0811  150.6036 LP  0  0  0  0  0  0  0  0  0  0  0  0  # atno 17342 bound_to 10162
  140.3784  143.2816  152.0199 LP  0  0  0  0  0  0  0  0  0  0  0  0  # atno 17343 bound_to 10162
  156.4641  130.4038  149.6558 LP  0  0  0  0  0  0  0  0  0  0  0  0  # atno 17370 bound_to 10713
  156.3662  130.7507  151.2485 LP  0  0  0  0  0  0  0  0  0  0  0  0  # atno 17371 bound_to 10713
  140.2072  134.4183  155.7631 LP  0  0  0  0  0  0  0  0  0  0  0  0  # atno 17394 bound_to 11000
  141.2227  133.7100  156.8279 LP  0  0  0  0  0  0  0  0  0  0  0  0  # atno 17395 bound_to 11000

$$$$
