AV-unprocessed.smi:1244|AV-procd|sdf|5234|dock4
  -GOLD-   22720 4333D 1   1.00000     0.00000
 Structure written by MMmdl.
 56 58  0  0  0  0  0  0  0  0  3 V2000
  156.1140  139.8900  166.6453 C   0  0  0  0  0  0  0  0  0  0  0  0
  155.4996  139.2477  165.3967 C   0  0  1  0  0  0  0  0  0  0  0  0
  155.8039  140.0564  164.1230 C   0  0  0  0  0  0  0  0  0  0  0  0
  155.2708  139.3630  162.9273 N   0  3  1  0  0  0  0  0  0  0  0  0
  155.4503  140.1576  161.6863 C   0  0  0  0  0  0  0  0  0  0  0  0
  154.8243  139.4755  160.4547 C   0  0  0  0  0  0  0  0  0  0  0  0
  153.7077  140.2478  159.9223 N   0  0  0  0  0  0  0  0  0  0  0  0
  153.1314  140.0420  158.7296 C   0  0  0  0  0  0  0  0  0  0  0  0
  153.4801  139.1535  157.9527 O   0  0  0  0  0  0  0  0  0  0  0  0
  152.1528  140.9341  158.5006 N   0  0  0  0  0  0  0  0  0  0  0  0
  151.3483  141.0828  157.3342 C   0  0  0  0  0  0  0  0  0  0  0  0
  151.1171  139.9958  156.4515 C   0  0  0  0  0  0  0  0  0  0  0  0
  150.3373  140.1821  155.2948 C   0  0  0  0  0  0  0  0  0  0  0  0
  149.7951  141.4524  155.0376 C   0  0  0  0  0  0  0  0  0  0  0  0
  150.0145  142.4607  155.9062 N   0  3  0  0  0  0  0  0  0  0  0  0
  150.7427  142.3409  157.0446 C   0  0  0  0  0  0  0  0  0  0  0  0
  150.8724  143.4838  157.8668 N   0  0  0  0  0  0  0  0  0  0  0  0
  150.1447  143.5748  159.1276 C   0  0  0  0  0  0  0  0  0  0  0  0
  150.7942  144.7352  159.8772 C   0  0  0  0  0  0  0  0  0  0  0  0
  152.2570  144.6186  159.4597 C   0  0  0  0  0  0  0  0  0  0  0  0
  152.1837  144.1070  158.0170 C   0  0  0  0  0  0  0  0  0  0  0  0
  155.8271  137.9898  162.8404 C   0  0  0  0  0  0  0  0  0  0  0  0
  155.5676  137.2007  164.1389 C   0  0  2  0  0  0  0  0  0  0  0  0
  154.1037  136.7545  164.3061 C   0  0  0  0  0  0  0  0  0  0  0  0
  156.0416  137.9361  165.2668 O   0  0  0  0  0  0  0  0  0  0  0  0
  155.7245  140.8962  166.8019 H   0  0  0  0  0  0  0  0  0  0  0  0
  157.1990  139.9598  166.5610 H   0  0  0  0  0  0  0  0  0  0  0  0
  155.8863  139.3044  167.5365 H   0  0  0  0  0  0  0  0  0  0  0  0
  154.4211  139.1886  165.5452 H   0  0  0  0  0  0  0  0  0  0  0  0
  155.3549  141.0471  164.2063 H   0  0  0  0  0  0  0  0  0  0  0  0
  156.8801  140.2003  164.0109 H   0  0  0  0  0  0  0  0  0  0  0  0
  154.9725  141.1293  161.8214 H   0  0  0  0  0  0  0  0  0  0  0  0
  156.5108  140.3559  161.5231 H   0  0  0  0  0  0  0  0  0  0  0  0
  155.5544  139.3759  159.6526 H   0  0  0  0  0  0  0  0  0  0  0  0
  154.4961  138.4646  160.7029 H   0  0  0  0  0  0  0  0  0  0  0  0
  153.3620  141.0030  160.4969 H   0  0  0  0  0  0  0  0  0  0  0  0
  152.0441  141.6577  159.1960 H   0  0  0  0  0  0  0  0  0  0  0  0
  151.5217  139.0143  156.6454 H   0  0  0  0  0  0  0  0  0  0  0  0
  150.1598  139.3617  154.6145 H   0  0  0  0  0  0  0  0  0  0  0  0
  149.1892  141.6901  154.1753 H   0  0  0  0  0  0  0  0  0  0  0  0
  149.0805  143.7460  158.9616 H   0  0  0  0  0  0  0  0  0  0  0  0
  150.2606  142.6560  159.7040 H   0  0  0  0  0  0  0  0  0  0  0  0
  150.3821  145.6832  159.5284 H   0  0  0  0  0  0  0  0  0  0  0  0
  150.6505  144.6784  160.9565 H   0  0  0  0  0  0  0  0  0  0  0  0
  152.8024  145.5585  159.5491 H   0  0  0  0  0  0  0  0  0  0  0  0
  152.7577  143.8796  160.0867 H   0  0  0  0  0  0  0  0  0  0  0  0
  152.9974  143.4131  157.8013 H   0  0  0  0  0  0  0  0  0  0  0  0
  152.2549  144.9441  157.3220 H   0  0  0  0  0  0  0  0  0  0  0  0
  155.4007  137.4479  161.9971 H   0  0  0  0  0  0  0  0  0  0  0  0
  156.9018  138.0531  162.6613 H   0  0  0  0  0  0  0  0  0  0  0  0
  156.1688  136.2919  164.0988 H   0  0  0  0  0  0  0  0  0  0  0  0
  153.8093  136.0855  163.4971 H   0  0  0  0  0  0  0  0  0  0  0  0
  153.4093  137.5943  164.2985 H   0  0  0  0  0  0  0  0  0  0  0  0
  153.9668  136.2153  165.2437 H   0  0  0  0  0  0  0  0  0  0  0  0
  154.2751  139.2732  163.0723 H   0  0  0  0  0  0  0  0  0  0  0  0
  149.5983  143.3683  155.6971 H   0  0  0  0  0  0  0  0  0  0  0  0
  1  2  1  0  0  0  0
  1 26  1  0  0  0  0
  1 27  1  0  0  0  0
  1 28  1  0  0  0  0
  2 25  1  0  0  0  0
  2  3  1  0  0  0  0
  2 29  1  0  0  0  0
  3  4  1  0  0  0  0
  3 30  1  0  0  0  0
  3 31  1  0  0  0  0
  4  5  1  0  0  0  0
  4 22  1  0  0  0  0
  4 55  1  0  0  0  0
  5  6  1  0  0  0  0
  5 32  1  0  0  0  0
  5 33  1  0  0  0  0
  6  7  1  0  0  0  0
  6 34  1  0  0  0  0
  6 35  1  0  0  0  0
  7  8  1  0  0  0  0
  7 36  1  0  0  0  0
  8  9  2  0  0  0  0
  8 10  1  0  0  0  0
 10 11  1  0  0  0  0
 10 37  1  0  0  0  0
 11 16  1  0  0  0  0
 11 12  2  0  0  0  0
 12 13  1  0  0  0  0
 12 38  1  0  0  0  0
 13 14  2  0  0  0  0
 13 39  1  0  0  0  0
 14 15  1  0  0  0  0
 14 40  1  0  0  0  0
 15 16  2  0  0  0  0
 15 56  1  0  0  0  0
 16 17  1  0  0  0  0
 17 21  1  0  0  0  0
 17 18  1  0  0  0  0
 18 19  1  0  0  0  0
 18 41  1  0  0  0  0
 18 42  1  0  0  0  0
 19 20  1  0  0  0  0
 19 43  1  0  0  0  0
 19 44  1  0  0  0  0
 20 21  1  0  0  0  0
 20 45  1  0  0  0  0
 20 46  1  0  0  0  0
 21 47  1  0  0  0  0
 21 48  1  0  0  0  0
 22 23  1  0  0  0  0
 22 49  1  0  0  0  0
 22 50  1  0  0  0  0
 23 24  1  0  0  0  0
 23 25  1  0  0  0  0
 23 51  1  0  0  0  0
 24 52  1  0  0  0  0
 24 53  1  0  0  0  0
 24 54  1  0  0  0  0
M  CHG  1   4   1
M  CHG  1  15   1
M  END
> <s_m_source_file>
AV-unprocessed.smi

> <i_m_source_file_index>
1244

> <i_lp_mmshare_version>
43012

> <i_f3d_flags>
0

> <s_epik_input>
W0NIM11bQ0BASF0xW0NIMl1OKFtDSDJdW0NASF0oTzEpW0NIM10pW0NIMl1bQ0gyXVtOSF1DKD1PKVtOSF1jMltjSF1bY0hdW2NIXW5jMk4zW0NIMl1bQ0gyXVtDSDJdW0NIMl0z

> <s_epik_cmdline>
J2VwaWtfcHl0aG9uJywgJy1waCcsICc3LjAnLCAnLXRuJywgJzgnLCAnLW1hJywgJzIwMCcsICctbWV0YWxfYmluZGluZycsICctaW1hZScsICc8aW5maWxlLm1hZT4nLCAnLW9tYWUnLCAnPG91dGZpbGUubWFlPic=

> <r_lp_tautomer_probability>
0.999994

> <r_epik_Ionization_Penalty>
1.81601

> <r_epik_Ionization_Penalty_Charging>
1.81599

> <r_epik_Ionization_Penalty_Neutral>
2.01972e-05

> <r_epik_State_Penalty>
1.85672

> <r_epik_Charging_Adjusted_Penalty>
3.6727

> <i_epik_Tot_Q>
2

> <i_epik_Tot_abs_Q>
2

> <r_epik_Metal_State_Penalty>
1.93796

> <b_epik_Metal_Only>
0

> <s_lp_Force_Field>
OPLS_2005

> <r_lp_Energy>
54.6365

> <b_lp_Chiralities_Consistent>
1

> <s_lp_Variant>
AV-unprocessed.smi:1244-14

> <Gold.Version>
5.8.1

> <Gold.Id.Protein>
6NUR|6NUR_protein|mol2

> <Gold.PLP.Fitness>
53.7557

> <Gold.PLP.PLP>
-45.8968

> <Gold.PLP.part.hbond>
-2.0000

> <Gold.PLP.part.metal>
0.0000

> <Gold.PLP.part.buried>
-5.4589

> <Gold.PLP.part.nonpolar>
-38.4430

> <Gold.PLP.part.repulsive>
0.5472

> <Gold.PLP.ligand.clash>
0.0000

> <Gold.PLP.ligand.torsion>
0.7834

> <Gold.PLP.Chemscore.Hbond>
3.0000

> <Gold.PLP.Chemscore.CHOScore>
0.0000

> <Gold.PLP.Chemscore.Metal>
0.0000

> <Gold.Chemscore.Hbonds>
donor molecule, donor type, donor heavy atom, donor atom, acceptor molecule, acceptor atom, score
      L1  H    15    56       P1  8028  1.98
      P1  H  7997  8009       L1     9  1.00

> <Gold.PLP.Chemscore.Internal.Correction>
0.4258

> <Gold.Rescore>
     Score         DG    S(hbond)    S(metal)    S(lipo)     H(rot)  DE(clash)    DE(int)     intcor
     17.72     -19.84       1.41        0.00     118.03       1.63       0.13       1.99       ----

> <Gold.Chemscore.Fitness>
17.7218

> <Gold.Chemscore.DG>
-19.8437

> <Gold.Chemscore.ZeroCoef>
-5.4800

> <Gold.Chemscore.Hbond>
1.4147

> <Gold.Chemscore.Metal>
0.0000

> <Gold.Chemscore.Lipo>
118.0298

> <Gold.Chemscore.Internal_Hbond>
0.0000

> <Gold.Chemscore.DEClash>
0.1279

> <Gold.Chemscore.DEInternal>
1.9941

> <Gold.Chemscore.Rot>
1.6293

> <Gold.Chemscore.Internal.Correction>
   9.000000E+99

> <Gold.Chemscore.Hbonds>
donor molecule, donor type, donor heavy atom, donor atom, acceptor molecule, acceptor atom, score
      L1  H    15    56       P1  8028  0.92
      P1  H  7997  8009       L1     9  0.34

> <Gold.Chemscore.Hbond.Weighted>
-4.7251

> <Gold.Chemscore.Metal.Weighted>
-0.0000

> <Gold.Chemscore.Lipo.Weighted>
-13.8095

> <Gold.Chemscore.Internal_Hbond.Weighted>
0.0000

> <Gold.Chemscore.DEClash.Weighted>
0.1279

> <Gold.Chemscore.DEInternal.Weighted>
1.9941

> <Gold.Chemscore.Rot.Weighted>
4.1709

> <Gold.Chemscore.Internal.Correction.Weighted>
   9.000000E+99

> <Gold.Protein.RotatedTorsions>
[ 6907 6896 6895 6894 ] final  171.75 input  -60.11 | X-H torsion
[ 7974 7965 7964 7962 ] final  -53.72 input  175.53 | X-H torsion
[ 8008 7997 7996 7995 ] final  172.08 input   59.86 | X-H torsion
[ 10167 10162 10161 10158 ] final -117.79 input  -65.29 | X-H torsion
[ 10718 10713 10712 10709 ] final -159.89 input   66.30 | X-H torsion
[ 10763 10752 10751 10750 ] final -107.62 input  -60.55 | X-H torsion
[ 11005 11000 10999 10996 ] final  118.26 input  -57.11 | X-H torsion

> <Gold.Protein.ActiveResidues>
 VAL166  LYS551  ARG553  GLY616  TRP617  ASP618  TYR619  PRO620  LYS621  CYS622 
 ASP623  PHE694  ASN695  SER759  ASP760  ASP761  ALA762  ILE779  LEU786  VAL792 
 PHE793  MET794  SER795  GLU796  ALA797  LYS798  CYS799  TRP800  GLU811  SER814 

> <Gold.Protein.RotatedAtoms>
  151.7952  133.3363  159.3510 H   0  0  0  0  0  0  0  0  0  0  0  0  # atno 6907 bound_to 6896
  150.7378  134.5805  159.5946 H   0  0  0  0  0  0  0  0  0  0  0  0  # atno 6908 bound_to 6896
  152.3182  134.7415  160.0371 H   0  0  0  0  0  0  0  0  0  0  0  0  # atno 6909 bound_to 6896
  145.8936  140.8051  142.9779 H   0  0  0  0  0  0  0  0  0  0  0  0  # atno 7974 bound_to 7965
  156.1209  140.1495  156.9205 H   0  0  0  0  0  0  0  0  0  0  0  0  # atno 8008 bound_to 7997
  154.4835  140.0872  156.7474 H   0  0  0  0  0  0  0  0  0  0  0  0  # atno 8009 bound_to 7997
  155.4429  140.3432  155.4294 H   0  0  0  0  0  0  0  0  0  0  0  0  # atno 8010 bound_to 7997
  140.0646  143.4935  152.2013 H   0  0  0  0  0  0  0  0  0  0  0  0  # atno 10167 bound_to 10162
  156.5744  130.8702  151.2847 H   0  0  0  0  0  0  0  0  0  0  0  0  # atno 10718 bound_to 10713
  154.8086  135.4668  154.0458 H   0  0  0  0  0  0  0  0  0  0  0  0  # atno 10763 bound_to 10752
  153.1907  135.6854  153.8363 H   0  0  0  0  0  0  0  0  0  0  0  0  # atno 10764 bound_to 10752
  153.7882  135.3247  155.3352 H   0  0  0  0  0  0  0  0  0  0  0  0  # atno 10765 bound_to 10752
  139.9103  134.9618  156.7476 H   0  0  0  0  0  0  0  0  0  0  0  0  # atno 11005 bound_to 11000
  144.6732  140.1568  143.7425 LP  0  0  0  0  0  0  0  0  0  0  0  0  # atno 17320 bound_to 7965
  145.8878  139.2358  143.1567 LP  0  0  0  0  0  0  0  0  0  0  0  0  # atno 17321 bound_to 7965
  139.5873  144.7536  151.3488 LP  0  0  0  0  0  0  0  0  0  0  0  0  # atno 17342 bound_to 10162
  140.7155  143.7277  150.7648 LP  0  0  0  0  0  0  0  0  0  0  0  0  # atno 17343 bound_to 10162
  157.7341  130.9740  150.2010 LP  0  0  0  0  0  0  0  0  0  0  0  0  # atno 17370 bound_to 10713
  156.2686  130.3719  149.8055 LP  0  0  0  0  0  0  0  0  0  0  0  0  # atno 17371 bound_to 10713
  140.6799  133.9484  155.7904 LP  0  0  0  0  0  0  0  0  0  0  0  0  # atno 17394 bound_to 11000
  141.0517  134.0474  157.3774 LP  0  0  0  0  0  0  0  0  0  0  0  0  # atno 17395 bound_to 11000

$$$$
