AV-unprocessed.smi:2001|AV-procd|sdf|8112|dock8
  -GOLD-   2272010343D 1   1.00000     0.00000
 Structure written by MMmdl.
 50 51  0  0  0  0  0  0  0  0  3 V2000
  153.5987  138.1866  155.9752 C   0  0  0  0  0  0  0  0  0  0  0  0
  153.3559  139.0597  154.8861 O   0  0  0  0  0  0  0  0  0  0  0  0
  152.0432  138.9256  154.3678 C   0  0  0  0  0  0  0  0  0  0  0  0
  151.1076  139.8879  155.1149 C   0  0  0  0  0  0  0  0  0  0  0  0
  149.6997  139.5702  154.8569 N   0  0  0  0  0  0  0  0  0  0  0  0
  149.2901  138.3587  155.3877 N   0  0  0  0  0  0  0  0  0  0  0  0
  148.0651  137.9643  155.2527 C   0  0  0  0  0  0  0  0  0  0  0  0
  147.6181  136.6579  155.8347 C   0  0  0  0  0  0  0  0  0  0  0  0
  148.2183  136.3032  156.8585 O   0  0  0  0  0  0  0  0  0  0  0  0
  146.6128  135.9666  155.2187 N   0  5  0  0  0  0  0  0  0  0  0  0
  146.7815  134.7288  154.4559 C   0  0  0  0  0  0  0  0  0  0  0  0
  146.0013  134.8254  153.1317 C   0  0  0  0  0  0  0  0  0  0  0  0
  146.7234  134.1496  152.0172 N   0  3  1  0  0  0  0  0  0  0  0  0
  147.3831  132.8709  152.3874 C   0  0  0  0  0  0  0  0  0  0  0  0
  146.3650  131.7124  152.4587 C   0  0  2  0  0  0  0  0  0  0  0  0
  147.0467  130.3637  152.7149 C   0  0  0  0  0  0  0  0  0  0  0  0
  145.6618  131.6258  151.2231 O   0  0  0  0  0  0  0  0  0  0  0  0
  144.9304  132.8094  150.9187 C   0  0  2  0  0  0  0  0  0  0  0  0
  144.1442  132.5656  149.6259 C   0  0  0  0  0  0  0  0  0  0  0  0
  145.9193  133.9837  150.7823 C   0  0  0  0  0  0  0  0  0  0  0  0
  147.1004  138.7879  154.5329 C   0  0  0  0  0  0  0  0  0  0  0  0
  147.5145  139.9692  154.0252 C   0  0  0  0  0  0  0  0  0  0  0  0
  148.8918  140.4379  154.1776 C   0  0  0  0  0  0  0  0  0  0  0  0
  149.2873  141.5181  153.7395 O   0  0  0  0  0  0  0  0  0  0  0  0
  154.6126  138.3363  156.3464 H   0  0  0  0  0  0  0  0  0  0  0  0
  153.5021  137.1433  155.6723 H   0  0  0  0  0  0  0  0  0  0  0  0
  152.9075  138.3779  156.7971 H   0  0  0  0  0  0  0  0  0  0  0  0
  152.0383  139.1539  153.3006 H   0  0  0  0  0  0  0  0  0  0  0  0
  151.7024  137.8957  154.4863 H   0  0  0  0  0  0  0  0  0  0  0  0
  151.3187  139.8606  156.1855 H   0  0  0  0  0  0  0  0  0  0  0  0
  151.3181  140.9131  154.8047 H   0  0  0  0  0  0  0  0  0  0  0  0
  147.8287  134.5220  154.2307 H   0  0  0  0  0  0  0  0  0  0  0  0
  146.4197  133.8656  155.0148 H   0  0  0  0  0  0  0  0  0  0  0  0
  145.0069  134.3978  153.2600 H   0  0  0  0  0  0  0  0  0  0  0  0
  145.8392  135.8792  152.8992 H   0  0  0  0  0  0  0  0  0  0  0  0
  148.1371  132.6491  151.6309 H   0  0  0  0  0  0  0  0  0  0  0  0
  147.9176  132.9780  153.3321 H   0  0  0  0  0  0  0  0  0  0  0  0
  145.6486  131.8889  153.2624 H   0  0  0  0  0  0  0  0  0  0  0  0
  147.5916  130.3725  153.6593 H   0  0  0  0  0  0  0  0  0  0  0  0
  147.7548  130.1219  151.9218 H   0  0  0  0  0  0  0  0  0  0  0  0
  146.3124  129.5589  152.7623 H   0  0  0  0  0  0  0  0  0  0  0  0
  144.2193  133.0105  151.7218 H   0  0  0  0  0  0  0  0  0  0  0  0
  143.5549  133.4420  149.3544 H   0  0  0  0  0  0  0  0  0  0  0  0
  143.4574  131.7265  149.7394 H   0  0  0  0  0  0  0  0  0  0  0  0
  144.8118  132.3398  148.7939 H   0  0  0  0  0  0  0  0  0  0  0  0
  145.4008  134.9130  150.5413 H   0  0  0  0  0  0  0  0  0  0  0  0
  146.6033  133.7930  149.9541 H   0  0  0  0  0  0  0  0  0  0  0  0
  146.0745  138.4784  154.3995 H   0  0  0  0  0  0  0  0  0  0  0  0
  146.8085  140.5881  153.4912 H   0  0  0  0  0  0  0  0  0  0  0  0
  147.4592  134.8008  151.7789 H   0  0  0  0  0  0  0  0  0  0  0  0
  1  2  1  0  0  0  0
  1 25  1  0  0  0  0
  1 26  1  0  0  0  0
  1 27  1  0  0  0  0
  2  3  1  0  0  0  0
  3  4  1  0  0  0  0
  3 28  1  0  0  0  0
  3 29  1  0  0  0  0
  4  5  1  0  0  0  0
  4 30  1  0  0  0  0
  4 31  1  0  0  0  0
  5 23  1  0  0  0  0
  5  6  1  0  0  0  0
  6  7  2  0  0  0  0
  7  8  1  0  0  0  0
  7 21  1  0  0  0  0
  8  9  2  0  0  0  0
  8 10  1  0  0  0  0
 10 11  1  0  0  0  0
 11 12  1  0  0  0  0
 11 32  1  0  0  0  0
 11 33  1  0  0  0  0
 12 13  1  0  0  0  0
 12 34  1  0  0  0  0
 12 35  1  0  0  0  0
 13 20  1  0  0  0  0
 13 14  1  0  0  0  0
 13 50  1  0  0  0  0
 14 15  1  0  0  0  0
 14 36  1  0  0  0  0
 14 37  1  0  0  0  0
 15 16  1  0  0  0  0
 15 17  1  0  0  0  0
 15 38  1  0  0  0  0
 16 39  1  0  0  0  0
 16 40  1  0  0  0  0
 16 41  1  0  0  0  0
 17 18  1  0  0  0  0
 18 19  1  0  0  0  0
 18 20  1  0  0  0  0
 18 42  1  0  0  0  0
 19 43  1  0  0  0  0
 19 44  1  0  0  0  0
 19 45  1  0  0  0  0
 20 46  1  0  0  0  0
 20 47  1  0  0  0  0
 21 22  2  0  0  0  0
 21 48  1  0  0  0  0
 22 23  1  0  0  0  0
 22 49  1  0  0  0  0
 23 24  2  0  0  0  0
M  CHG  1  10  -1
M  CHG  1  13   1
M  END
> <s_m_source_file>
AV-unprocessed.smi

> <i_m_source_file_index>
2001

> <i_lp_mmshare_version>
43012

> <i_f3d_flags>
0

> <s_epik_input>
W0NIM11PW0NIMl1bQ0gyXW4xbmMoW2NIXVtjSF1jMT1PKUMoPU8pW05IXVtDSDJdW0NIMl1OMltDSDJdW0NAQEhdKFtDSDNdKU9bQ0BASF0oW0NIM10pW0NIMl0y

> <s_epik_cmdline>
J2VwaWtfcHl0aG9uJywgJy1waCcsICc3LjAnLCAnLXRuJywgJzgnLCAnLW1hJywgJzIwMCcsICctbWV0YWxfYmluZGluZycsICctaW1hZScsICc8aW5maWxlLm1hZT4nLCAnLW9tYWUnLCAnPG91dGZpbGUubWFlPic=

> <r_lp_tautomer_probability>
1

> <r_epik_Ionization_Penalty>
6.90846

> <r_epik_Ionization_Penalty_Charging>
6.90846

> <r_epik_Ionization_Penalty_Neutral>
1.08445e-11

> <r_epik_State_Penalty>
7.54671

> <r_epik_Charging_Adjusted_Penalty>
14.4552

> <i_epik_Tot_Q>
0

> <i_epik_Tot_abs_Q>
2

> <r_epik_Metal_State_Penalty>
3.46181

> <b_epik_Metal_Only>
1

> <s_lp_Force_Field>
OPLS_2005

> <r_lp_Energy>
41.6735

> <b_lp_Chiralities_Consistent>
1

> <s_lp_Variant>
AV-unprocessed.smi:2001-11

> <Gold.Version>
5.8.1

> <Gold.Id.Protein>
6NUR|6NUR_protein|mol2

> <Gold.PLP.Fitness>
41.0675

> <Gold.PLP.PLP>
-32.8105

> <Gold.PLP.part.hbond>
-4.0000

> <Gold.PLP.part.metal>
0.0000

> <Gold.PLP.part.buried>
-4.7160

> <Gold.PLP.part.nonpolar>
-25.2114

> <Gold.PLP.part.repulsive>
0.4596

> <Gold.PLP.ligand.clash>
0.0000

> <Gold.PLP.ligand.torsion>
1.7891

> <Gold.PLP.Chemscore.Hbond>
3.8783

> <Gold.PLP.Chemscore.CHOScore>
0.0000

> <Gold.PLP.Chemscore.Metal>
0.0000

> <Gold.Chemscore.Hbonds>
donor molecule, donor type, donor heavy atom, donor atom, acceptor molecule, acceptor atom, score
      L1  H    13    50       P1  7948  2.00
      P1  H  7989  7998       L1    24  0.01
      P1  H  8011  8017       L1    24  0.75

> <Gold.PLP.Chemscore.Internal.Correction>
0.2003

> <Gold.Rescore>
     Score         DG    S(hbond)    S(metal)    S(lipo)     H(rot)  DE(clash)    DE(int)     intcor
     15.59     -17.95       2.63        0.00      75.55       2.02       0.45       1.90       ----

> <Gold.Chemscore.Fitness>
15.5937

> <Gold.Chemscore.DG>
-17.9486

> <Gold.Chemscore.ZeroCoef>
-5.4800

> <Gold.Chemscore.Hbond>
2.6332

> <Gold.Chemscore.Metal>
0.0000

> <Gold.Chemscore.Lipo>
75.5520

> <Gold.Chemscore.Internal_Hbond>
0.0000

> <Gold.Chemscore.DEClash>
0.4517

> <Gold.Chemscore.DEInternal>
1.9032

> <Gold.Chemscore.Rot>
2.0179

> <Gold.Chemscore.Internal.Correction>
   9.000000E+99

> <Gold.Chemscore.Hbonds>
donor molecule, donor type, donor heavy atom, donor atom, acceptor molecule, acceptor atom, score
      L1  H    13    50       P1  7948  0.62
      P1  H  8011  8017       L1    24  0.76

> <Gold.Chemscore.Hbond.Weighted>
-8.7948

> <Gold.Chemscore.Metal.Weighted>
-0.0000

> <Gold.Chemscore.Lipo.Weighted>
-8.8396

> <Gold.Chemscore.Internal_Hbond.Weighted>
0.0000

> <Gold.Chemscore.DEClash.Weighted>
0.4517

> <Gold.Chemscore.DEInternal.Weighted>
1.9032

> <Gold.Chemscore.Rot.Weighted>
5.1659

> <Gold.Chemscore.Internal.Correction.Weighted>
   9.000000E+99

> <Gold.Protein.RotatedTorsions>
[ 6907 6896 6895 6894 ] final  -17.11 input  -60.11 | X-H torsion
[ 7974 7965 7964 7962 ] final   20.64 input  175.53 | X-H torsion
[ 8008 7997 7996 7995 ] final -143.63 input   59.86 | X-H torsion
[ 10167 10162 10161 10158 ] final -134.12 input  -65.29 | X-H torsion
[ 10718 10713 10712 10709 ] final -178.33 input   66.30 | X-H torsion
[ 10763 10752 10751 10750 ] final    2.30 input  -60.55 | X-H torsion
[ 11005 11000 10999 10996 ] final   27.97 input  -57.11 | X-H torsion

> <Gold.Protein.ActiveResidues>
 VAL166  LYS551  ARG553  GLY616  TRP617  ASP618  TYR619  PRO620  LYS621  CYS622 
 ASP623  PHE694  ASN695  SER759  ASP760  ASP761  ALA762  ILE779  LEU786  VAL792 
 PHE793  MET794  SER795  GLU796  ALA797  LYS798  CYS799  TRP800  GLU811  SER814 

> <Gold.Protein.RotatedAtoms>
  151.2983  135.0761  159.9229 H   0  0  0  0  0  0  0  0  0  0  0  0  # atno 6907 bound_to 6896
  152.5302  133.9859  159.7839 H   0  0  0  0  0  0  0  0  0  0  0  0  # atno 6908 bound_to 6896
  151.0142  133.5886  159.2709 H   0  0  0  0  0  0  0  0  0  0  0  0  # atno 6909 bound_to 6896
  146.2103  139.8141  142.8694 H   0  0  0  0  0  0  0  0  0  0  0  0  # atno 7974 bound_to 7965
  155.5138  140.0585  157.2919 H   0  0  0  0  0  0  0  0  0  0  0  0  # atno 8008 bound_to 7997
  154.4542  140.1964  156.0376 H   0  0  0  0  0  0  0  0  0  0  0  0  # atno 8009 bound_to 7997
  156.0766  140.3253  155.7646 H   0  0  0  0  0  0  0  0  0  0  0  0  # atno 8010 bound_to 7997
  139.8913  143.6719  152.2611 H   0  0  0  0  0  0  0  0  0  0  0  0  # atno 10167 bound_to 10162
  156.8427  130.9692  151.3098 H   0  0  0  0  0  0  0  0  0  0  0  0  # atno 10718 bound_to 10713
  153.2973  135.6953  153.7236 H   0  0  0  0  0  0  0  0  0  0  0  0  # atno 10763 bound_to 10752
  153.6164  135.3435  155.2997 H   0  0  0  0  0  0  0  0  0  0  0  0  # atno 10764 bound_to 10752
  154.8541  135.4375  154.2073 H   0  0  0  0  0  0  0  0  0  0  0  0  # atno 10765 bound_to 10752
  140.3206  134.2548  155.7718 H   0  0  0  0  0  0  0  0  0  0  0  0  # atno 11005 bound_to 11000
  145.3165  141.0233  143.3524 LP  0  0  0  0  0  0  0  0  0  0  0  0  # atno 17320 bound_to 7965
  144.8897  139.4791  143.6683 LP  0  0  0  0  0  0  0  0  0  0  0  0  # atno 17321 bound_to 7965
  139.7107  144.7620  151.1116 LP  0  0  0  0  0  0  0  0  0  0  0  0  # atno 17342 bound_to 10162
  140.7726  143.5334  150.9396 LP  0  0  0  0  0  0  0  0  0  0  0  0  # atno 17343 bound_to 10162
  157.6346  130.8757  149.9336 LP  0  0  0  0  0  0  0  0  0  0  0  0  # atno 17370 bound_to 10713
  156.0871  130.3667  150.0466 LP  0  0  0  0  0  0  0  0  0  0  0  0  # atno 17371 bound_to 10713
  141.2087  133.7769  157.0040 LP  0  0  0  0  0  0  0  0  0  0  0  0  # atno 17394 bound_to 11000
  140.0945  134.9572  157.1828 LP  0  0  0  0  0  0  0  0  0  0  0  0  # atno 17395 bound_to 11000

$$$$
