#       Name:                AV-unprocessed.smi:37
#       Creating user name   scv26
#       Creation time:       Thu Mar 26 16:16:21 2020


#       File generated by GOLD software.
#

@<TRIPOS>MOLECULE
AV-unprocessed.smi:37
    54    55     1
SMALL
NO_CHARGES


@<TRIPOS>ATOM
      1 ****        -2.5346   4.7853  -1.1783 C.3            1 S1                 0.0000
      2 ****        -3.3600   3.5291  -1.4866 C.3            1 S1                 0.0000
      3 ****        -3.0664   2.3937  -0.5088 C.2            1 S1                 0.0000
      4 ****        -3.9061   2.0201   0.3107 O.2            1 S1                 0.0000
      5 ****        -1.8333   1.8847  -0.6616 O.3            1 S1                 0.0000
      6 ****        -1.4086   0.8177   0.1701 C.3            1 S1                 0.0000
      7 ****        -0.0203   0.3367  -0.2852 C.3            1 S1                 0.0000
      8 ****        -0.1946  -0.3533  -1.5284 O.3            1 S1                 0.0000
      9 ****         0.3706  -1.6310  -1.4854 C.3            1 S1                 0.0000
     10 ****         1.7789  -1.6045  -2.0572 N.am           1 S1                 0.0000
     11 ****         2.4217  -0.4161  -2.3693 C.2            1 S1                 0.0000
     12 ****         3.6693  -0.4067  -2.8815 C.2            1 S1                 0.0000
     13 ****         4.2647   0.7632  -3.1711 F              1 S1                 0.0000
     14 ****         4.3624  -1.6700  -3.1230 C.2            1 S1                 0.0000
     15 ****         5.5054  -1.6544  -3.5769 O.2            1 S1                 0.0000
     16 ****         3.6985  -2.8256  -2.8322 N.pl3          1 S1                -1.0000
     17 ****         2.4339  -2.8405  -2.3185 C.2            1 S1                 0.0000
     18 ****         1.8244  -3.8803  -2.0665 O.2            1 S1                 0.0000
     19 ****         0.3905  -2.0224  -0.0075 C.3            1 S1                 0.0000
     20 ****        -1.3996  -2.7445   0.4999 Br             1 S1                 0.0000
     21 ****         0.6545  -0.6784   0.6563 C.3            1 S1                 0.0000
     22 ****         0.1889  -0.6188   1.9995 O.3            1 S1                 0.0000
     23 ****         0.9311  -1.1235   3.0015 C.2            1 S1                 0.0000
     24 ****         2.0412  -1.6435   2.8886 O.2            1 S1                 0.0000
     25 ****         0.2484  -0.9915   4.3606 C.3            1 S1                 0.0000
     26 ****        -1.0620  -1.7881   4.4286 C.3            1 S1                 0.0000
     27 ****        -2.7786   5.5854  -1.8773 H              1 S1                 0.0000
     28 ****        -1.4644   4.5915  -1.2601 H              1 S1                 0.0000
     29 ****        -2.7350   5.1536  -0.1715 H              1 S1                 0.0000
     30 ****        -4.4239   3.7644  -1.4454 H              1 S1                 0.0000
     31 ****        -3.1513   3.1846  -2.4997 H              1 S1                 0.0000
     32 ****        -1.3649   1.1844   1.1962 H              1 S1                 0.0000
     33 ****        -2.1295   0.0000   0.1420 H              1 S1                 0.0000
     34 ****         0.6362   1.1977  -0.4144 H              1 S1                 0.0000
     35 ****        -0.1811  -2.3195  -2.1277 H              1 S1                 0.0000
     36 ****         1.9324   0.5319  -2.2124 H              1 S1                 0.0000
     37 ****         1.1395  -2.7796   0.2243 H              1 S1                 0.0000
     38 ****         1.7277  -0.4825   0.6247 H              1 S1                 0.0000
     39 ****         0.9336  -1.3402   5.1340 H              1 S1                 0.0000
     40 ****         0.0566   0.0633   4.5588 H              1 S1                 0.0000
     41 ****        -1.5028  -1.7172   5.4229 H              1 S1                 0.0000
     42 ****        -0.8957  -2.8447   4.2143 H              1 S1                 0.0000
     43 ****        -1.7967  -1.4123   3.7153 H              1 S1                 0.0000
     44 ****        -4.8023   2.4625   0.3453 LP             1 S1                 0.0000
     45 ****        -3.6919   1.2744   0.9415 LP             1 S1                 0.0000
     46 ****         0.2445   0.1726  -2.2569 LP             1 S1                 0.0000
     47 ****        -1.1725  -0.4362  -1.7203 LP             1 S1                 0.0000
     48 ****         5.9520  -0.7823  -3.7772 LP             1 S1                 0.0000
     49 ****         5.9881  -2.5137  -3.7457 LP             1 S1                 0.0000
     50 ****         4.1571  -3.6977  -3.0024 LP             1 S1                 0.0000
     51 ****         0.8988  -3.8386  -1.6904 LP             1 S1                 0.0000
     52 ****         2.2550  -4.7663  -2.2380 LP             1 S1                 0.0000
     53 ****         2.4687  -1.7188   1.9877 LP             1 S1                 0.0000
     54 ****         2.5154  -1.9905   3.6977 LP             1 S1                 0.0000
@<TRIPOS>BOND
    1    1    2 1     
    2    1   27 1     
    3    1   28 1     
    4    1   29 1     
    5    2    3 1     
    6    2   30 1     
    7    2   31 1     
    8    3    4 2     
    9    3    5 1     
   10    5    6 1     
   11    6    7 1     
   12    6   32 1     
   13    6   33 1     
   14    7   21 1     
   15    7    8 1     
   16    7   34 1     
   17    8    9 1     
   18    9   10 1     
   19    9   19 1     
   20    9   35 1     
   21   10   17 am    
   22   10   11 1     
   23   11   12 2     
   24   11   36 1     
   25   12   13 1     
   26   12   14 1     
   27   14   15 2     
   28   14   16 1     
   29   16   17 1     
   30   17   18 2     
   31   19   20 1     
   32   19   21 1     
   33   19   37 1     
   34   21   22 1     
   35   21   38 1     
   36   22   23 1     
   37   23   24 2     
   38   23   25 1     
   39   25   26 1     
   40   25   39 1     
   41   25   40 1     
   42   26   41 1     
   43   26   42 1     
   44   26   43 1     
   45    4   44 1     
   46    4   45 1     
   47    8   46 1     
   48    8   47 1     
   49   15   48 1     
   50   15   49 1     
   51   16   50 1     
   52   18   51 1     
   53   18   52 1     
   54   24   53 1     
   55   24   54 1     
@<TRIPOS>SUBSTRUCTURE
      1 S1             1
@<TRIPOS>SET
LONE_PAIRS      STATIC     ATOMS    <user>   **** ""
11 44 45 46 47 48 49 50 51 52 53 54
ATOM$BLUE        STATIC     ATOMS    COLORGROUP SYSTEM
11 44 45 46 47 48 49 50 51 52 53 54
