#       Name:                AV-unprocessed.smi:2895
#       Creating user name   scv26
#       Creation time:       Fri Mar 27 16:00:32 2020


#       File generated by GOLD software.
#

@<TRIPOS>MOLECULE
AV-unprocessed.smi:2895
    56    59     1
SMALL
NO_CHARGES


@<TRIPOS>ATOM
      1 ****         2.0276   1.7281  -1.4095 O.2            1 S1                 0.0000
      2 ****         1.7661   1.0191  -0.4369 C.2            1 S1                 0.0000
      3 ****         2.6115   0.0705   0.0009 N.am           1 S1                 0.0000
      4 ****         3.8977  -0.2553  -0.6048 C.3            1 S1                 0.0000
      5 ****         3.7284  -1.1055  -1.8752 C.3            1 S1                 0.0000
      6 ****         5.0599  -1.4841  -2.4940 C.ar           1 S1                 0.0000
      7 ****         5.8018  -0.5404  -3.2338 C.ar           1 S1                 0.0000
      8 ****         7.0341  -0.9399  -3.7886 C.ar           1 S1                 0.0000
      9 ****         7.5424  -2.1832  -3.6480 N.ar           1 S1                 0.0000
     10 ****         6.8259  -3.0813  -2.9380 C.ar           1 S1                 0.0000
     11 ****         5.5837  -2.7845  -2.3422 C.ar           1 S1                 0.0000
     12 ****         0.6283   1.1498   0.2917 N.am           1 S1                 0.0000
     13 ****         0.1337   0.2090   1.3093 C.3            1 S1                 0.0000
     14 ****        -1.1074  -0.5186   0.7554 C.3            1 S1                 0.0000
     15 ****        -2.1747   0.4355   0.3368 N.4            1 S1                 1.0000
     16 ****        -2.9760   1.0040   1.4630 C.3            1 S1                 0.0000
     17 ****        -4.2478   1.7624   1.0096 C.3            1 S1                 0.0000
     18 ****        -5.3539   1.1570   1.8939 C.3            1 S1                 0.0000
     19 ****        -5.7029  -0.2432   1.3617 C.3            1 S1                 0.0000
     20 ****        -4.4580  -1.0644   1.7416 C.3            1 S1                 0.0000
     21 ****        -3.5642  -0.0287   2.4582 C.3            1 S1                 0.0000
     22 ****        -4.6047   0.8231   3.1779 C.3            1 S1                 0.0000
     23 ****        -1.6405   1.4751  -0.5902 C.3            1 S1                 0.0000
     24 ****        -0.3816   2.1655  -0.0256 C.3            1 S1                 0.0000
     25 ****         2.3454  -0.4630   0.8156 H              1 S1                 0.0000
     26 ****         4.4475   0.6615  -0.8246 H              1 S1                 0.0000
     27 ****         4.4877  -0.8026   0.1309 H              1 S1                 0.0000
     28 ****         3.1666  -2.0120  -1.6449 H              1 S1                 0.0000
     29 ****         3.1450  -0.5638  -2.6209 H              1 S1                 0.0000
     30 ****         5.4379   0.4673  -3.3731 H              1 S1                 0.0000
     31 ****         7.6275  -0.2416  -4.3600 H              1 S1                 0.0000
     32 ****         7.2552  -4.0675  -2.8416 H              1 S1                 0.0000
     33 ****         5.0500  -3.5400  -1.7845 H              1 S1                 0.0000
     34 ****         0.8703  -0.5285   1.6273 H              1 S1                 0.0000
     35 ****        -0.1236   0.7634   2.2124 H              1 S1                 0.0000
     36 ****        -0.8147  -1.0954  -0.1230 H              1 S1                 0.0000
     37 ****        -1.4750  -1.2534   1.4696 H              1 S1                 0.0000
     38 ****        -2.3437   1.6893   2.0287 H              1 S1                 0.0000
     39 ****        -4.1387   2.8319   1.1932 H              1 S1                 0.0000
     40 ****        -4.4793   1.6303  -0.0482 H              1 S1                 0.0000
     41 ****        -6.2216   1.8057   2.0178 H              1 S1                 0.0000
     42 ****        -6.5893  -0.6380   1.8602 H              1 S1                 0.0000
     43 ****        -5.8947  -0.2466   0.2881 H              1 S1                 0.0000
     44 ****        -4.7310  -1.8720   2.4223 H              1 S1                 0.0000
     45 ****        -3.9769  -1.5156   0.8738 H              1 S1                 0.0000
     46 ****        -2.8252  -0.4713   3.1265 H              1 S1                 0.0000
     47 ****        -4.1838   1.6995   3.6740 H              1 S1                 0.0000
     48 ****        -5.2048   0.2604   3.8956 H              1 S1                 0.0000
     49 ****        -1.3847   0.9855  -1.5309 H              1 S1                 0.0000
     50 ****        -2.3973   2.2178  -0.8401 H              1 S1                 0.0000
     51 ****        -0.6217   2.7263   0.8782 H              1 S1                 0.0000
     52 ****        -0.0231   2.9100  -0.7377 H              1 S1                 0.0000
     53 ****        -2.8358  -0.1083  -0.1995 H              1 S1                 0.0000
     54 ****         2.8911   1.6067  -1.8990 LP             1 S1                 0.0000
     55 ****         1.3765   2.4252  -1.7096 LP             1 S1                 0.0000
     56 ****         8.4210  -2.4308  -4.0564 LP             1 S1                 0.0000
@<TRIPOS>BOND
    1    1    2 2     
    2    2    3 am    
    3    2   12 am    
    4    3    4 1     
    5    3   25 1     
    6    4    5 1     
    7    4   26 1     
    8    4   27 1     
    9    5    6 1     
   10    5   28 1     
   11    5   29 1     
   12    6   11 ar    
   13    6    7 ar    
   14    7    8 ar    
   15    7   30 1     
   16    8    9 ar    
   17    8   31 1     
   18    9   10 ar    
   19   10   11 ar    
   20   10   32 1     
   21   11   33 1     
   22   12   24 1     
   23   12   13 1     
   24   13   14 1     
   25   13   34 1     
   26   13   35 1     
   27   14   15 1     
   28   14   36 1     
   29   14   37 1     
   30   15   16 1     
   31   15   23 1     
   32   15   53 1     
   33   16   21 1     
   34   16   17 1     
   35   16   38 1     
   36   17   18 1     
   37   17   39 1     
   38   17   40 1     
   39   18   22 1     
   40   18   19 1     
   41   18   41 1     
   42   19   20 1     
   43   19   42 1     
   44   19   43 1     
   45   20   21 1     
   46   20   44 1     
   47   20   45 1     
   48   21   22 1     
   49   21   46 1     
   50   22   47 1     
   51   22   48 1     
   52   23   24 1     
   53   23   49 1     
   54   23   50 1     
   55   24   51 1     
   56   24   52 1     
   57    1   54 1     
   58    1   55 1     
   59    9   56 1     
@<TRIPOS>SUBSTRUCTURE
      1 S1             1
@<TRIPOS>SET
LONE_PAIRS      STATIC     ATOMS    <user>   **** ""
3 54 55 56
DONOR_HYDROGENS      STATIC     ATOMS    <user>   **** ""
2 25 53
ATOM$BLUE        STATIC     ATOMS    COLORGROUP SYSTEM
3 54 55 56
ATOM$RED        STATIC     ATOMS    COLORGROUP SYSTEM
2 25 53
