#       Name:                AV-unprocessed.smi:740
#       Creating user name   scv26
#       Creation time:       Fri Mar 27 00:54:20 2020


#       File generated by GOLD software.
#

@<TRIPOS>MOLECULE
AV-unprocessed.smi:740
    51    53     1
SMALL
NO_CHARGES


@<TRIPOS>ATOM
      1 ****        -3.8079   4.5111  -2.2628 C.3            1 S1                 0.0000
      2 ****        -3.2465   3.3503  -1.4605 C.ar           1 S1                 0.0000
      3 ****        -3.0278   3.5153  -0.0743 C.ar           1 S1                 0.0000
      4 ****        -2.5044   2.4621   0.7070 C.ar           1 S1                 0.0000
      5 ****        -2.2126   2.4059   2.0592 N.2            1 S1                 0.0000
      6 ****        -1.7528   1.1642   2.1821 C.2            1 S1                 0.0000
      7 ****        -1.7143   0.4074   1.0687 N.pl3          1 S1                 0.0000
      8 ****        -1.2517  -0.9651   0.9643 C.3            1 S1                 0.0000
      9 ****         0.2801  -1.0600   0.8283 C.3            1 S1                 0.0000
     10 ****         0.6707  -0.4027  -0.3621 O.3            1 S1                 0.0000
     11 ****         0.7585  -2.5255   0.7669 C.3            1 S1                 0.0000
     12 ****         2.1866  -2.6484   1.0804 N.am           1 S1                 0.0000
     13 ****         2.6837  -2.6579   2.3249 C.2            1 S1                 0.0000
     14 ****         2.0358  -2.5831   3.3686 O.2            1 S1                 0.0000
     15 ****         4.2018  -2.7675   2.3060 C.3            1 S1                 0.0000
     16 ****         4.5338  -2.8125   0.8068 C.3            1 S1                 0.0000
     17 ****         5.4598  -1.6761   0.3429 C.3            1 S1                 0.0000
     18 ****         3.1547  -2.7223   0.1562 C.2            1 S1                 0.0000
     19 ****         2.9943  -2.7178  -1.0644 O.2            1 S1                 0.0000
     20 ****        -2.2053   1.2281   0.0589 C.ar           1 S1                 0.0000
     21 ****        -2.4193   1.0514  -1.3196 C.ar           1 S1                 0.0000
     22 ****        -2.9407   2.1148  -2.0858 C.ar           1 S1                 0.0000
     23 ****        -3.1640   1.9155  -3.5744 C.3            1 S1                 0.0000
     24 ****        -4.0203   5.3700  -1.6256 H              1 S1                 0.0000
     25 ****        -4.7369   4.2231  -2.7552 H              1 S1                 0.0000
     26 ****        -3.0950   4.8273  -3.0247 H              1 S1                 0.0000
     27 ****        -3.2594   4.4566   0.4022 H              1 S1                 0.0000
     28 ****        -1.4228   0.7813   3.1369 H              1 S1                 0.0000
     29 ****        -1.5827  -1.5004   1.8553 H              1 S1                 0.0000
     30 ****        -1.7453  -1.4404   0.1156 H              1 S1                 0.0000
     31 ****         0.7391  -0.5488   1.6758 H              1 S1                 0.0000
     32 ****         0.2808  -0.8516  -1.0966 H              1 S1                 0.0000
     33 ****         0.2025  -3.1202   1.4940 H              1 S1                 0.0000
     34 ****         0.5226  -2.9695  -0.2021 H              1 S1                 0.0000
     35 ****         4.6453  -1.9064   2.8073 H              1 S1                 0.0000
     36 ****         4.5249  -3.6730   2.8204 H              1 S1                 0.0000
     37 ****         4.9765  -3.7763   0.5517 H              1 S1                 0.0000
     38 ****         5.6593  -1.7402  -0.7273 H              1 S1                 0.0000
     39 ****         6.4193  -1.7233   0.8582 H              1 S1                 0.0000
     40 ****         5.0240  -0.6962   0.5430 H              1 S1                 0.0000
     41 ****        -2.1803   0.1060  -1.7836 H              1 S1                 0.0000
     42 ****        -2.8579   0.9183  -3.8921 H              1 S1                 0.0000
     43 ****        -2.5869   2.6407  -4.1484 H              1 S1                 0.0000
     44 ****        -4.2187   2.0366  -3.8218 H              1 S1                 0.0000
     45 ****        -2.3194   3.1124   2.7587 LP             1 S1                 0.0000
     46 ****         1.6670  -0.4218  -0.4460 LP             1 S1                 0.0000
     47 ****         0.3560   0.5462  -0.3417 LP             1 S1                 0.0000
     48 ****         1.0393  -2.5065   3.3341 LP             1 S1                 0.0000
     49 ****         2.5058  -2.5990   4.2511 LP             1 S1                 0.0000
     50 ****         2.0727  -2.6546  -1.4474 LP             1 S1                 0.0000
     51 ****         3.7856  -2.7774  -1.6729 LP             1 S1                 0.0000
@<TRIPOS>BOND
    1    1    2 1     
    2    1   24 1     
    3    1   25 1     
    4    1   26 1     
    5    2   22 ar    
    6    2    3 ar    
    7    3    4 ar    
    8    3   27 1     
    9    4   20 ar    
   10    4    5 1     
   11    5    6 2     
   12    6    7 1     
   13    6   28 1     
   14    7    8 1     
   15    7   20 1     
   16    8    9 1     
   17    8   29 1     
   18    8   30 1     
   19    9   10 1     
   20    9   11 1     
   21    9   31 1     
   22   10   32 1     
   23   11   12 1     
   24   11   33 1     
   25   11   34 1     
   26   12   18 am    
   27   12   13 am    
   28   13   14 2     
   29   13   15 1     
   30   15   16 1     
   31   15   35 1     
   32   15   36 1     
   33   16   17 1     
   34   16   18 1     
   35   16   37 1     
   36   17   38 1     
   37   17   39 1     
   38   17   40 1     
   39   18   19 2     
   40   20   21 ar    
   41   21   22 ar    
   42   21   41 1     
   43   22   23 1     
   44   23   42 1     
   45   23   43 1     
   46   23   44 1     
   47    5   45 1     
   48   10   46 1     
   49   10   47 1     
   50   14   48 1     
   51   14   49 1     
   52   19   50 1     
   53   19   51 1     
@<TRIPOS>SUBSTRUCTURE
      1 S1             1
@<TRIPOS>SET
LONE_PAIRS      STATIC     ATOMS    <user>   **** ""
7 45 46 47 48 49 50 51
DONOR_HYDROGENS      STATIC     ATOMS    <user>   **** ""
1 32
ATOM$BLUE        STATIC     ATOMS    COLORGROUP SYSTEM
7 45 46 47 48 49 50 51
ATOM$RED        STATIC     ATOMS    COLORGROUP SYSTEM
1 32
