AV-unprocessed.smi:21|AV-procd|sdf|140|dock1
  -GOLD-   2262015343D 1   1.00000     0.00000
 Structure written by MMmdl.
 62 65  0  0  0  0  0  0  0  0  2 V2000
  152.7744  144.1467  160.1884 C   0  0  0  0  0  0  0  0  0  0  0  0
  153.0114  143.2218  159.1396 O   0  0  0  0  0  0  0  0  0  0  0  0
  151.8976  142.3875  158.8591 C   0  0  2  0  0  0  0  0  0  0  0  0
  152.0738  141.6965  157.5145 C   0  0  0  0  0  0  0  0  0  0  0  0
  150.6388  141.3259  157.1283 C   0  0  2  0  0  0  0  0  0  0  0  0
  150.4300  141.1072  155.6164 C   0  0  0  0  0  0  0  0  0  0  0  0
  150.7799  139.7489  155.1906 N   0  0  0  0  0  0  0  0  0  0  0  0
  152.1614  139.4996  154.7968 C   0  0  0  0  0  0  0  0  0  0  0  0
  149.8120  138.8206  154.9287 C   0  0  0  0  0  0  0  0  0  0  0  0
  148.5773  139.2619  154.5654 N   0  0  0  0  0  0  0  0  0  0  0  0
  147.5893  138.4059  154.2947 C   0  0  0  0  0  0  0  0  0  0  0  0
  147.6113  137.0746  154.3250 N   0  0  0  0  0  0  0  0  0  0  0  0
  148.8401  136.6127  154.6905 C   0  0  0  0  0  0  0  0  0  0  0  0
  149.9860  137.4021  155.0052 C   0  0  0  0  0  0  0  0  0  0  0  0
  151.0484  136.5576  155.3176 N   0  0  0  0  0  0  0  0  0  0  0  0
  150.5609  135.3536  155.2008 C   0  0  0  0  0  0  0  0  0  0  0  0
  149.2372  135.2957  154.8350 N   0  0  0  0  0  0  0  0  0  0  0  0
  148.4391  134.0999  154.6321 C   0  0  0  0  0  0  0  0  0  0  0  0
  149.0678  133.1020  153.6207 C   0  0  2  0  0  0  0  0  0  0  0  0
  148.0184  132.4750  152.6707 C   0  0  0  0  0  0  0  0  0  0  0  0
  147.7474  133.3021  151.5581 O   0  0  0  0  0  0  0  0  0  0  0  0
  149.9090  131.9866  154.2972 C   0  0  2  0  0  0  0  0  0  0  0  0
  151.2437  132.3972  154.8924 C   0  0  0  0  0  0  0  0  0  0  0  0
  151.9008  131.0395  155.1182 C   0  0  0  0  0  0  0  0  0  0  0  0
  151.4379  130.2067  154.0584 O   0  0  0  0  0  0  0  0  0  0  0  0
  150.3181  130.8063  153.4102 C   0  0  0  0  0  0  0  0  0  0  0  0
  149.8093  142.4450  157.6355 N   0  3  1  0  0  0  0  0  0  0  0  0
  148.4555  142.0449  158.0776 C   0  0  0  0  0  0  0  0  0  0  0  0
  150.5883  143.1649  158.6717 C   0  0  0  0  0  0  0  0  0  0  0  0
  151.7769  141.6252  159.6315 H   0  0  0  0  0  0  0  0  0  0  0  0
  150.3652  140.4213  157.6750 H   0  0  0  0  0  0  0  0  0  0  0  0
  153.6734  144.7379  160.3626 H   0  0  0  0  0  0  0  0  0  0  0  0
  152.5261  143.6331  161.1181 H   0  0  0  0  0  0  0  0  0  0  0  0
  151.9653  144.8350  159.9418 H   0  0  0  0  0  0  0  0  0  0  0  0
  152.4898  142.4005  156.7922 H   0  0  0  0  0  0  0  0  0  0  0  0
  152.7384  140.8335  157.5650 H   0  0  0  0  0  0  0  0  0  0  0  0
  149.3776  141.2603  155.3763 H   0  0  0  0  0  0  0  0  0  0  0  0
  150.9576  141.8704  155.0445 H   0  0  0  0  0  0  0  0  0  0  0  0
  152.2491  139.4419  153.7116 H   0  0  0  0  0  0  0  0  0  0  0  0
  152.5269  138.5698  155.2333 H   0  0  0  0  0  0  0  0  0  0  0  0
  152.8167  140.3008  155.1393 H   0  0  0  0  0  0  0  0  0  0  0  0
  146.6460  138.8517  154.0147 H   0  0  0  0  0  0  0  0  0  0  0  0
  151.1549  134.4707  155.3868 H   0  0  0  0  0  0  0  0  0  0  0  0
  148.3032  133.6405  155.6095 H   0  0  0  0  0  0  0  0  0  0  0  0
  147.4481  134.4079  154.2983 H   0  0  0  0  0  0  0  0  0  0  0  0
  149.7717  133.6569  152.9983 H   0  0  0  0  0  0  0  0  0  0  0  0
  148.3781  131.5256  152.2734 H   0  0  0  0  0  0  0  0  0  0  0  0
  147.0904  132.2620  153.2024 H   0  0  0  0  0  0  0  0  0  0  0  0
  148.0141  132.8484  150.7732 H   0  0  0  0  0  0  0  0  0  0  0  0
  149.3113  131.5611  155.1055 H   0  0  0  0  0  0  0  0  0  0  0  0
  151.8384  132.9721  154.1830 H   0  0  0  0  0  0  0  0  0  0  0  0
  151.1463  132.9780  155.8100 H   0  0  0  0  0  0  0  0  0  0  0  0
  152.9893  131.0989  155.1341 H   0  0  0  0  0  0  0  0  0  0  0  0
  151.5715  130.6114  156.0659 H   0  0  0  0  0  0  0  0  0  0  0  0
  149.5078  130.0885  153.2812 H   0  0  0  0  0  0  0  0  0  0  0  0
  150.6394  131.1237  152.4198 H   0  0  0  0  0  0  0  0  0  0  0  0
  148.5047  141.3624  158.9272 H   0  0  0  0  0  0  0  0  0  0  0  0
  147.9165  141.5489  157.2700 H   0  0  0  0  0  0  0  0  0  0  0  0
  147.8788  142.9212  158.3757 H   0  0  0  0  0  0  0  0  0  0  0  0
  150.0477  143.2747  159.6131 H   0  0  0  0  0  0  0  0  0  0  0  0
  150.7928  144.1670  158.2927 H   0  0  0  0  0  0  0  0  0  0  0  0
  149.6961  143.0934  156.8692 H   0  0  0  0  0  0  0  0  0  0  0  0
  1  2  1  0  0  0  0
  1 32  1  0  0  0  0
  1 33  1  0  0  0  0
  1 34  1  0  0  0  0
  2  3  1  0  0  0  0
  3 30  1  0  0  0  0
  3 29  1  0  0  0  0
  3  4  1  0  0  0  0
  4  5  1  0  0  0  0
  4 35  1  0  0  0  0
  4 36  1  0  0  0  0
  5 31  1  0  0  0  0
  5  6  1  0  0  0  0
  5 27  1  0  0  0  0
  6  7  1  0  0  0  0
  6 37  1  0  0  0  0
  6 38  1  0  0  0  0
  7  8  1  0  0  0  0
  7  9  1  0  0  0  0
  8 39  1  0  0  0  0
  8 40  1  0  0  0  0
  8 41  1  0  0  0  0
  9 14  1  0  0  0  0
  9 10  2  0  0  0  0
 10 11  1  0  0  0  0
 11 12  2  0  0  0  0
 11 42  1  0  0  0  0
 12 13  1  0  0  0  0
 13 17  1  0  0  0  0
 13 14  2  0  0  0  0
 14 15  1  0  0  0  0
 15 16  2  0  0  0  0
 16 17  1  0  0  0  0
 16 43  1  0  0  0  0
 17 18  1  0  0  0  0
 18 19  1  0  0  0  0
 18 44  1  0  0  0  0
 18 45  1  0  0  0  0
 19 20  1  0  0  0  0
 19 22  1  0  0  0  0
 19 46  1  0  0  0  0
 20 21  1  0  0  0  0
 20 47  1  0  0  0  0
 20 48  1  0  0  0  0
 21 49  1  0  0  0  0
 22 26  1  0  0  0  0
 22 23  1  0  0  0  0
 22 50  1  0  0  0  0
 23 24  1  0  0  0  0
 23 51  1  0  0  0  0
 23 52  1  0  0  0  0
 24 25  1  0  0  0  0
 24 53  1  0  0  0  0
 24 54  1  0  0  0  0
 25 26  1  0  0  0  0
 26 55  1  0  0  0  0
 26 56  1  0  0  0  0
 27 28  1  0  0  0  0
 27 29  1  0  0  0  0
 27 62  1  0  0  0  0
 28 57  1  0  0  0  0
 28 58  1  0  0  0  0
 28 59  1  0  0  0  0
 29 60  1  0  0  0  0
 29 61  1  0  0  0  0
M  CHG  1  27   1
M  END
> <s_m_source_file>
AV-unprocessed.smi

> <i_m_source_file_index>
21

> <i_lp_mmshare_version>
43012

> <i_f3d_flags>
0

> <s_epik_input>
W0NIM11PW0NASF0xW0NIMl1bQ0BIXShOKFtDSDNdKVtDSDJdMSlbQ0gyXU4oW0NIM10pYyhuW2NIXW4yKWMoYzIzKW5bY0hdbjNbQ0gyXVtDQEhdKFtDSDJdW09IXSlbQ0BASF00W0NIMl1bQ0gyXU9bQ0gyXTQ=

> <s_epik_cmdline>
J2VwaWtfcHl0aG9uJywgJy1waCcsICc3LjAnLCAnLXRuJywgJzgnLCAnLW1hJywgJzIwMCcsICctbWV0YWxfYmluZGluZycsICctaW1hZScsICc8aW5maWxlLm1hZT4nLCAnLW9tYWUnLCAnPG91dGZpbGUubWFlPic=

> <r_lp_tautomer_probability>
1

> <r_epik_Ionization_Penalty>
0.0157465

> <r_epik_Ionization_Penalty_Charging>
0.015354

> <r_epik_Ionization_Penalty_Neutral>
0.000392529

> <r_epik_State_Penalty>
0.0120612

> <r_epik_Charging_Adjusted_Penalty>
0.0274152

> <i_epik_Tot_Q>
1

> <i_epik_Tot_abs_Q>
1

> <r_epik_Metal_State_Penalty>
0.0121253

> <b_epik_Metal_Only>
0

> <s_lp_Force_Field>
OPLS_2005

> <r_lp_Energy>
59.0143

> <b_lp_Chiralities_Consistent>
1

> <s_lp_Variant>
AV-unprocessed.smi:21-20

> <Gold.Version>
5.8.1

> <Gold.Id.Protein>
6NUR|6NUR_protein|mol2

> <Gold.PLP.Fitness>
47.9356

> <Gold.PLP.PLP>
-42.4587

> <Gold.PLP.part.hbond>
-2.0000

> <Gold.PLP.part.metal>
0.0000

> <Gold.PLP.part.buried>
-5.6451

> <Gold.PLP.part.nonpolar>
-35.8076

> <Gold.PLP.part.repulsive>
1.2242

> <Gold.PLP.ligand.clash>
0.0000

> <Gold.PLP.ligand.torsion>
2.1844

> <Gold.PLP.Chemscore.Hbond>
3.0000

> <Gold.PLP.Chemscore.CHOScore>
0.0000

> <Gold.PLP.Chemscore.Metal>
0.0000

> <Gold.Chemscore.Hbonds>
donor molecule, donor type, donor heavy atom, donor atom, acceptor molecule, acceptor atom, score
      L1  H    21    49       P1 10747  0.32
      L1  H    27    62       P1  8028  1.27
      P1  H 10752 10765       L1    15  0.09

> <Gold.PLP.Chemscore.Internal.Correction>
0.8456

> <Gold.Rescore>
     Score         DG    S(hbond)    S(metal)    S(lipo)     H(rot)  DE(clash)    DE(int)     intcor
     12.81     -15.37       1.95        0.00      96.15       3.08       0.45       2.11       ----

> <Gold.Chemscore.Fitness>
12.8135

> <Gold.Chemscore.DG>
-15.3696

> <Gold.Chemscore.ZeroCoef>
-5.4800

> <Gold.Chemscore.Hbond>
1.9505

> <Gold.Chemscore.Metal>
0.0000

> <Gold.Chemscore.Lipo>
96.1457

> <Gold.Chemscore.Internal_Hbond>
0.0000

> <Gold.Chemscore.DEClash>
0.4479

> <Gold.Chemscore.DEInternal>
2.1082

> <Gold.Chemscore.Rot>
3.0758

> <Gold.Chemscore.Internal.Correction>
   9.000000E+99

> <Gold.Chemscore.Hbonds>
donor molecule, donor type, donor heavy atom, donor atom, acceptor molecule, acceptor atom, score
      L1  H    21    49       P1 10747  0.34
      L1  H    27    62       P1  8028  0.62

> <Gold.Chemscore.Hbond.Weighted>
-6.5147

> <Gold.Chemscore.Metal.Weighted>
-0.0000

> <Gold.Chemscore.Lipo.Weighted>
-11.2490

> <Gold.Chemscore.Internal_Hbond.Weighted>
0.0000

> <Gold.Chemscore.DEClash.Weighted>
0.4479

> <Gold.Chemscore.DEInternal.Weighted>
2.1082

> <Gold.Chemscore.Rot.Weighted>
7.8741

> <Gold.Chemscore.Internal.Correction.Weighted>
   9.000000E+99

> <Gold.Protein.RotatedTorsions>
[ 6907 6896 6895 6894 ] final  -87.88 input  -60.11 | X-H torsion
[ 7974 7965 7964 7962 ] final  108.86 input  175.53 | X-H torsion
[ 8008 7997 7996 7995 ] final  -34.61 input   59.86 | X-H torsion
[ 10167 10162 10161 10158 ] final  154.95 input  -65.29 | X-H torsion
[ 10718 10713 10712 10709 ] final  107.12 input   66.30 | X-H torsion
[ 10763 10752 10751 10750 ] final  179.05 input  -60.55 | X-H torsion
[ 11005 11000 10999 10996 ] final -140.36 input  -57.11 | X-H torsion

> <Gold.Protein.ActiveResidues>
 VAL166  LYS551  ARG553  GLY616  TRP617  ASP618  TYR619  PRO620  LYS621  CYS622 
 ASP623  PHE694  ASN695  SER759  ASP760  ASP761  ALA762  ILE779  LEU786  VAL792 
 PHE793  MET794  SER795  GLU796  ALA797  LYS798  CYS799  TRP800  GLU811  SER814 

> <Gold.Protein.RotatedAtoms>
  150.6867  134.2827  159.4633 H   0  0  0  0  0  0  0  0  0  0  0  0  # atno 6907 bound_to 6896
  152.0740  134.9512  160.0583 H   0  0  0  0  0  0  0  0  0  0  0  0  # atno 6908 bound_to 6896
  152.0891  133.4157  159.4573 H   0  0  0  0  0  0  0  0  0  0  0  0  # atno 6909 bound_to 6896
  145.2752  139.2652  143.3945 H   0  0  0  0  0  0  0  0  0  0  0  0  # atno 7974 bound_to 7965
  154.4116  140.1679  156.2077 H   0  0  0  0  0  0  0  0  0  0  0  0  # atno 8008 bound_to 7997
  155.9470  140.3404  155.6352 H   0  0  0  0  0  0  0  0  0  0  0  0  # atno 8009 bound_to 7997
  155.6917  140.0734  157.2436 H   0  0  0  0  0  0  0  0  0  0  0  0  # atno 8010 bound_to 7997
  139.4822  144.5141  151.7978 H   0  0  0  0  0  0  0  0  0  0  0  0  # atno 10167 bound_to 10162
  157.6641  131.0866  150.6108 H   0  0  0  0  0  0  0  0  0  0  0  0  # atno 10718 bound_to 10713
  154.5156  135.2791  155.1306 H   0  0  0  0  0  0  0  0  0  0  0  0  # atno 10763 bound_to 10752
  154.2884  135.6272  153.5379 H   0  0  0  0  0  0  0  0  0  0  0  0  # atno 10764 bound_to 10752
  152.9927  135.5668  154.5632 H   0  0  0  0  0  0  0  0  0  0  0  0  # atno 10765 bound_to 10752
  140.8430  134.2379  157.4800 H   0  0  0  0  0  0  0  0  0  0  0  0  # atno 11005 bound_to 11000
  146.3234  140.3205  142.8633 LP  0  0  0  0  0  0  0  0  0  0  0  0  # atno 17320 bound_to 7965
  144.9300  140.7964  143.5695 LP  0  0  0  0  0  0  0  0  0  0  0  0  # atno 17321 bound_to 7965
  140.4648  144.1671  150.5910 LP  0  0  0  0  0  0  0  0  0  0  0  0  # atno 17342 bound_to 10162
  140.4446  143.2512  151.9428 LP  0  0  0  0  0  0  0  0  0  0  0  0  # atno 17343 bound_to 10162
  156.6410  130.4458  149.5752 LP  0  0  0  0  0  0  0  0  0  0  0  0  # atno 17370 bound_to 10713
  156.2209  130.6737  151.1367 LP  0  0  0  0  0  0  0  0  0  0  0  0  # atno 17371 bound_to 10713
  139.8703  134.9645  156.4497 LP  0  0  0  0  0  0  0  0  0  0  0  0  # atno 17394 bound_to 11000
  140.8874  133.7873  155.9534 LP  0  0  0  0  0  0  0  0  0  0  0  0  # atno 17395 bound_to 11000

$$$$
