AV-unprocessed.smi:1|AV-procd|sdf|4|dock6
  -GOLD-   2262015 83D 1   1.00000     0.00000
 Structure written by MMmdl.
 57 62  0  0  0  0  0  0  0  0  1 V2000
  153.0400  140.1742  158.2969 O   0  0  0  0  0  0  0  0  0  0  0  0
  152.2320  140.9310  157.7578 C   0  0  0  0  0  0  0  0  0  0  0  0
  151.3328  140.4825  156.7091 N   0  0  0  0  0  0  0  0  0  0  0  0
  151.2608  139.2592  156.1342 C   0  0  0  0  0  0  0  0  0  0  0  0
  151.5907  139.0428  154.8337 N   0  0  0  0  0  0  0  0  0  0  0  0
  151.5106  137.8141  154.3153 C   0  0  0  0  0  0  0  0  0  0  0  0
  151.1343  136.6811  154.9113 N   0  0  0  0  0  0  0  0  0  0  0  0
  150.7974  136.8883  156.2168 C   0  0  0  0  0  0  0  0  0  0  0  0
  150.8323  138.1396  156.8941 C   0  0  0  0  0  0  0  0  0  0  0  0
  150.4209  137.9741  158.2096 N   0  0  0  0  0  0  0  0  0  0  0  0
  150.1604  136.6978  158.3005 C   0  0  0  0  0  0  0  0  0  0  0  0
  150.3696  135.9666  157.1519 N   0  0  0  0  0  0  0  0  0  0  0  0
  150.1559  134.4991  156.9631 C   0  0  1  0  0  0  0  0  0  0  0  0
  149.1760  134.2973  155.9881 O   0  0  0  0  0  0  0  0  0  0  0  0
  149.7150  133.5995  154.8682 C   0  0  2  0  0  0  0  0  0  0  0  0
  148.6524  132.7120  154.2100 C   0  0  0  0  0  0  0  0  0  0  0  0
  147.7537  133.5306  153.4802 O   0  0  0  0  0  0  0  0  0  0  0  0
  146.7140  132.9763  152.8284 C   0  0  0  0  0  0  0  0  0  0  0  0
  146.4918  131.7639  152.8042 O   0  0  0  0  0  0  0  0  0  0  0  0
  145.8599  133.9842  152.1360 C   0  0  0  0  0  0  0  0  0  0  0  0
  145.8975  135.3329  152.5608 C   0  0  0  0  0  0  0  0  0  0  0  0
  145.1015  136.3070  151.9273 C   0  0  0  0  0  0  0  0  0  0  0  0
  144.2582  135.9442  150.8612 C   0  0  0  0  0  0  0  0  0  0  0  0
  144.2117  134.6059  150.4289 C   0  0  0  0  0  0  0  0  0  0  0  0
  145.0071  133.6301  151.0610 C   0  0  0  0  0  0  0  0  0  0  0  0
  150.9095  132.8370  155.4387 C   0  0  2  0  0  0  0  0  0  0  0  0
  150.5012  131.6380  156.0772 O   0  0  0  0  0  0  0  0  0  0  0  0
  151.3346  131.4983  157.5181 S   0  0  0  0  0  0  0  0  0  0  0  0
  150.3528  131.3895  158.6079 O   0  0  0  0  0  0  0  0  0  0  0  0
  152.4232  130.5274  157.3308 O   0  0  0  0  0  0  0  0  0  0  0  0
  152.0022  133.0299  157.5629 O   0  0  0  0  0  0  0  0  0  0  0  0
  151.4420  133.7928  156.5088 C   0  0  2  0  0  0  0  0  0  0  0  0
  152.0631  142.3540  158.2050 C   0  0  0  0  0  0  0  0  0  0  0  0
  151.3034  143.2546  157.4249 C   0  0  0  0  0  0  0  0  0  0  0  0
  151.1292  144.5885  157.8426 C   0  0  0  0  0  0  0  0  0  0  0  0
  151.7064  145.0310  159.0477 C   0  0  0  0  0  0  0  0  0  0  0  0
  152.4542  144.1374  159.8375 C   0  0  0  0  0  0  0  0  0  0  0  0
  152.6293  142.8033  159.4208 C   0  0  0  0  0  0  0  0  0  0  0  0
  150.6844  141.1727  156.3593 H   0  0  0  0  0  0  0  0  0  0  0  0
  151.7904  137.7261  153.2759 H   0  0  0  0  0  0  0  0  0  0  0  0
  149.8098  136.2501  159.2193 H   0  0  0  0  0  0  0  0  0  0  0  0
  149.7830  134.1448  157.9249 H   0  0  0  0  0  0  0  0  0  0  0  0
  150.0845  134.3249  154.1437 H   0  0  0  0  0  0  0  0  0  0  0  0
  149.1288  132.0121  153.5220 H   0  0  0  0  0  0  0  0  0  0  0  0
  148.1198  132.1276  154.9616 H   0  0  0  0  0  0  0  0  0  0  0  0
  146.5375  135.6350  153.3776 H   0  0  0  0  0  0  0  0  0  0  0  0
  145.1383  137.3337  152.2607 H   0  0  0  0  0  0  0  0  0  0  0  0
  143.6479  136.6913  150.3756 H   0  0  0  0  0  0  0  0  0  0  0  0
  143.5651  134.3259  149.6102 H   0  0  0  0  0  0  0  0  0  0  0  0
  144.9477  132.6123  150.7037 H   0  0  0  0  0  0  0  0  0  0  0  0
  151.6565  132.6013  154.6801 H   0  0  0  0  0  0  0  0  0  0  0  0
  152.1581  134.5010  156.0913 H   0  0  0  0  0  0  0  0  0  0  0  0
  150.8533  142.9304  156.4975 H   0  0  0  0  0  0  0  0  0  0  0  0
  150.5516  145.2719  157.2377 H   0  0  0  0  0  0  0  0  0  0  0  0
  151.5728  146.0538  159.3679 H   0  0  0  0  0  0  0  0  0  0  0  0
  152.8923  144.4745  160.7654 H   0  0  0  0  0  0  0  0  0  0  0  0
  153.1993  142.1322  160.0468 H   0  0  0  0  0  0  0  0  0  0  0  0
  1  2  2  0  0  0  0
  2  3  1  0  0  0  0
  2 33  1  0  0  0  0
  3  4  1  0  0  0  0
  3 39  1  0  0  0  0
  4  9  1  0  0  0  0
  4  5  2  0  0  0  0
  5  6  1  0  0  0  0
  6  7  2  0  0  0  0
  6 40  1  0  0  0  0
  7  8  1  0  0  0  0
  8 12  1  0  0  0  0
  8  9  2  0  0  0  0
  9 10  1  0  0  0  0
 10 11  2  0  0  0  0
 11 12  1  0  0  0  0
 11 41  1  0  0  0  0
 12 13  1  0  0  0  0
 13 32  1  0  0  0  0
 13 14  1  0  0  0  0
 13 42  1  0  0  0  0
 14 15  1  0  0  0  0
 15 16  1  0  0  0  0
 15 26  1  0  0  0  0
 15 43  1  0  0  0  0
 16 17  1  0  0  0  0
 16 44  1  0  0  0  0
 16 45  1  0  0  0  0
 17 18  1  0  0  0  0
 18 19  2  0  0  0  0
 18 20  1  0  0  0  0
 20 25  1  0  0  0  0
 20 21  2  0  0  0  0
 21 22  1  0  0  0  0
 21 46  1  0  0  0  0
 22 23  2  0  0  0  0
 22 47  1  0  0  0  0
 23 24  1  0  0  0  0
 23 48  1  0  0  0  0
 24 25  2  0  0  0  0
 24 49  1  0  0  0  0
 25 50  1  0  0  0  0
 26 32  1  0  0  0  0
 26 27  1  0  0  0  0
 26 51  1  0  0  0  0
 27 28  1  0  0  0  0
 28 29  2  0  0  0  0
 28 30  2  0  0  0  0
 28 31  1  0  0  0  0
 31 32  1  0  0  0  0
 32 52  1  0  0  0  0
 33 38  1  0  0  0  0
 33 34  2  0  0  0  0
 34 35  1  0  0  0  0
 34 53  1  0  0  0  0
 35 36  2  0  0  0  0
 35 54  1  0  0  0  0
 36 37  1  0  0  0  0
 36 55  1  0  0  0  0
 37 38  2  0  0  0  0
 37 56  1  0  0  0  0
 38 57  1  0  0  0  0
M  END
> <s_m_source_file>
AV-unprocessed.smi

> <i_m_source_file_index>
1

> <i_lp_mmshare_version>
43012

> <i_f3d_flags>
0

> <s_epik_input>
W2NIXTFbY0hdW2NIXVtjSF1bY0hdYzFDKD1PKVtOSF1jKG5bY0hdbjIpYyhjMjMpbltjSF1uM1tDQEBIXShbQ0BIXShbQ0BIXTQ1KU9TKE81KSg9Tyk9TylPW0NASF00W0NIMl1PQyg9TyljNltjSF1bY0hdW2NIXVtjSF1bY0hdNg==

> <s_epik_cmdline>
J2VwaWtfcHl0aG9uJywgJy1waCcsICc3LjAnLCAnLXRuJywgJzgnLCAnLW1hJywgJzIwMCcsICctbWV0YWxfYmluZGluZycsICctaW1hZScsICc8aW5maWxlLm1hZT4nLCAnLW9tYWUnLCAnPG91dGZpbGUubWFlPic=

> <r_lp_tautomer_probability>
1

> <r_epik_Ionization_Penalty>
0.00195722

> <r_epik_Ionization_Penalty_Charging>
0

> <r_epik_Ionization_Penalty_Neutral>
0.00195722

> <r_epik_State_Penalty>
0.00633741

> <r_epik_Charging_Adjusted_Penalty>
0.00633741

> <i_epik_Tot_Q>
0

> <i_epik_Tot_abs_Q>
0

> <r_epik_Metal_State_Penalty>
0.341185

> <b_epik_Metal_Only>
0

> <s_epik_Chemistry_Notes>
This compound has an ester and may undergo hydrolysis at high or low pH. This compound contains an acetal/aminal-like group ( X-CH(R)-Y where X, Y are N, S, or O) that may be acid/base labile, releasing an aldehyde.

> <s_lp_Force_Field>
OPLS_2005

> <r_lp_Energy>
46.3459

> <b_lp_Chiralities_Consistent>
1

> <s_lp_Variant>
AV-unprocessed.smi:1-4

> <Gold.Version>
5.8.1

> <Gold.Id.Protein>
6NUR|6NUR_protein|mol2

> <Gold.PLP.Fitness>
60.6309

> <Gold.PLP.PLP>
-52.3577

> <Gold.PLP.part.hbond>
-3.7260

> <Gold.PLP.part.metal>
0.0000

> <Gold.PLP.part.buried>
-3.9093

> <Gold.PLP.part.nonpolar>
-43.1786

> <Gold.PLP.part.repulsive>
0.6403

> <Gold.PLP.ligand.clash>
0.0000

> <Gold.PLP.ligand.torsion>
1.0128

> <Gold.PLP.Chemscore.Hbond>
2.4773

> <Gold.PLP.Chemscore.CHOScore>
0.8843

> <Gold.PLP.Chemscore.Metal>
0.0000

> <Gold.Chemscore.Hbonds>
donor molecule, donor type, donor heavy atom, donor atom, acceptor molecule, acceptor atom, score
      P1  H  6896  6908       L1    29  0.10
      P1  H  7989  7998       L1     5  0.44
      P1  H  7997  8010       L1     1  0.98
      P1  H 10752 10764       L1     7  0.69
      L1  C     6    40       P1  7949  0.92

> <Gold.PLP.Chemscore.Internal.Correction>
0.2140

> <Gold.Rescore>
     Score         DG    S(hbond)    S(metal)    S(lipo)     H(rot)  DE(clash)    DE(int)     intcor
     16.33     -19.54       1.54        0.00     122.81       2.13       2.03       1.18       ----

> <Gold.Chemscore.Fitness>
16.3307

> <Gold.Chemscore.DG>
-19.5424

> <Gold.Chemscore.ZeroCoef>
-5.4800

> <Gold.Chemscore.Hbond>
1.5432

> <Gold.Chemscore.Metal>
0.0000

> <Gold.Chemscore.Lipo>
122.8147

> <Gold.Chemscore.Internal_Hbond>
0.0000

> <Gold.Chemscore.DEClash>
2.0269

> <Gold.Chemscore.DEInternal>
1.1847

> <Gold.Chemscore.Rot>
2.1333

> <Gold.Chemscore.Internal.Correction>
   9.000000E+99

> <Gold.Chemscore.Hbonds>
donor molecule, donor type, donor heavy atom, donor atom, acceptor molecule, acceptor atom, score
      P1  H  7989  7998       L1     5  0.40
      P1  H  7997  8010       L1     1  0.45
      P1  H 10752 10764       L1     7  0.13

> <Gold.Chemscore.Hbond.Weighted>
-5.1544

> <Gold.Chemscore.Metal.Weighted>
-0.0000

> <Gold.Chemscore.Lipo.Weighted>
-14.3693

> <Gold.Chemscore.Internal_Hbond.Weighted>
0.0000

> <Gold.Chemscore.DEClash.Weighted>
2.0269

> <Gold.Chemscore.DEInternal.Weighted>
1.1847

> <Gold.Chemscore.Rot.Weighted>
5.4614

> <Gold.Chemscore.Internal.Correction.Weighted>
   9.000000E+99

> <Gold.Protein.RotatedTorsions>
[ 6907 6896 6895 6894 ] final   93.00 input  -60.11 | X-H torsion
[ 7974 7965 7964 7962 ] final  179.12 input  175.53 | X-H torsion
[ 8008 7997 7996 7995 ] final   34.90 input   59.86 | X-H torsion
[ 10167 10162 10161 10158 ] final -162.55 input  -65.29 | X-H torsion
[ 10718 10713 10712 10709 ] final   15.22 input   66.30 | X-H torsion
[ 10763 10752 10751 10750 ] final  -54.13 input  -60.55 | X-H torsion
[ 11005 11000 10999 10996 ] final -136.69 input  -57.11 | X-H torsion

> <Gold.Protein.ActiveResidues>
 VAL166  LYS551  ARG553  GLY616  TRP617  ASP618  TYR619  PRO620  LYS621  CYS622 
 ASP623  PHE694  ASN695  SER759  ASP760  ASP761  ALA762  ILE779  LEU786  VAL792 
 PHE793  MET794  SER795  GLU796  ALA797  LYS798  CYS799  TRP800  GLU811  SER814 

> <Gold.Protein.RotatedAtoms>
  152.5453  134.1416  159.8480 H   0  0  0  0  0  0  0  0  0  0  0  0  # atno 6907 bound_to 6896
  151.1451  133.4938  159.2603 H   0  0  0  0  0  0  0  0  0  0  0  0  # atno 6908 bound_to 6896
  151.1531  135.0247  159.8732 H   0  0  0  0  0  0  0  0  0  0  0  0  # atno 6909 bound_to 6896
  144.7149  140.0501  143.6435 H   0  0  0  0  0  0  0  0  0  0  0  0  # atno 7974 bound_to 7965
  155.1624  140.3284  155.4409 H   0  0  0  0  0  0  0  0  0  0  0  0  # atno 8008 bound_to 7997
  156.2538  140.1958  156.6681 H   0  0  0  0  0  0  0  0  0  0  0  0  # atno 8009 bound_to 7997
  154.6396  140.0572  156.9816 H   0  0  0  0  0  0  0  0  0  0  0  0  # atno 8010 bound_to 7997
  139.6384  144.0307  152.2072 H   0  0  0  0  0  0  0  0  0  0  0  0  # atno 10167 bound_to 10162
  157.0504  130.6267  149.5767 H   0  0  0  0  0  0  0  0  0  0  0  0  # atno 10718 bound_to 10713
  154.1700  135.6461  153.5007 H   0  0  0  0  0  0  0  0  0  0  0  0  # atno 10763 bound_to 10752
  153.0087  135.5381  154.6623 H   0  0  0  0  0  0  0  0  0  0  0  0  # atno 10764 bound_to 10752
  154.5959  135.2939  155.0558 H   0  0  0  0  0  0  0  0  0  0  0  0  # atno 10765 bound_to 10752
  140.8782  134.1966  157.4608 H   0  0  0  0  0  0  0  0  0  0  0  0  # atno 11005 bound_to 11000
  145.9951  139.3046  143.0961 LP  0  0  0  0  0  0  0  0  0  0  0  0  # atno 17320 bound_to 7965
  145.8858  140.9335  143.0578 LP  0  0  0  0  0  0  0  0  0  0  0  0  # atno 17321 bound_to 7965
  139.9990  144.6307  150.7747 LP  0  0  0  0  0  0  0  0  0  0  0  0  # atno 17342 bound_to 10162
  140.7477  143.2911  151.3328 LP  0  0  0  0  0  0  0  0  0  0  0  0  # atno 17343 bound_to 10162
  156.0009  130.5088  150.7660 LP  0  0  0  0  0  0  0  0  0  0  0  0  # atno 17370 bound_to 10713
  157.5034  131.0920  151.0286 LP  0  0  0  0  0  0  0  0  0  0  0  0  # atno 17371 bound_to 10713
  139.8717  134.9805  156.5079 LP  0  0  0  0  0  0  0  0  0  0  0  0  # atno 17394 bound_to 11000
  140.8493  133.8144  155.9153 LP  0  0  0  0  0  0  0  0  0  0  0  0  # atno 17395 bound_to 11000

$$$$
