AV-unprocessed.smi:699|AV-procd|sdf|3406|dock4
  -GOLD-   22720 0383D 1   1.00000     0.00000
 Structure written by MMmdl.
 35 36  0  0  0  0  0  0  0  0  2 V2000
  147.8189  132.7528  152.2640 N   0  0  0  0  0  0  0  0  0  0  0  0
  146.5475  133.1287  152.4240 C   0  0  0  0  0  0  0  0  0  0  0  0
  145.7951  132.5634  153.2153 O   0  0  0  0  0  0  0  0  0  0  0  0
  146.0541  134.3078  151.5718 C   0  0  1  0  0  0  0  0  0  0  0  0
  144.8780  133.9380  150.6563 C   0  0  0  0  0  0  0  0  0  0  0  0
  144.1670  135.2638  150.4027 C   0  0  0  0  0  0  0  0  0  0  0  0
  144.2628  136.0086  151.7337 C   0  0  0  0  0  0  0  0  0  0  0  0
  145.5473  135.5008  152.4197 C   0  0  2  0  0  0  0  0  0  0  0  0
  146.5681  136.5433  152.5141 N   0  0  0  0  0  0  0  0  0  0  0  0
  146.4073  137.7277  153.1214 C   0  0  0  0  0  0  0  0  0  0  0  0
  145.3577  138.0755  153.6612 O   0  0  0  0  0  0  0  0  0  0  0  0
  147.5248  138.4712  153.0406 N   0  0  0  0  0  0  0  0  0  0  0  0
  147.7681  139.7749  153.5542 C   0  0  0  0  0  0  0  0  0  0  0  0
  149.0264  140.0145  154.1503 C   0  0  0  0  0  0  0  0  0  0  0  0
  149.3128  141.2864  154.6868 C   0  0  0  0  0  0  0  0  0  0  0  0
  148.3813  142.2623  154.6363 N   0  3  0  0  0  0  0  0  0  0  0  0
  147.1605  142.0784  154.0896 C   0  0  0  0  0  0  0  0  0  0  0  0
  146.8170  140.8276  153.5367 C   0  0  0  0  0  0  0  0  0  0  0  0
  148.1826  131.9800  152.8029 H   0  0  0  0  0  0  0  0  0  0  0  0
  148.4112  133.2372  151.6057 H   0  0  0  0  0  0  0  0  0  0  0  0
  146.8678  134.6472  150.9273 H   0  0  0  0  0  0  0  0  0  0  0  0
  145.2076  133.4703  149.7279 H   0  0  0  0  0  0  0  0  0  0  0  0
  144.1930  133.2465  151.1498 H   0  0  0  0  0  0  0  0  0  0  0  0
  144.6981  135.8225  149.6309 H   0  0  0  0  0  0  0  0  0  0  0  0
  143.1373  135.1319  150.0694 H   0  0  0  0  0  0  0  0  0  0  0  0
  144.2417  137.0902  151.5941 H   0  0  0  0  0  0  0  0  0  0  0  0
  143.4025  135.7509  152.3527 H   0  0  0  0  0  0  0  0  0  0  0  0
  145.2920  135.1735  153.4302 H   0  0  0  0  0  0  0  0  0  0  0  0
  147.4601  136.3425  152.0868 H   0  0  0  0  0  0  0  0  0  0  0  0
  148.2788  138.0730  152.5001 H   0  0  0  0  0  0  0  0  0  0  0  0
  149.7718  139.2334  154.1938 H   0  0  0  0  0  0  0  0  0  0  0  0
  150.2512  141.5491  155.1532 H   0  0  0  0  0  0  0  0  0  0  0  0
  146.4960  142.9299  154.1153 H   0  0  0  0  0  0  0  0  0  0  0  0
  145.8285  140.7009  153.1229 H   0  0  0  0  0  0  0  0  0  0  0  0
  148.6073  143.1753  155.0318 H   0  0  0  0  0  0  0  0  0  0  0  0
  1  2  1  0  0  0  0
  1 19  1  0  0  0  0
  1 20  1  0  0  0  0
  2  3  2  0  0  0  0
  2  4  1  0  0  0  0
  4  8  1  0  0  0  0
  4  5  1  0  0  0  0
  4 21  1  0  0  0  0
  5  6  1  0  0  0  0
  5 22  1  0  0  0  0
  5 23  1  0  0  0  0
  6  7  1  0  0  0  0
  6 24  1  0  0  0  0
  6 25  1  0  0  0  0
  7  8  1  0  0  0  0
  7 26  1  0  0  0  0
  7 27  1  0  0  0  0
  8  9  1  0  0  0  0
  8 28  1  0  0  0  0
  9 10  1  0  0  0  0
  9 29  1  0  0  0  0
 10 11  2  0  0  0  0
 10 12  1  0  0  0  0
 12 13  1  0  0  0  0
 12 30  1  0  0  0  0
 13 18  1  0  0  0  0
 13 14  2  0  0  0  0
 14 15  1  0  0  0  0
 14 31  1  0  0  0  0
 15 16  2  0  0  0  0
 15 32  1  0  0  0  0
 16 17  1  0  0  0  0
 16 35  1  0  0  0  0
 17 18  2  0  0  0  0
 17 33  1  0  0  0  0
 18 34  1  0  0  0  0
M  CHG  1  16   1
M  END
> <s_m_source_file>
AV-unprocessed.smi

> <i_m_source_file_index>
699

> <i_lp_mmshare_version>
43012

> <i_f3d_flags>
0

> <s_epik_input>
W05IMl1DKD1PKVtDQEBIXTFbQ0gyXVtDSDJdW0NIMl1bQ0BIXTFbTkhdQyg9TylbTkhdYzJbY0hdW2NIXW5bY0hdW2NIXTI=

> <s_epik_cmdline>
J2VwaWtfcHl0aG9uJywgJy1waCcsICc3LjAnLCAnLXRuJywgJzgnLCAnLW1hJywgJzIwMCcsICctbWV0YWxfYmluZGluZycsICctaW1hZScsICc8aW5maWxlLm1hZT4nLCAnLW9tYWUnLCAnPG91dGZpbGUubWFlPic=

> <r_epik_Ionization_Penalty>
1.0332

> <r_epik_Ionization_Penalty_Charging>
1.03318

> <r_epik_Ionization_Penalty_Neutral>
1.91967e-05

> <r_epik_State_Penalty>
1.08452

> <r_epik_Charging_Adjusted_Penalty>
2.11769

> <i_epik_Tot_Q>
1

> <i_epik_Tot_abs_Q>
1

> <r_epik_Metal_State_Penalty>
1.18144

> <b_epik_Metal_Only>
0

> <s_lp_Force_Field>
OPLS_2005

> <r_lp_Energy>
26.7554

> <b_lp_Chiralities_Consistent>
1

> <s_lp_Variant>
AV-unprocessed.smi:699-8

> <Gold.Version>
5.8.1

> <Gold.Id.Protein>
6NUR|6NUR_protein|mol2

> <Gold.PLP.Fitness>
40.3345

> <Gold.PLP.PLP>
-29.7739

> <Gold.PLP.part.hbond>
-4.2662

> <Gold.PLP.part.metal>
0.0000

> <Gold.PLP.part.buried>
-2.8570

> <Gold.PLP.part.nonpolar>
-25.0034

> <Gold.PLP.part.repulsive>
0.6013

> <Gold.PLP.ligand.clash>
0.0000

> <Gold.PLP.ligand.torsion>
0.3242

> <Gold.PLP.Chemscore.Hbond>
3.7351

> <Gold.PLP.Chemscore.CHOScore>
0.0000

> <Gold.PLP.Chemscore.Metal>
0.0000

> <Gold.Chemscore.Hbonds>
donor molecule, donor type, donor heavy atom, donor atom, acceptor molecule, acceptor atom, score
      L1  H     9    29       P1  7948  0.91
      L1  H    12    30       P1  7948  0.80
      L1  H    16    35       P1  8028  2.00

> <Gold.PLP.Chemscore.Internal.Correction>
0.0036

> <Gold.Rescore>
     Score         DG    S(hbond)    S(metal)    S(lipo)     H(rot)  DE(clash)    DE(int)     intcor
     17.51     -17.91       2.85        0.00      57.83       1.50       0.05       0.35       ----

> <Gold.Chemscore.Fitness>
17.5130

> <Gold.Chemscore.DG>
-17.9116

> <Gold.Chemscore.ZeroCoef>
-5.4800

> <Gold.Chemscore.Hbond>
2.8488

> <Gold.Chemscore.Metal>
0.0000

> <Gold.Chemscore.Lipo>
57.8323

> <Gold.Chemscore.Internal_Hbond>
0.0000

> <Gold.Chemscore.DEClash>
0.0483

> <Gold.Chemscore.DEInternal>
0.3503

> <Gold.Chemscore.Rot>
1.5038

> <Gold.Chemscore.Internal.Correction>
   9.000000E+99

> <Gold.Chemscore.Hbonds>
donor molecule, donor type, donor heavy atom, donor atom, acceptor molecule, acceptor atom, score
      L1  H     9    29       P1  7948  0.88
      L1  H    12    30       P1  7948  0.75
      L1  H    16    35       P1  8028  1.00

> <Gold.Chemscore.Hbond.Weighted>
-9.5148

> <Gold.Chemscore.Metal.Weighted>
-0.0000

> <Gold.Chemscore.Lipo.Weighted>
-6.7664

> <Gold.Chemscore.Internal_Hbond.Weighted>
0.0000

> <Gold.Chemscore.DEClash.Weighted>
0.0483

> <Gold.Chemscore.DEInternal.Weighted>
0.3503

> <Gold.Chemscore.Rot.Weighted>
3.8496

> <Gold.Chemscore.Internal.Correction.Weighted>
   9.000000E+99

> <Gold.Protein.RotatedTorsions>
[ 6907 6896 6895 6894 ] final   61.33 input  -60.11 | X-H torsion
[ 7974 7965 7964 7962 ] final  154.32 input  175.53 | X-H torsion
[ 8008 7997 7996 7995 ] final  -58.72 input   59.86 | X-H torsion
[ 10167 10162 10161 10158 ] final  -31.22 input  -65.29 | X-H torsion
[ 10718 10713 10712 10709 ] final  -20.91 input   66.30 | X-H torsion
[ 10763 10752 10751 10750 ] final  164.53 input  -60.55 | X-H torsion
[ 11005 11000 10999 10996 ] final  104.63 input  -57.11 | X-H torsion

> <Gold.Protein.ActiveResidues>
 VAL166  LYS551  ARG553  GLY616  TRP617  ASP618  TYR619  PRO620  LYS621  CYS622 
 ASP623  PHE694  ASN695  SER759  ASP760  ASP761  ALA762  ILE779  LEU786  VAL792 
 PHE793  MET794  SER795  GLU796  ALA797  LYS798  CYS799  TRP800  GLU811  SER814 

> <Gold.Protein.RotatedAtoms>
  152.4080  134.6174  160.0041 H   0  0  0  0  0  0  0  0  0  0  0  0  # atno 6907 bound_to 6896
  151.6360  133.3323  159.3127 H   0  0  0  0  0  0  0  0  0  0  0  0  # atno 6908 bound_to 6896
  150.7973  134.7082  159.6633 H   0  0  0  0  0  0  0  0  0  0  0  0  # atno 6909 bound_to 6896
  144.8096  139.6918  143.6147 H   0  0  0  0  0  0  0  0  0  0  0  0  # atno 7974 bound_to 7965
  154.4321  140.1078  156.6002 H   0  0  0  0  0  0  0  0  0  0  0  0  # atno 8008 bound_to 7997
  155.5919  140.3492  155.4550 H   0  0  0  0  0  0  0  0  0  0  0  0  # atno 8009 bound_to 7997
  156.0240  140.1246  157.0317 H   0  0  0  0  0  0  0  0  0  0  0  0  # atno 8010 bound_to 7997
  140.7239  143.3788  151.1640 H   0  0  0  0  0  0  0  0  0  0  0  0  # atno 10167 bound_to 10162
  156.5254  130.4642  149.6575 H   0  0  0  0  0  0  0  0  0  0  0  0  # atno 10718 bound_to 10713
  154.3103  135.2757  155.2569 H   0  0  0  0  0  0  0  0  0  0  0  0  # atno 10763 bound_to 10752
  154.4967  135.5819  153.6503 H   0  0  0  0  0  0  0  0  0  0  0  0  # atno 10764 bound_to 10752
  152.9889  135.6148  154.3280 H   0  0  0  0  0  0  0  0  0  0  0  0  # atno 10765 bound_to 10752
  139.8794  134.9307  156.5391 H   0  0  0  0  0  0  0  0  0  0  0  0  # atno 11005 bound_to 11000
  146.2393  139.5969  142.9502 LP  0  0  0  0  0  0  0  0  0  0  0  0  # atno 17320 bound_to 7965
  145.5354  141.0424  143.2360 LP  0  0  0  0  0  0  0  0  0  0  0  0  # atno 17321 bound_to 7965
  139.7373  143.8980  152.3039 LP  0  0  0  0  0  0  0  0  0  0  0  0  # atno 17342 bound_to 10162
  139.8789  144.7028  150.8901 LP  0  0  0  0  0  0  0  0  0  0  0  0  # atno 17343 bound_to 10162
  156.3110  130.7229  151.2121 LP  0  0  0  0  0  0  0  0  0  0  0  0  # atno 17370 bound_to 10713
  157.7430  131.0481  150.4979 LP  0  0  0  0  0  0  0  0  0  0  0  0  # atno 17371 bound_to 10713
  140.8324  133.8269  155.8996 LP  0  0  0  0  0  0  0  0  0  0  0  0  # atno 17394 bound_to 11000
  140.9316  134.2014  157.4860 LP  0  0  0  0  0  0  0  0  0  0  0  0  # atno 17395 bound_to 11000

$$$$
