AV-unprocessed.smi:2147|AV-procd|sdf|8745|dock2
  -GOLD-   2272011523D 1   1.00000     0.00000
 Structure written by MMmdl.
 42 44  0  0  0  0  0  0  0  0  2 V2000
  145.9032  131.6067  161.2526 C   0  0  0  0  0  0  0  0  0  0  0  0
  145.8672  132.9622  161.9563 C   0  0  0  0  0  0  0  0  0  0  0  0
  145.1539  133.0928  162.9505 O   0  0  0  0  0  0  0  0  0  0  0  0
  146.7075  134.0591  161.3966 C   0  0  0  0  0  0  0  0  0  0  0  0
  147.0325  135.2099  162.1514 C   0  0  0  0  0  0  0  0  0  0  0  0
  147.8260  136.2298  161.5919 C   0  0  0  0  0  0  0  0  0  0  0  0
  148.3121  136.1296  160.2734 C   0  0  0  0  0  0  0  0  0  0  0  0
  149.0744  137.1780  159.8044 O   0  0  0  0  0  0  0  0  0  0  0  0
  149.4226  137.1917  158.4264 C   0  0  0  0  0  0  0  0  0  0  0  0
  149.3761  138.6389  157.9150 C   0  0  1  0  0  0  0  0  0  0  0  0
  148.1606  139.2256  158.3373 O   0  0  0  0  0  0  0  0  0  0  0  0
  150.5633  139.4801  158.4258 C   0  0  0  0  0  0  0  0  0  0  0  0
  150.5062  140.8788  157.9817 N   0  0  0  0  0  0  0  0  0  0  0  0
  149.7705  141.4512  156.9905 C   0  0  0  0  0  0  0  0  0  0  0  0
  150.0726  142.7792  156.9691 N   0  3  0  0  0  0  0  0  0  0  0  0
  151.0165  143.0583  157.9600 C   0  0  0  0  0  0  0  0  0  0  0  0
  151.6303  144.2529  158.3240 C   0  0  0  0  0  0  0  0  0  0  0  0
  152.5563  144.1905  159.3862 C   0  0  0  0  0  0  0  0  0  0  0  0
  152.8413  142.9750  160.0424 C   0  0  0  0  0  0  0  0  0  0  0  0
  152.2130  141.7696  159.6651 C   0  0  0  0  0  0  0  0  0  0  0  0
  151.2992  141.8408  158.6146 C   0  0  0  0  0  0  0  0  0  0  0  0
  147.9921  134.9747  159.5183 C   0  0  0  0  0  0  0  0  0  0  0  0
  147.1988  133.9537  160.0762 C   0  0  0  0  0  0  0  0  0  0  0  0
  146.9180  131.2089  161.2404 H   0  0  0  0  0  0  0  0  0  0  0  0
  145.5484  131.7001  160.2262 H   0  0  0  0  0  0  0  0  0  0  0  0
  145.2633  130.8915  161.7703 H   0  0  0  0  0  0  0  0  0  0  0  0
  146.6828  135.3343  163.1653 H   0  0  0  0  0  0  0  0  0  0  0  0
  148.0620  137.1024  162.1832 H   0  0  0  0  0  0  0  0  0  0  0  0
  150.4302  136.7898  158.3057 H   0  0  0  0  0  0  0  0  0  0  0  0
  148.7387  136.5703  157.8455 H   0  0  0  0  0  0  0  0  0  0  0  0
  149.3726  138.6301  156.8245 H   0  0  0  0  0  0  0  0  0  0  0  0
  147.9131  138.8406  159.1643 H   0  0  0  0  0  0  0  0  0  0  0  0
  150.5798  139.4857  159.5166 H   0  0  0  0  0  0  0  0  0  0  0  0
  151.5148  139.0543  158.1047 H   0  0  0  0  0  0  0  0  0  0  0  0
  149.0769  140.9423  156.3368 H   0  0  0  0  0  0  0  0  0  0  0  0
  151.4146  145.1850  157.8226 H   0  0  0  0  0  0  0  0  0  0  0  0
  153.0581  145.0930  159.7038 H   0  0  0  0  0  0  0  0  0  0  0  0
  153.5571  142.9672  160.8517 H   0  0  0  0  0  0  0  0  0  0  0  0
  152.4382  140.8428  160.1717 H   0  0  0  0  0  0  0  0  0  0  0  0
  148.3426  134.8461  158.5057 H   0  0  0  0  0  0  0  0  0  0  0  0
  146.9712  133.0862  159.4734 H   0  0  0  0  0  0  0  0  0  0  0  0
  149.6650  143.4427  156.3229 H   0  0  0  0  0  0  0  0  0  0  0  0
  1  2  1  0  0  0  0
  1 24  1  0  0  0  0
  1 25  1  0  0  0  0
  1 26  1  0  0  0  0
  2  3  2  0  0  0  0
  2  4  1  0  0  0  0
  4 23  1  0  0  0  0
  4  5  2  0  0  0  0
  5  6  1  0  0  0  0
  5 27  1  0  0  0  0
  6  7  2  0  0  0  0
  6 28  1  0  0  0  0
  7  8  1  0  0  0  0
  7 22  1  0  0  0  0
  8  9  1  0  0  0  0
  9 10  1  0  0  0  0
  9 29  1  0  0  0  0
  9 30  1  0  0  0  0
 10 11  1  0  0  0  0
 10 12  1  0  0  0  0
 10 31  1  0  0  0  0
 11 32  1  0  0  0  0
 12 13  1  0  0  0  0
 12 33  1  0  0  0  0
 12 34  1  0  0  0  0
 13 21  1  0  0  0  0
 13 14  1  0  0  0  0
 14 15  2  0  0  0  0
 14 35  1  0  0  0  0
 15 16  1  0  0  0  0
 15 42  1  0  0  0  0
 16 21  2  0  0  0  0
 16 17  1  0  0  0  0
 17 18  2  0  0  0  0
 17 36  1  0  0  0  0
 18 19  1  0  0  0  0
 18 37  1  0  0  0  0
 19 20  2  0  0  0  0
 19 38  1  0  0  0  0
 20 21  1  0  0  0  0
 20 39  1  0  0  0  0
 22 23  2  0  0  0  0
 22 40  1  0  0  0  0
 23 41  1  0  0  0  0
M  CHG  1  15   1
M  END
> <s_m_source_file>
AV-unprocessed.smi

> <i_m_source_file_index>
2147

> <i_lp_mmshare_version>
43012

> <i_f3d_flags>
0

> <s_epik_input>
W0NIM11DKD1PKWMxW2NIXVtjSF1jKFtjSF1bY0hdMSlPW0NIMl1bQ0BIXShbT0hdKVtDSDJdbihbY0hdbjIpYyhjMjMpW2NIXVtjSF1bY0hdW2NIXTM=

> <s_epik_cmdline>
J2VwaWtfcHl0aG9uJywgJy1waCcsICc3LjAnLCAnLXRuJywgJzgnLCAnLW1hJywgJzIwMCcsICctbWV0YWxfYmluZGluZycsICctaW1hZScsICc8aW5maWxlLm1hZT4nLCAnLW9tYWUnLCAnPG91dGZpbGUubWFlPic=

> <r_lp_tautomer_probability>
0.99995

> <r_epik_Ionization_Penalty>
1.40272

> <r_epik_Ionization_Penalty_Charging>
1.40272

> <r_epik_Ionization_Penalty_Neutral>
2.3993e-06

> <r_epik_State_Penalty>
1.48501

> <r_epik_Charging_Adjusted_Penalty>
2.88772

> <i_epik_Tot_Q>
1

> <i_epik_Tot_abs_Q>
1

> <r_epik_Metal_State_Penalty>
5.5274

> <b_epik_Metal_Only>
0

> <s_lp_Force_Field>
OPLS_2005

> <r_lp_Energy>
26.1974

> <b_lp_Chiralities_Consistent>
1

> <s_lp_Variant>
AV-unprocessed.smi:2147-4

> <Gold.Version>
5.8.1

> <Gold.Id.Protein>
6NUR|6NUR_protein|mol2

> <Gold.PLP.Fitness>
55.4902

> <Gold.PLP.PLP>
-50.3211

> <Gold.PLP.part.hbond>
-4.2819

> <Gold.PLP.part.metal>
0.0000

> <Gold.PLP.part.buried>
-6.0039

> <Gold.PLP.part.nonpolar>
-41.4076

> <Gold.PLP.part.repulsive>
0.1427

> <Gold.PLP.ligand.clash>
0.0000

> <Gold.PLP.ligand.torsion>
0.7558

> <Gold.PLP.Chemscore.Hbond>
2.1258

> <Gold.PLP.Chemscore.CHOScore>
0.0000

> <Gold.PLP.Chemscore.Metal>
0.0000

> <Gold.Chemscore.Hbonds>
donor molecule, donor type, donor heavy atom, donor atom, acceptor molecule, acceptor atom, score
      L1  H    15    42       P1  8028  2.00
      P1  H  6931  6943       L1     8  0.07

> <Gold.PLP.Chemscore.Internal.Correction>
0.3034

> <Gold.Rescore>
     Score         DG    S(hbond)    S(metal)    S(lipo)     H(rot)  DE(clash)    DE(int)     intcor
     15.49     -16.40       0.97        0.00     120.02       2.48       0.08       0.83       ----

> <Gold.Chemscore.Fitness>
15.4935

> <Gold.Chemscore.DG>
-16.3981

> <Gold.Chemscore.ZeroCoef>
-5.4800

> <Gold.Chemscore.Hbond>
0.9686

> <Gold.Chemscore.Metal>
0.0000

> <Gold.Chemscore.Lipo>
120.0201

> <Gold.Chemscore.Internal_Hbond>
0.0000

> <Gold.Chemscore.DEClash>
0.0766

> <Gold.Chemscore.DEInternal>
0.8281

> <Gold.Chemscore.Rot>
2.4842

> <Gold.Chemscore.Internal.Correction>
   9.000000E+99

> <Gold.Chemscore.Hbonds>
donor molecule, donor type, donor heavy atom, donor atom, acceptor molecule, acceptor atom, score
      L1  H    15    42       P1  8028  0.99
      P1  H  6931  6943       L1     8  0.01

> <Gold.Chemscore.Hbond.Weighted>
-3.2352

> <Gold.Chemscore.Metal.Weighted>
-0.0000

> <Gold.Chemscore.Lipo.Weighted>
-14.0423

> <Gold.Chemscore.Internal_Hbond.Weighted>
0.0000

> <Gold.Chemscore.DEClash.Weighted>
0.0766

> <Gold.Chemscore.DEInternal.Weighted>
0.8281

> <Gold.Chemscore.Rot.Weighted>
6.3594

> <Gold.Chemscore.Internal.Correction.Weighted>
   9.000000E+99

> <Gold.Protein.RotatedTorsions>
[ 6907 6896 6895 6894 ] final  -50.57 input  -60.11 | X-H torsion
[ 7974 7965 7964 7962 ] final   70.97 input  175.53 | X-H torsion
[ 8008 7997 7996 7995 ] final  -49.00 input   59.86 | X-H torsion
[ 10167 10162 10161 10158 ] final  -80.53 input  -65.29 | X-H torsion
[ 10718 10713 10712 10709 ] final  178.29 input   66.30 | X-H torsion
[ 10763 10752 10751 10750 ] final   21.19 input  -60.55 | X-H torsion
[ 11005 11000 10999 10996 ] final  130.84 input  -57.11 | X-H torsion

> <Gold.Protein.ActiveResidues>
 VAL166  LYS551  ARG553  GLY616  TRP617  ASP618  TYR619  PRO620  LYS621  CYS622 
 ASP623  PHE694  ASN695  SER759  ASP760  ASP761  ALA762  ILE779  LEU786  VAL792 
 PHE793  MET794  SER795  GLU796  ALA797  LYS798  CYS799  TRP800  GLU811  SER814 

> <Gold.Protein.RotatedAtoms>
  150.8694  134.8065  159.7143 H   0  0  0  0  0  0  0  0  0  0  0  0  # atno 6907 bound_to 6896
  152.4704  134.4971  159.9723 H   0  0  0  0  0  0  0  0  0  0  0  0  # atno 6908 bound_to 6896
  151.5062  133.3456  159.2913 H   0  0  0  0  0  0  0  0  0  0  0  0  # atno 6909 bound_to 6896
  145.7716  139.2846  143.1318 H   0  0  0  0  0  0  0  0  0  0  0  0  # atno 7974 bound_to 7965
  154.4037  140.1307  156.4431 H   0  0  0  0  0  0  0  0  0  0  0  0  # atno 8008 bound_to 7997
  155.7440  140.3489  155.5098 H   0  0  0  0  0  0  0  0  0  0  0  0  # atno 8009 bound_to 7997
  155.9013  140.1020  157.1338 H   0  0  0  0  0  0  0  0  0  0  0  0  # atno 8010 bound_to 7997
  140.4494  143.2488  151.8510 H   0  0  0  0  0  0  0  0  0  0  0  0  # atno 10167 bound_to 10162
  156.8928  130.9853  151.3047 H   0  0  0  0  0  0  0  0  0  0  0  0  # atno 10718 bound_to 10713
  153.1016  135.6674  153.9663 H   0  0  0  0  0  0  0  0  0  0  0  0  # atno 10763 bound_to 10752
  153.9232  135.3012  155.3448 H   0  0  0  0  0  0  0  0  0  0  0  0  # atno 10764 bound_to 10752
  154.7436  135.5068  153.9241 H   0  0  0  0  0  0  0  0  0  0  0  0  # atno 10765 bound_to 10752
  139.9695  134.9581  156.9352 H   0  0  0  0  0  0  0  0  0  0  0  0  # atno 11005 bound_to 11000
  146.0164  140.8388  142.9945 LP  0  0  0  0  0  0  0  0  0  0  0  0  # atno 17320 bound_to 7965
  144.6812  140.2565  143.7324 LP  0  0  0  0  0  0  0  0  0  0  0  0  # atno 17321 bound_to 7965
  139.4795  144.5137  151.8897 LP  0  0  0  0  0  0  0  0  0  0  0  0  # atno 17342 bound_to 10162
  140.4225  144.2225  150.5887 LP  0  0  0  0  0  0  0  0  0  0  0  0  # atno 17343 bound_to 10162
  157.6074  130.8557  149.8896 LP  0  0  0  0  0  0  0  0  0  0  0  0  # atno 17370 bound_to 10713
  156.0621  130.3698  150.0960 LP  0  0  0  0  0  0  0  0  0  0  0  0  # atno 17371 bound_to 10713
  140.5324  134.0801  155.7319 LP  0  0  0  0  0  0  0  0  0  0  0  0  # atno 17394 bound_to 11000
  141.1375  133.9196  157.2401 LP  0  0  0  0  0  0  0  0  0  0  0  0  # atno 17395 bound_to 11000

$$$$
