#       Name:                AV-unprocessed.smi:2750
#       Creating user name   scv26
#       Creation time:       Fri Mar 27 15:04:28 2020


#       File generated by GOLD software.
#

@<TRIPOS>MOLECULE
AV-unprocessed.smi:2750
    35    36     1
SMALL
NO_CHARGES


@<TRIPOS>ATOM
      1 ****        -4.4787   1.8003  -1.4859 O.co2          1 S1                 0.0000
      2 ****        -4.2292   0.8452  -0.7179 C.2            1 S1                 0.0000
      3 ****        -4.4603   0.8187   0.5112 O.co2          1 S1                -1.0000
      4 ****        -3.6012  -0.4037  -1.3368 C.3            1 S1                 0.0000
      5 ****        -2.1561  -0.4171  -1.1994 N.pl3          1 S1                 0.0000
      6 ****        -1.3975  -0.8714  -0.1403 C.2            1 S1                 0.0000
      7 ****        -0.1131  -0.6538  -0.5515 C.2            1 S1                 0.0000
      8 ****         1.1705  -0.9479   0.1695 C.3            1 S1                 0.0000
      9 ****         1.7214   0.2605   0.9596 C.3            1 S1                 0.0000
     10 ****         2.3098   1.2631   0.0865 N.pl3          1 S1                -1.0000
     11 ****         3.6032   1.4397   0.4428 C.2            1 S1                 0.0000
     12 ****         4.4216   2.2102  -0.0541 O.2            1 S1                 0.0000
     13 ****         3.9279   0.6339   1.4589 N.am           1 S1                 0.0000
     14 ****         2.8993  -0.1182   1.8373 C.2            1 S1                 0.0000
     15 ****         2.8826  -0.9660   2.7290 O.2            1 S1                 0.0000
     16 ****        -0.1433  -0.0829  -1.8242 N.2            1 S1                 0.0000
     17 ****        -1.3758   0.0586  -2.1997 N.2            1 S1                 0.0000
     18 ****        -4.0051  -1.2942  -0.8533 H              1 S1                 0.0000
     19 ****        -3.8652  -0.4706  -2.3936 H              1 S1                 0.0000
     20 ****        -1.8185  -1.2848   0.7639 H              1 S1                 0.0000
     21 ****         1.0022  -1.7796   0.8551 H              1 S1                 0.0000
     22 ****         1.9208  -1.3056  -0.5378 H              1 S1                 0.0000
     23 ****         0.9405   0.6708   1.6017 H              1 S1                 0.0000
     24 ****         4.8444   0.5950   1.8791 H              1 S1                 0.0000
     25 ****        -4.8992   2.6337  -1.1272 LP             1 S1                 0.0000
     26 ****        -4.2577   1.7306  -2.4587 LP             1 S1                 0.0000
     27 ****        -4.8800   1.6087   0.9582 LP             1 S1                 0.0000
     28 ****        -4.2254   0.0075   1.0467 LP             1 S1                 0.0000
     29 ****         1.8376   1.7421  -0.6535 LP             1 S1                 0.0000
     30 ****         4.1541   2.8008  -0.8154 LP             1 S1                 0.0000
     31 ****         5.3550   2.2465   0.3029 LP             1 S1                 0.0000
     32 ****         2.0414  -1.4706   2.9235 LP             1 S1                 0.0000
     33 ****         3.7102  -1.1504   3.2591 LP             1 S1                 0.0000
     34 ****         0.6591   0.1762  -2.3618 LP             1 S1                 0.0000
     35 ****        -1.6917   0.4463  -3.0657 LP             1 S1                 0.0000
@<TRIPOS>BOND
    1    1    2 ar    
    2    2    3 ar    
    3    2    4 1     
    4    4    5 1     
    5    4   18 1     
    6    4   19 1     
    7    5   17 1     
    8    5    6 1     
    9    6    7 2     
   10    6   20 1     
   11    7    8 1     
   12    7   16 1     
   13    8    9 1     
   14    8   21 1     
   15    8   22 1     
   16    9   14 1     
   17    9   10 1     
   18    9   23 1     
   19   10   11 1     
   20   11   12 2     
   21   11   13 am    
   22   13   14 am    
   23   13   24 1     
   24   14   15 2     
   25   16   17 2     
   26    1   25 1     
   27    1   26 1     
   28    3   27 1     
   29    3   28 1     
   30   10   29 1     
   31   12   30 1     
   32   12   31 1     
   33   15   32 1     
   34   15   33 1     
   35   16   34 1     
   36   17   35 1     
@<TRIPOS>SUBSTRUCTURE
      1 S1             1
@<TRIPOS>SET
LONE_PAIRS      STATIC     ATOMS    <user>   **** ""
11 25 26 27 28 29 30 31 32 33 34 35
DONOR_HYDROGENS      STATIC     ATOMS    <user>   **** ""
1 24
ATOM$BLUE        STATIC     ATOMS    COLORGROUP SYSTEM
11 25 26 27 28 29 30 31 32 33 34 35
ATOM$RED        STATIC     ATOMS    COLORGROUP SYSTEM
1 24
