AV-unprocessed.smi:2290|AV-procd|sdf|9210|dock9
  -GOLD-   2272012433D 1   1.00000     0.00000
 Structure written by MMmdl.
 38 39  0  0  0  0  0  0  0  0  1 V2000
  153.4361  142.8538  162.8865 C   0  0  0  0  0  0  0  0  0  0  0  0
  153.0444  142.6533  161.4332 C   0  0  0  0  0  0  0  0  0  0  0  0
  152.2676  143.6707  160.8712 N   0  0  0  0  0  0  0  0  0  0  0  0
  151.8878  143.5857  159.6384 C   0  0  0  0  0  0  0  0  0  0  0  0
  152.2356  142.4889  158.8333 N   0  0  0  0  0  0  0  0  0  0  0  0
  151.7469  142.5184  157.4451 C   0  0  0  0  0  0  0  0  0  0  0  0
  150.5521  141.5632  157.2257 C   0  0  2  0  0  0  0  0  0  0  0  0
  150.9566  140.2175  157.3802 O   0  0  0  0  0  0  0  0  0  0  0  0
  149.9182  141.7071  155.8323 C   0  0  0  0  0  0  0  0  0  0  0  0
  148.8648  140.7637  155.6744 O   0  0  0  0  0  0  0  0  0  0  0  0
  147.6631  141.1198  156.3444 C   0  0  0  0  0  0  0  0  0  0  0  0
  146.8549  142.0096  155.4506 C   0  0  0  0  0  0  0  0  0  0  0  0
  147.1242  142.3404  154.1469 C   0  0  0  0  0  0  0  0  0  0  0  0
  146.1602  143.2252  153.5799 C   0  0  0  0  0  0  0  0  0  0  0  0
  145.1697  143.5668  154.4614 C   0  0  0  0  0  0  0  0  0  0  0  0
  145.4047  142.8090  156.0124 S   0  0  0  0  0  0  0  0  0  0  0  0
  152.9948  141.4558  159.3005 C   0  0  0  0  0  0  0  0  0  0  0  0
  153.3041  140.5038  158.5810 O   0  0  0  0  0  0  0  0  0  0  0  0
  153.4164  141.5642  160.7064 C   0  0  0  0  0  0  0  0  0  0  0  0
  154.2616  140.4259  161.2646 C   0  0  0  0  0  0  0  0  0  0  0  0
  153.0534  142.0394  163.5022 H   0  0  0  0  0  0  0  0  0  0  0  0
  153.0339  143.7880  163.2808 H   0  0  0  0  0  0  0  0  0  0  0  0
  154.5211  142.8887  162.9879 H   0  0  0  0  0  0  0  0  0  0  0  0
  151.2843  144.3536  159.1512 H   0  0  0  0  0  0  0  0  0  0  0  0
  151.4377  143.5393  157.2134 H   0  0  0  0  0  0  0  0  0  0  0  0
  152.5404  142.3103  156.7243 H   0  0  0  0  0  0  0  0  0  0  0  0
  149.7729  141.7539  157.9645 H   0  0  0  0  0  0  0  0  0  0  0  0
  151.8722  140.2031  157.6133 H   0  0  0  0  0  0  0  0  0  0  0  0
  149.5537  142.7233  155.6729 H   0  0  0  0  0  0  0  0  0  0  0  0
  150.6869  141.5246  155.0802 H   0  0  0  0  0  0  0  0  0  0  0  0
  147.1008  140.2091  156.5508 H   0  0  0  0  0  0  0  0  0  0  0  0
  147.8683  141.5943  157.3053 H   0  0  0  0  0  0  0  0  0  0  0  0
  147.9717  141.9787  153.5837 H   0  0  0  0  0  0  0  0  0  0  0  0
  146.2274  143.5765  152.5609 H   0  0  0  0  0  0  0  0  0  0  0  0
  144.3230  144.2169  154.2971 H   0  0  0  0  0  0  0  0  0  0  0  0
  155.1858  140.3295  160.6939 H   0  0  0  0  0  0  0  0  0  0  0  0
  153.7181  139.4833  161.1903 H   0  0  0  0  0  0  0  0  0  0  0  0
  154.5347  140.5650  162.3094 H   0  0  0  0  0  0  0  0  0  0  0  0
  1  2  1  0  0  0  0
  1 21  1  0  0  0  0
  1 22  1  0  0  0  0
  1 23  1  0  0  0  0
  2 19  2  0  0  0  0
  2  3  1  0  0  0  0
  3  4  2  0  0  0  0
  4  5  1  0  0  0  0
  4 24  1  0  0  0  0
  5  6  1  0  0  0  0
  5 17  1  0  0  0  0
  6  7  1  0  0  0  0
  6 25  1  0  0  0  0
  6 26  1  0  0  0  0
  7  8  1  0  0  0  0
  7  9  1  0  0  0  0
  7 27  1  0  0  0  0
  8 28  1  0  0  0  0
  9 10  1  0  0  0  0
  9 29  1  0  0  0  0
  9 30  1  0  0  0  0
 10 11  1  0  0  0  0
 11 12  1  0  0  0  0
 11 31  1  0  0  0  0
 11 32  1  0  0  0  0
 12 16  1  0  0  0  0
 12 13  2  0  0  0  0
 13 14  1  0  0  0  0
 13 33  1  0  0  0  0
 14 15  2  0  0  0  0
 14 34  1  0  0  0  0
 15 16  1  0  0  0  0
 15 35  1  0  0  0  0
 17 18  2  0  0  0  0
 17 19  1  0  0  0  0
 19 20  1  0  0  0  0
 20 36  1  0  0  0  0
 20 37  1  0  0  0  0
 20 38  1  0  0  0  0
M  END
> <s_m_source_file>
AV-unprocessed.smi

> <i_m_source_file_index>
2290

> <i_lp_mmshare_version>
43012

> <i_f3d_flags>
0

> <s_epik_input>
W0NIM11jMW5bY0hdbihjKD1PKWMxW0NIM10pW0NIMl1bQ0BIXShbT0hdKVtDSDJdT1tDSDJdYzJbY0hdW2NIXVtjSF1zMg==

> <s_epik_cmdline>
J2VwaWtfcHl0aG9uJywgJy1waCcsICc3LjAnLCAnLXRuJywgJzgnLCAnLW1hJywgJzIwMCcsICctbWV0YWxfYmluZGluZycsICctaW1hZScsICc8aW5maWxlLm1hZT4nLCAnLW9tYWUnLCAnPG91dGZpbGUubWFlPic=

> <r_lp_tautomer_probability>
1

> <r_epik_Ionization_Penalty>
4.77825e-05

> <r_epik_Ionization_Penalty_Charging>
1.20754e-07

> <r_epik_Ionization_Penalty_Neutral>
4.76618e-05

> <r_epik_State_Penalty>
-0

> <r_epik_Charging_Adjusted_Penalty>
1.20754e-07

> <i_epik_Tot_Q>
0

> <i_epik_Tot_abs_Q>
0

> <r_epik_Metal_State_Penalty>
-0

> <b_epik_Metal_Only>
0

> <s_lp_Force_Field>
OPLS_2005

> <r_lp_Energy>
18.6865

> <b_lp_Chiralities_Consistent>
1

> <s_lp_Variant>
AV-unprocessed.smi:2290-1

> <Gold.Version>
5.8.1

> <Gold.Id.Protein>
6NUR|6NUR_protein|mol2

> <Gold.PLP.Fitness>
44.5720

> <Gold.PLP.PLP>
-43.3619

> <Gold.PLP.part.hbond>
-1.0000

> <Gold.PLP.part.metal>
0.0000

> <Gold.PLP.part.buried>
-4.9857

> <Gold.PLP.part.nonpolar>
-35.4428

> <Gold.PLP.part.repulsive>
0.1649

> <Gold.PLP.ligand.clash>
0.0000

> <Gold.PLP.ligand.torsion>
0.5010

> <Gold.PLP.Chemscore.Hbond>
0.7262

> <Gold.PLP.Chemscore.CHOScore>
0.0000

> <Gold.PLP.Chemscore.Metal>
0.0000

> <Gold.Chemscore.Hbonds>
donor molecule, donor type, donor heavy atom, donor atom, acceptor molecule, acceptor atom, score
      P1  H  7997  8009       L1    18  0.75

> <Gold.PLP.Chemscore.Internal.Correction>
0.0335

> <Gold.Rescore>
     Score         DG    S(hbond)    S(metal)    S(lipo)     H(rot)  DE(clash)    DE(int)     intcor
      9.68     -12.34       0.77        0.00      92.44       2.55       0.66       1.99       ----

> <Gold.Chemscore.Fitness>
9.6842

> <Gold.Chemscore.DG>
-12.3365

> <Gold.Chemscore.ZeroCoef>
-5.4800

> <Gold.Chemscore.Hbond>
0.7696

> <Gold.Chemscore.Metal>
0.0000

> <Gold.Chemscore.Lipo>
92.4425

> <Gold.Chemscore.Internal_Hbond>
0.0000

> <Gold.Chemscore.DEClash>
0.6612

> <Gold.Chemscore.DEInternal>
1.9912

> <Gold.Chemscore.Rot>
2.5507

> <Gold.Chemscore.Internal.Correction>
   9.000000E+99

> <Gold.Chemscore.Hbonds>
donor molecule, donor type, donor heavy atom, donor atom, acceptor molecule, acceptor atom, score
      P1  H  7997  8009       L1    18  0.72

> <Gold.Chemscore.Hbond.Weighted>
-2.5706

> <Gold.Chemscore.Metal.Weighted>
-0.0000

> <Gold.Chemscore.Lipo.Weighted>
-10.8158

> <Gold.Chemscore.Internal_Hbond.Weighted>
0.0000

> <Gold.Chemscore.DEClash.Weighted>
0.6612

> <Gold.Chemscore.DEInternal.Weighted>
1.9912

> <Gold.Chemscore.Rot.Weighted>
6.5298

> <Gold.Chemscore.Internal.Correction.Weighted>
   9.000000E+99

> <Gold.Protein.RotatedTorsions>
[ 6907 6896 6895 6894 ] final  -20.36 input  -60.11 | X-H torsion
[ 7974 7965 7964 7962 ] final   -0.44 input  175.53 | X-H torsion
[ 8008 7997 7996 7995 ] final  150.25 input   59.86 | X-H torsion
[ 10167 10162 10161 10158 ] final -115.56 input  -65.29 | X-H torsion
[ 10718 10713 10712 10709 ] final  132.16 input   66.30 | X-H torsion
[ 10763 10752 10751 10750 ] final  129.89 input  -60.55 | X-H torsion
[ 11005 11000 10999 10996 ] final  -62.72 input  -57.11 | X-H torsion

> <Gold.Protein.ActiveResidues>
 VAL166  LYS551  ARG553  GLY616  TRP617  ASP618  TYR619  PRO620  LYS621  CYS622 
 ASP623  PHE694  ASN695  SER759  ASP760  ASP761  ALA762  ILE779  LEU786  VAL792 
 PHE793  MET794  SER795  GLU796  ALA797  LYS798  CYS799  TRP800  GLU811  SER814 

> <Gold.Protein.RotatedAtoms>
  151.2493  135.0616  159.9055 H   0  0  0  0  0  0  0  0  0  0  0  0  # atno 6907 bound_to 6896
  152.5382  134.0350  159.8052 H   0  0  0  0  0  0  0  0  0  0  0  0  # atno 6908 bound_to 6896
  151.0555  133.5538  159.2670 H   0  0  0  0  0  0  0  0  0  0  0  0  # atno 6909 bound_to 6896
  146.2427  140.1270  142.8339 H   0  0  0  0  0  0  0  0  0  0  0  0  # atno 7974 bound_to 7965
  156.2723  140.2080  156.5987 H   0  0  0  0  0  0  0  0  0  0  0  0  # atno 8008 bound_to 7997
  154.6924  140.0529  157.0400 H   0  0  0  0  0  0  0  0  0  0  0  0  # atno 8009 bound_to 7997
  155.0848  140.3190  155.4594 H   0  0  0  0  0  0  0  0  0  0  0  0  # atno 8010 bound_to 7997
  140.0887  143.4720  152.1883 H   0  0  0  0  0  0  0  0  0  0  0  0  # atno 10167 bound_to 10162
  157.4898  131.1090  150.9572 H   0  0  0  0  0  0  0  0  0  0  0  0  # atno 10718 bound_to 10713
  153.7491  135.3212  155.3318 H   0  0  0  0  0  0  0  0  0  0  0  0  # atno 10763 bound_to 10752
  154.8269  135.4563  154.0950 H   0  0  0  0  0  0  0  0  0  0  0  0  # atno 10764 bound_to 10752
  153.2147  135.6940  153.8154 H   0  0  0  0  0  0  0  0  0  0  0  0  # atno 10765 bound_to 10752
  141.1369  133.6643  156.5570 H   0  0  0  0  0  0  0  0  0  0  0  0  # atno 11005 bound_to 11000
  145.0358  140.8907  143.5082 LP  0  0  0  0  0  0  0  0  0  0  0  0  # atno 17320 bound_to 7965
  145.1342  139.2613  143.5524 LP  0  0  0  0  0  0  0  0  0  0  0  0  # atno 17321 bound_to 7965
  139.5737  144.7476  151.3822 LP  0  0  0  0  0  0  0  0  0  0  0  0  # atno 17342 bound_to 10162
  140.7040  143.7561  150.7450 LP  0  0  0  0  0  0  0  0  0  0  0  0  # atno 17343 bound_to 10162
  157.0277  130.5699  149.5339 LP  0  0  0  0  0  0  0  0  0  0  0  0  # atno 17370 bound_to 10713
  156.0167  130.5261  150.8155 LP  0  0  0  0  0  0  0  0  0  0  0  0  # atno 17371 bound_to 10713
  140.4018  134.7350  157.4784 LP  0  0  0  0  0  0  0  0  0  0  0  0  # atno 17394 bound_to 11000
  140.0490  134.6157  155.8884 LP  0  0  0  0  0  0  0  0  0  0  0  0  # atno 17395 bound_to 11000

$$$$
