AV-unprocessed.smi:1535|AV-procd|sdf|6181|dock4
  -GOLD-   22720 6343D 1   1.00000     0.00000
 Structure written by MMmdl.
 47 48  0  0  0  0  0  0  0  0  2 V2000
  152.2669  143.2756  160.4200 C   0  0  0  0  0  0  0  0  0  0  0  0
  152.0459  142.3403  159.2441 C   0  0  0  0  0  0  0  0  0  0  0  0
  151.0913  142.6861  158.2611 C   0  0  0  0  0  0  0  0  0  0  0  0
  150.8549  141.8436  157.1528 C   0  0  0  0  0  0  0  0  0  0  0  0
  149.9823  141.9819  156.0869 N   0  0  0  0  0  0  0  0  0  0  0  0
  150.2274  140.8738  155.3938 C   0  0  0  0  0  0  0  0  0  0  0  0
  151.1544  140.0300  155.8877 N   0  0  0  0  0  0  0  0  0  0  0  0
  151.5883  138.7671  155.3177 C   0  0  0  0  0  0  0  0  0  0  0  0
  150.4075  137.9171  154.8107 C   0  0  1  0  0  0  0  0  0  0  0  0
  150.1008  138.2855  153.4792 O   0  0  0  0  0  0  0  0  0  0  0  0
  150.7215  136.4084  154.8476 C   0  0  0  0  0  0  0  0  0  0  0  0
  149.5287  135.5869  154.5203 N   0  3  1  0  0  0  0  0  0  0  0  0
  149.8601  134.1508  154.3762 C   0  0  0  0  0  0  0  0  0  0  0  0
  148.3850  135.8161  155.4416 C   0  0  0  0  0  0  0  0  0  0  0  0
  148.5240  135.0152  156.7488 C   0  0  2  0  0  0  0  0  0  0  0  0
  147.1819  134.8643  157.4811 C   0  0  0  0  0  0  0  0  0  0  0  0
  149.5245  135.6369  157.6306 C   0  0  0  0  0  0  0  0  0  0  0  0
  150.3101  136.1266  158.3239 N   0  0  0  0  0  0  0  0  0  0  0  0
  151.6049  140.6352  157.0555 C   0  0  0  0  0  0  0  0  0  0  0  0
  152.5590  140.2809  158.0256 C   0  0  0  0  0  0  0  0  0  0  0  0
  152.7843  141.1354  159.1251 C   0  0  0  0  0  0  0  0  0  0  0  0
  153.8193  140.7455  160.1658 C   0  0  0  0  0  0  0  0  0  0  0  0
  151.5756  144.1185  160.3937 H   0  0  0  0  0  0  0  0  0  0  0  0
  153.2817  143.6737  160.4043 H   0  0  0  0  0  0  0  0  0  0  0  0
  152.1152  142.7497  161.3627 H   0  0  0  0  0  0  0  0  0  0  0  0
  150.5305  143.6050  158.3504 H   0  0  0  0  0  0  0  0  0  0  0  0
  149.6994  140.6614  154.4754 H   0  0  0  0  0  0  0  0  0  0  0  0
  152.2925  138.9688  154.5089 H   0  0  0  0  0  0  0  0  0  0  0  0
  152.1415  138.2242  156.0850 H   0  0  0  0  0  0  0  0  0  0  0  0
  149.5334  138.1340  155.4247 H   0  0  0  0  0  0  0  0  0  0  0  0
  149.4743  137.6697  153.1296 H   0  0  0  0  0  0  0  0  0  0  0  0
  151.5265  136.2032  154.1397 H   0  0  0  0  0  0  0  0  0  0  0  0
  151.0997  136.1142  155.8282 H   0  0  0  0  0  0  0  0  0  0  0  0
  150.2411  133.7415  155.3128 H   0  0  0  0  0  0  0  0  0  0  0  0
  150.6197  134.0066  153.6072 H   0  0  0  0  0  0  0  0  0  0  0  0
  148.9852  133.5717  154.0816 H   0  0  0  0  0  0  0  0  0  0  0  0
  148.3017  136.8832  155.6545 H   0  0  0  0  0  0  0  0  0  0  0  0
  147.4434  135.5384  154.9673 H   0  0  0  0  0  0  0  0  0  0  0  0
  148.9142  134.0219  156.5280 H   0  0  0  0  0  0  0  0  0  0  0  0
  147.3059  134.3067  158.4095 H   0  0  0  0  0  0  0  0  0  0  0  0
  146.4517  134.3296  156.8731 H   0  0  0  0  0  0  0  0  0  0  0  0
  146.7583  135.8370  157.7334 H   0  0  0  0  0  0  0  0  0  0  0  0
  153.1132  139.3597  157.9240 H   0  0  0  0  0  0  0  0  0  0  0  0
  154.3568  139.8432  159.8730 H   0  0  0  0  0  0  0  0  0  0  0  0
  153.3398  140.5551  161.1263 H   0  0  0  0  0  0  0  0  0  0  0  0
  154.5526  141.5417  160.2957 H   0  0  0  0  0  0  0  0  0  0  0  0
  149.2313  135.9019  153.6073 H   0  0  0  0  0  0  0  0  0  0  0  0
  1  2  1  0  0  0  0
  1 23  1  0  0  0  0
  1 24  1  0  0  0  0
  1 25  1  0  0  0  0
  2 21  1  0  0  0  0
  2  3  2  0  0  0  0
  3  4  1  0  0  0  0
  3 26  1  0  0  0  0
  4 19  2  0  0  0  0
  4  5  1  0  0  0  0
  5  6  2  0  0  0  0
  6  7  1  0  0  0  0
  6 27  1  0  0  0  0
  7  8  1  0  0  0  0
  7 19  1  0  0  0  0
  8  9  1  0  0  0  0
  8 28  1  0  0  0  0
  8 29  1  0  0  0  0
  9 10  1  0  0  0  0
  9 11  1  0  0  0  0
  9 30  1  0  0  0  0
 10 31  1  0  0  0  0
 11 12  1  0  0  0  0
 11 32  1  0  0  0  0
 11 33  1  0  0  0  0
 12 13  1  0  0  0  0
 12 14  1  0  0  0  0
 12 47  1  0  0  0  0
 13 34  1  0  0  0  0
 13 35  1  0  0  0  0
 13 36  1  0  0  0  0
 14 15  1  0  0  0  0
 14 37  1  0  0  0  0
 14 38  1  0  0  0  0
 15 16  1  0  0  0  0
 15 17  1  0  0  0  0
 15 39  1  0  0  0  0
 16 40  1  0  0  0  0
 16 41  1  0  0  0  0
 16 42  1  0  0  0  0
 17 18  3  0  0  0  0
 19 20  1  0  0  0  0
 20 21  2  0  0  0  0
 20 43  1  0  0  0  0
 21 22  1  0  0  0  0
 22 44  1  0  0  0  0
 22 45  1  0  0  0  0
 22 46  1  0  0  0  0
M  CHG  1  12   1
M  END
> <s_m_source_file>
AV-unprocessed.smi

> <i_m_source_file_index>
1535

> <i_lp_mmshare_version>
43012

> <i_f3d_flags>
0

> <s_epik_input>
W0NIM11jKFtjSF0xKWMoW0NIM10pW2NIXWMoYzEyKW4oW2NIXW4yKVtDSDJdW0NASF0oW09IXSlbQ0gyXU4oW0NIM10pW0NIMl1bQ0BIXShbQ0gzXSlDI04=

> <s_epik_cmdline>
J2VwaWtfcHl0aG9uJywgJy1waCcsICc3LjAnLCAnLXRuJywgJzgnLCAnLW1hJywgJzIwMCcsICctbWV0YWxfYmluZGluZycsICctaW1hZScsICc8aW5maWxlLm1hZT4nLCAnLW9tYWUnLCAnPG91dGZpbGUubWFlPic=

> <r_epik_Ionization_Penalty>
2.21058

> <r_epik_Ionization_Penalty_Charging>
2.12381

> <r_epik_Ionization_Penalty_Neutral>
0.0867699

> <r_epik_State_Penalty>
2.36208

> <r_epik_Charging_Adjusted_Penalty>
4.48589

> <i_epik_Tot_Q>
1

> <i_epik_Tot_abs_Q>
1

> <r_epik_Metal_State_Penalty>
2.2818

> <b_epik_Metal_Only>
0

> <s_lp_Force_Field>
OPLS_2005

> <r_lp_Energy>
17.3963

> <b_lp_Chiralities_Consistent>
1

> <s_lp_Variant>
AV-unprocessed.smi:1535-12

> <Gold.Version>
5.8.1

> <Gold.Id.Protein>
6NUR|6NUR_protein|mol2

> <Gold.PLP.Fitness>
48.9670

> <Gold.PLP.PLP>
-38.3849

> <Gold.PLP.part.hbond>
-4.4770

> <Gold.PLP.part.metal>
0.0000

> <Gold.PLP.part.buried>
-3.5549

> <Gold.PLP.part.nonpolar>
-31.3704

> <Gold.PLP.part.repulsive>
1.4685

> <Gold.PLP.ligand.clash>
0.0000

> <Gold.PLP.ligand.torsion>
0.8740

> <Gold.PLP.Chemscore.Hbond>
3.9920

> <Gold.PLP.Chemscore.CHOScore>
0.0000

> <Gold.PLP.Chemscore.Metal>
0.0000

> <Gold.Chemscore.Hbonds>
donor molecule, donor type, donor heavy atom, donor atom, acceptor molecule, acceptor atom, score
      L1  H    10    31       P1  7948  1.00
      L1  H    12    47       P1  7948  2.00
      P1  H  6896  6907       L1    18  0.91

> <Gold.PLP.Chemscore.Internal.Correction>
0.3541

> <Gold.Rescore>
     Score         DG    S(hbond)    S(metal)    S(lipo)     H(rot)  DE(clash)    DE(int)     intcor
     17.81     -19.34       2.79        0.00      95.65       2.60       0.42       1.11       ----

> <Gold.Chemscore.Fitness>
17.8090

> <Gold.Chemscore.DG>
-19.3416

> <Gold.Chemscore.ZeroCoef>
-5.4800

> <Gold.Chemscore.Hbond>
2.7948

> <Gold.Chemscore.Metal>
0.0000

> <Gold.Chemscore.Lipo>
95.6499

> <Gold.Chemscore.Internal_Hbond>
0.0000

> <Gold.Chemscore.DEClash>
0.4235

> <Gold.Chemscore.DEInternal>
1.1091

> <Gold.Chemscore.Rot>
2.6031

> <Gold.Chemscore.Internal.Correction>
   9.000000E+99

> <Gold.Chemscore.Hbonds>
donor molecule, donor type, donor heavy atom, donor atom, acceptor molecule, acceptor atom, score
      L1  H    10    31       P1  7948  0.85
      L1  H    12    47       P1  7948  0.74
      P1  H  6896  6907       L1    18  0.62

> <Gold.Chemscore.Hbond.Weighted>
-9.3345

> <Gold.Chemscore.Metal.Weighted>
-0.0000

> <Gold.Chemscore.Lipo.Weighted>
-11.1910

> <Gold.Chemscore.Internal_Hbond.Weighted>
0.0000

> <Gold.Chemscore.DEClash.Weighted>
0.4235

> <Gold.Chemscore.DEInternal.Weighted>
1.1091

> <Gold.Chemscore.Rot.Weighted>
6.6640

> <Gold.Chemscore.Internal.Correction.Weighted>
   9.000000E+99

> <Gold.Protein.RotatedTorsions>
[ 6907 6896 6895 6894 ] final  -50.17 input  -60.11 | X-H torsion
[ 7974 7965 7964 7962 ] final  130.33 input  175.53 | X-H torsion
[ 8008 7997 7996 7995 ] final  -39.80 input   59.86 | X-H torsion
[ 10167 10162 10161 10158 ] final -179.42 input  -65.29 | X-H torsion
[ 10718 10713 10712 10709 ] final  173.73 input   66.30 | X-H torsion
[ 10763 10752 10751 10750 ] final  -81.41 input  -60.55 | X-H torsion
[ 11005 11000 10999 10996 ] final  162.37 input  -57.11 | X-H torsion

> <Gold.Protein.ActiveResidues>
 VAL166  LYS551  ARG553  GLY616  TRP617  ASP618  TYR619  PRO620  LYS621  CYS622 
 ASP623  PHE694  ASN695  SER759  ASP760  ASP761  ALA762  ILE779  LEU786  VAL792 
 PHE793  MET794  SER795  GLU796  ALA797  LYS798  CYS799  TRP800  GLU811  SER814 

> <Gold.Protein.RotatedAtoms>
  150.8734  134.8112  159.7171 H   0  0  0  0  0  0  0  0  0  0  0  0  # atno 6907 bound_to 6896
  152.4730  134.4911  159.9705 H   0  0  0  0  0  0  0  0  0  0  0  0  # atno 6908 bound_to 6896
  151.4996  133.3468  159.2902 H   0  0  0  0  0  0  0  0  0  0  0  0  # atno 6909 bound_to 6896
  145.0191  139.4149  143.5206 H   0  0  0  0  0  0  0  0  0  0  0  0  # atno 7974 bound_to 7965
  154.4019  140.1542  156.2923 H   0  0  0  0  0  0  0  0  0  0  0  0  # atno 8008 bound_to 7997
  155.8774  140.3445  155.5842 H   0  0  0  0  0  0  0  0  0  0  0  0  # atno 8009 bound_to 7997
  155.7706  140.0830  157.2100 H   0  0  0  0  0  0  0  0  0  0  0  0  # atno 8010 bound_to 7997
  139.5387  144.2424  152.0850 H   0  0  0  0  0  0  0  0  0  0  0  0  # atno 10167 bound_to 10162
  156.9599  131.0057  151.2930 H   0  0  0  0  0  0  0  0  0  0  0  0  # atno 10718 bound_to 10713
  154.5632  135.5627  153.7026 H   0  0  0  0  0  0  0  0  0  0  0  0  # atno 10763 bound_to 10752
  153.0024  135.6279  154.2216 H   0  0  0  0  0  0  0  0  0  0  0  0  # atno 10764 bound_to 10752
  154.2154  135.2872  155.2923 H   0  0  0  0  0  0  0  0  0  0  0  0  # atno 10765 bound_to 10752
  140.2251  134.8167  157.3260 H   0  0  0  0  0  0  0  0  0  0  0  0  # atno 11005 bound_to 11000
  146.3482  139.9678  142.8710 LP  0  0  0  0  0  0  0  0  0  0  0  0  # atno 17320 bound_to 7965
  145.1920  140.9816  143.4205 LP  0  0  0  0  0  0  0  0  0  0  0  0  # atno 17321 bound_to 7965
  140.1899  144.4762  150.6484 LP  0  0  0  0  0  0  0  0  0  0  0  0  # atno 17342 bound_to 10162
  140.6607  143.2251  151.5863 LP  0  0  0  0  0  0  0  0  0  0  0  0  # atno 17343 bound_to 10162
  157.5664  130.8281  149.8334 LP  0  0  0  0  0  0  0  0  0  0  0  0  # atno 17370 bound_to 10713
  156.0326  130.3760  150.1645 LP  0  0  0  0  0  0  0  0  0  0  0  0  # atno 17371 bound_to 10713
  140.1809  134.4491  155.7773 LP  0  0  0  0  0  0  0  0  0  0  0  0  # atno 17394 bound_to 11000
  141.2221  133.6983  156.7866 LP  0  0  0  0  0  0  0  0  0  0  0  0  # atno 17395 bound_to 11000

$$$$
