AV-unprocessed.smi:1509|AV-procd|sdf|6092|dock5
  -GOLD-   22720 6223D 1   1.00000     0.00000
 Structure written by MMmdl.
 42 43  0  0  0  0  0  0  0  0  2 V2000
  147.3203  133.3007  152.3552 C   0  0  0  0  0  0  0  0  0  0  0  0
  145.8238  133.5822  152.5772 C   0  0  2  0  0  0  0  0  0  0  0  0
  145.0015  133.5008  151.2778 C   0  0  0  0  0  0  0  0  0  0  0  0
  145.2491  134.7247  150.3852 C   0  0  0  0  0  0  0  0  0  0  0  0
  145.0138  136.0303  151.1611 C   0  0  0  0  0  0  0  0  0  0  0  0
  145.8531  136.0860  152.3859 N   0  3  1  0  0  0  0  0  0  0  0  0
  145.7568  137.3994  153.0722 C   0  0  0  0  0  0  0  0  0  0  0  0
  146.5678  138.4966  152.3615 C   0  0  0  0  0  0  0  0  0  0  0  0
  147.7045  139.0422  153.2423 C   0  0  0  0  0  0  0  0  0  0  0  0
  148.7797  138.0700  153.4031 N   0  0  0  0  0  0  0  0  0  0  0  0
  149.9579  138.3180  153.9969 C   0  0  0  0  0  0  0  0  0  0  0  0
  150.2659  139.4172  154.4568 O   0  0  0  0  0  0  0  0  0  0  0  0
  150.9386  137.1488  154.0893 C   0  0  0  0  0  0  0  0  0  0  0  0
  152.1283  137.5273  154.8278 N   0  0  0  0  0  0  0  0  0  0  0  0
  152.2726  138.1222  156.0138 C   0  0  0  0  0  0  0  0  0  0  0  0
  153.5488  138.2941  156.3229 N   0  0  0  0  0  0  0  0  0  0  0  0
  154.2117  137.7583  155.2312 N   0  0  0  0  0  0  0  0  0  0  0  0
  153.3740  137.3017  154.3409 N   0  0  0  0  0  0  0  0  0  0  0  0
  145.5834  134.9314  153.2861 C   0  0  0  0  0  0  0  0  0  0  0  0
  147.7883  134.0540  151.7215 H   0  0  0  0  0  0  0  0  0  0  0  0
  147.4698  132.3299  151.8821 H   0  0  0  0  0  0  0  0  0  0  0  0
  147.8599  133.2880  153.3028 H   0  0  0  0  0  0  0  0  0  0  0  0
  145.4597  132.7958  153.2398 H   0  0  0  0  0  0  0  0  0  0  0  0
  145.2301  132.5829  150.7355 H   0  0  0  0  0  0  0  0  0  0  0  0
  143.9406  133.4517  151.5271 H   0  0  0  0  0  0  0  0  0  0  0  0
  146.2684  134.7046  149.9981 H   0  0  0  0  0  0  0  0  0  0  0  0
  144.5923  134.6871  149.5156 H   0  0  0  0  0  0  0  0  0  0  0  0
  145.2486  136.8747  150.5117 H   0  0  0  0  0  0  0  0  0  0  0  0
  143.9615  136.1233  151.4345 H   0  0  0  0  0  0  0  0  0  0  0  0
  144.7127  137.7158  153.0895 H   0  0  0  0  0  0  0  0  0  0  0  0
  146.0651  137.2995  154.1140 H   0  0  0  0  0  0  0  0  0  0  0  0
  146.9944  138.1161  151.4338 H   0  0  0  0  0  0  0  0  0  0  0  0
  145.8977  139.3108  152.0825 H   0  0  0  0  0  0  0  0  0  0  0  0
  148.1027  139.9690  152.8253 H   0  0  0  0  0  0  0  0  0  0  0  0
  147.3213  139.2882  154.2329 H   0  0  0  0  0  0  0  0  0  0  0  0
  148.6096  137.1381  153.0525 H   0  0  0  0  0  0  0  0  0  0  0  0
  150.4718  136.2968  154.5853 H   0  0  0  0  0  0  0  0  0  0  0  0
  151.2233  136.8217  153.0880 H   0  0  0  0  0  0  0  0  0  0  0  0
  151.4504  138.4287  156.6438 H   0  0  0  0  0  0  0  0  0  0  0  0
  144.5498  134.9857  153.6322 H   0  0  0  0  0  0  0  0  0  0  0  0
  146.2085  134.9831  154.1768 H   0  0  0  0  0  0  0  0  0  0  0  0
  146.8092  135.9978  152.0725 H   0  0  0  0  0  0  0  0  0  0  0  0
  1  2  1  0  0  0  0
  1 20  1  0  0  0  0
  1 21  1  0  0  0  0
  1 22  1  0  0  0  0
  2 19  1  0  0  0  0
  2  3  1  0  0  0  0
  2 23  1  0  0  0  0
  3  4  1  0  0  0  0
  3 24  1  0  0  0  0
  3 25  1  0  0  0  0
  4  5  1  0  0  0  0
  4 26  1  0  0  0  0
  4 27  1  0  0  0  0
  5  6  1  0  0  0  0
  5 28  1  0  0  0  0
  5 29  1  0  0  0  0
  6  7  1  0  0  0  0
  6 19  1  0  0  0  0
  6 42  1  0  0  0  0
  7  8  1  0  0  0  0
  7 30  1  0  0  0  0
  7 31  1  0  0  0  0
  8  9  1  0  0  0  0
  8 32  1  0  0  0  0
  8 33  1  0  0  0  0
  9 10  1  0  0  0  0
  9 34  1  0  0  0  0
  9 35  1  0  0  0  0
 10 11  1  0  0  0  0
 10 36  1  0  0  0  0
 11 12  2  0  0  0  0
 11 13  1  0  0  0  0
 13 14  1  0  0  0  0
 13 37  1  0  0  0  0
 13 38  1  0  0  0  0
 14 18  1  0  0  0  0
 14 15  1  0  0  0  0
 15 16  2  0  0  0  0
 15 39  1  0  0  0  0
 16 17  1  0  0  0  0
 17 18  2  0  0  0  0
 19 40  1  0  0  0  0
 19 41  1  0  0  0  0
M  CHG  1   6   1
M  END
> <s_m_source_file>
AV-unprocessed.smi

> <i_m_source_file_index>
1509

> <i_lp_mmshare_version>
43012

> <i_f3d_flags>
0

> <s_epik_input>
W0NIM11bQ0BASF0xW0NIMl1bQ0gyXVtDSDJdTihbQ0gyXTEpW0NIMl1bQ0gyXVtDSDJdW05IXUMoPU8pW0NIMl1uMltjSF1ubm4y

> <s_epik_cmdline>
J2VwaWtfcHl0aG9uJywgJy1waCcsICc3LjAnLCAnLXRuJywgJzgnLCAnLW1hJywgJzIwMCcsICctbWV0YWxfYmluZGluZycsICctaW1hZScsICc8aW5maWxlLm1hZT4nLCAnLW9tYWUnLCAnPG91dGZpbGUubWFlPic=

> <r_lp_tautomer_probability>
1

> <r_epik_Ionization_Penalty>
0.00044216

> <r_epik_Ionization_Penalty_Charging>
0.000440775

> <r_epik_Ionization_Penalty_Neutral>
1.38512e-06

> <r_epik_State_Penalty>
0.000271914

> <r_epik_Charging_Adjusted_Penalty>
0.000712689

> <i_epik_Tot_Q>
1

> <i_epik_Tot_abs_Q>
1

> <r_epik_Metal_State_Penalty>
-0

> <b_epik_Metal_Only>
0

> <s_lp_Force_Field>
OPLS_2005

> <r_lp_Energy>
22.816

> <b_lp_Chiralities_Consistent>
1

> <s_lp_Variant>
AV-unprocessed.smi:1509-3

> <Gold.Version>
5.8.1

> <Gold.Id.Protein>
6NUR|6NUR_protein|mol2

> <Gold.PLP.Fitness>
44.8746

> <Gold.PLP.PLP>
-33.1469

> <Gold.PLP.part.hbond>
-5.5685

> <Gold.PLP.part.metal>
0.0000

> <Gold.PLP.part.buried>
-0.0251

> <Gold.PLP.part.nonpolar>
-27.9257

> <Gold.PLP.part.repulsive>
0.2152

> <Gold.PLP.ligand.clash>
0.0000

> <Gold.PLP.ligand.torsion>
0.7266

> <Gold.PLP.Chemscore.Hbond>
4.3656

> <Gold.PLP.Chemscore.CHOScore>
0.0000

> <Gold.PLP.Chemscore.Metal>
0.0000

> <Gold.Chemscore.Hbonds>
donor molecule, donor type, donor heavy atom, donor atom, acceptor molecule, acceptor atom, score
      L1  H     6    42       P1  7948  1.43
      L1  H    10    36       P1  7948  0.79
      P1  H  7989  7998       L1    12  0.55
      P1  H  7997  8008       L1    16  0.40
      P1  H 10752 10763       L1    18  0.10

> <Gold.PLP.Chemscore.Internal.Correction>
0.0842

> <Gold.Rescore>
     Score         DG    S(hbond)    S(metal)    S(lipo)     H(rot)  DE(clash)    DE(int)     intcor
     10.80     -14.17       2.89        0.00      56.83       2.97       1.41       1.96       ----

> <Gold.Chemscore.Fitness>
10.7959

> <Gold.Chemscore.DG>
-14.1683

> <Gold.Chemscore.ZeroCoef>
-5.4800

> <Gold.Chemscore.Hbond>
2.8855

> <Gold.Chemscore.Metal>
0.0000

> <Gold.Chemscore.Lipo>
56.8261

> <Gold.Chemscore.Internal_Hbond>
0.0000

> <Gold.Chemscore.DEClash>
1.4105

> <Gold.Chemscore.DEInternal>
1.9619

> <Gold.Chemscore.Rot>
2.9680

> <Gold.Chemscore.Internal.Correction>
   9.000000E+99

> <Gold.Chemscore.Hbonds>
donor molecule, donor type, donor heavy atom, donor atom, acceptor molecule, acceptor atom, score
      L1  H     6    42       P1  7948  0.71
      L1  H    10    36       P1  7948  0.73
      P1  H  7989  7998       L1    12  0.56
      P1  H  7997  8008       L1    16  0.26
      P1  H 10752 10763       L1    18  0.04

> <Gold.Chemscore.Hbond.Weighted>
-9.6376

> <Gold.Chemscore.Metal.Weighted>
-0.0000

> <Gold.Chemscore.Lipo.Weighted>
-6.6487

> <Gold.Chemscore.Internal_Hbond.Weighted>
0.0000

> <Gold.Chemscore.DEClash.Weighted>
1.4105

> <Gold.Chemscore.DEInternal.Weighted>
1.9619

> <Gold.Chemscore.Rot.Weighted>
7.5980

> <Gold.Chemscore.Internal.Correction.Weighted>
   9.000000E+99

> <Gold.Protein.RotatedTorsions>
[ 6907 6896 6895 6894 ] final -145.88 input  -60.11 | X-H torsion
[ 7974 7965 7964 7962 ] final   58.31 input  175.53 | X-H torsion
[ 8008 7997 7996 7995 ] final  -83.83 input   59.86 | X-H torsion
[ 10167 10162 10161 10158 ] final  144.48 input  -65.29 | X-H torsion
[ 10718 10713 10712 10709 ] final -140.61 input   66.30 | X-H torsion
[ 10763 10752 10751 10750 ] final    9.41 input  -60.55 | X-H torsion
[ 11005 11000 10999 10996 ] final  -93.42 input  -57.11 | X-H torsion

> <Gold.Protein.ActiveResidues>
 VAL166  LYS551  ARG553  GLY616  TRP617  ASP618  TYR619  PRO620  LYS621  CYS622 
 ASP623  PHE694  ASN695  SER759  ASP760  ASP761  ALA762  ILE779  LEU786  VAL792 
 PHE793  MET794  SER795  GLU796  ALA797  LYS798  CYS799  TRP800  GLU811  SER814 

> <Gold.Protein.RotatedAtoms>
  151.1338  133.5018  159.2598 H   0  0  0  0  0  0  0  0  0  0  0  0  # atno 6907 bound_to 6896
  151.1728  135.0325  159.8769 H   0  0  0  0  0  0  0  0  0  0  0  0  # atno 6908 bound_to 6896
  152.5460  134.1199  159.8448 H   0  0  0  0  0  0  0  0  0  0  0  0  # atno 6909 bound_to 6896
  145.9196  139.3719  143.0486 H   0  0  0  0  0  0  0  0  0  0  0  0  # atno 7974 bound_to 7965
  154.6232  140.0613  156.9641 H   0  0  0  0  0  0  0  0  0  0  0  0  # atno 8008 bound_to 7997
  155.1783  140.3297  155.4361 H   0  0  0  0  0  0  0  0  0  0  0  0  # atno 8009 bound_to 7997
  156.2443  140.1902  156.6881 H   0  0  0  0  0  0  0  0  0  0  0  0  # atno 8010 bound_to 7997
  139.4946  144.5969  151.6564 H   0  0  0  0  0  0  0  0  0  0  0  0  # atno 10167 bound_to 10162
  156.3244  130.7551  151.1656 H   0  0  0  0  0  0  0  0  0  0  0  0  # atno 10718 bound_to 10713
  153.2144  135.6873  153.8075 H   0  0  0  0  0  0  0  0  0  0  0  0  # atno 10763 bound_to 10752
  153.7297  135.3254  155.3284 H   0  0  0  0  0  0  0  0  0  0  0  0  # atno 10764 bound_to 10752
  154.8238  135.4632  154.0965 H   0  0  0  0  0  0  0  0  0  0  0  0  # atno 10765 bound_to 10752
  141.1497  133.7886  157.0156 H   0  0  0  0  0  0  0  0  0  0  0  0  # atno 11005 bound_to 11000
  145.8567  140.9498  143.0721 LP  0  0  0  0  0  0  0  0  0  0  0  0  # atno 17320 bound_to 7965
  144.6751  140.0477  143.7479 LP  0  0  0  0  0  0  0  0  0  0  0  0  # atno 17321 bound_to 7965
  140.5609  144.0270  150.6169 LP  0  0  0  0  0  0  0  0  0  0  0  0  # atno 17342 bound_to 10162
  140.3355  143.3051  152.0642 LP  0  0  0  0  0  0  0  0  0  0  0  0  # atno 17343 bound_to 10162
  157.7418  131.0499  150.5070 LP  0  0  0  0  0  0  0  0  0  0  0  0  # atno 17370 bound_to 10713
  156.5227  130.4165  149.6242 LP  0  0  0  0  0  0  0  0  0  0  0  0  # atno 17371 bound_to 10713
  140.0849  134.9627  157.1683 LP  0  0  0  0  0  0  0  0  0  0  0  0  # atno 17394 bound_to 11000
  140.3526  134.2582  155.7196 LP  0  0  0  0  0  0  0  0  0  0  0  0  # atno 17395 bound_to 11000

$$$$
