AV-unprocessed.smi:1218|AV-procd|sdf|5109|dock9
  -GOLD-   22720 4163D 1   1.00000     0.00000
 Structure written by MMmdl.
 45 46  0  0  0  0  0  0  0  0  2 V2000
  146.5976  138.3891  152.1836 C   0  0  0  0  0  0  0  0  0  0  0  0
  146.0932  137.2302  153.0600 C   0  0  0  0  0  0  0  0  0  0  0  0
  144.5611  137.2633  153.1629 C   0  0  0  0  0  0  0  0  0  0  0  0
  146.7309  137.2513  154.4663 C   0  0  0  0  0  0  0  0  0  0  0  0
  148.1865  136.9544  154.4539 N   0  3  2  0  0  0  0  0  0  0  0  0
  148.5888  135.9034  155.4213 C   0  0  0  0  0  0  0  0  0  0  0  0
  150.0989  135.6328  155.3228 C   0  0  0  0  0  0  0  0  0  0  0  0
  150.8126  136.8430  155.5364 O   0  0  0  0  0  0  0  0  0  0  0  0
  150.5119  137.8268  154.5514 C   0  0  2  0  0  0  0  0  0  0  0  0
  151.4050  139.0539  154.8056 C   0  0  0  0  0  0  0  0  0  0  0  0
  150.9816  139.7819  155.9960 N   0  0  0  0  0  0  0  0  0  0  0  0
  151.7187  139.9353  157.1065 C   0  0  0  0  0  0  0  0  0  0  0  0
  152.8691  139.5125  157.2208 O   0  0  0  0  0  0  0  0  0  0  0  0
  151.0466  140.6524  158.2770 C   0  0  0  0  0  0  0  0  0  0  0  0
  151.7793  141.8545  158.6310 N   0  0  0  0  0  0  0  0  0  0  0  0
  151.9143  143.0202  157.9056 C   0  0  0  0  0  0  0  0  0  0  0  0
  152.7012  143.8640  158.6359 C   0  0  0  0  0  0  0  0  0  0  0  0
  153.0041  143.1153  159.8075 C   0  0  0  0  0  0  0  0  0  0  0  0
  152.4535  141.9120  159.8010 N   0  0  0  0  0  0  0  0  0  0  0  0
  149.0129  138.1709  154.6416 C   0  0  0  0  0  0  0  0  0  0  0  0
  146.3609  139.3560  152.6291 H   0  0  0  0  0  0  0  0  0  0  0  0
  146.1397  138.3596  151.1943 H   0  0  0  0  0  0  0  0  0  0  0  0
  147.6774  138.3431  152.0415 H   0  0  0  0  0  0  0  0  0  0  0  0
  146.3514  136.2961  152.5621 H   0  0  0  0  0  0  0  0  0  0  0  0
  144.2147  138.1771  153.6471 H   0  0  0  0  0  0  0  0  0  0  0  0
  144.1877  136.4178  153.7415 H   0  0  0  0  0  0  0  0  0  0  0  0
  144.0987  137.2135  152.1765 H   0  0  0  0  0  0  0  0  0  0  0  0
  146.5668  138.2390  154.9003 H   0  0  0  0  0  0  0  0  0  0  0  0
  146.2286  136.5432  155.1273 H   0  0  0  0  0  0  0  0  0  0  0  0
  148.3342  136.2208  156.4338 H   0  0  0  0  0  0  0  0  0  0  0  0
  148.0476  134.9775  155.2311 H   0  0  0  0  0  0  0  0  0  0  0  0
  150.4004  134.9072  156.0783 H   0  0  0  0  0  0  0  0  0  0  0  0
  150.3587  135.2080  154.3516 H   0  0  0  0  0  0  0  0  0  0  0  0
  150.7269  137.4245  153.5595 H   0  0  0  0  0  0  0  0  0  0  0  0
  152.4482  138.7518  154.9112 H   0  0  0  0  0  0  0  0  0  0  0  0
  151.3641  139.7324  153.9531 H   0  0  0  0  0  0  0  0  0  0  0  0
  150.0445  140.1589  155.9929 H   0  0  0  0  0  0  0  0  0  0  0  0
  150.0266  140.9271  158.0053 H   0  0  0  0  0  0  0  0  0  0  0  0
  150.9819  139.9966  159.1472 H   0  0  0  0  0  0  0  0  0  0  0  0
  151.4453  143.1494  156.9412 H   0  0  0  0  0  0  0  0  0  0  0  0
  153.0128  144.8640  158.3733 H   0  0  0  0  0  0  0  0  0  0  0  0
  153.6047  143.4084  160.6560 H   0  0  0  0  0  0  0  0  0  0  0  0
  148.7608  138.9064  153.8763 H   0  0  0  0  0  0  0  0  0  0  0  0
  148.7848  138.6218  155.6088 H   0  0  0  0  0  0  0  0  0  0  0  0
  148.4018  136.6069  153.5301 H   0  0  0  0  0  0  0  0  0  0  0  0
  1  2  1  0  0  0  0
  1 21  1  0  0  0  0
  1 22  1  0  0  0  0
  1 23  1  0  0  0  0
  2  3  1  0  0  0  0
  2  4  1  0  0  0  0
  2 24  1  0  0  0  0
  3 25  1  0  0  0  0
  3 26  1  0  0  0  0
  3 27  1  0  0  0  0
  4  5  1  0  0  0  0
  4 28  1  0  0  0  0
  4 29  1  0  0  0  0
  5 20  1  0  0  0  0
  5  6  1  0  0  0  0
  5 45  1  0  0  0  0
  6  7  1  0  0  0  0
  6 30  1  0  0  0  0
  6 31  1  0  0  0  0
  7  8  1  0  0  0  0
  7 32  1  0  0  0  0
  7 33  1  0  0  0  0
  8  9  1  0  0  0  0
  9 10  1  0  0  0  0
  9 20  1  0  0  0  0
  9 34  1  0  0  0  0
 10 11  1  0  0  0  0
 10 35  1  0  0  0  0
 10 36  1  0  0  0  0
 11 12  1  0  0  0  0
 11 37  1  0  0  0  0
 12 13  2  0  0  0  0
 12 14  1  0  0  0  0
 14 15  1  0  0  0  0
 14 38  1  0  0  0  0
 14 39  1  0  0  0  0
 15 19  1  0  0  0  0
 15 16  1  0  0  0  0
 16 17  2  0  0  0  0
 16 40  1  0  0  0  0
 17 18  1  0  0  0  0
 17 41  1  0  0  0  0
 18 19  2  0  0  0  0
 18 42  1  0  0  0  0
 20 43  1  0  0  0  0
 20 44  1  0  0  0  0
M  CHG  1   5   1
M  END
> <s_m_source_file>
AV-unprocessed.smi

> <i_m_source_file_index>
1218

> <i_lp_mmshare_version>
43012

> <i_f3d_flags>
0

> <s_epik_input>
W0NIM11bQ0hdKFtDSDNdKVtDSDJdTjFbQ0gyXVtDSDJdT1tDQEhdKFtDSDJdMSlbQ0gyXVtOSF1DKD1PKVtDSDJdbjJbY0hdW2NIXVtjSF1uMg==

> <s_epik_cmdline>
J2VwaWtfcHl0aG9uJywgJy1waCcsICc3LjAnLCAnLXRuJywgJzgnLCAnLW1hJywgJzIwMCcsICctbWV0YWxfYmluZGluZycsICctaW1hZScsICc8aW5maWxlLm1hZT4nLCAnLW9tYWUnLCAnPG91dGZpbGUubWFlPic=

> <r_lp_tautomer_probability>
1

> <r_epik_Ionization_Penalty>
0.0995066

> <r_epik_Ionization_Penalty_Charging>
0.0994921

> <r_epik_Ionization_Penalty_Neutral>
1.44634e-05

> <r_epik_State_Penalty>
0.0895432

> <r_epik_Charging_Adjusted_Penalty>
0.189035

> <i_epik_Tot_Q>
1

> <i_epik_Tot_abs_Q>
1

> <r_epik_Metal_State_Penalty>
0.0895432

> <b_epik_Metal_Only>
0

> <s_lp_Force_Field>
OPLS_2005

> <r_lp_Energy>
17.6202

> <b_lp_Chiralities_Consistent>
1

> <s_lp_Variant>
AV-unprocessed.smi:1218-4

> <Gold.Version>
5.8.1

> <Gold.Id.Protein>
6NUR|6NUR_protein|mol2

> <Gold.PLP.Fitness>
45.7162

> <Gold.PLP.PLP>
-35.3421

> <Gold.PLP.part.hbond>
-2.0000

> <Gold.PLP.part.metal>
0.0000

> <Gold.PLP.part.buried>
-2.7113

> <Gold.PLP.part.nonpolar>
-32.2004

> <Gold.PLP.part.repulsive>
0.1762

> <Gold.PLP.ligand.clash>
0.0000

> <Gold.PLP.ligand.torsion>
0.8678

> <Gold.PLP.Chemscore.Hbond>
3.0000

> <Gold.PLP.Chemscore.CHOScore>
1.0000

> <Gold.PLP.Chemscore.Metal>
0.0000

> <Gold.Chemscore.Hbonds>
donor molecule, donor type, donor heavy atom, donor atom, acceptor molecule, acceptor atom, score
      L1  H     5    45       P1  7948  2.00
      P1  H  7997  8010       L1    13  1.00

> <Gold.PLP.Chemscore.Internal.Correction>
0.1098

> <Gold.Rescore>
     Score         DG    S(hbond)    S(metal)    S(lipo)     H(rot)  DE(clash)    DE(int)     intcor
     16.70     -17.68       2.00        0.00      90.12       1.96       0.11       0.87       ----

> <Gold.Chemscore.Fitness>
16.7041

> <Gold.Chemscore.DG>
-17.6786

> <Gold.Chemscore.ZeroCoef>
-5.4800

> <Gold.Chemscore.Hbond>
1.9994

> <Gold.Chemscore.Metal>
0.0000

> <Gold.Chemscore.Lipo>
90.1221

> <Gold.Chemscore.Internal_Hbond>
0.0000

> <Gold.Chemscore.DEClash>
0.1061

> <Gold.Chemscore.DEInternal>
0.8683

> <Gold.Chemscore.Rot>
1.9624

> <Gold.Chemscore.Internal.Correction>
   9.000000E+99

> <Gold.Chemscore.Hbonds>
donor molecule, donor type, donor heavy atom, donor atom, acceptor molecule, acceptor atom, score
      L1  H     5    45       P1  7948  1.00
      P1  H  7997  8010       L1    13  1.00

> <Gold.Chemscore.Hbond.Weighted>
-6.6780

> <Gold.Chemscore.Metal.Weighted>
-0.0000

> <Gold.Chemscore.Lipo.Weighted>
-10.5443

> <Gold.Chemscore.Internal_Hbond.Weighted>
0.0000

> <Gold.Chemscore.DEClash.Weighted>
0.1061

> <Gold.Chemscore.DEInternal.Weighted>
0.8683

> <Gold.Chemscore.Rot.Weighted>
5.0237

> <Gold.Chemscore.Internal.Correction.Weighted>
   9.000000E+99

> <Gold.Protein.RotatedTorsions>
[ 6907 6896 6895 6894 ] final  -27.90 input  -60.11 | X-H torsion
[ 7974 7965 7964 7962 ] final  127.26 input  175.53 | X-H torsion
[ 8008 7997 7996 7995 ] final   60.33 input   59.86 | X-H torsion
[ 10167 10162 10161 10158 ] final -142.35 input  -65.29 | X-H torsion
[ 10718 10713 10712 10709 ] final   11.37 input   66.30 | X-H torsion
[ 10763 10752 10751 10750 ] final   95.57 input  -60.55 | X-H torsion
[ 11005 11000 10999 10996 ] final   40.16 input  -57.11 | X-H torsion

> <Gold.Protein.ActiveResidues>
 VAL166  LYS551  ARG553  GLY616  TRP617  ASP618  TYR619  PRO620  LYS621  CYS622 
 ASP623  PHE694  ASN695  SER759  ASP760  ASP761  ALA762  ILE779  LEU786  VAL792 
 PHE793  MET794  SER795  GLU796  ALA797  LYS798  CYS799  TRP800  GLU811  SER814 

> <Gold.Protein.RotatedAtoms>
  151.1404  135.0177  159.8622 H   0  0  0  0  0  0  0  0  0  0  0  0  # atno 6907 bound_to 6896
  152.5452  134.1505  159.8526 H   0  0  0  0  0  0  0  0  0  0  0  0  # atno 6908 bound_to 6896
  151.1580  133.4818  159.2627 H   0  0  0  0  0  0  0  0  0  0  0  0  # atno 6909 bound_to 6896
  145.0525  139.3871  143.5046 H   0  0  0  0  0  0  0  0  0  0  0  0  # atno 7974 bound_to 7965
  155.5805  140.3491  155.4539 H   0  0  0  0  0  0  0  0  0  0  0  0  # atno 8008 bound_to 7997
  156.0377  140.1288  157.0215 H   0  0  0  0  0  0  0  0  0  0  0  0  # atno 8009 bound_to 7997
  154.4378  140.1030  156.6176 H   0  0  0  0  0  0  0  0  0  0  0  0  # atno 8010 bound_to 7997
  139.8097  143.7720  152.2663 H   0  0  0  0  0  0  0  0  0  0  0  0  # atno 10167 bound_to 10162
  156.9946  130.6056  149.5689 H   0  0  0  0  0  0  0  0  0  0  0  0  # atno 10718 bound_to 10713
  153.2548  135.4249  155.0834 H   0  0  0  0  0  0  0  0  0  0  0  0  # atno 10763 bound_to 10752
  154.8396  135.3434  154.6462 H   0  0  0  0  0  0  0  0  0  0  0  0  # atno 10764 bound_to 10752
  153.6882  135.7035  153.5154 H   0  0  0  0  0  0  0  0  0  0  0  0  # atno 10765 bound_to 10752
  140.1957  134.3932  155.8122 H   0  0  0  0  0  0  0  0  0  0  0  0  # atno 11005 bound_to 11000
  146.3519  140.0183  142.8661 LP  0  0  0  0  0  0  0  0  0  0  0  0  # atno 17320 bound_to 7965
  145.1509  140.9622  143.4433 LP  0  0  0  0  0  0  0  0  0  0  0  0  # atno 17321 bound_to 7965
  139.7865  144.7426  151.0014 LP  0  0  0  0  0  0  0  0  0  0  0  0  # atno 17342 bound_to 10162
  140.7818  143.4487  151.0445 LP  0  0  0  0  0  0  0  0  0  0  0  0  # atno 17343 bound_to 10162
  156.0194  130.5289  150.8231 LP  0  0  0  0  0  0  0  0  0  0  0  0  # atno 17370 bound_to 10713
  157.5434  131.0941  150.9796 LP  0  0  0  0  0  0  0  0  0  0  0  0  # atno 17371 bound_to 10713
  141.2227  133.7069  156.8172 LP  0  0  0  0  0  0  0  0  0  0  0  0  # atno 17394 bound_to 11000
  140.2110  134.8828  157.3274 LP  0  0  0  0  0  0  0  0  0  0  0  0  # atno 17395 bound_to 11000

$$$$
