AV-unprocessed.smi:693|AV-procd|sdf|3372|dock3
  -GOLD-   22720 0353D 1   1.00000     0.00000
 Structure written by MMmdl.
 46 47  0  0  0  0  0  0  0  0  1 V2000
  152.0820  138.7126  155.1428 C   0  0  0  0  0  0  0  0  0  0  0  0
  150.6805  139.2419  154.9214 C   0  0  0  0  0  0  0  0  0  0  0  0
  149.5836  138.3613  154.8111 C   0  0  0  0  0  0  0  0  0  0  0  0
  148.3031  138.9084  154.6016 C   0  0  0  0  0  0  0  0  0  0  0  0
  148.1686  140.3090  154.5096 C   0  0  0  0  0  0  0  0  0  0  0  0
  146.8124  140.9479  154.2864 C   0  0  0  0  0  0  0  0  0  0  0  0
  146.8967  142.4817  154.2341 C   0  0  0  0  0  0  0  0  0  0  0  0
  145.9994  143.0994  155.2028 N   0  0  0  0  0  0  0  0  0  0  0  0
  144.9959  143.9436  154.9092 C   0  0  0  0  0  0  0  0  0  0  0  0
  144.7585  144.3000  153.7541 O   0  0  0  0  0  0  0  0  0  0  0  0
  144.2918  144.3834  155.9833 N   0  0  0  0  0  0  0  0  0  0  0  0
  143.0532  145.1775  155.9441 C   0  0  0  0  0  0  0  0  0  0  0  0
  143.4023  146.6338  156.2901 C   0  0  0  0  0  0  0  0  0  0  0  0
  144.0982  146.7225  157.6617 C   0  0  0  0  0  0  0  0  0  0  0  0
  145.2821  145.7295  157.7906 C   0  0  1  0  0  0  0  0  0  0  0  0
  145.8901  145.6826  159.2113 C   0  0  0  0  0  0  0  0  0  0  0  0
  147.0845  144.7319  159.3452 C   0  0  0  0  0  0  0  0  0  0  0  0
  148.1120  144.9270  158.5152 N   0  0  0  0  0  0  0  0  0  0  0  0
  147.0730  143.8195  160.1685 O   0  0  0  0  0  0  0  0  0  0  0  0
  144.8329  144.3186  157.3469 C   0  0  0  0  0  0  0  0  0  0  0  0
  149.3295  141.1012  154.6333 C   0  0  0  0  0  0  0  0  0  0  0  0
  150.5612  140.5853  154.8351 N   0  0  0  0  0  0  0  0  0  0  0  0
  152.0700  137.6464  155.3716 H   0  0  0  0  0  0  0  0  0  0  0  0
  152.5612  139.2319  155.9734 H   0  0  0  0  0  0  0  0  0  0  0  0
  152.6868  138.8628  154.2483 H   0  0  0  0  0  0  0  0  0  0  0  0
  149.7170  137.2920  154.8842 H   0  0  0  0  0  0  0  0  0  0  0  0
  147.4415  138.2629  154.5142 H   0  0  0  0  0  0  0  0  0  0  0  0
  146.3907  140.5590  153.3586 H   0  0  0  0  0  0  0  0  0  0  0  0
  146.1369  140.6372  155.0846 H   0  0  0  0  0  0  0  0  0  0  0  0
  147.9118  142.8051  154.4658 H   0  0  0  0  0  0  0  0  0  0  0  0
  146.6751  142.8468  153.2298 H   0  0  0  0  0  0  0  0  0  0  0  0
  146.1433  142.8603  156.1731 H   0  0  0  0  0  0  0  0  0  0  0  0
  142.5293  145.1378  154.9894 H   0  0  0  0  0  0  0  0  0  0  0  0
  142.3476  144.7805  156.6752 H   0  0  0  0  0  0  0  0  0  0  0  0
  144.0572  147.0441  155.5200 H   0  0  0  0  0  0  0  0  0  0  0  0
  142.5008  147.2470  156.2897 H   0  0  0  0  0  0  0  0  0  0  0  0
  144.4321  147.7473  157.8219 H   0  0  0  0  0  0  0  0  0  0  0  0
  143.3663  146.5116  158.4426 H   0  0  0  0  0  0  0  0  0  0  0  0
  146.0651  146.0526  157.1019 H   0  0  0  0  0  0  0  0  0  0  0  0
  146.2055  146.6820  159.5139 H   0  0  0  0  0  0  0  0  0  0  0  0
  145.1244  145.3817  159.9281 H   0  0  0  0  0  0  0  0  0  0  0  0
  148.9216  144.3256  158.5630 H   0  0  0  0  0  0  0  0  0  0  0  0
  148.0740  145.6765  157.8398 H   0  0  0  0  0  0  0  0  0  0  0  0
  144.0652  143.9379  158.0222 H   0  0  0  0  0  0  0  0  0  0  0  0
  145.6629  143.6149  157.4253 H   0  0  0  0  0  0  0  0  0  0  0  0
  149.2686  142.1779  154.5703 H   0  0  0  0  0  0  0  0  0  0  0  0
  1  2  1  0  0  0  0
  1 23  1  0  0  0  0
  1 24  1  0  0  0  0
  1 25  1  0  0  0  0
  2 22  1  0  0  0  0
  2  3  2  0  0  0  0
  3  4  1  0  0  0  0
  3 26  1  0  0  0  0
  4  5  2  0  0  0  0
  4 27  1  0  0  0  0
  5  6  1  0  0  0  0
  5 21  1  0  0  0  0
  6  7  1  0  0  0  0
  6 28  1  0  0  0  0
  6 29  1  0  0  0  0
  7  8  1  0  0  0  0
  7 30  1  0  0  0  0
  7 31  1  0  0  0  0
  8  9  1  0  0  0  0
  8 32  1  0  0  0  0
  9 10  2  0  0  0  0
  9 11  1  0  0  0  0
 11 20  1  0  0  0  0
 11 12  1  0  0  0  0
 12 13  1  0  0  0  0
 12 33  1  0  0  0  0
 12 34  1  0  0  0  0
 13 14  1  0  0  0  0
 13 35  1  0  0  0  0
 13 36  1  0  0  0  0
 14 15  1  0  0  0  0
 14 37  1  0  0  0  0
 14 38  1  0  0  0  0
 15 16  1  0  0  0  0
 15 20  1  0  0  0  0
 15 39  1  0  0  0  0
 16 17  1  0  0  0  0
 16 40  1  0  0  0  0
 16 41  1  0  0  0  0
 17 18  1  0  0  0  0
 17 19  2  0  0  0  0
 18 42  1  0  0  0  0
 18 43  1  0  0  0  0
 20 44  1  0  0  0  0
 20 45  1  0  0  0  0
 21 22  2  0  0  0  0
 21 46  1  0  0  0  0
M  END
> <s_m_source_file>
AV-unprocessed.smi

> <i_m_source_file_index>
693

> <i_lp_mmshare_version>
43012

> <i_f3d_flags>
0

> <s_epik_input>
W0NIM11jMVtjSF1bY0hdYyhbY0hdbjEpW0NIMl1bQ0gyXVtOSF1DKD1PKU4yW0NIMl1bQ0gyXVtDSDJdW0NASF0oW0NIMl0yKVtDSDJdQyg9TylbTkgyXQ==

> <s_epik_cmdline>
J2VwaWtfcHl0aG9uJywgJy1waCcsICc3LjAnLCAnLXRuJywgJzgnLCAnLW1hJywgJzIwMCcsICctbWV0YWxfYmluZGluZycsICctaW1hZScsICc8aW5maWxlLm1hZT4nLCAnLW9tYWUnLCAnPG91dGZpbGUubWFlPic=

> <r_epik_Ionization_Penalty>
0.056948

> <r_epik_Ionization_Penalty_Charging>
0

> <r_epik_Ionization_Penalty_Neutral>
0.056948

> <r_epik_State_Penalty>
0.0490937

> <r_epik_Charging_Adjusted_Penalty>
0.0490937

> <i_epik_Tot_Q>
0

> <i_epik_Tot_abs_Q>
0

> <r_epik_Metal_State_Penalty>
0.0447689

> <b_epik_Metal_Only>
0

> <s_lp_Force_Field>
OPLS_2005

> <r_lp_Energy>
25.6146

> <b_lp_Chiralities_Consistent>
1

> <s_lp_Variant>
AV-unprocessed.smi:693-1

> <Gold.Version>
5.8.1

> <Gold.Id.Protein>
6NUR|6NUR_protein|mol2

> <Gold.PLP.Fitness>
44.7060

> <Gold.PLP.PLP>
-34.4601

> <Gold.PLP.part.hbond>
-3.8706

> <Gold.PLP.part.metal>
0.0000

> <Gold.PLP.part.buried>
-4.1738

> <Gold.PLP.part.nonpolar>
-27.7633

> <Gold.PLP.part.repulsive>
0.4136

> <Gold.PLP.ligand.clash>
0.7812

> <Gold.PLP.ligand.torsion>
0.4878

> <Gold.PLP.Chemscore.Hbond>
3.3520

> <Gold.PLP.Chemscore.CHOScore>
0.6151

> <Gold.PLP.Chemscore.Metal>
0.0000

> <Gold.Chemscore.Hbonds>
donor molecule, donor type, donor heavy atom, donor atom, acceptor molecule, acceptor atom, score
      P1  H  6933  6944       L1    19  0.06
      P1  H  7989  7998       L1    22  0.98
      L1  C    21    46       P1  8028  0.38

> <Gold.PLP.Chemscore.Internal.Correction>
0.1015

> <Gold.Rescore>
     Score         DG    S(hbond)    S(metal)    S(lipo)     H(rot)  DE(clash)    DE(int)     intcor
     18.37     -19.30       3.49        0.00      67.58       2.25       0.25       0.68       ----

> <Gold.Chemscore.Fitness>
18.3675

> <Gold.Chemscore.DG>
-19.2960

> <Gold.Chemscore.ZeroCoef>
-5.4800

> <Gold.Chemscore.Hbond>
3.4947

> <Gold.Chemscore.Metal>
0.0000

> <Gold.Chemscore.Lipo>
67.5793

> <Gold.Chemscore.Internal_Hbond>
0.0000

> <Gold.Chemscore.DEClash>
0.2519

> <Gold.Chemscore.DEInternal>
0.6765

> <Gold.Chemscore.Rot>
2.2512

> <Gold.Chemscore.Internal.Correction>
   9.000000E+99

> <Gold.Chemscore.Hbonds>
donor molecule, donor type, donor heavy atom, donor atom, acceptor molecule, acceptor atom, score
      P1  H  6933  6944       L1    19  0.11
      P1  H  7989  7998       L1    22  0.20

> <Gold.Chemscore.Hbond.Weighted>
-11.6723

> <Gold.Chemscore.Metal.Weighted>
-0.0000

> <Gold.Chemscore.Lipo.Weighted>
-7.9068

> <Gold.Chemscore.Internal_Hbond.Weighted>
0.0000

> <Gold.Chemscore.DEClash.Weighted>
0.2519

> <Gold.Chemscore.DEInternal.Weighted>
0.6765

> <Gold.Chemscore.Rot.Weighted>
5.7631

> <Gold.Chemscore.Internal.Correction.Weighted>
   9.000000E+99

> <Gold.Protein.RotatedTorsions>
[ 6907 6896 6895 6894 ] final  -12.17 input  -60.11 | X-H torsion
[ 7974 7965 7964 7962 ] final  -61.63 input  175.53 | X-H torsion
[ 8008 7997 7996 7995 ] final  169.72 input   59.86 | X-H torsion
[ 10167 10162 10161 10158 ] final   35.08 input  -65.29 | X-H torsion
[ 10718 10713 10712 10709 ] final   46.02 input   66.30 | X-H torsion
[ 10763 10752 10751 10750 ] final -158.70 input  -60.55 | X-H torsion
[ 11005 11000 10999 10996 ] final -124.51 input  -57.11 | X-H torsion

> <Gold.Protein.ActiveResidues>
 VAL166  LYS551  ARG553  GLY616  TRP617  ASP618  TYR619  PRO620  LYS621  CYS622 
 ASP623  PHE694  ASN695  SER759  ASP760  ASP761  ALA762  ILE779  LEU786  VAL792 
 PHE793  MET794  SER795  GLU796  ALA797  LYS798  CYS799  TRP800  GLU811  SER814 

> <Gold.Protein.RotatedAtoms>
  151.3748  135.0929  159.9476 H   0  0  0  0  0  0  0  0  0  0  0  0  # atno 6907 bound_to 6896
  152.5125  133.9130  159.7507 H   0  0  0  0  0  0  0  0  0  0  0  0  # atno 6908 bound_to 6896
  150.9551  133.6451  159.2793 H   0  0  0  0  0  0  0  0  0  0  0  0  # atno 6909 bound_to 6896
  145.8011  140.8654  143.0231 H   0  0  0  0  0  0  0  0  0  0  0  0  # atno 7974 bound_to 7965
  156.1432  140.1557  156.8888 H   0  0  0  0  0  0  0  0  0  0  0  0  # atno 8008 bound_to 7997
  154.5005  140.0826  156.7826 H   0  0  0  0  0  0  0  0  0  0  0  0  # atno 8009 bound_to 7997
  155.4040  140.3415  155.4261 H   0  0  0  0  0  0  0  0  0  0  0  0  # atno 8010 bound_to 7997
  140.4255  144.1399  150.6153 H   0  0  0  0  0  0  0  0  0  0  0  0  # atno 10167 bound_to 10162
  157.4438  130.8097  149.7720 H   0  0  0  0  0  0  0  0  0  0  0  0  # atno 10718 bound_to 10713
  154.7535  135.3098  154.8513 H   0  0  0  0  0  0  0  0  0  0  0  0  # atno 10763 bound_to 10752
  153.9293  135.6787  153.4750 H   0  0  0  0  0  0  0  0  0  0  0  0  # atno 10764 bound_to 10752
  153.1132  135.4857  154.8999 H   0  0  0  0  0  0  0  0  0  0  0  0  # atno 10765 bound_to 10752
  140.9835  134.0639  157.3737 H   0  0  0  0  0  0  0  0  0  0  0  0  # atno 11005 bound_to 11000
  144.6769  140.0260  143.7483 LP  0  0  0  0  0  0  0  0  0  0  0  0  # atno 17320 bound_to 7965
  145.9877  139.2990  143.1004 LP  0  0  0  0  0  0  0  0  0  0  0  0  # atno 17321 bound_to 7965
  140.4486  143.2496  151.9378 LP  0  0  0  0  0  0  0  0  0  0  0  0  # atno 17342 bound_to 10162
  139.4783  144.5584  151.8277 LP  0  0  0  0  0  0  0  0  0  0  0  0  # atno 17343 bound_to 10162
  155.9959  130.3909  150.2800 LP  0  0  0  0  0  0  0  0  0  0  0  0  # atno 17370 bound_to 10713
  157.0967  131.0184  151.3101 LP  0  0  0  0  0  0  0  0  0  0  0  0  # atno 17371 bound_to 10713
  139.8960  135.0144  156.7032 LP  0  0  0  0  0  0  0  0  0  0  0  0  # atno 17394 bound_to 11000
  140.7150  133.9190  155.8109 LP  0  0  0  0  0  0  0  0  0  0  0  0  # atno 17395 bound_to 11000

$$$$
