AV-unprocessed.smi:1329|AV-procd|sdf|5484|dock8
  -GOLD-   22720 5 63D 1   1.00000     0.00000
 Structure written by MMmdl.
 42 43  0  0  0  0  0  0  0  0  1 V2000
  147.0261  135.7915  154.9475 C   0  0  0  0  0  0  0  0  0  0  0  0
  148.1884  136.7473  154.9430 C   0  0  0  0  0  0  0  0  0  0  0  0
  147.9572  137.9413  154.5055 N   0  0  0  0  0  0  0  0  0  0  0  0
  148.9548  138.8946  154.4550 N   0  0  0  0  0  0  0  0  0  0  0  0
  148.5178  140.1862  153.9103 C   0  0  0  0  0  0  0  0  0  0  0  0
  149.0056  141.3711  154.7737 C   0  0  1  0  0  0  0  0  0  0  0  0
  148.5407  142.5636  154.1721 O   0  0  0  0  0  0  0  0  0  0  0  0
  148.4266  141.3246  156.1976 C   0  0  0  0  0  0  0  0  0  0  0  0
  149.2915  142.0360  157.0679 O   0  0  0  0  0  0  0  0  0  0  0  0
  150.5911  141.4754  157.1355 C   0  0  0  0  0  0  0  0  0  0  0  0
  151.4352  142.1761  158.1801 C   0  0  0  0  0  0  0  0  0  0  0  0
  152.0287  141.4385  159.2259 C   0  0  0  0  0  0  0  0  0  0  0  0
  152.8186  142.0921  160.1920 C   0  0  0  0  0  0  0  0  0  0  0  0
  153.0179  143.4843  160.1149 C   0  0  0  0  0  0  0  0  0  0  0  0
  152.4282  144.2230  159.0709 C   0  0  0  0  0  0  0  0  0  0  0  0
  151.6388  143.5698  158.1042 C   0  0  0  0  0  0  0  0  0  0  0  0
  150.2443  138.6912  154.8500 C   0  0  0  0  0  0  0  0  0  0  0  0
  151.1044  139.5706  154.7835 O   0  0  0  0  0  0  0  0  0  0  0  0
  150.4992  137.3371  155.3465 C   0  0  0  0  0  0  0  0  0  0  0  0
  151.8389  137.0796  155.7668 C   0  0  0  0  0  0  0  0  0  0  0  0
  152.9178  136.8646  156.1265 N   0  0  0  0  0  0  0  0  0  0  0  0
  149.5284  136.3911  155.3986 C   0  0  0  0  0  0  0  0  0  0  0  0
  149.7424  134.9698  155.9009 C   0  0  0  0  0  0  0  0  0  0  0  0
  146.8028  135.4582  155.9611 H   0  0  0  0  0  0  0  0  0  0  0  0
  147.2459  134.9117  154.3424 H   0  0  0  0  0  0  0  0  0  0  0  0
  146.1211  136.2491  154.5446 H   0  0  0  0  0  0  0  0  0  0  0  0
  148.8442  140.3056  152.8750 H   0  0  0  0  0  0  0  0  0  0  0  0
  147.4276  140.1872  153.8575 H   0  0  0  0  0  0  0  0  0  0  0  0
  150.0950  141.3815  154.8274 H   0  0  0  0  0  0  0  0  0  0  0  0
  148.7708  143.2898  154.7311 H   0  0  0  0  0  0  0  0  0  0  0  0
  147.4109  141.7236  156.2276 H   0  0  0  0  0  0  0  0  0  0  0  0
  148.3777  140.2911  156.5441 H   0  0  0  0  0  0  0  0  0  0  0  0
  150.5274  140.4145  157.3829 H   0  0  0  0  0  0  0  0  0  0  0  0
  151.0824  141.5486  156.1636 H   0  0  0  0  0  0  0  0  0  0  0  0
  151.8826  140.3700  159.2888 H   0  0  0  0  0  0  0  0  0  0  0  0
  153.2726  141.5254  160.9914 H   0  0  0  0  0  0  0  0  0  0  0  0
  153.6239  143.9853  160.8553 H   0  0  0  0  0  0  0  0  0  0  0  0
  152.5823  145.2904  159.0103 H   0  0  0  0  0  0  0  0  0  0  0  0
  151.1919  144.1402  157.3030 H   0  0  0  0  0  0  0  0  0  0  0  0
  150.7602  134.8049  156.2533 H   0  0  0  0  0  0  0  0  0  0  0  0
  149.5506  134.2512  155.1036 H   0  0  0  0  0  0  0  0  0  0  0  0
  149.0708  134.7502  156.7312 H   0  0  0  0  0  0  0  0  0  0  0  0
  1  2  1  0  0  0  0
  1 24  1  0  0  0  0
  1 25  1  0  0  0  0
  1 26  1  0  0  0  0
  2 22  1  0  0  0  0
  2  3  2  0  0  0  0
  3  4  1  0  0  0  0
  4  5  1  0  0  0  0
  4 17  1  0  0  0  0
  5  6  1  0  0  0  0
  5 27  1  0  0  0  0
  5 28  1  0  0  0  0
  6  7  1  0  0  0  0
  6  8  1  0  0  0  0
  6 29  1  0  0  0  0
  7 30  1  0  0  0  0
  8  9  1  0  0  0  0
  8 31  1  0  0  0  0
  8 32  1  0  0  0  0
  9 10  1  0  0  0  0
 10 11  1  0  0  0  0
 10 33  1  0  0  0  0
 10 34  1  0  0  0  0
 11 16  1  0  0  0  0
 11 12  2  0  0  0  0
 12 13  1  0  0  0  0
 12 35  1  0  0  0  0
 13 14  2  0  0  0  0
 13 36  1  0  0  0  0
 14 15  1  0  0  0  0
 14 37  1  0  0  0  0
 15 16  2  0  0  0  0
 15 38  1  0  0  0  0
 16 39  1  0  0  0  0
 17 18  2  0  0  0  0
 17 19  1  0  0  0  0
 19 20  1  0  0  0  0
 19 22  2  0  0  0  0
 20 21  3  0  0  0  0
 22 23  1  0  0  0  0
 23 40  1  0  0  0  0
 23 41  1  0  0  0  0
 23 42  1  0  0  0  0
M  END
> <s_m_source_file>
AV-unprocessed.smi

> <i_m_source_file_index>
1329

> <i_lp_mmshare_version>
43012

> <i_f3d_flags>
0

> <s_epik_input>
TiNDYyhjMVtDSDNdKWMoPU8pbihuYzFbQ0gzXSlbQ0gyXVtDQEhdKFtPSF0pW0NIMl1PW0NIMl1jMltjSF1bY0hdW2NIXVtjSF1bY0hdMg==

> <s_epik_cmdline>
J2VwaWtfcHl0aG9uJywgJy1waCcsICc3LjAnLCAnLXRuJywgJzgnLCAnLW1hJywgJzIwMCcsICctbWV0YWxfYmluZGluZycsICctaW1hZScsICc8aW5maWxlLm1hZT4nLCAnLW9tYWUnLCAnPG91dGZpbGUubWFlPic=

> <r_lp_tautomer_probability>
1

> <r_epik_Ionization_Penalty>
6.13319e-08

> <r_epik_Ionization_Penalty_Charging>
2.19172e-10

> <r_epik_Ionization_Penalty_Neutral>
6.11128e-08

> <r_epik_State_Penalty>
-0

> <r_epik_Charging_Adjusted_Penalty>
2.19172e-10

> <i_epik_Tot_Q>
0

> <i_epik_Tot_abs_Q>
0

> <r_epik_Metal_State_Penalty>
-0

> <b_epik_Metal_Only>
0

> <s_lp_Force_Field>
OPLS_2005

> <r_lp_Energy>
31.6334

> <b_lp_Chiralities_Consistent>
1

> <s_lp_Variant>
AV-unprocessed.smi:1329-2

> <Gold.Version>
5.8.1

> <Gold.Id.Protein>
6NUR|6NUR_protein|mol2

> <Gold.PLP.Fitness>
47.9290

> <Gold.PLP.PLP>
-40.2549

> <Gold.PLP.part.hbond>
-4.6013

> <Gold.PLP.part.metal>
0.0000

> <Gold.PLP.part.buried>
-1.7858

> <Gold.PLP.part.nonpolar>
-34.8957

> <Gold.PLP.part.repulsive>
1.2189

> <Gold.PLP.ligand.clash>
0.0000

> <Gold.PLP.ligand.torsion>
0.4645

> <Gold.PLP.Chemscore.Hbond>
2.8130

> <Gold.PLP.Chemscore.CHOScore>
0.0000

> <Gold.PLP.Chemscore.Metal>
0.0000

> <Gold.Chemscore.Hbonds>
donor molecule, donor type, donor heavy atom, donor atom, acceptor molecule, acceptor atom, score
      L1  H     7    30       P1  8028  1.00
      P1  H  7989  7998       L1    18  1.00
      P1  H  8011  8017       L1     7  0.05
      P1  H 10752 10764       L1    21  0.77

> <Gold.PLP.Chemscore.Internal.Correction>
0.1641

> <Gold.Rescore>
     Score         DG    S(hbond)    S(metal)    S(lipo)     H(rot)  DE(clash)    DE(int)     intcor
     18.62     -20.72       2.75        0.00     105.98       2.48       0.28       1.81       ----

> <Gold.Chemscore.Fitness>
18.6194

> <Gold.Chemscore.DG>
-20.7160

> <Gold.Chemscore.ZeroCoef>
-5.4800

> <Gold.Chemscore.Hbond>
2.7483

> <Gold.Chemscore.Metal>
0.0000

> <Gold.Chemscore.Lipo>
105.9793

> <Gold.Chemscore.Internal_Hbond>
0.0000

> <Gold.Chemscore.DEClash>
0.2836

> <Gold.Chemscore.DEInternal>
1.8130

> <Gold.Chemscore.Rot>
2.4777

> <Gold.Chemscore.Internal.Correction>
   9.000000E+99

> <Gold.Chemscore.Hbonds>
donor molecule, donor type, donor heavy atom, donor atom, acceptor molecule, acceptor atom, score
      L1  H     7    30       P1  8028  1.00
      P1  H  7989  7998       L1    18  1.00
      P1  H  8011  8017       L1     7  0.01
      P1  H 10752 10764       L1    21  0.20

> <Gold.Chemscore.Hbond.Weighted>
-9.1793

> <Gold.Chemscore.Metal.Weighted>
-0.0000

> <Gold.Chemscore.Lipo.Weighted>
-12.3996

> <Gold.Chemscore.Internal_Hbond.Weighted>
0.0000

> <Gold.Chemscore.DEClash.Weighted>
0.2836

> <Gold.Chemscore.DEInternal.Weighted>
1.8130

> <Gold.Chemscore.Rot.Weighted>
6.3428

> <Gold.Chemscore.Internal.Correction.Weighted>
   9.000000E+99

> <Gold.Protein.RotatedTorsions>
[ 6907 6896 6895 6894 ] final  -55.24 input  -60.11 | X-H torsion
[ 7974 7965 7964 7962 ] final -147.87 input  175.53 | X-H torsion
[ 8008 7997 7996 7995 ] final   97.19 input   59.86 | X-H torsion
[ 10167 10162 10161 10158 ] final  106.12 input  -65.29 | X-H torsion
[ 10718 10713 10712 10709 ] final -100.68 input   66.30 | X-H torsion
[ 10763 10752 10751 10750 ] final  -20.16 input  -60.55 | X-H torsion
[ 11005 11000 10999 10996 ] final -161.86 input  -57.11 | X-H torsion

> <Gold.Protein.ActiveResidues>
 VAL166  LYS551  ARG553  GLY616  TRP617  ASP618  TYR619  PRO620  LYS621  CYS622 
 ASP623  PHE694  ASN695  SER759  ASP760  ASP761  ALA762  ILE779  LEU786  VAL792 
 PHE793  MET794  SER795  GLU796  ALA797  LYS798  CYS799  TRP800  GLU811  SER814 

> <Gold.Protein.RotatedAtoms>
  150.8268  134.7503  159.6819 H   0  0  0  0  0  0  0  0  0  0  0  0  # atno 6907 bound_to 6896
  152.4378  134.5648  159.9914 H   0  0  0  0  0  0  0  0  0  0  0  0  # atno 6908 bound_to 6896
  151.5818  133.3339  159.3046 H   0  0  0  0  0  0  0  0  0  0  0  0  # atno 6909 bound_to 6896
  144.8065  140.5270  143.5671 H   0  0  0  0  0  0  0  0  0  0  0  0  # atno 7974 bound_to 7965
  156.0876  140.3262  155.7774 H   0  0  0  0  0  0  0  0  0  0  0  0  # atno 8008 bound_to 7997
  155.5050  140.0572  157.2950 H   0  0  0  0  0  0  0  0  0  0  0  0  # atno 8009 bound_to 7997
  154.4618  140.1970  156.0240 H   0  0  0  0  0  0  0  0  0  0  0  0  # atno 8010 bound_to 7997
  139.7035  144.7090  151.1145 H   0  0  0  0  0  0  0  0  0  0  0  0  # atno 10167 bound_to 10162
  156.0170  130.5339  150.6852 H   0  0  0  0  0  0  0  0  0  0  0  0  # atno 10718 bound_to 10713
  153.6161  135.6994  153.5328 H   0  0  0  0  0  0  0  0  0  0  0  0  # atno 10763 bound_to 10752
  153.2976  135.4138  155.1223 H   0  0  0  0  0  0  0  0  0  0  0  0  # atno 10764 bound_to 10752
  154.8553  135.3641  154.5701 H   0  0  0  0  0  0  0  0  0  0  0  0  # atno 10765 bound_to 10752
  140.6156  134.4803  157.5219 H   0  0  0  0  0  0  0  0  0  0  0  0  # atno 11005 bound_to 11000
  145.5425  139.1475  143.3439 LP  0  0  0  0  0  0  0  0  0  0  0  0  # atno 17320 bound_to 7965
  146.2357  140.5565  142.8956 LP  0  0  0  0  0  0  0  0  0  0  0  0  # atno 17321 bound_to 7965
  140.7716  143.5390  150.9334 LP  0  0  0  0  0  0  0  0  0  0  0  0  # atno 17342 bound_to 10162
  139.9073  143.6763  152.3121 LP  0  0  0  0  0  0  0  0  0  0  0  0  # atno 17343 bound_to 10162
  157.4546  131.0876  151.0810 LP  0  0  0  0  0  0  0  0  0  0  0  0  # atno 17370 bound_to 10713
  157.1316  130.6104  149.5531 LP  0  0  0  0  0  0  0  0  0  0  0  0  # atno 17371 bound_to 10713
  139.9174  134.8218  156.1322 LP  0  0  0  0  0  0  0  0  0  0  0  0  # atno 17394 bound_to 11000
  141.0778  133.6768  156.2272 LP  0  0  0  0  0  0  0  0  0  0  0  0  # atno 17395 bound_to 11000

$$$$
