AV-unprocessed.smi:767|AV-procd|sdf|3667|dock1
  -GOLD-   22720 1 73D 1   1.00000     0.00000
 Structure written by MMmdl.
 48 50  0  0  0  0  0  0  0  0  2 V2000
  151.3406  144.9871  158.6953 C   0  0  0  0  0  0  0  0  0  0  0  0
  151.2771  143.5149  158.3481 C   0  0  0  0  0  0  0  0  0  0  0  0
  152.0963  142.5566  158.9819 C   0  0  0  0  0  0  0  0  0  0  0  0
  151.9824  141.2013  158.6108 C   0  0  0  0  0  0  0  0  0  0  0  0
  151.0493  140.8296  157.6179 C   0  0  0  0  0  0  0  0  0  0  0  0
  150.8854  139.3729  157.2179 C   0  0  0  0  0  0  0  0  0  0  0  0
  151.0574  138.3856  158.3910 C   0  0  0  0  0  0  0  0  0  0  0  0
  149.8082  138.0975  159.0903 N   0  0  0  0  0  0  0  0  0  0  0  0
  149.2680  136.8803  159.2381 C   0  0  0  0  0  0  0  0  0  0  0  0
  149.7609  135.8460  158.7886 O   0  0  0  0  0  0  0  0  0  0  0  0
  148.1389  136.9258  159.9559 N   0  0  0  0  0  0  0  0  0  0  0  0
  147.3307  135.7608  160.3194 C   0  0  2  0  0  0  0  0  0  0  0  0
  145.8651  135.8781  159.8413 C   0  0  2  0  0  0  0  0  0  0  0  0
  145.3986  136.9431  158.8789 C   0  0  0  0  0  0  0  0  0  0  0  0
  144.8361  138.0205  159.8115 C   0  0  0  0  0  0  0  0  0  0  0  0
  145.4421  137.7615  161.0765 O   0  0  0  0  0  0  0  0  0  0  0  0
  145.5109  136.3466  161.2431 C   0  0  2  0  0  0  0  0  0  0  0  0
  146.8370  135.7821  161.7926 C   0  0  0  0  0  0  0  0  0  0  0  0
  146.7083  134.3949  162.4288 C   0  0  0  0  0  0  0  0  0  0  0  0
  147.5732  136.6561  162.8165 C   0  0  0  0  0  0  0  0  0  0  0  0
  150.2619  141.8324  157.0136 C   0  0  0  0  0  0  0  0  0  0  0  0
  150.4024  143.1208  157.3953 N   0  3  0  0  0  0  0  0  0  0  0  0
  151.8115  145.1377  159.6673 H   0  0  0  0  0  0  0  0  0  0  0  0
  150.3396  145.4178  158.7342 H   0  0  0  0  0  0  0  0  0  0  0  0
  151.9201  145.5271  157.9463 H   0  0  0  0  0  0  0  0  0  0  0  0
  152.8009  142.8525  159.7457 H   0  0  0  0  0  0  0  0  0  0  0  0
  152.5980  140.4553  159.0923 H   0  0  0  0  0  0  0  0  0  0  0  0
  149.9015  139.2393  156.7673 H   0  0  0  0  0  0  0  0  0  0  0  0
  151.6064  139.1375  156.4339 H   0  0  0  0  0  0  0  0  0  0  0  0
  151.4344  137.4361  158.0099 H   0  0  0  0  0  0  0  0  0  0  0  0
  151.8070  138.7537  159.0931 H   0  0  0  0  0  0  0  0  0  0  0  0
  149.3233  138.8835  159.4979 H   0  0  0  0  0  0  0  0  0  0  0  0
  147.8175  137.8228  160.2898 H   0  0  0  0  0  0  0  0  0  0  0  0
  147.7812  134.8099  160.0298 H   0  0  0  0  0  0  0  0  0  0  0  0
  145.4434  134.8919  159.6410 H   0  0  0  0  0  0  0  0  0  0  0  0
  146.2131  137.3311  158.2676 H   0  0  0  0  0  0  0  0  0  0  0  0
  144.6308  136.5749  158.1981 H   0  0  0  0  0  0  0  0  0  0  0  0
  145.0497  139.0313  159.4640 H   0  0  0  0  0  0  0  0  0  0  0  0
  143.7547  137.9147  159.9094 H   0  0  0  0  0  0  0  0  0  0  0  0
  144.5954  135.9078  161.6430 H   0  0  0  0  0  0  0  0  0  0  0  0
  146.1458  134.4320  163.3623 H   0  0  0  0  0  0  0  0  0  0  0  0
  147.6856  133.9639  162.6486 H   0  0  0  0  0  0  0  0  0  0  0  0
  146.1902  133.6966  161.7711 H   0  0  0  0  0  0  0  0  0  0  0  0
  147.0538  136.6720  163.7750 H   0  0  0  0  0  0  0  0  0  0  0  0
  147.6569  137.6923  162.4890 H   0  0  0  0  0  0  0  0  0  0  0  0
  148.5839  136.2892  162.9970 H   0  0  0  0  0  0  0  0  0  0  0  0
  149.5236  141.6441  156.2478 H   0  0  0  0  0  0  0  0  0  0  0  0
  149.8198  143.8281  156.9466 H   0  0  0  0  0  0  0  0  0  0  0  0
  1  2  1  0  0  0  0
  1 23  1  0  0  0  0
  1 24  1  0  0  0  0
  1 25  1  0  0  0  0
  2 22  1  0  0  0  0
  2  3  2  0  0  0  0
  3  4  1  0  0  0  0
  3 26  1  0  0  0  0
  4  5  2  0  0  0  0
  4 27  1  0  0  0  0
  5  6  1  0  0  0  0
  5 21  1  0  0  0  0
  6  7  1  0  0  0  0
  6 28  1  0  0  0  0
  6 29  1  0  0  0  0
  7  8  1  0  0  0  0
  7 30  1  0  0  0  0
  7 31  1  0  0  0  0
  8  9  1  0  0  0  0
  8 32  1  0  0  0  0
  9 10  2  0  0  0  0
  9 11  1  0  0  0  0
 11 12  1  0  0  0  0
 11 33  1  0  0  0  0
 12 18  1  0  0  0  0
 12 13  1  0  0  0  0
 12 34  1  0  0  0  0
 13 17  1  0  0  0  0
 13 14  1  0  0  0  0
 13 35  1  0  0  0  0
 14 15  1  0  0  0  0
 14 36  1  0  0  0  0
 14 37  1  0  0  0  0
 15 16  1  0  0  0  0
 15 38  1  0  0  0  0
 15 39  1  0  0  0  0
 16 17  1  0  0  0  0
 17 18  1  0  0  0  0
 17 40  1  0  0  0  0
 18 19  1  0  0  0  0
 18 20  1  0  0  0  0
 19 41  1  0  0  0  0
 19 42  1  0  0  0  0
 19 43  1  0  0  0  0
 20 44  1  0  0  0  0
 20 45  1  0  0  0  0
 20 46  1  0  0  0  0
 21 22  2  0  0  0  0
 21 47  1  0  0  0  0
 22 48  1  0  0  0  0
M  CHG  1  22   1
M  END
> <s_m_source_file>
AV-unprocessed.smi

> <i_m_source_file_index>
767

> <i_lp_mmshare_version>
43012

> <i_f3d_flags>
0

> <s_epik_input>
W0NIM11jMVtjSF1bY0hdYyhbY0hdbjEpW0NIMl1bQ0gyXVtOSF1DKD1PKVtOSF1bQ0BIXTJDKFtDSDNdKShbQ0gzXSlbQ0BIXShbQ0BASF0yMylPW0NIMl1bQ0gyXTM=

> <s_epik_cmdline>
J2VwaWtfcHl0aG9uJywgJy1waCcsICc3LjAnLCAnLXRuJywgJzgnLCAnLW1hJywgJzIwMCcsICctbWV0YWxfYmluZGluZycsICctaW1hZScsICc8aW5maWxlLm1hZT4nLCAnLW9tYWUnLCAnPG91dGZpbGUubWFlPic=

> <r_epik_Ionization_Penalty>
1.41853

> <r_epik_Ionization_Penalty_Charging>
1.41848

> <r_epik_Ionization_Penalty_Neutral>
5.17407e-05

> <r_epik_State_Penalty>
1.50205

> <r_epik_Charging_Adjusted_Penalty>
2.92053

> <i_epik_Tot_Q>
1

> <i_epik_Tot_abs_Q>
1

> <r_epik_Metal_State_Penalty>
1.5544

> <b_epik_Metal_Only>
0

> <s_lp_Force_Field>
OPLS_2005

> <r_lp_Energy>
40.587

> <b_lp_Chiralities_Consistent>
1

> <s_lp_Variant>
AV-unprocessed.smi:767-11

> <Gold.Version>
5.8.1

> <Gold.Id.Protein>
6NUR|6NUR_protein|mol2

> <Gold.PLP.Fitness>
48.7293

> <Gold.PLP.PLP>
-38.5584

> <Gold.PLP.part.hbond>
-3.0000

> <Gold.PLP.part.metal>
0.0000

> <Gold.PLP.part.buried>
-5.3528

> <Gold.PLP.part.nonpolar>
-31.0620

> <Gold.PLP.part.repulsive>
0.4583

> <Gold.PLP.ligand.clash>
0.0000

> <Gold.PLP.ligand.torsion>
0.6464

> <Gold.PLP.Chemscore.Hbond>
3.7480

> <Gold.PLP.Chemscore.CHOScore>
0.0000

> <Gold.PLP.Chemscore.Metal>
0.0000

> <Gold.Chemscore.Hbonds>
donor molecule, donor type, donor heavy atom, donor atom, acceptor molecule, acceptor atom, score
      L1  H    22    48       P1  8028  2.00
      P1  H  6896  6908       L1    10  1.00
      P1  H  6934  6947       L1    16  0.68

> <Gold.PLP.Chemscore.Internal.Correction>
0.2197

> <Gold.Rescore>
     Score         DG    S(hbond)    S(metal)    S(lipo)     H(rot)  DE(clash)    DE(int)     intcor
     20.44     -21.19       2.49        0.00      96.58       1.52       0.09       0.66       ----

> <Gold.Chemscore.Fitness>
20.4361

> <Gold.Chemscore.DG>
-21.1868

> <Gold.Chemscore.ZeroCoef>
-5.4800

> <Gold.Chemscore.Hbond>
2.4869

> <Gold.Chemscore.Metal>
0.0000

> <Gold.Chemscore.Lipo>
96.5826

> <Gold.Chemscore.Internal_Hbond>
0.0000

> <Gold.Chemscore.DEClash>
0.0869

> <Gold.Chemscore.DEInternal>
0.6638

> <Gold.Chemscore.Rot>
1.5233

> <Gold.Chemscore.Internal.Correction>
   9.000000E+99

> <Gold.Chemscore.Hbonds>
donor molecule, donor type, donor heavy atom, donor atom, acceptor molecule, acceptor atom, score
      L1  H    22    48       P1  8028  0.96
      P1  H  6896  6908       L1    10  0.97
      P1  H  6934  6947       L1    16  0.17

> <Gold.Chemscore.Hbond.Weighted>
-8.3062

> <Gold.Chemscore.Metal.Weighted>
-0.0000

> <Gold.Chemscore.Lipo.Weighted>
-11.3002

> <Gold.Chemscore.Internal_Hbond.Weighted>
0.0000

> <Gold.Chemscore.DEClash.Weighted>
0.0869

> <Gold.Chemscore.DEInternal.Weighted>
0.6638

> <Gold.Chemscore.Rot.Weighted>
3.8995

> <Gold.Chemscore.Internal.Correction.Weighted>
   9.000000E+99

> <Gold.Protein.RotatedTorsions>
[ 6907 6896 6895 6894 ] final  165.87 input  -60.11 | X-H torsion
[ 7974 7965 7964 7962 ] final  -33.61 input  175.53 | X-H torsion
[ 8008 7997 7996 7995 ] final  162.82 input   59.86 | X-H torsion
[ 10167 10162 10161 10158 ] final  -90.23 input  -65.29 | X-H torsion
[ 10718 10713 10712 10709 ] final   71.13 input   66.30 | X-H torsion
[ 10763 10752 10751 10750 ] final -101.19 input  -60.55 | X-H torsion
[ 11005 11000 10999 10996 ] final  158.49 input  -57.11 | X-H torsion

> <Gold.Protein.ActiveResidues>
 VAL166  LYS551  ARG553  GLY616  TRP617  ASP618  TYR619  PRO620  LYS621  CYS622 
 ASP623  PHE694  ASN695  SER759  ASP760  ASP761  ALA762  ILE779  LEU786  VAL792 
 PHE793  MET794  SER795  GLU796  ALA797  LYS798  CYS799  TRP800  GLU811  SER814 

> <Gold.Protein.RotatedAtoms>
  151.8877  133.3509  159.3787 H   0  0  0  0  0  0  0  0  0  0  0  0  # atno 6907 bound_to 6896
  150.7111  134.4955  159.5545 H   0  0  0  0  0  0  0  0  0  0  0  0  # atno 6908 bound_to 6896
  152.2519  134.8124  160.0495 H   0  0  0  0  0  0  0  0  0  0  0  0  # atno 6909 bound_to 6896
  146.0896  140.5938  142.8870 H   0  0  0  0  0  0  0  0  0  0  0  0  # atno 7974 bound_to 7965
  156.2003  140.1740  156.7913 H   0  0  0  0  0  0  0  0  0  0  0  0  # atno 8008 bound_to 7997
  154.5583  140.0704  156.8809 H   0  0  0  0  0  0  0  0  0  0  0  0  # atno 8009 bound_to 7997
  155.2897  140.3354  155.4255 H   0  0  0  0  0  0  0  0  0  0  0  0  # atno 8010 bound_to 7997
  140.3569  143.2862  151.9660 H   0  0  0  0  0  0  0  0  0  0  0  0  # atno 10167 bound_to 10162
  157.6436  130.9513  150.0747 H   0  0  0  0  0  0  0  0  0  0  0  0  # atno 10718 bound_to 10713
  154.7638  135.4907  153.9515 H   0  0  0  0  0  0  0  0  0  0  0  0  # atno 10763 bound_to 10752
  153.1283  135.6747  153.9228 H   0  0  0  0  0  0  0  0  0  0  0  0  # atno 10764 bound_to 10752
  153.8939  135.3117  155.3426 H   0  0  0  0  0  0  0  0  0  0  0  0  # atno 10765 bound_to 10752
  140.1870  134.8434  157.2869 H   0  0  0  0  0  0  0  0  0  0  0  0  # atno 11005 bound_to 11000
  144.7351  140.4784  143.6910 LP  0  0  0  0  0  0  0  0  0  0  0  0  # atno 17320 bound_to 7965
  145.6064  139.1509  143.3100 LP  0  0  0  0  0  0  0  0  0  0  0  0  # atno 17321 bound_to 7965
  139.4819  144.6027  151.7577 LP  0  0  0  0  0  0  0  0  0  0  0  0  # atno 17342 bound_to 10162
  140.5165  144.0946  150.6010 LP  0  0  0  0  0  0  0  0  0  0  0  0  # atno 17343 bound_to 10162
  156.1741  130.3647  149.9125 LP  0  0  0  0  0  0  0  0  0  0  0  0  # atno 17370 bound_to 10713
  156.7093  130.8964  151.3608 LP  0  0  0  0  0  0  0  0  0  0  0  0  # atno 17371 bound_to 10713
  140.2202  134.4032  155.7569 LP  0  0  0  0  0  0  0  0  0  0  0  0  # atno 17394 bound_to 11000
  141.2225  133.7162  156.8479 LP  0  0  0  0  0  0  0  0  0  0  0  0  # atno 17395 bound_to 11000

$$$$
