AV-unprocessed.smi:678|AV-procd|sdf|3318|dock1
  -GOLD-   22720 0283D 1   1.00000     0.00000
 Structure written by MMmdl.
 50 51  0  0  0  0  0  0  0  0  1 V2000
  153.4655  141.6810  160.4270 C   0  0  0  0  0  0  0  0  0  0  0  0
  152.5343  142.1003  159.3028 C   0  0  0  0  0  0  0  0  0  0  0  0
  151.9308  143.3088  159.3003 C   0  0  0  0  0  0  0  0  0  0  0  0
  151.0483  143.6994  158.2278 C   0  0  0  0  0  0  0  0  0  0  0  0
  150.8369  142.8271  157.2320 C   0  0  0  0  0  0  0  0  0  0  0  0
  151.4497  141.5604  157.2128 N   0  0  0  0  0  0  0  0  0  0  0  0
  151.1445  140.6883  156.0659 C   0  0  0  0  0  0  0  0  0  0  0  0
  149.7405  140.9173  155.4889 C   0  0  0  0  0  0  0  0  0  0  0  0
  149.5841  141.1675  154.2930 O   0  0  0  0  0  0  0  0  0  0  0  0
  148.7269  140.8552  156.3662 N   0  0  0  0  0  0  0  0  0  0  0  0
  147.3161  141.0524  156.0465 C   0  0  0  0  0  0  0  0  0  0  0  0
  146.7732  142.3794  156.6065 C   0  0  1  0  0  0  0  0  0  0  0  0
  145.4642  142.8458  155.9319 C   0  0  0  0  0  0  0  0  0  0  0  0
  144.9287  144.0588  156.5453 N   0  0  0  0  0  0  0  0  0  0  0  0
  143.6755  144.4998  155.9302 C   0  0  0  0  0  0  0  0  0  0  0  0
  142.9943  145.7219  156.5840 C   0  0  0  0  0  0  0  0  0  0  0  0
  141.4971  145.7936  156.2419 C   0  0  0  0  0  0  0  0  0  0  0  0
  143.7043  147.0171  156.1643 C   0  0  0  0  0  0  0  0  0  0  0  0
  144.7533  143.8288  157.9743 C   0  0  0  0  0  0  0  0  0  0  0  0
  146.0573  143.3697  158.6459 C   0  0  0  0  0  0  0  0  0  0  0  0
  146.5351  142.1949  157.9996 O   0  0  0  0  0  0  0  0  0  0  0  0
  152.3020  141.1470  158.2014 C   0  0  0  0  0  0  0  0  0  0  0  0
  152.8388  140.0381  158.1656 O   0  0  0  0  0  0  0  0  0  0  0  0
  153.5426  142.4557  161.1905 H   0  0  0  0  0  0  0  0  0  0  0  0
  154.4666  141.4876  160.0404 H   0  0  0  0  0  0  0  0  0  0  0  0
  153.1003  140.7721  160.9064 H   0  0  0  0  0  0  0  0  0  0  0  0
  152.1076  144.0007  160.1108 H   0  0  0  0  0  0  0  0  0  0  0  0
  150.5739  144.6696  158.2254 H   0  0  0  0  0  0  0  0  0  0  0  0
  150.1975  143.0436  156.3884 H   0  0  0  0  0  0  0  0  0  0  0  0
  151.8896  140.8260  155.2800 H   0  0  0  0  0  0  0  0  0  0  0  0
  151.2248  139.6386  156.3517 H   0  0  0  0  0  0  0  0  0  0  0  0
  148.9488  140.6527  157.3302 H   0  0  0  0  0  0  0  0  0  0  0  0
  147.1423  140.9935  154.9706 H   0  0  0  0  0  0  0  0  0  0  0  0
  146.7633  140.2223  156.4870 H   0  0  0  0  0  0  0  0  0  0  0  0
  147.5371  143.1500  156.4857 H   0  0  0  0  0  0  0  0  0  0  0  0
  145.6622  143.0233  154.8762 H   0  0  0  0  0  0  0  0  0  0  0  0
  144.7229  142.0467  155.9823 H   0  0  0  0  0  0  0  0  0  0  0  0
  143.8507  144.7103  154.8740 H   0  0  0  0  0  0  0  0  0  0  0  0
  142.9634  143.6733  155.9509 H   0  0  0  0  0  0  0  0  0  0  0  0
  143.0912  145.6522  157.6672 H   0  0  0  0  0  0  0  0  0  0  0  0
  141.3395  145.8636  155.1652 H   0  0  0  0  0  0  0  0  0  0  0  0
  141.0297  146.6634  156.7042 H   0  0  0  0  0  0  0  0  0  0  0  0
  140.9658  144.9114  156.5998 H   0  0  0  0  0  0  0  0  0  0  0  0
  143.6477  147.1691  155.0860 H   0  0  0  0  0  0  0  0  0  0  0  0
  144.7585  146.9949  156.4423 H   0  0  0  0  0  0  0  0  0  0  0  0
  143.2567  147.8865  156.6471 H   0  0  0  0  0  0  0  0  0  0  0  0
  144.4040  144.7424  158.4565 H   0  0  0  0  0  0  0  0  0  0  0  0
  143.9802  143.0757  158.1359 H   0  0  0  0  0  0  0  0  0  0  0  0
  146.8143  144.1541  158.5998 H   0  0  0  0  0  0  0  0  0  0  0  0
  145.8846  143.1518  159.6997 H   0  0  0  0  0  0  0  0  0  0  0  0
  1  2  1  0  0  0  0
  1 24  1  0  0  0  0
  1 25  1  0  0  0  0
  1 26  1  0  0  0  0
  2 22  1  0  0  0  0
  2  3  2  0  0  0  0
  3  4  1  0  0  0  0
  3 27  1  0  0  0  0
  4  5  2  0  0  0  0
  4 28  1  0  0  0  0
  5  6  1  0  0  0  0
  5 29  1  0  0  0  0
  6  7  1  0  0  0  0
  6 22  1  0  0  0  0
  7  8  1  0  0  0  0
  7 30  1  0  0  0  0
  7 31  1  0  0  0  0
  8  9  2  0  0  0  0
  8 10  1  0  0  0  0
 10 11  1  0  0  0  0
 10 32  1  0  0  0  0
 11 12  1  0  0  0  0
 11 33  1  0  0  0  0
 11 34  1  0  0  0  0
 12 21  1  0  0  0  0
 12 13  1  0  0  0  0
 12 35  1  0  0  0  0
 13 14  1  0  0  0  0
 13 36  1  0  0  0  0
 13 37  1  0  0  0  0
 14 15  1  0  0  0  0
 14 19  1  0  0  0  0
 15 16  1  0  0  0  0
 15 38  1  0  0  0  0
 15 39  1  0  0  0  0
 16 17  1  0  0  0  0
 16 18  1  0  0  0  0
 16 40  1  0  0  0  0
 17 41  1  0  0  0  0
 17 42  1  0  0  0  0
 17 43  1  0  0  0  0
 18 44  1  0  0  0  0
 18 45  1  0  0  0  0
 18 46  1  0  0  0  0
 19 20  1  0  0  0  0
 19 47  1  0  0  0  0
 19 48  1  0  0  0  0
 20 21  1  0  0  0  0
 20 49  1  0  0  0  0
 20 50  1  0  0  0  0
 22 23  2  0  0  0  0
M  END
> <s_m_source_file>
AV-unprocessed.smi

> <i_m_source_file_index>
678

> <i_lp_mmshare_version>
43012

> <i_f3d_flags>
0

> <s_epik_input>
W0NIM11jMVtjSF1bY0hdW2NIXW4oYzE9TylbQ0gyXUMoPU8pW05IXVtDSDJdW0NAQEhdMltDSDJdTihbQ0gyXVtDSDJdTzIpW0NIMl1bQ0hdKFtDSDNdKVtDSDNd

> <s_epik_cmdline>
J2VwaWtfcHl0aG9uJywgJy1waCcsICc3LjAnLCAnLXRuJywgJzgnLCAnLW1hJywgJzIwMCcsICctbWV0YWxfYmluZGluZycsICctaW1hZScsICc8aW5maWxlLm1hZT4nLCAnLW9tYWUnLCAnPG91dGZpbGUubWFlPic=

> <r_lp_tautomer_probability>
1

> <r_epik_Ionization_Penalty>
1.11669

> <r_epik_Ionization_Penalty_Charging>
7.32459e-07

> <r_epik_Ionization_Penalty_Neutral>
1.11669

> <r_epik_State_Penalty>
1.17516

> <r_epik_Charging_Adjusted_Penalty>
1.17516

> <i_epik_Tot_Q>
0

> <i_epik_Tot_abs_Q>
0

> <r_epik_Metal_State_Penalty>
1.17513

> <b_epik_Metal_Only>
0

> <s_lp_Force_Field>
OPLS_2005

> <r_lp_Energy>
33.1266

> <b_lp_Chiralities_Consistent>
1

> <s_lp_Variant>
AV-unprocessed.smi:678-6

> <Gold.Version>
5.8.1

> <Gold.Id.Protein>
6NUR|6NUR_protein|mol2

> <Gold.PLP.Fitness>
44.2052

> <Gold.PLP.PLP>
-37.6443

> <Gold.PLP.part.hbond>
-2.0000

> <Gold.PLP.part.metal>
0.0000

> <Gold.PLP.part.buried>
-5.0743

> <Gold.PLP.part.nonpolar>
-30.4701

> <Gold.PLP.part.repulsive>
0.3724

> <Gold.PLP.ligand.clash>
0.0000

> <Gold.PLP.ligand.torsion>
0.8222

> <Gold.PLP.Chemscore.Hbond>
1.6560

> <Gold.PLP.Chemscore.CHOScore>
1.0000

> <Gold.PLP.Chemscore.Metal>
0.0000

> <Gold.Chemscore.Hbonds>
donor molecule, donor type, donor heavy atom, donor atom, acceptor molecule, acceptor atom, score
      P1  H  7989  7998       L1     9  0.27
      P1  H  7997  8009       L1    23  0.86
      P1  H  8011  8017       L1     9  0.18
      L1  C     5    29       P1  8028  1.00

> <Gold.PLP.Chemscore.Internal.Correction>
0.2374

> <Gold.Rescore>
     Score         DG    S(hbond)    S(metal)    S(lipo)     H(rot)  DE(clash)    DE(int)     intcor
     14.62     -16.64       1.55        0.00      91.00       1.82       0.06       1.96       ----

> <Gold.Chemscore.Fitness>
14.6229

> <Gold.Chemscore.DG>
-16.6415

> <Gold.Chemscore.ZeroCoef>
-5.4800

> <Gold.Chemscore.Hbond>
1.5522

> <Gold.Chemscore.Metal>
0.0000

> <Gold.Chemscore.Lipo>
91.0029

> <Gold.Chemscore.Internal_Hbond>
0.0000

> <Gold.Chemscore.DEClash>
0.0557

> <Gold.Chemscore.DEInternal>
1.9629

> <Gold.Chemscore.Rot>
1.8243

> <Gold.Chemscore.Internal.Correction>
   9.000000E+99

> <Gold.Chemscore.Hbonds>
donor molecule, donor type, donor heavy atom, donor atom, acceptor molecule, acceptor atom, score
      P1  H  7989  7998       L1     9  0.11
      P1  H  7997  8009       L1    23  0.66
      P1  H  8011  8017       L1     9  0.18

> <Gold.Chemscore.Hbond.Weighted>
-5.1844

> <Gold.Chemscore.Metal.Weighted>
-0.0000

> <Gold.Chemscore.Lipo.Weighted>
-10.6473

> <Gold.Chemscore.Internal_Hbond.Weighted>
0.0000

> <Gold.Chemscore.DEClash.Weighted>
0.0557

> <Gold.Chemscore.DEInternal.Weighted>
1.9629

> <Gold.Chemscore.Rot.Weighted>
4.6703

> <Gold.Chemscore.Internal.Correction.Weighted>
   9.000000E+99

> <Gold.Protein.RotatedTorsions>
[ 6907 6896 6895 6894 ] final   14.66 input  -60.11 | X-H torsion
[ 7974 7965 7964 7962 ] final -126.36 input  175.53 | X-H torsion
[ 8008 7997 7996 7995 ] final  153.97 input   59.86 | X-H torsion
[ 10167 10162 10161 10158 ] final  168.72 input  -65.29 | X-H torsion
[ 10718 10713 10712 10709 ] final   19.35 input   66.30 | X-H torsion
[ 10763 10752 10751 10750 ] final  -13.80 input  -60.55 | X-H torsion
[ 11005 11000 10999 10996 ] final   85.54 input  -57.11 | X-H torsion

> <Gold.Protein.ActiveResidues>
 VAL166  LYS551  ARG553  GLY616  TRP617  ASP618  TYR619  PRO620  LYS621  CYS622 
 ASP623  PHE694  ASN695  SER759  ASP760  ASP761  ALA762  ILE779  LEU786  VAL792 
 PHE793  MET794  SER795  GLU796  ALA797  LYS798  CYS799  TRP800  GLU811  SER814 

> <Gold.Protein.RotatedAtoms>
  151.8057  135.0695  160.0406 H   0  0  0  0  0  0  0  0  0  0  0  0  # atno 6907 bound_to 6896
  152.3056  133.5696  159.5656 H   0  0  0  0  0  0  0  0  0  0  0  0  # atno 6908 bound_to 6896
  150.7295  134.0143  159.3722 H   0  0  0  0  0  0  0  0  0  0  0  0  # atno 6909 bound_to 6896
  144.9880  140.7705  143.4571 H   0  0  0  0  0  0  0  0  0  0  0  0  # atno 7974 bound_to 7965
  156.2555  140.1979  156.6574 H   0  0  0  0  0  0  0  0  0  0  0  0  # atno 8008 bound_to 7997
  154.6490  140.0574  156.9959 H   0  0  0  0  0  0  0  0  0  0  0  0  # atno 8009 bound_to 7997
  155.1446  140.3246  155.4447 H   0  0  0  0  0  0  0  0  0  0  0  0  # atno 8010 bound_to 7997
  139.4974  144.3784  151.9649 H   0  0  0  0  0  0  0  0  0  0  0  0  # atno 10167 bound_to 10162
  157.1092  130.6501  149.5893 H   0  0  0  0  0  0  0  0  0  0  0  0  # atno 10718 bound_to 10713
  153.5187  135.7016  153.5743 H   0  0  0  0  0  0  0  0  0  0  0  0  # atno 10763 bound_to 10752
  153.3801  135.3922  155.1851 H   0  0  0  0  0  0  0  0  0  0  0  0  # atno 10764 bound_to 10752
  154.8696  135.3833  154.4673 H   0  0  0  0  0  0  0  0  0  0  0  0  # atno 10765 bound_to 10752
  139.8969  134.8294  156.2597 H   0  0  0  0  0  0  0  0  0  0  0  0  # atno 11005 bound_to 11000
  145.2325  139.2108  143.5035 LP  0  0  0  0  0  0  0  0  0  0  0  0  # atno 17320 bound_to 7965
  146.3425  140.2205  142.8591 LP  0  0  0  0  0  0  0  0  0  0  0  0  # atno 17321 bound_to 7965
  140.3221  144.3416  150.6007 LP  0  0  0  0  0  0  0  0  0  0  0  0  # atno 17342 bound_to 10162
  140.5714  143.2180  151.7592 LP  0  0  0  0  0  0  0  0  0  0  0  0  # atno 17343 bound_to 10162
  155.9854  130.4884  150.7032 LP  0  0  0  0  0  0  0  0  0  0  0  0  # atno 17370 bound_to 10713
  157.4574  131.0879  151.0782 LP  0  0  0  0  0  0  0  0  0  0  0  0  # atno 17371 bound_to 10713
  141.0171  133.7062  156.1206 LP  0  0  0  0  0  0  0  0  0  0  0  0  # atno 17394 bound_to 11000
  140.7286  134.4279  157.5568 LP  0  0  0  0  0  0  0  0  0  0  0  0  # atno 17395 bound_to 11000

$$$$
