AV-unprocessed.smi:2151|AV-procd|sdf|8759|dock7
  -GOLD-   2272011533D 1   1.00000     0.00000
 Structure written by MMmdl.
 39 40  0  0  0  0  0  0  0  0  1 V2000
  151.3651  140.0176  158.2279 C   0  0  0  0  0  0  0  0  0  0  0  0
  151.0682  138.5201  158.0639 C   0  0  1  0  0  0  0  0  0  0  0  0
  149.7396  138.2386  158.6054 N   0  0  0  0  0  0  0  0  0  0  0  0
  149.2399  137.0240  158.8818 C   0  0  0  0  0  0  0  0  0  0  0  0
  149.8571  135.9756  158.6891 O   0  0  0  0  0  0  0  0  0  0  0  0
  147.8101  137.0016  159.4404 C   0  0  0  0  0  0  0  0  0  0  0  0
  147.5779  135.9133  160.4048 N   0  0  0  0  0  0  0  0  0  0  0  0
  147.4126  134.6160  159.8809 C   0  0  0  0  0  0  0  0  0  0  0  0
  147.1835  133.5369  160.6535 C   0  0  0  0  0  0  0  0  0  0  0  0
  147.0694  132.1410  160.0605 C   0  0  0  0  0  0  0  0  0  0  0  0
  146.9900  131.2154  161.0170 F   0  0  0  0  0  0  0  0  0  0  0  0
  145.9728  132.0569  159.3085 F   0  0  0  0  0  0  0  0  0  0  0  0
  148.1218  131.8596  159.2912 F   0  0  0  0  0  0  0  0  0  0  0  0
  147.1446  133.7651  162.0848 C   0  0  0  0  0  0  0  0  0  0  0  0
  147.3152  134.9972  162.6029 C   0  0  0  0  0  0  0  0  0  0  0  0
  147.5451  136.1639  161.7479 C   0  0  0  0  0  0  0  0  0  0  0  0
  147.6983  137.2950  162.2095 O   0  0  0  0  0  0  0  0  0  0  0  0
  151.1484  138.0733  156.5905 C   0  0  2  0  0  0  0  0  0  0  0  0
  152.4118  138.5204  155.8515 C   0  0  0  0  0  0  0  0  0  0  0  0
  151.9511  138.4878  154.4129 C   0  0  0  0  0  0  0  0  0  0  0  0
  150.5213  139.0052  154.5335 C   0  0  0  0  0  0  0  0  0  0  0  0
  150.0759  138.6343  155.8362 O   0  0  0  0  0  0  0  0  0  0  0  0
  152.3610  140.2651  157.8594 H   0  0  0  0  0  0  0  0  0  0  0  0
  151.3219  140.3130  159.2768 H   0  0  0  0  0  0  0  0  0  0  0  0
  150.6465  140.6279  157.6796 H   0  0  0  0  0  0  0  0  0  0  0  0
  151.8266  137.9705  158.6243 H   0  0  0  0  0  0  0  0  0  0  0  0
  149.1518  139.0385  158.7899 H   0  0  0  0  0  0  0  0  0  0  0  0
  147.5851  137.9653  159.9015 H   0  0  0  0  0  0  0  0  0  0  0  0
  147.1198  136.9209  158.5996 H   0  0  0  0  0  0  0  0  0  0  0  0
  147.4947  134.5516  158.8055 H   0  0  0  0  0  0  0  0  0  0  0  0
  146.9739  132.9349  162.7544 H   0  0  0  0  0  0  0  0  0  0  0  0
  147.2800  135.1301  163.6744 H   0  0  0  0  0  0  0  0  0  0  0  0
  151.0668  136.9869  156.5224 H   0  0  0  0  0  0  0  0  0  0  0  0
  152.6838  139.5388  156.1334 H   0  0  0  0  0  0  0  0  0  0  0  0
  153.2683  137.8722  156.0398 H   0  0  0  0  0  0  0  0  0  0  0  0
  152.5695  139.0917  153.7483 H   0  0  0  0  0  0  0  0  0  0  0  0
  151.9510  137.4612  154.0437 H   0  0  0  0  0  0  0  0  0  0  0  0
  150.5022  140.0931  154.4589 H   0  0  0  0  0  0  0  0  0  0  0  0
  149.8681  138.6015  153.7595 H   0  0  0  0  0  0  0  0  0  0  0  0
  1  2  1  0  0  0  0
  1 23  1  0  0  0  0
  1 24  1  0  0  0  0
  1 25  1  0  0  0  0
  2  3  1  0  0  0  0
  2 18  1  0  0  0  0
  2 26  1  0  0  0  0
  3  4  1  0  0  0  0
  3 27  1  0  0  0  0
  4  5  2  0  0  0  0
  4  6  1  0  0  0  0
  6  7  1  0  0  0  0
  6 28  1  0  0  0  0
  6 29  1  0  0  0  0
  7 16  1  0  0  0  0
  7  8  1  0  0  0  0
  8  9  2  0  0  0  0
  8 30  1  0  0  0  0
  9 10  1  0  0  0  0
  9 14  1  0  0  0  0
 10 11  1  0  0  0  0
 10 12  1  0  0  0  0
 10 13  1  0  0  0  0
 14 15  2  0  0  0  0
 14 31  1  0  0  0  0
 15 16  1  0  0  0  0
 15 32  1  0  0  0  0
 16 17  2  0  0  0  0
 18 22  1  0  0  0  0
 18 19  1  0  0  0  0
 18 33  1  0  0  0  0
 19 20  1  0  0  0  0
 19 34  1  0  0  0  0
 19 35  1  0  0  0  0
 20 21  1  0  0  0  0
 20 36  1  0  0  0  0
 20 37  1  0  0  0  0
 21 22  1  0  0  0  0
 21 38  1  0  0  0  0
 21 39  1  0  0  0  0
M  END
> <s_m_source_file>
AV-unprocessed.smi

> <i_m_source_file_index>
2151

> <i_lp_mmshare_version>
43012

> <i_f3d_flags>
0

> <s_epik_input>
TzFbQ0gyXVtDSDJdW0NIMl1bQ0BIXTFbQ0BIXShbQ0gzXSlbTkhdQyg9TylbQ0gyXW4yW2NIXWMoQyhGKShGKUYpW2NIXVtjSF1jMj1P

> <s_epik_cmdline>
J2VwaWtfcHl0aG9uJywgJy1waCcsICc3LjAnLCAnLXRuJywgJzgnLCAnLW1hJywgJzIwMCcsICctbWV0YWxfYmluZGluZycsICctaW1hZScsICc8aW5maWxlLm1hZT4nLCAnLW9tYWUnLCAnPG91dGZpbGUubWFlPic=

> <r_lp_tautomer_probability>
1

> <r_epik_Ionization_Penalty>
4.20109e-08

> <r_epik_Ionization_Penalty_Charging>
1.89977e-08

> <r_epik_Ionization_Penalty_Neutral>
2.30132e-08

> <r_epik_State_Penalty>
-0

> <r_epik_Charging_Adjusted_Penalty>
1.89977e-08

> <i_epik_Tot_Q>
0

> <i_epik_Tot_abs_Q>
0

> <r_epik_Metal_State_Penalty>
-0

> <b_epik_Metal_Only>
0

> <s_lp_Force_Field>
OPLS_2005

> <r_lp_Energy>
30.2794

> <b_lp_Chiralities_Consistent>
1

> <s_lp_Variant>
AV-unprocessed.smi:2151-2

> <Gold.Version>
5.8.1

> <Gold.Id.Protein>
6NUR|6NUR_protein|mol2

> <Gold.PLP.Fitness>
44.1424

> <Gold.PLP.PLP>
-38.5276

> <Gold.PLP.part.hbond>
-3.0000

> <Gold.PLP.part.metal>
0.0000

> <Gold.PLP.part.buried>
-4.6290

> <Gold.PLP.part.nonpolar>
-30.7755

> <Gold.PLP.part.repulsive>
0.1927

> <Gold.PLP.ligand.clash>
0.0000

> <Gold.PLP.ligand.torsion>
0.8960

> <Gold.PLP.Chemscore.Hbond>
2.4400

> <Gold.PLP.Chemscore.CHOScore>
0.0000

> <Gold.PLP.Chemscore.Metal>
0.0000

> <Gold.Chemscore.Hbonds>
donor molecule, donor type, donor heavy atom, donor atom, acceptor molecule, acceptor atom, score
      P1  H  6896  6907       L1     5  1.00
      P1  H  6931  6943       L1    17  0.90
      P1  H  6934  6947       L1    17  0.31

> <Gold.PLP.Chemscore.Internal.Correction>
0.0868

> <Gold.Rescore>
     Score         DG    S(hbond)    S(metal)    S(lipo)     H(rot)  DE(clash)    DE(int)     intcor
     16.62     -17.51       2.56        0.00      69.55       1.82       0.00       0.90       ----

> <Gold.Chemscore.Fitness>
16.6155

> <Gold.Chemscore.DG>
-17.5135

> <Gold.Chemscore.ZeroCoef>
-5.4800

> <Gold.Chemscore.Hbond>
2.5636

> <Gold.Chemscore.Metal>
0.0000

> <Gold.Chemscore.Lipo>
69.5511

> <Gold.Chemscore.Internal_Hbond>
0.0000

> <Gold.Chemscore.DEClash>
0.0000

> <Gold.Chemscore.DEInternal>
0.8980

> <Gold.Chemscore.Rot>
1.8228

> <Gold.Chemscore.Internal.Correction>
   9.000000E+99

> <Gold.Chemscore.Hbonds>
donor molecule, donor type, donor heavy atom, donor atom, acceptor molecule, acceptor atom, score
      P1  H  6896  6907       L1     5  0.99
      P1  H  6931  6943       L1    17  0.88
      P1  H  6934  6947       L1    17  0.29

> <Gold.Chemscore.Hbond.Weighted>
-8.5625

> <Gold.Chemscore.Metal.Weighted>
-0.0000

> <Gold.Chemscore.Lipo.Weighted>
-8.1375

> <Gold.Chemscore.Internal_Hbond.Weighted>
0.0000

> <Gold.Chemscore.DEClash.Weighted>
0.0000

> <Gold.Chemscore.DEInternal.Weighted>
0.8980

> <Gold.Chemscore.Rot.Weighted>
4.6665

> <Gold.Chemscore.Internal.Correction.Weighted>
   9.000000E+99

> <Gold.Protein.RotatedTorsions>
[ 6907 6896 6895 6894 ] final  -47.70 input  -60.11 | X-H torsion
[ 7974 7965 7964 7962 ] final  167.89 input  175.53 | X-H torsion
[ 8008 7997 7996 7995 ] final    9.93 input   59.86 | X-H torsion
[ 10167 10162 10161 10158 ] final  -71.01 input  -65.29 | X-H torsion
[ 10718 10713 10712 10709 ] final   -0.03 input   66.30 | X-H torsion
[ 10763 10752 10751 10750 ] final  -68.83 input  -60.55 | X-H torsion
[ 11005 11000 10999 10996 ] final  172.92 input  -57.11 | X-H torsion

> <Gold.Protein.ActiveResidues>
 VAL166  LYS551  ARG553  GLY616  TRP617  ASP618  TYR619  PRO620  LYS621  CYS622 
 ASP623  PHE694  ASN695  SER759  ASP760  ASP761  ALA762  ILE779  LEU786  VAL792 
 PHE793  MET794  SER795  GLU796  ALA797  LYS798  CYS799  TRP800  GLU811  SER814 

> <Gold.Protein.RotatedAtoms>
  150.8981  134.8391  159.7340 H   0  0  0  0  0  0  0  0  0  0  0  0  # atno 6907 bound_to 6896
  152.4877  134.4544  159.9595 H   0  0  0  0  0  0  0  0  0  0  0  0  # atno 6908 bound_to 6896
  151.4599  133.3556  159.2843 H   0  0  0  0  0  0  0  0  0  0  0  0  # atno 6909 bound_to 6896
  144.7408  139.8828  143.6397 H   0  0  0  0  0  0  0  0  0  0  0  0  # atno 7974 bound_to 7965
  154.7866  140.2828  155.6023 H   0  0  0  0  0  0  0  0  0  0  0  0  # atno 8008 bound_to 7997
  156.2958  140.2613  156.2632 H   0  0  0  0  0  0  0  0  0  0  0  0  # atno 8009 bound_to 7997
  154.9721  140.0376  157.2228 H   0  0  0  0  0  0  0  0  0  0  0  0  # atno 8010 bound_to 7997
  140.5307  143.2322  151.7267 H   0  0  0  0  0  0  0  0  0  0  0  0  # atno 10167 bound_to 10162
  156.8265  130.5474  149.5691 H   0  0  0  0  0  0  0  0  0  0  0  0  # atno 10718 bound_to 10713
  154.3947  135.6045  153.5863 H   0  0  0  0  0  0  0  0  0  0  0  0  # atno 10763 bound_to 10752
  152.9787  135.5892  154.4256 H   0  0  0  0  0  0  0  0  0  0  0  0  # atno 10764 bound_to 10752
  154.4045  135.2843  155.2053 H   0  0  0  0  0  0  0  0  0  0  0  0  # atno 10765 bound_to 10752
  140.3349  134.7326  157.4161 H   0  0  0  0  0  0  0  0  0  0  0  0  # atno 11005 bound_to 11000
  146.1199  139.4215  143.0235 LP  0  0  0  0  0  0  0  0  0  0  0  0  # atno 17320 bound_to 7965
  145.7320  141.0039  143.1347 LP  0  0  0  0  0  0  0  0  0  0  0  0  # atno 17321 bound_to 7965
  139.4953  144.4118  152.0072 LP  0  0  0  0  0  0  0  0  0  0  0  0  # atno 17342 bound_to 10162
  140.3220  144.3416  150.6007 LP  0  0  0  0  0  0  0  0  0  0  0  0  # atno 17343 bound_to 10162
  156.0959  130.5932  150.9812 LP  0  0  0  0  0  0  0  0  0  0  0  0  # atno 17370 bound_to 10713
  157.6429  131.0908  150.8213 LP  0  0  0  0  0  0  0  0  0  0  0  0  # atno 17371 bound_to 10713
  140.0829  134.5706  155.8521 LP  0  0  0  0  0  0  0  0  0  0  0  0  # atno 17394 bound_to 11000
  141.2054  133.6646  156.6177 LP  0  0  0  0  0  0  0  0  0  0  0  0  # atno 17395 bound_to 11000

$$$$
