AV-unprocessed.smi:2227|AV-procd|sdf|9021|dock7
  -GOLD-   2272012223D 1   1.00000     0.00000
 Structure written by MMmdl.
 43 45  0  0  0  0  0  0  0  0  2 V2000
  150.3952  137.1879  156.4083 C   0  0  0  0  0  0  0  0  0  0  0  0
  150.6483  137.9231  155.0845 C   0  0  0  0  0  0  0  0  0  0  0  0
  152.1503  138.0789  154.8035 C   0  0  0  0  0  0  0  0  0  0  0  0
  149.9359  139.2479  155.0563 C   0  0  0  0  0  0  0  0  0  0  0  0
  148.8178  139.5005  154.3636 N   0  3  0  0  0  0  0  0  0  0  0  0
  148.4412  140.8060  154.5153 C   0  0  0  0  0  0  0  0  0  0  0  0
  149.3772  141.3850  155.3299 C   0  0  0  0  0  0  0  0  0  0  0  0
  150.2888  140.4082  155.6440 N   0  0  0  0  0  0  0  0  0  0  0  0
  151.4783  140.5887  156.4897 C   0  0  0  0  0  0  0  0  0  0  0  0
  151.1679  141.4210  157.7362 C   0  0  0  0  0  0  0  0  0  0  0  0
  150.0084  141.7531  157.9811 O   0  0  0  0  0  0  0  0  0  0  0  0
  152.2158  141.7575  158.5037 N   0  0  0  0  0  0  0  0  0  0  0  0
  152.1572  142.5529  159.7254 C   0  0  0  0  0  0  0  0  0  0  0  0
  151.8197  144.0026  159.4264 C   0  0  0  0  0  0  0  0  0  0  0  0
  150.9572  144.3881  158.2479 C   0  0  0  0  0  0  0  0  0  0  0  0
  152.4323  144.7183  158.2460 C   0  0  0  0  0  0  0  0  0  0  0  0
  153.4400  142.4646  160.5362 C   0  0  0  0  0  0  0  0  0  0  0  0
  153.7954  141.2201  161.3154 C   0  0  0  0  0  0  0  0  0  0  0  0
  153.4211  142.4884  162.0467 C   0  0  0  0  0  0  0  0  0  0  0  0
  149.3282  137.0409  156.5789 H   0  0  0  0  0  0  0  0  0  0  0  0
  150.7926  137.7471  157.2557 H   0  0  0  0  0  0  0  0  0  0  0  0
  150.8668  136.2049  156.4083 H   0  0  0  0  0  0  0  0  0  0  0  0
  150.2304  137.3193  154.2811 H   0  0  0  0  0  0  0  0  0  0  0  0
  152.3203  138.5640  153.8419 H   0  0  0  0  0  0  0  0  0  0  0  0
  152.6451  137.1078  154.7734 H   0  0  0  0  0  0  0  0  0  0  0  0
  152.6431  138.6768  155.5708 H   0  0  0  0  0  0  0  0  0  0  0  0
  147.5616  141.2155  154.0403 H   0  0  0  0  0  0  0  0  0  0  0  0
  149.4639  142.3981  155.6954 H   0  0  0  0  0  0  0  0  0  0  0  0
  151.8283  139.6034  156.7997 H   0  0  0  0  0  0  0  0  0  0  0  0
  152.2743  141.0321  155.8898 H   0  0  0  0  0  0  0  0  0  0  0  0
  153.1305  141.4356  158.2214 H   0  0  0  0  0  0  0  0  0  0  0  0
  151.3484  142.1637  160.3474 H   0  0  0  0  0  0  0  0  0  0  0  0
  151.6793  144.6060  160.3217 H   0  0  0  0  0  0  0  0  0  0  0  0
  150.6235  143.5993  157.5769 H   0  0  0  0  0  0  0  0  0  0  0  0
  150.2573  145.2098  158.3858 H   0  0  0  0  0  0  0  0  0  0  0  0
  152.7170  145.7595  158.3826 H   0  0  0  0  0  0  0  0  0  0  0  0
  153.0683  144.1452  157.5748 H   0  0  0  0  0  0  0  0  0  0  0  0
  154.2775  142.9841  160.0738 H   0  0  0  0  0  0  0  0  0  0  0  0
  153.0753  140.4046  161.3325 H   0  0  0  0  0  0  0  0  0  0  0  0
  154.8409  140.9190  161.3293 H   0  0  0  0  0  0  0  0  0  0  0  0
  154.2171  143.0338  162.5497 H   0  0  0  0  0  0  0  0  0  0  0  0
  152.4555  142.5056  162.5477 H   0  0  0  0  0  0  0  0  0  0  0  0
  148.3243  138.8172  153.8032 H   0  0  0  0  0  0  0  0  0  0  0  0
  1  2  1  0  0  0  0
  1 20  1  0  0  0  0
  1 21  1  0  0  0  0
  1 22  1  0  0  0  0
  2  3  1  0  0  0  0
  2  4  1  0  0  0  0
  2 23  1  0  0  0  0
  3 24  1  0  0  0  0
  3 25  1  0  0  0  0
  3 26  1  0  0  0  0
  4  8  1  0  0  0  0
  4  5  2  0  0  0  0
  5  6  1  0  0  0  0
  5 43  1  0  0  0  0
  6  7  2  0  0  0  0
  6 27  1  0  0  0  0
  7  8  1  0  0  0  0
  7 28  1  0  0  0  0
  8  9  1  0  0  0  0
  9 10  1  0  0  0  0
  9 29  1  0  0  0  0
  9 30  1  0  0  0  0
 10 11  2  0  0  0  0
 10 12  1  0  0  0  0
 12 13  1  0  0  0  0
 12 31  1  0  0  0  0
 13 14  1  0  0  0  0
 13 17  1  0  0  0  0
 13 32  1  0  0  0  0
 14 16  1  0  0  0  0
 14 15  1  0  0  0  0
 14 33  1  0  0  0  0
 15 16  1  0  0  0  0
 15 34  1  0  0  0  0
 15 35  1  0  0  0  0
 16 36  1  0  0  0  0
 16 37  1  0  0  0  0
 17 19  1  0  0  0  0
 17 18  1  0  0  0  0
 17 38  1  0  0  0  0
 18 19  1  0  0  0  0
 18 39  1  0  0  0  0
 18 40  1  0  0  0  0
 19 41  1  0  0  0  0
 19 42  1  0  0  0  0
M  CHG  1   5   1
M  END
> <s_m_source_file>
AV-unprocessed.smi

> <i_m_source_file_index>
2227

> <i_lp_mmshare_version>
43012

> <i_f3d_flags>
0

> <s_epik_input>
W0NIM11bQ0hdKFtDSDNdKWMxbltjSF1bY0hdbjFbQ0gyXUMoPU8pW05IXVtDSF0oW0NIXTJbQ0gyXVtDSDJdMilbQ0hdM1tDSDJdW0NIMl0z

> <s_epik_cmdline>
J2VwaWtfcHl0aG9uJywgJy1waCcsICc3LjAnLCAnLXRuJywgJzgnLCAnLW1hJywgJzIwMCcsICctbWV0YWxfYmluZGluZycsICctaW1hZScsICc8aW5maWxlLm1hZT4nLCAnLW9tYWUnLCAnPG91dGZpbGUubWFlPic=

> <r_lp_tautomer_probability>
1

> <r_epik_Ionization_Penalty>
0.258813

> <r_epik_Ionization_Penalty_Charging>
0

> <r_epik_Ionization_Penalty_Neutral>
0.258813

> <r_epik_State_Penalty>
0.250457

> <r_epik_Charging_Adjusted_Penalty>
0.250457

> <i_epik_Tot_Q>
1

> <i_epik_Tot_abs_Q>
1

> <r_epik_Metal_State_Penalty>
0.539096

> <b_epik_Metal_Only>
0

> <s_lp_Force_Field>
OPLS_2005

> <r_lp_Energy>
28.4044

> <b_lp_Chiralities_Consistent>
1

> <s_lp_Variant>
AV-unprocessed.smi:2227-1

> <Gold.Version>
5.8.1

> <Gold.Id.Protein>
6NUR|6NUR_protein|mol2

> <Gold.PLP.Fitness>
52.0650

> <Gold.PLP.PLP>
-50.5254

> <Gold.PLP.part.hbond>
-1.0000

> <Gold.PLP.part.metal>
0.0000

> <Gold.PLP.part.buried>
-3.6185

> <Gold.PLP.part.nonpolar>
-45.0553

> <Gold.PLP.part.repulsive>
0.2878

> <Gold.PLP.ligand.clash>
0.0000

> <Gold.PLP.ligand.torsion>
1.8187

> <Gold.PLP.Chemscore.Hbond>
0.0000

> <Gold.PLP.Chemscore.CHOScore>
1.0000

> <Gold.PLP.Chemscore.Metal>
0.0000

> <Gold.Chemscore.Hbonds>
donor molecule, donor type, donor heavy atom, donor atom, acceptor molecule, acceptor atom, score
      L1  C     7    28       P1  8028  1.00

> <Gold.PLP.Chemscore.Internal.Correction>
2.1770

> <Gold.Rescore>
     Score         DG    S(hbond)    S(metal)    S(lipo)     H(rot)  DE(clash)    DE(int)     intcor
     12.15     -15.13       0.00        0.00     120.49       1.74       0.08       2.89       ----

> <Gold.Chemscore.Fitness>
12.1512

> <Gold.Chemscore.DG>
-15.1254

> <Gold.Chemscore.ZeroCoef>
-5.4800

> <Gold.Chemscore.Hbond>
0.0000

> <Gold.Chemscore.Metal>
0.0000

> <Gold.Chemscore.Lipo>
120.4934

> <Gold.Chemscore.Internal_Hbond>
0.0000

> <Gold.Chemscore.DEClash>
0.0815

> <Gold.Chemscore.DEInternal>
2.8927

> <Gold.Chemscore.Rot>
1.7392

> <Gold.Chemscore.Internal.Correction>
   9.000000E+99

> <Gold.Chemscore.Hbond.Weighted>
-0.0000

> <Gold.Chemscore.Metal.Weighted>
-0.0000

> <Gold.Chemscore.Lipo.Weighted>
-14.0977

> <Gold.Chemscore.Internal_Hbond.Weighted>
0.0000

> <Gold.Chemscore.DEClash.Weighted>
0.0815

> <Gold.Chemscore.DEInternal.Weighted>
2.8927

> <Gold.Chemscore.Rot.Weighted>
4.4524

> <Gold.Chemscore.Internal.Correction.Weighted>
   9.000000E+99

> <Gold.Protein.RotatedTorsions>
[ 6907 6896 6895 6894 ] final  161.66 input  -60.11 | X-H torsion
[ 7974 7965 7964 7962 ] final  -25.96 input  175.53 | X-H torsion
[ 8008 7997 7996 7995 ] final  140.88 input   59.86 | X-H torsion
[ 10167 10162 10161 10158 ] final    6.41 input  -65.29 | X-H torsion
[ 10718 10713 10712 10709 ] final -179.26 input   66.30 | X-H torsion
[ 10763 10752 10751 10750 ] final  -31.29 input  -60.55 | X-H torsion
[ 11005 11000 10999 10996 ] final  137.67 input  -57.11 | X-H torsion

> <Gold.Protein.ActiveResidues>
 VAL166  LYS551  ARG553  GLY616  TRP617  ASP618  TYR619  PRO620  LYS621  CYS622 
 ASP623  PHE694  ASN695  SER759  ASP760  ASP761  ALA762  ILE779  LEU786  VAL792 
 PHE793  MET794  SER795  GLU796  ALA797  LYS798  CYS799  TRP800  GLU811  SER814 

> <Gold.Protein.RotatedAtoms>
  151.9521  133.3669  159.4003 H   0  0  0  0  0  0  0  0  0  0  0  0  # atno 6907 bound_to 6896
  150.6979  134.4329  159.5266 H   0  0  0  0  0  0  0  0  0  0  0  0  # atno 6908 bound_to 6896
  152.2004  134.8593  160.0559 H   0  0  0  0  0  0  0  0  0  0  0  0  # atno 6909 bound_to 6896
  146.1457  140.4956  142.8633 H   0  0  0  0  0  0  0  0  0  0  0  0  # atno 7974 bound_to 7965
  156.2973  140.2330  156.4474 H   0  0  0  0  0  0  0  0  0  0  0  0  # atno 8008 bound_to 7997
  154.8132  140.0442  157.1378 H   0  0  0  0  0  0  0  0  0  0  0  0  # atno 8009 bound_to 7997
  154.9399  140.3028  155.5129 H   0  0  0  0  0  0  0  0  0  0  0  0  # atno 8010 bound_to 7997
  140.6429  143.7730  150.7455 H   0  0  0  0  0  0  0  0  0  0  0  0  # atno 10167 bound_to 10162
  156.8564  130.9737  151.3087 H   0  0  0  0  0  0  0  0  0  0  0  0  # atno 10718 bound_to 10713
  153.7948  135.6895  153.4865 H   0  0  0  0  0  0  0  0  0  0  0  0  # atno 10763 bound_to 10752
  153.1726  135.4537  154.9921 H   0  0  0  0  0  0  0  0  0  0  0  0  # atno 10764 bound_to 10752
  154.8030  135.3345  154.7442 H   0  0  0  0  0  0  0  0  0  0  0  0  # atno 10765 bound_to 10752
  140.0130  134.9430  157.0317 H   0  0  0  0  0  0  0  0  0  0  0  0  # atno 11005 bound_to 11000
  144.7843  140.5905  143.6584 LP  0  0  0  0  0  0  0  0  0  0  0  0  # atno 17320 bound_to 7965
  145.4943  139.1487  143.3692 LP  0  0  0  0  0  0  0  0  0  0  0  0  # atno 17321 bound_to 7965
  140.1366  143.4479  152.2221 LP  0  0  0  0  0  0  0  0  0  0  0  0  # atno 17342 bound_to 10162
  139.5639  144.7423  151.4077 LP  0  0  0  0  0  0  0  0  0  0  0  0  # atno 17343 bound_to 10162
  157.6274  130.8703  149.9214 LP  0  0  0  0  0  0  0  0  0  0  0  0  # atno 17370 bound_to 10713
  156.0800  130.3674  150.0599 LP  0  0  0  0  0  0  0  0  0  0  0  0  # atno 17371 bound_to 10713
  140.4521  134.1572  155.7182 LP  0  0  0  0  0  0  0  0  0  0  0  0  # atno 17394 bound_to 11000
  141.1724  133.8583  157.1530 LP  0  0  0  0  0  0  0  0  0  0  0  0  # atno 17395 bound_to 11000

$$$$
