#       Name:                AV-unprocessed.smi:803
#       Creating user name   scv26
#       Creation time:       Fri Mar 27 01:23:04 2020


#       File generated by GOLD software.
#

@<TRIPOS>MOLECULE
AV-unprocessed.smi:803
    40    41     1
SMALL
NO_CHARGES


@<TRIPOS>ATOM
      1 ****        -5.5018   0.5488   3.5556 C.3            1 S1                 0.0000
      2 ****        -4.8230  -0.7050   2.9905 C.3            1 S1                 0.0000
      3 ****        -3.3844  -0.5472   2.9023 N.pl3          1 S1                 0.0000
      4 ****        -2.6138  -0.3605   1.7717 C.2            1 S1                 0.0000
      5 ****        -1.3244  -0.2709   2.2144 C.2            1 S1                 0.0000
      6 ****        -0.1311  -0.0727   1.4753 N.am           1 S1                 0.0000
      7 ****        -0.0036   0.0166   0.1413 C.2            1 S1                 0.0000
      8 ****        -0.9286  -0.0778  -0.6660 O.2            1 S1                 0.0000
      9 ****         1.2741   0.2175  -0.2117 N.am           1 S1                 0.0000
     10 ****         1.7610   0.3468  -1.5818 C.3            1 S1                 0.0000
     11 ****         2.0663  -1.0425  -2.1786 C.3            1 S1                 0.0000
     12 ****         2.6592  -0.9292  -3.5923 C.3            1 S1                 0.0000
     13 ****         3.9094  -0.0356  -3.6039 C.3            1 S1                 0.0000
     14 ****         3.6052   1.3515  -3.0170 C.3            1 S1                 0.0000
     15 ****         3.0155   1.2406  -1.6017 C.3            1 S1                 0.0000
     16 ****        -1.3883  -0.4118   3.6249 C.2            1 S1                 0.0000
     17 ****        -2.6365  -0.5826   4.0332 N.2            1 S1                 0.0000
     18 ****        -6.5831   0.4178   3.5983 H              1 S1                 0.0000
     19 ****        -5.2959   1.4211   2.9344 H              1 S1                 0.0000
     20 ****        -5.1542   0.7666   4.5659 H              1 S1                 0.0000
     21 ****        -5.0418  -1.5715   3.6158 H              1 S1                 0.0000
     22 ****        -5.2118  -0.9254   1.9957 H              1 S1                 0.0000
     23 ****        -3.0472  -0.3078   0.7838 H              1 S1                 0.0000
     24 ****         0.7153   0.0052   2.0200 H              1 S1                 0.0000
     25 ****         1.9646   0.2814   0.5220 H              1 S1                 0.0000
     26 ****         0.9951   0.8299  -2.1919 H              1 S1                 0.0000
     27 ****         2.7683  -1.5750  -1.5350 H              1 S1                 0.0000
     28 ****         1.1584  -1.6463  -2.2107 H              1 S1                 0.0000
     29 ****         2.9080  -1.9208  -3.9716 H              1 S1                 0.0000
     30 ****         1.9097  -0.5181  -4.2698 H              1 S1                 0.0000
     31 ****         4.7033  -0.5106  -3.0263 H              1 S1                 0.0000
     32 ****         4.2854   0.0655  -4.6224 H              1 S1                 0.0000
     33 ****         4.5142   1.9529  -2.9948 H              1 S1                 0.0000
     34 ****         2.9030   1.8772  -3.6656 H              1 S1                 0.0000
     35 ****         2.7713   2.2357  -1.2282 H              1 S1                 0.0000
     36 ****         3.7713   0.8343  -0.9277 H              1 S1                 0.0000
     37 ****        -0.5887  -0.3980   4.3506 H              1 S1                 0.0000
     38 ****        -1.8616  -0.2331  -0.3414 LP             1 S1                 0.0000
     39 ****        -0.7468   0.0009  -1.6461 LP             1 S1                 0.0000
     40 ****        -2.9578  -0.7100   4.9716 LP             1 S1                 0.0000
@<TRIPOS>BOND
    1    1    2 1     
    2    1   18 1     
    3    1   19 1     
    4    1   20 1     
    5    2    3 1     
    6    2   21 1     
    7    2   22 1     
    8    3   17 1     
    9    3    4 1     
   10    4    5 2     
   11    4   23 1     
   12    5    6 1     
   13    5   16 1     
   14    6    7 am    
   15    6   24 1     
   16    7    8 2     
   17    7    9 am    
   18    9   10 1     
   19    9   25 1     
   20   10   15 1     
   21   10   11 1     
   22   10   26 1     
   23   11   12 1     
   24   11   27 1     
   25   11   28 1     
   26   12   13 1     
   27   12   29 1     
   28   12   30 1     
   29   13   14 1     
   30   13   31 1     
   31   13   32 1     
   32   14   15 1     
   33   14   33 1     
   34   14   34 1     
   35   15   35 1     
   36   15   36 1     
   37   16   17 2     
   38   16   37 1     
   39    8   38 1     
   40    8   39 1     
   41   17   40 1     
@<TRIPOS>SUBSTRUCTURE
      1 S1             1
@<TRIPOS>SET
LONE_PAIRS      STATIC     ATOMS    <user>   **** ""
3 38 39 40
DONOR_HYDROGENS      STATIC     ATOMS    <user>   **** ""
2 24 25
ATOM$BLUE        STATIC     ATOMS    COLORGROUP SYSTEM
3 38 39 40
ATOM$RED        STATIC     ATOMS    COLORGROUP SYSTEM
2 24 25
