AV-unprocessed.smi:254|AV-procd|sdf|1946|dock2
  -GOLD-   2262021 73D 1   1.00000     0.00000
 Structure written by MMmdl.
 50 53  0  0  0  0  0  0  0  0  1 V2000
  153.4706  140.0740  158.7863 O   0  0  0  0  0  0  0  0  0  0  0  0
  153.3539  140.9990  159.5886 C   0  0  0  0  0  0  0  0  0  0  0  0
  153.8997  140.9423  161.0038 C   0  0  0  0  0  0  0  0  0  0  0  0
  153.5170  142.2538  161.5124 N   0  0  0  0  0  0  0  0  0  0  0  0
  153.8441  142.6929  162.7553 C   0  0  0  0  0  0  0  0  0  0  0  0
  153.3930  143.9152  163.1417 N   0  0  0  0  0  0  0  0  0  0  0  0
  153.6867  144.3972  164.3520 C   0  0  0  0  0  0  0  0  0  0  0  0
  154.4054  143.8313  165.3217 N   0  0  0  0  0  0  0  0  0  0  0  0
  154.8613  142.6022  164.9474 C   0  0  0  0  0  0  0  0  0  0  0  0
  154.6344  141.9634  163.6936 C   0  0  0  0  0  0  0  0  0  0  0  0
  155.2697  140.7265  163.6839 N   0  0  0  0  0  0  0  0  0  0  0  0
  155.8355  140.6410  164.8559 C   0  0  0  0  0  0  0  0  0  0  0  0
  155.6281  141.7175  165.6876 N   0  0  0  0  0  0  0  0  0  0  0  0
  156.1361  141.8895  167.0417 C   0  0  0  0  0  0  0  0  0  0  0  0
  156.3899  143.3668  167.4498 C   0  0  1  0  0  0  0  0  0  0  0  0
  155.1618  144.0041  168.1416 C   0  0  0  0  0  0  0  0  0  0  0  0
  155.0745  143.6008  169.4920 O   0  0  0  0  0  0  0  0  0  0  0  0
  157.6699  143.5306  168.3115 C   0  0  2  0  0  0  0  0  0  0  0  0
  157.8382  144.8939  168.9615 C   0  0  0  0  0  0  0  0  0  0  0  0
  159.3249  144.9155  169.3015 C   0  0  0  0  0  0  0  0  0  0  0  0
  159.9610  144.1165  168.3109 O   0  0  0  0  0  0  0  0  0  0  0  0
  158.9812  143.4516  167.5215 C   0  0  0  0  0  0  0  0  0  0  0  0
  152.8243  143.0590  160.5163 C   0  0  0  0  0  0  0  0  0  0  0  0
  152.7563  142.1748  159.3646 N   0  0  0  0  0  0  0  0  0  0  0  0
  152.1266  142.6128  158.1210 C   0  0  0  0  0  0  0  0  0  0  0  0
  150.6871  142.0883  157.9753 C   0  0  0  0  0  0  0  0  0  0  0  0
  150.3495  142.1020  156.6865 F   0  0  0  0  0  0  0  0  0  0  0  0
  150.5803  140.8387  158.4264 F   0  0  0  0  0  0  0  0  0  0  0  0
  149.8395  142.8698  158.6445 F   0  0  0  0  0  0  0  0  0  0  0  0
  153.4301  140.1377  161.5706 H   0  0  0  0  0  0  0  0  0  0  0  0
  154.9824  140.8103  160.9971 H   0  0  0  0  0  0  0  0  0  0  0  0
  153.2878  145.3759  164.5751 H   0  0  0  0  0  0  0  0  0  0  0  0
  156.4197  139.7804  165.1452 H   0  0  0  0  0  0  0  0  0  0  0  0
  155.4364  141.4158  167.7302 H   0  0  0  0  0  0  0  0  0  0  0  0
  157.0586  141.3154  167.1332 H   0  0  0  0  0  0  0  0  0  0  0  0
  156.5579  143.9221  166.5256 H   0  0  0  0  0  0  0  0  0  0  0  0
  155.1908  145.0923  168.0855 H   0  0  0  0  0  0  0  0  0  0  0  0
  154.2368  143.6896  167.6602 H   0  0  0  0  0  0  0  0  0  0  0  0
  155.9437  143.3889  169.7981 H   0  0  0  0  0  0  0  0  0  0  0  0
  157.6857  142.7784  169.1012 H   0  0  0  0  0  0  0  0  0  0  0  0
  157.6068  145.6874  168.2492 H   0  0  0  0  0  0  0  0  0  0  0  0
  157.2133  145.0336  169.8438 H   0  0  0  0  0  0  0  0  0  0  0  0
  159.7320  145.9267  169.3217 H   0  0  0  0  0  0  0  0  0  0  0  0
  159.4992  144.4602  170.2771 H   0  0  0  0  0  0  0  0  0  0  0  0
  159.2870  142.4284  167.3058 H   0  0  0  0  0  0  0  0  0  0  0  0
  158.8916  143.9811  166.5719 H   0  0  0  0  0  0  0  0  0  0  0  0
  151.8223  143.3295  160.8523 H   0  0  0  0  0  0  0  0  0  0  0  0
  153.3876  143.9618  160.2752 H   0  0  0  0  0  0  0  0  0  0  0  0
  152.1237  143.7031  158.0913 H   0  0  0  0  0  0  0  0  0  0  0  0
  152.7307  142.2878  157.2724 H   0  0  0  0  0  0  0  0  0  0  0  0
  1  2  2  0  0  0  0
  2 24  1  0  0  0  0
  2  3  1  0  0  0  0
  3  4  1  0  0  0  0
  3 30  1  0  0  0  0
  3 31  1  0  0  0  0
  4  5  1  0  0  0  0
  4 23  1  0  0  0  0
  5 10  1  0  0  0  0
  5  6  2  0  0  0  0
  6  7  1  0  0  0  0
  7  8  2  0  0  0  0
  7 32  1  0  0  0  0
  8  9  1  0  0  0  0
  9 13  1  0  0  0  0
  9 10  2  0  0  0  0
 10 11  1  0  0  0  0
 11 12  2  0  0  0  0
 12 13  1  0  0  0  0
 12 33  1  0  0  0  0
 13 14  1  0  0  0  0
 14 15  1  0  0  0  0
 14 34  1  0  0  0  0
 14 35  1  0  0  0  0
 15 16  1  0  0  0  0
 15 18  1  0  0  0  0
 15 36  1  0  0  0  0
 16 17  1  0  0  0  0
 16 37  1  0  0  0  0
 16 38  1  0  0  0  0
 17 39  1  0  0  0  0
 18 22  1  0  0  0  0
 18 19  1  0  0  0  0
 18 40  1  0  0  0  0
 19 20  1  0  0  0  0
 19 41  1  0  0  0  0
 19 42  1  0  0  0  0
 20 21  1  0  0  0  0
 20 43  1  0  0  0  0
 20 44  1  0  0  0  0
 21 22  1  0  0  0  0
 22 45  1  0  0  0  0
 22 46  1  0  0  0  0
 23 24  1  0  0  0  0
 23 47  1  0  0  0  0
 23 48  1  0  0  0  0
 24 25  1  0  0  0  0
 25 26  1  0  0  0  0
 25 49  1  0  0  0  0
 25 50  1  0  0  0  0
 26 27  1  0  0  0  0
 26 28  1  0  0  0  0
 26 29  1  0  0  0  0
M  END
> <s_m_source_file>
AV-unprocessed.smi

> <i_m_source_file_index>
254

> <i_lp_mmshare_version>
43012

> <i_f3d_flags>
0

> <s_epik_input>
RkMoRikoRilbQ0gyXU4xW0NIMl1OKFtDSDJdQzE9TyljKG5bY0hdbjIpYyhjMjMpbltjSF1uM1tDSDJdW0NASF0oW0NIMl1bT0hdKVtDQEBIXTRbQ0gyXVtDSDJdT1tDSDJdNA==

> <s_epik_cmdline>
J2VwaWtfcHl0aG9uJywgJy1waCcsICc3LjAnLCAnLXRuJywgJzgnLCAnLW1hJywgJzIwMCcsICctbWV0YWxfYmluZGluZycsICctaW1hZScsICc8aW5maWxlLm1hZT4nLCAnLW9tYWUnLCAnPG91dGZpbGUubWFlPic=

> <r_lp_tautomer_probability>
1

> <r_epik_Ionization_Penalty>
0.000292924

> <r_epik_Ionization_Penalty_Charging>
0

> <r_epik_Ionization_Penalty_Neutral>
0.000292924

> <r_epik_State_Penalty>
-0

> <r_epik_Charging_Adjusted_Penalty>
0

> <i_epik_Tot_Q>
0

> <i_epik_Tot_abs_Q>
0

> <r_epik_Metal_State_Penalty>
-0

> <b_epik_Metal_Only>
0

> <s_epik_Chemistry_Notes>
This compound contains an acetal/aminal-like group ( X-CH(R)-Y where X, Y are N, S, or O) that may be acid/base labile, releasing an aldehyde.

> <s_lp_Force_Field>
OPLS_2005

> <r_lp_Energy>
38.5559

> <b_lp_Chiralities_Consistent>
1

> <s_lp_Variant>
AV-unprocessed.smi:254-2

> <Gold.Version>
5.8.1

> <Gold.Id.Protein>
6NUR|6NUR_protein|mol2

> <Gold.PLP.Fitness>
48.0139

> <Gold.PLP.PLP>
-48.3148

> <Gold.PLP.part.hbond>
-3.8666

> <Gold.PLP.part.metal>
0.0000

> <Gold.PLP.part.buried>
-1.0910

> <Gold.PLP.part.nonpolar>
-42.2391

> <Gold.PLP.part.repulsive>
0.2208

> <Gold.PLP.ligand.clash>
0.0000

> <Gold.PLP.ligand.torsion>
1.9041

> <Gold.PLP.Chemscore.Hbond>
1.0000

> <Gold.PLP.Chemscore.CHOScore>
0.0000

> <Gold.PLP.Chemscore.Metal>
0.0000

> <Gold.Chemscore.Hbonds>
donor molecule, donor type, donor heavy atom, donor atom, acceptor molecule, acceptor atom, score
      P1  H  7997  8010       L1     1  0.93

> <Gold.PLP.Chemscore.Internal.Correction>
0.5073

> <Gold.Rescore>
     Score         DG    S(hbond)    S(metal)    S(lipo)     H(rot)  DE(clash)    DE(int)     intcor
      0.85      -6.62       0.95        0.00      54.68       3.30       1.79       3.98       ----

> <Gold.Chemscore.Fitness>
0.8490

> <Gold.Chemscore.DG>
-6.6246

> <Gold.Chemscore.ZeroCoef>
-5.4800

> <Gold.Chemscore.Hbond>
0.9545

> <Gold.Chemscore.Metal>
0.0000

> <Gold.Chemscore.Lipo>
54.6836

> <Gold.Chemscore.Internal_Hbond>
0.0000

> <Gold.Chemscore.DEClash>
1.7950

> <Gold.Chemscore.DEInternal>
3.9805

> <Gold.Chemscore.Rot>
3.2974

> <Gold.Chemscore.Internal.Correction>
   9.000000E+99

> <Gold.Chemscore.Hbonds>
donor molecule, donor type, donor heavy atom, donor atom, acceptor molecule, acceptor atom, score
      P1  H  7997  8010       L1     1  0.84

> <Gold.Chemscore.Hbond.Weighted>
-3.1880

> <Gold.Chemscore.Metal.Weighted>
-0.0000

> <Gold.Chemscore.Lipo.Weighted>
-6.3980

> <Gold.Chemscore.Internal_Hbond.Weighted>
0.0000

> <Gold.Chemscore.DEClash.Weighted>
1.7950

> <Gold.Chemscore.DEInternal.Weighted>
3.9805

> <Gold.Chemscore.Rot.Weighted>
8.4414

> <Gold.Chemscore.Internal.Correction.Weighted>
   9.000000E+99

> <Gold.Protein.RotatedTorsions>
[ 6907 6896 6895 6894 ] final   93.48 input  -60.11 | X-H torsion
[ 7974 7965 7964 7962 ] final   35.14 input  175.53 | X-H torsion
[ 8008 7997 7996 7995 ] final   23.23 input   59.86 | X-H torsion
[ 10167 10162 10161 10158 ] final -136.89 input  -65.29 | X-H torsion
[ 10718 10713 10712 10709 ] final -109.81 input   66.30 | X-H torsion
[ 10763 10752 10751 10750 ] final  -54.35 input  -60.55 | X-H torsion
[ 11005 11000 10999 10996 ] final   30.08 input  -57.11 | X-H torsion

> <Gold.Protein.ActiveResidues>
 VAL166  LYS551  ARG553  GLY616  TRP617  ASP618  TYR619  PRO620  LYS621  CYS622 
 ASP623  PHE694  ASN695  SER759  ASP760  ASP761  ALA762  ILE779  LEU786  VAL792 
 PHE793  MET794  SER795  GLU796  ALA797  LYS798  CYS799  TRP800  GLU811  SER814 

> <Gold.Protein.RotatedAtoms>
  152.5452  134.1341  159.8451 H   0  0  0  0  0  0  0  0  0  0  0  0  # atno 6907 bound_to 6896
  151.1384  133.4981  159.2605 H   0  0  0  0  0  0  0  0  0  0  0  0  # atno 6908 bound_to 6896
  151.1600  135.0279  159.8761 H   0  0  0  0  0  0  0  0  0  0  0  0  # atno 6909 bound_to 6896
  146.1304  139.6180  142.9230 H   0  0  0  0  0  0  0  0  0  0  0  0  # atno 7974 bound_to 7965
  154.9778  140.3098  155.4959 H   0  0  0  0  0  0  0  0  0  0  0  0  # atno 8008 bound_to 7997
  156.2957  140.2272  156.4814 H   0  0  0  0  0  0  0  0  0  0  0  0  # atno 8009 bound_to 7997
  154.7817  140.0445  157.1121 H   0  0  0  0  0  0  0  0  0  0  0  0  # atno 8010 bound_to 7997
  139.8632  143.7050  152.2648 H   0  0  0  0  0  0  0  0  0  0  0  0  # atno 10167 bound_to 10162
  156.0557  130.5783  150.8151 H   0  0  0  0  0  0  0  0  0  0  0  0  # atno 10718 bound_to 10713
  154.1734  135.6455  153.5015 H   0  0  0  0  0  0  0  0  0  0  0  0  # atno 10763 bound_to 10752
  153.0078  135.5389  154.6589 H   0  0  0  0  0  0  0  0  0  0  0  0  # atno 10764 bound_to 10752
  154.5934  135.2936  155.0584 H   0  0  0  0  0  0  0  0  0  0  0  0  # atno 10765 bound_to 10752
  140.2982  134.2787  155.7760 H   0  0  0  0  0  0  0  0  0  0  0  0  # atno 11005 bound_to 11000
  145.5273  141.0429  143.2402 LP  0  0  0  0  0  0  0  0  0  0  0  0  # atno 17320 bound_to 7965
  144.7685  139.6790  143.7205 LP  0  0  0  0  0  0  0  0  0  0  0  0  # atno 17321 bound_to 7965
  139.7353  144.7572  151.0737 LP  0  0  0  0  0  0  0  0  0  0  0  0  # atno 17342 bound_to 10162
  140.7772  143.5038  150.9738 LP  0  0  0  0  0  0  0  0  0  0  0  0  # atno 17343 bound_to 10162
  157.5524  131.0944  150.9676 LP  0  0  0  0  0  0  0  0  0  0  0  0  # atno 17370 bound_to 10713
  156.9933  130.5571  149.5305 LP  0  0  0  0  0  0  0  0  0  0  0  0  # atno 17371 bound_to 10713
  141.2133  133.7629  156.9726 LP  0  0  0  0  0  0  0  0  0  0  0  0  # atno 17394 bound_to 11000
  140.1134  134.9463  157.2098 LP  0  0  0  0  0  0  0  0  0  0  0  0  # atno 17395 bound_to 11000

$$$$
