AV-unprocessed.smi:1776|AV-procd|sdf|7174|dock2
  -GOLD-   22720 8413D 1   1.00000     0.00000
 Structure written by MMmdl.
 31 32  0  0  0  0  0  0  0  0  1 V2000
  150.8588  143.2004  157.6887 O   0  0  0  0  0  0  0  0  0  0  0  0
  150.9132  141.9909  157.9102 C   0  0  0  0  0  0  0  0  0  0  0  0
  150.2504  141.0444  157.2147 N   0  0  0  0  0  0  0  0  0  0  0  0
  149.3806  141.1648  156.1165 C   0  0  0  0  0  0  0  0  0  0  0  0
  148.1832  141.8082  156.1270 C   0  0  0  0  0  0  0  0  0  0  0  0
  147.3427  141.8953  154.9444 C   0  0  0  0  0  0  0  0  0  0  0  0
  145.9732  142.5554  154.9910 C   0  0  0  0  0  0  0  0  0  0  0  0
  144.9950  141.6532  154.9008 F   0  0  0  0  0  0  0  0  0  0  0  0
  145.8109  143.2364  156.1256 F   0  0  0  0  0  0  0  0  0  0  0  0
  145.8474  143.4079  153.9751 F   0  0  0  0  0  0  0  0  0  0  0  0
  147.8048  141.2928  153.8333 C   0  0  0  0  0  0  0  0  0  0  0  0
  149.0405  140.6433  153.8088 N   0  0  0  0  0  0  0  0  0  0  0  0
  149.8645  140.5369  154.8752 C   0  0  0  0  0  0  0  0  0  0  0  0
  150.9389  139.9460  154.7716 O   0  0  0  0  0  0  0  0  0  0  0  0
  151.7972  141.4602  159.0490 C   0  0  1  0  0  0  0  0  0  0  0  0
  152.8126  140.3891  158.5864 C   0  0  0  0  0  0  0  0  0  0  0  0
  153.6100  139.9876  159.6932 O   0  0  0  0  0  0  0  0  0  0  0  0
  154.3246  141.0863  160.2420 C   0  0  0  0  0  0  0  0  0  0  0  0
  153.3182  142.1479  160.7144 C   0  0  0  0  0  0  0  0  0  0  0  0
  152.5199  142.5532  159.6107 O   0  0  0  0  0  0  0  0  0  0  0  0
  149.3230  140.2275  152.9329 H   0  0  0  0  0  0  0  0  0  0  0  0
  150.3775  140.0963  157.5399 H   0  0  0  0  0  0  0  0  0  0  0  0
  147.8137  142.2934  157.0143 H   0  0  0  0  0  0  0  0  0  0  0  0
  147.2735  141.2567  152.8937 H   0  0  0  0  0  0  0  0  0  0  0  0
  151.1375  141.0366  159.8083 H   0  0  0  0  0  0  0  0  0  0  0  0
  152.2963  139.5099  158.1992 H   0  0  0  0  0  0  0  0  0  0  0  0
  153.4513  140.7668  157.7857 H   0  0  0  0  0  0  0  0  0  0  0  0
  154.9292  140.7370  161.0791 H   0  0  0  0  0  0  0  0  0  0  0  0
  155.0096  141.5007  159.5006 H   0  0  0  0  0  0  0  0  0  0  0  0
  152.6868  141.7584  161.5146 H   0  0  0  0  0  0  0  0  0  0  0  0
  153.8427  143.0169  161.1118 H   0  0  0  0  0  0  0  0  0  0  0  0
  1  2  2  0  0  0  0
  2  3  1  0  0  0  0
  2 15  1  0  0  0  0
  3  4  1  0  0  0  0
  3 22  1  0  0  0  0
  4 13  1  0  0  0  0
  4  5  2  0  0  0  0
  5  6  1  0  0  0  0
  5 23  1  0  0  0  0
  6  7  1  0  0  0  0
  6 11  2  0  0  0  0
  7  8  1  0  0  0  0
  7  9  1  0  0  0  0
  7 10  1  0  0  0  0
 11 12  1  0  0  0  0
 11 24  1  0  0  0  0
 12 21  1  0  0  0  0
 12 13  1  0  0  0  0
 13 14  2  0  0  0  0
 15 20  1  0  0  0  0
 15 16  1  0  0  0  0
 15 25  1  0  0  0  0
 16 17  1  0  0  0  0
 16 26  1  0  0  0  0
 16 27  1  0  0  0  0
 17 18  1  0  0  0  0
 18 19  1  0  0  0  0
 18 28  1  0  0  0  0
 18 29  1  0  0  0  0
 19 20  1  0  0  0  0
 19 30  1  0  0  0  0
 19 31  1  0  0  0  0
M  END
> <s_m_source_file>
AV-unprocessed.smi

> <i_m_source_file_index>
1776

> <i_lp_mmshare_version>
43012

> <i_f3d_flags>
0

> <s_epik_input>
TzFbQ0gyXVtDSDJdT1tDSDJdW0NASF0xQyg9TylbTkhdYzJbY0hdYyhDKEYpKEYpRilbY0hdW25IXWMyPU8=

> <s_epik_cmdline>
J2VwaWtfcHl0aG9uJywgJy1waCcsICc3LjAnLCAnLXRuJywgJzgnLCAnLW1hJywgJzIwMCcsICctbWV0YWxfYmluZGluZycsICctaW1hZScsICc8aW5maWxlLm1hZT4nLCAnLW9tYWUnLCAnPG91dGZpbGUubWFlPic=

> <r_lp_tautomer_probability>
0.999

> <r_epik_Ionization_Penalty>
0.0100875

> <r_epik_Ionization_Penalty_Charging>
0.0100873

> <r_epik_Ionization_Penalty_Neutral>
1.79075e-07

> <r_epik_State_Penalty>
0.00769562

> <r_epik_Charging_Adjusted_Penalty>
0.017783

> <i_epik_Tot_Q>
0

> <i_epik_Tot_abs_Q>
0

> <r_epik_Metal_State_Penalty>
0.325451

> <b_epik_Metal_Only>
0

> <s_lp_Force_Field>
OPLS_2005

> <r_lp_Energy>
23.697

> <b_lp_Chiralities_Consistent>
1

> <s_lp_Variant>
AV-unprocessed.smi:1776-2

> <Gold.Version>
5.8.1

> <Gold.Id.Protein>
6NUR|6NUR_protein|mol2

> <Gold.PLP.Fitness>
37.6914

> <Gold.PLP.PLP>
-33.5540

> <Gold.PLP.part.hbond>
-2.0000

> <Gold.PLP.part.metal>
0.0000

> <Gold.PLP.part.buried>
-3.1671

> <Gold.PLP.part.nonpolar>
-28.5745

> <Gold.PLP.part.repulsive>
0.4319

> <Gold.PLP.ligand.clash>
0.0000

> <Gold.PLP.ligand.torsion>
0.9469

> <Gold.PLP.Chemscore.Hbond>
2.0000

> <Gold.PLP.Chemscore.CHOScore>
0.0000

> <Gold.PLP.Chemscore.Metal>
0.0000

> <Gold.Chemscore.Hbonds>
donor molecule, donor type, donor heavy atom, donor atom, acceptor molecule, acceptor atom, score
      L1  H    12    21       P1  7957  1.00
      P1  H  7989  7998       L1    14  0.95

> <Gold.PLP.Chemscore.Internal.Correction>
0.0311

> <Gold.Rescore>
     Score         DG    S(hbond)    S(metal)    S(lipo)     H(rot)  DE(clash)    DE(int)     intcor
     15.27     -16.26       1.93        0.00      58.81       1.00       0.13       0.85       ----

> <Gold.Chemscore.Fitness>
15.2748

> <Gold.Chemscore.DG>
-16.2617

> <Gold.Chemscore.ZeroCoef>
-5.4800

> <Gold.Chemscore.Hbond>
1.9344

> <Gold.Chemscore.Metal>
0.0000

> <Gold.Chemscore.Lipo>
58.8109

> <Gold.Chemscore.Internal_Hbond>
0.0000

> <Gold.Chemscore.DEClash>
0.1327

> <Gold.Chemscore.DEInternal>
0.8543

> <Gold.Chemscore.Rot>
1.0000

> <Gold.Chemscore.Internal.Correction>
   9.000000E+99

> <Gold.Chemscore.Hbonds>
donor molecule, donor type, donor heavy atom, donor atom, acceptor molecule, acceptor atom, score
      L1  H    12    21       P1  7957  1.00
      P1  H  7989  7998       L1    14  0.22

> <Gold.Chemscore.Hbond.Weighted>
-6.4609

> <Gold.Chemscore.Metal.Weighted>
-0.0000

> <Gold.Chemscore.Lipo.Weighted>
-6.8809

> <Gold.Chemscore.Internal_Hbond.Weighted>
0.0000

> <Gold.Chemscore.DEClash.Weighted>
0.1327

> <Gold.Chemscore.DEInternal.Weighted>
0.8543

> <Gold.Chemscore.Rot.Weighted>
2.5600

> <Gold.Chemscore.Internal.Correction.Weighted>
   9.000000E+99

> <Gold.Protein.RotatedTorsions>
[ 6907 6896 6895 6894 ] final   44.74 input  -60.11 | X-H torsion
[ 7974 7965 7964 7962 ] final    2.05 input  175.53 | X-H torsion
[ 8008 7997 7996 7995 ] final   11.32 input   59.86 | X-H torsion
[ 10167 10162 10161 10158 ] final  -60.41 input  -65.29 | X-H torsion
[ 10718 10713 10712 10709 ] final  175.30 input   66.30 | X-H torsion
[ 10763 10752 10751 10750 ] final    7.21 input  -60.55 | X-H torsion
[ 11005 11000 10999 10996 ] final   41.69 input  -57.11 | X-H torsion

> <Gold.Protein.ActiveResidues>
 VAL166  LYS551  ARG553  GLY616  TRP617  ASP618  TYR619  PRO620  LYS621  CYS622 
 ASP623  PHE694  ASN695  SER759  ASP760  ASP761  ALA762  ILE779  LEU786  VAL792 
 PHE793  MET794  SER795  GLU796  ALA797  LYS798  CYS799  TRP800  GLU811  SER814 

> <Gold.Protein.RotatedAtoms>
  152.2361  134.8274  160.0466 H   0  0  0  0  0  0  0  0  0  0  0  0  # atno 6907 bound_to 6896
  151.9006  133.3532  159.3837 H   0  0  0  0  0  0  0  0  0  0  0  0  # atno 6908 bound_to 6896
  150.7040  134.4758  159.5491 H   0  0  0  0  0  0  0  0  0  0  0  0  # atno 6909 bound_to 6896
  146.2442  140.0894  142.8353 H   0  0  0  0  0  0  0  0  0  0  0  0  # atno 7974 bound_to 7965
  154.8053  140.2859  155.5892 H   0  0  0  0  0  0  0  0  0  0  0  0  # atno 8008 bound_to 7997
  156.2982  140.2578  156.2859 H   0  0  0  0  0  0  0  0  0  0  0  0  # atno 8009 bound_to 7997
  154.9511  140.0379  157.2134 H   0  0  0  0  0  0  0  0  0  0  0  0  # atno 8010 bound_to 7997
  140.6073  143.2377  151.5791 H   0  0  0  0  0  0  0  0  0  0  0  0  # atno 10167 bound_to 10162
  156.9370  130.9989  151.2976 H   0  0  0  0  0  0  0  0  0  0  0  0  # atno 10718 bound_to 10713
  153.2388  135.6901  153.7806 H   0  0  0  0  0  0  0  0  0  0  0  0  # atno 10763 bound_to 10752
  153.6943  135.3307  155.3210 H   0  0  0  0  0  0  0  0  0  0  0  0  # atno 10764 bound_to 10752
  154.8346  135.4552  154.1302 H   0  0  0  0  0  0  0  0  0  0  0  0  # atno 10765 bound_to 10752
  140.1810  134.4104  155.8200 H   0  0  0  0  0  0  0  0  0  0  0  0  # atno 11005 bound_to 11000
  145.0663  140.9124  143.4908 LP  0  0  0  0  0  0  0  0  0  0  0  0  # atno 17320 bound_to 7965
  145.1020  139.2816  143.5681 LP  0  0  0  0  0  0  0  0  0  0  0  0  # atno 17321 bound_to 7965
  139.5334  144.2849  152.1199 LP  0  0  0  0  0  0  0  0  0  0  0  0  # atno 17342 bound_to 10162
  140.2041  144.4628  150.6417 LP  0  0  0  0  0  0  0  0  0  0  0  0  # atno 17343 bound_to 10162
  157.5810  130.8376  149.8522 LP  0  0  0  0  0  0  0  0  0  0  0  0  # atno 17370 bound_to 10713
  156.0421  130.3736  150.1408 LP  0  0  0  0  0  0  0  0  0  0  0  0  # atno 17371 bound_to 10713
  141.2223  133.7000  156.7930 LP  0  0  0  0  0  0  0  0  0  0  0  0  # atno 17394 bound_to 11000
  140.2268  134.8716  157.3434 LP  0  0  0  0  0  0  0  0  0  0  0  0  # atno 17395 bound_to 11000

$$$$
