#       Name:                AV-unprocessed.smi:1120
#       Creating user name   scv26
#       Creation time:       Fri Mar 27 03:38:27 2020


#       File generated by GOLD software.
#

@<TRIPOS>MOLECULE
AV-unprocessed.smi:1120
    51    52     1
SMALL
NO_CHARGES


@<TRIPOS>ATOM
      1 ****        -4.4864   4.8086  -0.9817 C.3            1 S1                 0.0000
      2 ****        -3.2488   3.9859  -1.3652 C.3            1 S1                 0.0000
      3 ****        -3.6268   2.7014  -2.1393 C.3            1 S1                 0.0000
      4 ****        -2.3959   1.8302  -2.4952 C.3            1 S1                 0.0000
      5 ****        -1.5492   1.4359  -1.2617 C.3            1 S1                 0.0000
      6 ****        -0.3507   0.7290  -1.6896 N.pl3          1 S1                -1.0000
      7 ****         0.3513  -0.3404  -0.6946 S.o2           1 S1                 0.0000
      8 ****         0.9645   0.2967   0.4833 O.2            1 S1                 0.0000
      9 ****        -0.4924  -1.5205  -0.4446 O.2            1 S1                 0.0000
     10 ****         1.7484  -0.9232  -1.7507 C.3            1 S1                 0.0000
     11 ****         2.5993  -1.9345  -0.9853 C.2            1 S1                 0.0000
     12 ****         2.4046  -3.1411  -1.1322 O.2            1 S1                 0.0000
     13 ****         3.5351  -1.4295  -0.1655 N.am           1 S1                 0.0000
     14 ****         4.4345  -2.2095   0.6800 C.3            1 S1                 0.0000
     15 ****         3.9486  -2.3009   2.1397 C.3            1 S1                 0.0000
     16 ****         2.5871  -2.9556   2.2997 C.ar           1 S1                 0.0000
     17 ****         2.4392  -4.3548   2.4153 C.ar           1 S1                 0.0000
     18 ****         1.1452  -4.9035   2.5359 C.ar           1 S1                 0.0000
     19 ****         0.0277  -4.0432   2.5409 C.ar           1 S1                 0.0000
     20 ****         0.2330  -2.6539   2.4230 C.ar           1 S1                 0.0000
     21 ****         1.4875  -2.1673   2.3066 N.pl3          1 S1                 1.0000
     22 ****        -1.1792   2.7215  -0.4809 C.3            1 S1                 0.0000
     23 ****        -2.4081   3.5964  -0.1266 C.3            1 S1                 0.0000
     24 ****        -5.1506   4.2436  -0.3270 H              1 S1                 0.0000
     25 ****        -5.0555   5.0960  -1.8662 H              1 S1                 0.0000
     26 ****        -4.2025   5.7228  -0.4601 H              1 S1                 0.0000
     27 ****        -2.6268   4.6023  -2.0161 H              1 S1                 0.0000
     28 ****        -4.3411   2.1169  -1.5556 H              1 S1                 0.0000
     29 ****        -4.1480   2.9721  -3.0581 H              1 S1                 0.0000
     30 ****        -2.7290   0.9313  -3.0154 H              1 S1                 0.0000
     31 ****        -1.7745   2.3787  -3.2051 H              1 S1                 0.0000
     32 ****        -2.1723   0.8123  -0.6191 H              1 S1                 0.0000
     33 ****         1.3356  -1.3767  -2.6521 H              1 S1                 0.0000
     34 ****         2.3459  -0.0616  -2.0489 H              1 S1                 0.0000
     35 ****         3.6171  -0.4241  -0.1094 H              1 S1                 0.0000
     36 ****         4.5798  -3.2105   0.2706 H              1 S1                 0.0000
     37 ****         5.4130  -1.7299   0.6555 H              1 S1                 0.0000
     38 ****         4.6751  -2.8612   2.7293 H              1 S1                 0.0000
     39 ****         3.9134  -1.3019   2.5765 H              1 S1                 0.0000
     40 ****         3.3049  -5.0010   2.4017 H              1 S1                 0.0000
     41 ****         1.0115  -5.9721   2.6192 H              1 S1                 0.0000
     42 ****        -0.9725  -4.4422   2.6255 H              1 S1                 0.0000
     43 ****        -0.5615  -1.9218   2.4027 H              1 S1                 0.0000
     44 ****        -0.6518   2.4622   0.4374 H              1 S1                 0.0000
     45 ****        -0.4831   3.3195  -1.0713 H              1 S1                 0.0000
     46 ****        -2.0659   4.5007   0.3775 H              1 S1                 0.0000
     47 ****        -3.0391   3.0757   0.5968 H              1 S1                 0.0000
     48 ****         1.6075  -1.1587   2.2020 H              1 S1                 0.0000
     49 ****         0.0381   0.9027  -2.5944 LP             1 S1                 0.0000
     50 ****         1.6887  -3.4601  -1.7533 LP             1 S1                 0.0000
     51 ****         2.9624  -3.8023  -0.6305 LP             1 S1                 0.0000
@<TRIPOS>BOND
    1    1    2 1     
    2    1   24 1     
    3    1   25 1     
    4    1   26 1     
    5    2   23 1     
    6    2    3 1     
    7    2   27 1     
    8    3    4 1     
    9    3   28 1     
   10    3   29 1     
   11    4    5 1     
   12    4   30 1     
   13    4   31 1     
   14    5    6 1     
   15    5   22 1     
   16    5   32 1     
   17    6    7 1     
   18    7    8 2     
   19    7    9 2     
   20    7   10 1     
   21   10   11 1     
   22   10   33 1     
   23   10   34 1     
   24   11   12 2     
   25   11   13 am    
   26   13   14 1     
   27   13   35 1     
   28   14   15 1     
   29   14   36 1     
   30   14   37 1     
   31   15   16 1     
   32   15   38 1     
   33   15   39 1     
   34   16   21 ar    
   35   16   17 ar    
   36   17   18 ar    
   37   17   40 1     
   38   18   19 ar    
   39   18   41 1     
   40   19   20 ar    
   41   19   42 1     
   42   20   21 ar    
   43   20   43 1     
   44   21   48 1     
   45   22   23 1     
   46   22   44 1     
   47   22   45 1     
   48   23   46 1     
   49   23   47 1     
   50    6   49 1     
   51   12   50 1     
   52   12   51 1     
@<TRIPOS>SUBSTRUCTURE
      1 S1             1
@<TRIPOS>SET
LONE_PAIRS      STATIC     ATOMS    <user>   **** ""
5 49 8 9 50 51
DONOR_HYDROGENS      STATIC     ATOMS    <user>   **** ""
2 35 48
ATOM$BLUE        STATIC     ATOMS    COLORGROUP SYSTEM
5 49 8 9 50 51
ATOM$RED        STATIC     ATOMS    COLORGROUP SYSTEM
2 35 48
