AV-unprocessed.smi:275|AV-procd|sdf|2066|dock4
  -GOLD-   2262021313D 1   1.00000     0.00000
 Structure written by MMmdl.
 65 69  0  0  0  0  0  0  0  0  1 V2000
  152.0474  138.4856  158.2551 C   0  0  0  0  0  0  0  0  0  0  0  0
  152.4505  139.9683  158.3387 C   0  0  0  0  0  0  0  0  0  0  0  0
  152.8942  140.2837  159.7771 C   0  0  0  0  0  0  0  0  0  0  0  0
  151.3181  140.9070  157.8876 C   0  0  2  0  0  0  0  0  0  0  0  0
  151.3020  141.1600  156.4489 N   0  0  0  0  0  0  0  0  0  0  0  0
  150.4788  140.2959  155.6764 C   0  0  0  0  0  0  0  0  0  0  0  0
  150.9661  139.6254  154.5965 N   0  0  0  0  0  0  0  0  0  0  0  0
  150.1774  138.8236  153.8748 C   0  0  0  0  0  0  0  0  0  0  0  0
  148.8834  138.5509  154.0485 N   0  0  0  0  0  0  0  0  0  0  0  0
  148.3846  139.2195  155.1262 C   0  0  0  0  0  0  0  0  0  0  0  0
  149.1060  140.0968  155.9831 C   0  0  0  0  0  0  0  0  0  0  0  0
  148.2648  140.5940  156.9708 N   0  0  0  0  0  0  0  0  0  0  0  0
  147.1099  140.0438  156.7114 C   0  0  0  0  0  0  0  0  0  0  0  0
  147.0921  139.2082  155.6175 N   0  0  0  0  0  0  0  0  0  0  0  0
  145.9530  138.4728  155.0989 C   0  0  0  0  0  0  0  0  0  0  0  0
  146.2206  137.8363  153.7124 C   0  0  2  0  0  0  0  0  0  0  0  0
  146.3818  138.8927  152.5921 C   0  0  0  0  0  0  0  0  0  0  0  0
  147.5151  138.6286  151.7906 O   0  0  0  0  0  0  0  0  0  0  0  0
  145.1597  136.7613  153.3674 C   0  0  1  0  0  0  0  0  0  0  0  0
  143.7414  137.2840  153.2192 C   0  0  0  0  0  0  0  0  0  0  0  0
  143.0605  136.1644  152.4387 C   0  0  0  0  0  0  0  0  0  0  0  0
  144.0751  135.5848  151.6261 O   0  0  0  0  0  0  0  0  0  0  0  0
  145.3499  136.0960  152.0002 C   0  0  0  0  0  0  0  0  0  0  0  0
  150.7432  142.4861  156.6668 C   0  0  0  0  0  0  0  0  0  0  0  0
  151.3970  142.4444  158.0573 C   0  0  0  0  0  0  0  0  0  0  0  0
  150.5621  143.0222  159.2115 C   0  0  0  0  0  0  0  0  0  0  0  0
  150.4618  144.5560  159.1659 C   0  0  0  0  0  0  0  0  0  0  0  0
  151.8523  145.2034  159.1849 C   0  0  0  0  0  0  0  0  0  0  0  0
  152.7436  144.6330  158.0743 C   0  0  0  0  0  0  0  0  0  0  0  0
  152.7965  143.0966  158.1382 C   0  0  0  0  0  0  0  0  0  0  0  0
  151.1510  138.2844  158.8426 H   0  0  0  0  0  0  0  0  0  0  0  0
  152.8428  137.8406  158.6299 H   0  0  0  0  0  0  0  0  0  0  0  0
  151.8500  138.1790  157.2292 H   0  0  0  0  0  0  0  0  0  0  0  0
  153.3171  140.1097  157.6916 H   0  0  0  0  0  0  0  0  0  0  0  0
  152.0726  140.1420  160.4800 H   0  0  0  0  0  0  0  0  0  0  0  0
  153.2417  141.3092  159.8852 H   0  0  0  0  0  0  0  0  0  0  0  0
  153.7118  139.6325  160.0875 H   0  0  0  0  0  0  0  0  0  0  0  0
  150.3440  140.5549  158.2333 H   0  0  0  0  0  0  0  0  0  0  0  0
  150.6508  138.3321  153.0378 H   0  0  0  0  0  0  0  0  0  0  0  0
  146.2316  140.2398  157.3092 H   0  0  0  0  0  0  0  0  0  0  0  0
  145.6959  137.7075  155.8314 H   0  0  0  0  0  0  0  0  0  0  0  0
  145.0987  139.1491  155.0467 H   0  0  0  0  0  0  0  0  0  0  0  0
  147.1806  137.3225  153.7820 H   0  0  0  0  0  0  0  0  0  0  0  0
  145.5004  138.9211  151.9513 H   0  0  0  0  0  0  0  0  0  0  0  0
  146.4746  139.8940  153.0115 H   0  0  0  0  0  0  0  0  0  0  0  0
  147.8690  137.7882  152.0387 H   0  0  0  0  0  0  0  0  0  0  0  0
  145.1639  135.9833  154.1323 H   0  0  0  0  0  0  0  0  0  0  0  0
  143.2518  137.4809  154.1734 H   0  0  0  0  0  0  0  0  0  0  0  0
  143.7327  138.2049  152.6341 H   0  0  0  0  0  0  0  0  0  0  0  0
  142.6835  135.4002  153.1191 H   0  0  0  0  0  0  0  0  0  0  0  0
  142.2253  136.5248  151.8377 H   0  0  0  0  0  0  0  0  0  0  0  0
  145.6571  136.8281  151.2521 H   0  0  0  0  0  0  0  0  0  0  0  0
  146.0968  135.3021  152.0214 H   0  0  0  0  0  0  0  0  0  0  0  0
  151.1461  143.2421  155.9928 H   0  0  0  0  0  0  0  0  0  0  0  0
  149.6530  142.5153  156.7050 H   0  0  0  0  0  0  0  0  0  0  0  0
  149.5552  142.6038  159.1952 H   0  0  0  0  0  0  0  0  0  0  0  0
  150.9891  142.7195  160.1683 H   0  0  0  0  0  0  0  0  0  0  0  0
  149.9285  144.8609  158.2646 H   0  0  0  0  0  0  0  0  0  0  0  0
  149.8726  144.9167  160.0094 H   0  0  0  0  0  0  0  0  0  0  0  0
  151.7650  146.2851  159.0783 H   0  0  0  0  0  0  0  0  0  0  0  0
  152.3216  145.0246  160.1532 H   0  0  0  0  0  0  0  0  0  0  0  0
  152.3640  144.9498  157.1025 H   0  0  0  0  0  0  0  0  0  0  0  0
  153.7499  145.0440  158.1591 H   0  0  0  0  0  0  0  0  0  0  0  0
  153.3010  142.8096  159.0597 H   0  0  0  0  0  0  0  0  0  0  0  0
  153.4350  142.7354  157.3312 H   0  0  0  0  0  0  0  0  0  0  0  0
  1  2  1  0  0  0  0
  1 31  1  0  0  0  0
  1 32  1  0  0  0  0
  1 33  1  0  0  0  0
  2  3  1  0  0  0  0
  2  4  1  0  0  0  0
  2 34  1  0  0  0  0
  3 35  1  0  0  0  0
  3 36  1  0  0  0  0
  3 37  1  0  0  0  0
  4 25  1  0  0  0  0
  4  5  1  0  0  0  0
  4 38  1  0  0  0  0
  5  6  1  0  0  0  0
  5 24  1  0  0  0  0
  6 11  1  0  0  0  0
  6  7  2  0  0  0  0
  7  8  1  0  0  0  0
  8  9  2  0  0  0  0
  8 39  1  0  0  0  0
  9 10  1  0  0  0  0
 10 14  1  0  0  0  0
 10 11  2  0  0  0  0
 11 12  1  0  0  0  0
 12 13  2  0  0  0  0
 13 14  1  0  0  0  0
 13 40  1  0  0  0  0
 14 15  1  0  0  0  0
 15 16  1  0  0  0  0
 15 41  1  0  0  0  0
 15 42  1  0  0  0  0
 16 17  1  0  0  0  0
 16 19  1  0  0  0  0
 16 43  1  0  0  0  0
 17 18  1  0  0  0  0
 17 44  1  0  0  0  0
 17 45  1  0  0  0  0
 18 46  1  0  0  0  0
 19 23  1  0  0  0  0
 19 20  1  0  0  0  0
 19 47  1  0  0  0  0
 20 21  1  0  0  0  0
 20 48  1  0  0  0  0
 20 49  1  0  0  0  0
 21 22  1  0  0  0  0
 21 50  1  0  0  0  0
 21 51  1  0  0  0  0
 22 23  1  0  0  0  0
 23 52  1  0  0  0  0
 23 53  1  0  0  0  0
 24 25  1  0  0  0  0
 24 54  1  0  0  0  0
 24 55  1  0  0  0  0
 25 30  1  0  0  0  0
 25 26  1  0  0  0  0
 26 27  1  0  0  0  0
 26 56  1  0  0  0  0
 26 57  1  0  0  0  0
 27 28  1  0  0  0  0
 27 58  1  0  0  0  0
 27 59  1  0  0  0  0
 28 29  1  0  0  0  0
 28 60  1  0  0  0  0
 28 61  1  0  0  0  0
 29 30  1  0  0  0  0
 29 62  1  0  0  0  0
 29 63  1  0  0  0  0
 30 64  1  0  0  0  0
 30 65  1  0  0  0  0
M  END
> <s_m_source_file>
AV-unprocessed.smi

> <i_m_source_file_index>
275

> <i_lp_mmshare_version>
43012

> <i_f3d_flags>
0

> <s_epik_input>
W0NIMl0xW0NIMl1bQ0gyXVtDSDJdW0NIMl1DMTJbQ0BIXShbQ0hdKFtDSDNdKVtDSDNdKU4oW0NIMl0yKWMobltjSF1uMyljKGMzNCluW2NIXW40W0NIMl1bQ0BIXShbQ0gyXVtPSF0pW0NAQEhdNVtDSDJdW0NIMl1PW0NIMl01

> <s_epik_cmdline>
J2VwaWtfcHl0aG9uJywgJy1waCcsICc3LjAnLCAnLXRuJywgJzgnLCAnLW1hJywgJzIwMCcsICctbWV0YWxfYmluZGluZycsICctaW1hZScsICc8aW5maWxlLm1hZT4nLCAnLW9tYWUnLCAnPG91dGZpbGUubWFlPic=

> <r_lp_tautomer_probability>
1

> <r_epik_Ionization_Penalty>
0.00375122

> <r_epik_Ionization_Penalty_Charging>
0

> <r_epik_Ionization_Penalty_Neutral>
0.00375122

> <r_epik_State_Penalty>
0.00260593

> <r_epik_Charging_Adjusted_Penalty>
0.00260593

> <i_epik_Tot_Q>
0

> <i_epik_Tot_abs_Q>
0

> <r_epik_Metal_State_Penalty>
-0

> <b_epik_Metal_Only>
0

> <s_lp_Force_Field>
OPLS_2005

> <r_lp_Energy>
62.8916

> <b_lp_Chiralities_Consistent>
1

> <s_lp_Variant>
AV-unprocessed.smi:275-5

> <Gold.Version>
5.8.1

> <Gold.Id.Protein>
6NUR|6NUR_protein|mol2

> <Gold.PLP.Fitness>
49.5435

> <Gold.PLP.PLP>
-42.9104

> <Gold.PLP.part.hbond>
-3.5490

> <Gold.PLP.part.metal>
0.0000

> <Gold.PLP.part.buried>
-6.8503

> <Gold.PLP.part.nonpolar>
-34.0272

> <Gold.PLP.part.repulsive>
0.6473

> <Gold.PLP.ligand.clash>
0.0000

> <Gold.PLP.ligand.torsion>
1.3395

> <Gold.PLP.Chemscore.Hbond>
2.4880

> <Gold.PLP.Chemscore.CHOScore>
0.4024

> <Gold.PLP.Chemscore.Metal>
0.0000

> <Gold.Chemscore.Hbonds>
donor molecule, donor type, donor heavy atom, donor atom, acceptor molecule, acceptor atom, score
      L1  H    18    46       P1  7948  1.00
      P1  H  7989  7998       L1     7  1.00
      L1  C     8    39       P1  7948  0.05
      L1  C     8    39       P1  7949  0.15
      L1  C     8    39       P1  7957  0.14

> <Gold.PLP.Chemscore.Internal.Correction>
0.6407

> <Gold.Rescore>
     Score         DG    S(hbond)    S(metal)    S(lipo)     H(rot)  DE(clash)    DE(int)     intcor
     14.19     -17.34       1.20        0.00     122.78       2.54       0.44       2.71       ----

> <Gold.Chemscore.Fitness>
14.1915

> <Gold.Chemscore.DG>
-17.3408

> <Gold.Chemscore.ZeroCoef>
-5.4800

> <Gold.Chemscore.Hbond>
1.1952

> <Gold.Chemscore.Metal>
0.0000

> <Gold.Chemscore.Lipo>
122.7802

> <Gold.Chemscore.Internal_Hbond>
0.0000

> <Gold.Chemscore.DEClash>
0.4373

> <Gold.Chemscore.DEInternal>
2.7120

> <Gold.Chemscore.Rot>
2.5377

> <Gold.Chemscore.Internal.Correction>
   9.000000E+99

> <Gold.Chemscore.Hbonds>
donor molecule, donor type, donor heavy atom, donor atom, acceptor molecule, acceptor atom, score
      L1  H    18    46       P1  7948  0.98
      P1  H  7989  7998       L1     7  0.39

> <Gold.Chemscore.Hbond.Weighted>
-3.9921

> <Gold.Chemscore.Metal.Weighted>
-0.0000

> <Gold.Chemscore.Lipo.Weighted>
-14.3653

> <Gold.Chemscore.Internal_Hbond.Weighted>
0.0000

> <Gold.Chemscore.DEClash.Weighted>
0.4373

> <Gold.Chemscore.DEInternal.Weighted>
2.7120

> <Gold.Chemscore.Rot.Weighted>
6.4966

> <Gold.Chemscore.Internal.Correction.Weighted>
   9.000000E+99

> <Gold.Protein.RotatedTorsions>
[ 6907 6896 6895 6894 ] final  155.67 input  -60.11 | X-H torsion
[ 7974 7965 7964 7962 ] final  -26.80 input  175.53 | X-H torsion
[ 8008 7997 7996 7995 ] final   36.35 input   59.86 | X-H torsion
[ 10167 10162 10161 10158 ] final  155.10 input  -65.29 | X-H torsion
[ 10718 10713 10712 10709 ] final   43.27 input   66.30 | X-H torsion
[ 10763 10752 10751 10750 ] final   42.47 input  -60.55 | X-H torsion
[ 11005 11000 10999 10996 ] final  -65.03 input  -57.11 | X-H torsion

> <Gold.Protein.ActiveResidues>
 VAL166  LYS551  ARG553  GLY616  TRP617  ASP618  TYR619  PRO620  LYS621  CYS622 
 ASP623  PHE694  ASN695  SER759  ASP760  ASP761  ALA762  ILE779  LEU786  VAL792 
 PHE793  MET794  SER795  GLU796  ALA797  LYS798  CYS799  TRP800  GLU811  SER814 

> <Gold.Protein.RotatedAtoms>
  152.0408  133.3977  159.4335 H   0  0  0  0  0  0  0  0  0  0  0  0  # atno 6907 bound_to 6896
  150.6875  134.3416  159.4880 H   0  0  0  0  0  0  0  0  0  0  0  0  # atno 6908 bound_to 6896
  152.1215  134.9202  160.0613 H   0  0  0  0  0  0  0  0  0  0  0  0  # atno 6909 bound_to 6896
  146.1401  140.5067  142.8656 H   0  0  0  0  0  0  0  0  0  0  0  0  # atno 7974 bound_to 7965
  155.1860  140.3304  155.4367 H   0  0  0  0  0  0  0  0  0  0  0  0  # atno 8008 bound_to 7997
  156.2459  140.1918  156.6906 H   0  0  0  0  0  0  0  0  0  0  0  0  # atno 8009 bound_to 7997
  154.6238  140.0592  156.9634 H   0  0  0  0  0  0  0  0  0  0  0  0  # atno 8010 bound_to 7997
  139.4822  144.5128  151.7998 H   0  0  0  0  0  0  0  0  0  0  0  0  # atno 10167 bound_to 10162
  157.4140  130.7931  149.7456 H   0  0  0  0  0  0  0  0  0  0  0  0  # atno 10718 bound_to 10713
  152.9882  135.6131  154.2955 H   0  0  0  0  0  0  0  0  0  0  0  0  # atno 10763 bound_to 10752
  154.2678  135.2780  155.2753 H   0  0  0  0  0  0  0  0  0  0  0  0  # atno 10764 bound_to 10752
  154.5149  135.5831  153.6691 H   0  0  0  0  0  0  0  0  0  0  0  0  # atno 10765 bound_to 10752
  141.1442  133.6675  156.5924 H   0  0  0  0  0  0  0  0  0  0  0  0  # atno 11005 bound_to 11000
  144.7783  140.5786  143.6623 LP  0  0  0  0  0  0  0  0  0  0  0  0  # atno 17320 bound_to 7965
  145.5066  139.1481  143.3628 LP  0  0  0  0  0  0  0  0  0  0  0  0  # atno 17321 bound_to 7965
  140.4633  144.1691  150.5909 LP  0  0  0  0  0  0  0  0  0  0  0  0  # atno 17342 bound_to 10162
  140.4461  143.2506  151.9409 LP  0  0  0  0  0  0  0  0  0  0  0  0  # atno 17343 bound_to 10162
  155.9859  130.3979  150.3236 LP  0  0  0  0  0  0  0  0  0  0  0  0  # atno 17370 bound_to 10713
  157.1378  131.0288  151.2941 LP  0  0  0  0  0  0  0  0  0  0  0  0  # atno 17371 bound_to 10713
  140.3753  134.7571  157.4625 LP  0  0  0  0  0  0  0  0  0  0  0  0  # atno 17394 bound_to 11000
  140.0679  134.5903  155.8674 LP  0  0  0  0  0  0  0  0  0  0  0  0  # atno 17395 bound_to 11000

$$$$
