#       Name:                AV-unprocessed.smi:1487
#       Creating user name   scv26
#       Creation time:       Fri Mar 27 06:10:26 2020


#       File generated by GOLD software.
#

@<TRIPOS>MOLECULE
AV-unprocessed.smi:1487
    53    55     1
SMALL
NO_CHARGES


@<TRIPOS>ATOM
      1 ****        -4.0117   3.6693   1.8807 C.3            1 S1                 0.0000
      2 ****        -3.5073   2.4749   1.0897 C.ar           1 S1                 0.0000
      3 ****        -3.4185   2.5708  -0.3173 C.ar           1 S1                 0.0000
      4 ****        -2.9569   1.4829  -1.0898 C.ar           1 S1                 0.0000
      5 ****        -2.7878   1.3598  -2.4582 N.2            1 S1                 0.0000
      6 ****        -2.3290   0.1162  -2.5614 C.2            1 S1                 0.0000
      7 ****        -2.1729  -0.5797  -1.4190 N.pl3          1 S1                 0.0000
      8 ****        -1.6778  -1.9373  -1.2862 C.3            1 S1                 0.0000
      9 ****        -0.1409  -2.0158  -1.3724 C.3            1 S1                 0.0000
     10 ****         0.2213  -3.3743  -1.2253 O.3            1 S1                 0.0000
     11 ****         0.5757  -1.1782  -0.2880 C.3            1 S1                 0.0000
     12 ****         2.0547  -1.1852  -0.4265 N.4            1 S1                 1.0000
     13 ****         2.5473  -0.3221  -1.5350 C.3            1 S1                 0.0000
     14 ****         4.0698  -0.4533  -1.7101 C.3            1 S1                 0.0000
     15 ****         4.8034  -0.1282  -0.4029 C.3            1 S1                 0.0000
     16 ****         4.2604  -1.0105   0.7304 C.3            1 S1                 0.0000
     17 ****         4.8664  -0.6381   1.9492 O.3            1 S1                 0.0000
     18 ****         2.7331  -0.8646   0.8564 C.3            1 S1                 0.0000
     19 ****        -2.5831   0.2866  -0.4108 C.ar           1 S1                 0.0000
     20 ****        -2.6647   0.1795   0.9889 C.ar           1 S1                 0.0000
     21 ****        -3.1278   1.2762   1.7455 C.ar           1 S1                 0.0000
     22 ****        -3.2119   1.1511   3.2564 C.3            1 S1                 0.0000
     23 ****        -4.3052   4.4876   1.2225 H              1 S1                 0.0000
     24 ****        -3.2344   4.0398   2.5493 H              1 S1                 0.0000
     25 ****        -4.8811   3.3948   2.4783 H              1 S1                 0.0000
     26 ****        -3.7059   3.4843  -0.8170 H              1 S1                 0.0000
     27 ****        -2.0852  -0.3127  -3.5226 H              1 S1                 0.0000
     28 ****        -2.0301  -2.3450  -0.3377 H              1 S1                 0.0000
     29 ****        -2.1321  -2.5431  -2.0717 H              1 S1                 0.0000
     30 ****         0.1576  -1.6931  -2.3690 H              1 S1                 0.0000
     31 ****         1.1322  -3.4768  -1.4536 H              1 S1                 0.0000
     32 ****         0.2374  -0.1417  -0.3024 H              1 S1                 0.0000
     33 ****         0.2934  -1.5734   0.6894 H              1 S1                 0.0000
     34 ****         2.0640  -0.5908  -2.4733 H              1 S1                 0.0000
     35 ****         2.2835   0.7173  -1.3328 H              1 S1                 0.0000
     36 ****         4.3171  -1.4669  -2.0288 H              1 S1                 0.0000
     37 ****         4.4121   0.2126  -2.5029 H              1 S1                 0.0000
     38 ****         5.8765  -0.2810  -0.5259 H              1 S1                 0.0000
     39 ****         4.6621   0.9259  -0.1585 H              1 S1                 0.0000
     40 ****         4.5109  -2.0538   0.5332 H              1 S1                 0.0000
     41 ****         5.8003  -0.7656   1.8753 H              1 S1                 0.0000
     42 ****         2.4695   0.1503   1.1597 H              1 S1                 0.0000
     43 ****         2.3724  -1.5338   1.6388 H              1 S1                 0.0000
     44 ****        -2.3728  -0.7384   1.4772 H              1 S1                 0.0000
     45 ****        -2.8364   0.1860   3.5977 H              1 S1                 0.0000
     46 ****        -4.2458   1.2452   3.5898 H              1 S1                 0.0000
     47 ****        -2.6195   1.9288   3.7390 H              1 S1                 0.0000
     48 ****         2.3160  -2.1347  -0.6496 H              1 S1                 0.0000
     49 ****        -2.9642   2.0298  -3.1792 LP             1 S1                 0.0000
     50 ****        -0.3412  -3.9385  -1.8297 LP             1 S1                 0.0000
     51 ****         0.0795  -3.6582  -0.2769 LP             1 S1                 0.0000
     52 ****         4.5072  -1.2050   2.6906 LP             1 S1                 0.0000
     53 ****         4.6724   0.3239   2.1412 LP             1 S1                 0.0000
@<TRIPOS>BOND
    1    1    2 1     
    2    1   23 1     
    3    1   24 1     
    4    1   25 1     
    5    2   21 ar    
    6    2    3 ar    
    7    3    4 ar    
    8    3   26 1     
    9    4   19 ar    
   10    4    5 1     
   11    5    6 2     
   12    6    7 1     
   13    6   27 1     
   14    7    8 1     
   15    7   19 1     
   16    8    9 1     
   17    8   28 1     
   18    8   29 1     
   19    9   10 1     
   20    9   11 1     
   21    9   30 1     
   22   10   31 1     
   23   11   12 1     
   24   11   32 1     
   25   11   33 1     
   26   12   18 1     
   27   12   13 1     
   28   12   48 1     
   29   13   14 1     
   30   13   34 1     
   31   13   35 1     
   32   14   15 1     
   33   14   36 1     
   34   14   37 1     
   35   15   16 1     
   36   15   38 1     
   37   15   39 1     
   38   16   17 1     
   39   16   18 1     
   40   16   40 1     
   41   17   41 1     
   42   18   42 1     
   43   18   43 1     
   44   19   20 ar    
   45   20   21 ar    
   46   20   44 1     
   47   21   22 1     
   48   22   45 1     
   49   22   46 1     
   50   22   47 1     
   51    5   49 1     
   52   10   50 1     
   53   10   51 1     
   54   17   52 1     
   55   17   53 1     
@<TRIPOS>SUBSTRUCTURE
      1 S1             1
@<TRIPOS>SET
LONE_PAIRS      STATIC     ATOMS    <user>   **** ""
5 49 50 51 52 53
DONOR_HYDROGENS      STATIC     ATOMS    <user>   **** ""
3 31 48 41
ATOM$BLUE        STATIC     ATOMS    COLORGROUP SYSTEM
5 49 50 51 52 53
ATOM$RED        STATIC     ATOMS    COLORGROUP SYSTEM
3 31 48 41
