#       Name:                AV-unprocessed.smi:701
#       Creating user name   scv26
#       Creation time:       Fri Mar 27 00:39:56 2020


#       File generated by GOLD software.
#

@<TRIPOS>MOLECULE
AV-unprocessed.smi:701
    57    59     1
SMALL
NO_CHARGES


@<TRIPOS>ATOM
      1 ****        -5.2701   2.0256  -0.4625 C.3            1 S1                 0.0000
      2 ****        -3.7451   2.1056  -0.3686 C.3            1 S1                 0.0000
      3 ****        -3.2267   0.7911  -0.2564 O.3            1 S1                 0.0000
      4 ****        -1.8101   0.7549  -0.2068 C.3            1 S1                 0.0000
      5 ****        -1.2158   1.1375   1.1514 C.3            1 S1                 0.0000
      6 ****        -0.2089   0.0002   0.9474 C.3            1 S1                 0.0000
      7 ****         1.0147   0.4782   0.3035 N.am           1 S1                 0.0000
      8 ****         2.1211   0.8638   0.9529 C.2            1 S1                 0.0000
      9 ****         2.2134   0.8832   2.1806 O.2            1 S1                 0.0000
     10 ****         3.2922   1.3269   0.0784 C.3            1 S1                 0.0000
     11 ****         4.5625   0.7006   0.4748 N.am           1 S1                 0.0000
     12 ****         5.4248   1.4341   1.3086 C.2            1 S1                 0.0000
     13 ****         6.6048   0.9357   1.7239 C.2            1 S1                 0.0000
     14 ****         6.9811  -0.4029   1.2865 C.2            1 S1                 0.0000
     15 ****         8.0573  -0.8719   1.6517 O.2            1 S1                 0.0000
     16 ****         6.1077  -1.0771   0.4822 N.pl3          1 S1                -1.0000
     17 ****         4.9097  -0.5585   0.0695 C.2            1 S1                 0.0000
     18 ****         4.1346  -1.1848  -0.6546 O.2            1 S1                 0.0000
     19 ****        -1.2098  -0.6668  -0.0399 C.3            1 S1                 0.0000
     20 ****        -2.1087  -1.7291   0.6367 C.3            1 S1                 0.0000
     21 ****        -3.1800  -2.3379  -0.2879 C.3            1 S1                 0.0000
     22 ****        -2.5630  -2.9049  -1.5703 C.3            1 S1                 0.0000
     23 ****        -1.6920  -1.8552  -2.2672 C.3            1 S1                 0.0000
     24 ****        -0.6193  -1.3073  -1.3135 C.3            1 S1                 0.0000
     25 ****        -5.7084   3.0196  -0.5516 H              1 S1                 0.0000
     26 ****        -5.6925   1.5516   0.4237 H              1 S1                 0.0000
     27 ****        -5.5774   1.4449  -1.3327 H              1 S1                 0.0000
     28 ****        -3.3441   2.5940  -1.2579 H              1 S1                 0.0000
     29 ****        -3.4558   2.7033   0.4967 H              1 S1                 0.0000
     30 ****        -1.3451   1.2988  -1.0321 H              1 S1                 0.0000
     31 ****        -0.7897   2.1406   1.1967 H              1 S1                 0.0000
     32 ****        -1.8966   0.9553   1.9840 H              1 S1                 0.0000
     33 ****        -0.0330  -0.5893   1.8490 H              1 S1                 0.0000
     34 ****         1.0276   0.4932  -0.7059 H              1 S1                 0.0000
     35 ****         3.0837   1.1250  -0.9743 H              1 S1                 0.0000
     36 ****         3.3617   2.4128   0.1522 H              1 S1                 0.0000
     37 ****         5.0681   2.4134   1.5920 H              1 S1                 0.0000
     38 ****         7.2546   1.5107   2.3668 H              1 S1                 0.0000
     39 ****        -1.4851  -2.5379   1.0200 H              1 S1                 0.0000
     40 ****        -2.6052  -1.3108   1.5127 H              1 S1                 0.0000
     41 ****        -3.7179  -3.1252   0.2407 H              1 S1                 0.0000
     42 ****        -3.9260  -1.5873  -0.5467 H              1 S1                 0.0000
     43 ****        -1.9560  -3.7780  -1.3276 H              1 S1                 0.0000
     44 ****        -3.3481  -3.2499  -2.2437 H              1 S1                 0.0000
     45 ****        -1.2186  -2.2921  -3.1467 H              1 S1                 0.0000
     46 ****        -2.3172  -1.0362  -2.6255 H              1 S1                 0.0000
     47 ****        -0.0190  -0.5853  -1.8675 H              1 S1                 0.0000
     48 ****         0.0655  -2.1120  -1.0418 H              1 S1                 0.0000
     49 ****        -3.5313   0.2602  -1.0472 LP             1 S1                 0.0000
     50 ****        -3.5852   0.3778   0.5806 LP             1 S1                 0.0000
     51 ****         1.4373   0.6016   2.7449 LP             1 S1                 0.0000
     52 ****         3.0645   1.1805   2.6134 LP             1 S1                 0.0000
     53 ****         8.6619  -0.3363   2.2413 LP             1 S1                 0.0000
     54 ****         8.3281  -1.7890   1.3591 LP             1 S1                 0.0000
     55 ****         6.3558  -1.9971   0.1789 LP             1 S1                 0.0000
     56 ****         3.2687  -0.7713  -0.9360 LP             1 S1                 0.0000
     57 ****         4.3713  -2.1068  -0.9611 LP             1 S1                 0.0000
@<TRIPOS>BOND
    1    1    2 1     
    2    1   25 1     
    3    1   26 1     
    4    1   27 1     
    5    2    3 1     
    6    2   28 1     
    7    2   29 1     
    8    3    4 1     
    9    4   19 1     
   10    4    5 1     
   11    4   30 1     
   12    5    6 1     
   13    5   31 1     
   14    5   32 1     
   15    6    7 1     
   16    6   19 1     
   17    6   33 1     
   18    7    8 am    
   19    7   34 1     
   20    8    9 2     
   21    8   10 1     
   22   10   11 1     
   23   10   35 1     
   24   10   36 1     
   25   11   17 am    
   26   11   12 1     
   27   12   13 2     
   28   12   37 1     
   29   13   14 1     
   30   13   38 1     
   31   14   15 2     
   32   14   16 1     
   33   16   17 1     
   34   17   18 2     
   35   19   24 1     
   36   19   20 1     
   37   20   21 1     
   38   20   39 1     
   39   20   40 1     
   40   21   22 1     
   41   21   41 1     
   42   21   42 1     
   43   22   23 1     
   44   22   43 1     
   45   22   44 1     
   46   23   24 1     
   47   23   45 1     
   48   23   46 1     
   49   24   47 1     
   50   24   48 1     
   51    3   49 1     
   52    3   50 1     
   53    9   51 1     
   54    9   52 1     
   55   15   53 1     
   56   15   54 1     
   57   16   55 1     
   58   18   56 1     
   59   18   57 1     
@<TRIPOS>SUBSTRUCTURE
      1 S1             1
@<TRIPOS>SET
LONE_PAIRS      STATIC     ATOMS    <user>   **** ""
9 49 50 51 52 53 54 55 56 57
DONOR_HYDROGENS      STATIC     ATOMS    <user>   **** ""
1 34
ATOM$BLUE        STATIC     ATOMS    COLORGROUP SYSTEM
9 49 50 51 52 53 54 55 56 57
ATOM$RED        STATIC     ATOMS    COLORGROUP SYSTEM
1 34
