AV-unprocessed.smi:2216|AV-procd|sdf|8965|dock1
  -GOLD-   2272012183D 1   1.00000     0.00000
 Structure written by MMmdl.
 41 42  0  0  0  0  0  0  0  0  1 V2000
  145.2474  131.0522  151.3587 C   0  0  0  0  0  0  0  0  0  0  0  0
  145.1578  132.5247  150.9993 C   0  0  0  0  0  0  0  0  0  0  0  0
  145.8369  133.4690  151.6914 C   0  0  0  0  0  0  0  0  0  0  0  0
  145.7592  134.8833  151.3392 C   0  0  0  0  0  0  0  0  0  0  0  0
  146.4283  135.9251  151.9970 N   0  0  0  0  0  0  0  0  0  0  0  0
  145.9475  137.1060  152.4270 C   0  0  0  0  0  0  0  0  0  0  0  0
  144.7960  137.5142  152.2807 O   0  0  0  0  0  0  0  0  0  0  0  0
  146.9040  137.8148  153.0440 N   0  0  0  0  0  0  0  0  0  0  0  0
  146.7258  139.1439  153.6180 C   0  0  0  0  0  0  0  0  0  0  0  0
  148.0761  139.8424  153.8537 C   0  0  0  0  0  0  0  0  0  0  0  0
  148.7756  139.3754  155.1401 C   0  0  1  0  0  0  0  0  0  0  0  0
  149.3652  137.9591  154.9918 C   0  0  0  0  0  0  0  0  0  0  0  0
  150.1186  137.5527  156.2634 C   0  0  0  0  0  0  0  0  0  0  0  0
  151.1522  138.6274  156.6156 C   0  0  0  0  0  0  0  0  0  0  0  0
  150.4842  140.0103  156.6769 C   0  0  0  0  0  0  0  0  0  0  0  0
  149.8294  140.2884  155.4427 O   0  0  0  0  0  0  0  0  0  0  0  0
  144.9908  135.2009  150.2828 C   0  0  0  0  0  0  0  0  0  0  0  0
  144.2884  134.2280  149.5679 N   0  0  0  0  0  0  0  0  0  0  0  0
  144.3118  132.9073  149.8571 C   0  0  0  0  0  0  0  0  0  0  0  0
  143.6587  132.1105  149.1853 O   0  0  0  0  0  0  0  0  0  0  0  0
  143.7266  134.5452  148.7910 H   0  0  0  0  0  0  0  0  0  0  0  0
  145.8921  130.8904  152.2232 H   0  0  0  0  0  0  0  0  0  0  0  0
  145.6540  130.4806  150.5237 H   0  0  0  0  0  0  0  0  0  0  0  0
  144.2595  130.6569  151.5976 H   0  0  0  0  0  0  0  0  0  0  0  0
  146.4544  133.1357  152.5092 H   0  0  0  0  0  0  0  0  0  0  0  0
  147.4092  135.7563  152.1650 H   0  0  0  0  0  0  0  0  0  0  0  0
  147.8241  137.4069  153.1213 H   0  0  0  0  0  0  0  0  0  0  0  0
  146.0862  139.7482  152.9725 H   0  0  0  0  0  0  0  0  0  0  0  0
  146.1949  139.0341  154.5639 H   0  0  0  0  0  0  0  0  0  0  0  0
  148.7283  139.6457  153.0017 H   0  0  0  0  0  0  0  0  0  0  0  0
  147.9356  140.9236  153.8889 H   0  0  0  0  0  0  0  0  0  0  0  0
  148.0505  139.3806  155.9560 H   0  0  0  0  0  0  0  0  0  0  0  0
  148.5740  137.2384  154.7823 H   0  0  0  0  0  0  0  0  0  0  0  0
  150.0470  137.9315  154.1407 H   0  0  0  0  0  0  0  0  0  0  0  0
  149.4132  137.4367  157.0873 H   0  0  0  0  0  0  0  0  0  0  0  0
  150.6043  136.5863  156.1263 H   0  0  0  0  0  0  0  0  0  0  0  0
  151.6299  138.3946  157.5676 H   0  0  0  0  0  0  0  0  0  0  0  0
  151.9416  138.6378  155.8630 H   0  0  0  0  0  0  0  0  0  0  0  0
  149.7691  140.0612  157.4995 H   0  0  0  0  0  0  0  0  0  0  0  0
  151.2336  140.7806  156.8596 H   0  0  0  0  0  0  0  0  0  0  0  0
  144.8497  136.2054  149.9109 H   0  0  0  0  0  0  0  0  0  0  0  0
  1  2  1  0  0  0  0
  1 22  1  0  0  0  0
  1 23  1  0  0  0  0
  1 24  1  0  0  0  0
  2 19  1  0  0  0  0
  2  3  2  0  0  0  0
  3  4  1  0  0  0  0
  3 25  1  0  0  0  0
  4  5  1  0  0  0  0
  4 17  2  0  0  0  0
  5  6  1  0  0  0  0
  5 26  1  0  0  0  0
  6  7  2  0  0  0  0
  6  8  1  0  0  0  0
  8  9  1  0  0  0  0
  8 27  1  0  0  0  0
  9 10  1  0  0  0  0
  9 28  1  0  0  0  0
  9 29  1  0  0  0  0
 10 11  1  0  0  0  0
 10 30  1  0  0  0  0
 10 31  1  0  0  0  0
 11 16  1  0  0  0  0
 11 12  1  0  0  0  0
 11 32  1  0  0  0  0
 12 13  1  0  0  0  0
 12 33  1  0  0  0  0
 12 34  1  0  0  0  0
 13 14  1  0  0  0  0
 13 35  1  0  0  0  0
 13 36  1  0  0  0  0
 14 15  1  0  0  0  0
 14 37  1  0  0  0  0
 14 38  1  0  0  0  0
 15 16  1  0  0  0  0
 15 39  1  0  0  0  0
 15 40  1  0  0  0  0
 17 18  1  0  0  0  0
 17 41  1  0  0  0  0
 18 21  1  0  0  0  0
 18 19  1  0  0  0  0
 19 20  2  0  0  0  0
M  END
> <s_m_source_file>
AV-unprocessed.smi

> <i_m_source_file_index>
2216

> <i_lp_mmshare_version>
43012

> <i_f3d_flags>
0

> <s_epik_input>
Tz1jMVtuSF1bY0hdYyhbY0hdYzFbQ0gzXSlbTkhdQyg9TylbTkhdW0NIMl1bQ0gyXVtDQEBIXTJbQ0gyXVtDSDJdW0NIMl1bQ0gyXU8y

> <s_epik_cmdline>
J2VwaWtfcHl0aG9uJywgJy1waCcsICc3LjAnLCAnLXRuJywgJzgnLCAnLW1hJywgJzIwMCcsICctbWV0YWxfYmluZGluZycsICctaW1hZScsICc8aW5maWxlLm1hZT4nLCAnLW9tYWUnLCAnPG91dGZpbGUubWFlPic=

> <r_lp_tautomer_probability>
1

> <r_epik_Ionization_Penalty>
4.73984e-05

> <r_epik_Ionization_Penalty_Charging>
2.74455e-05

> <r_epik_Ionization_Penalty_Neutral>
1.99529e-05

> <r_epik_State_Penalty>
-0

> <r_epik_Charging_Adjusted_Penalty>
2.74455e-05

> <i_epik_Tot_Q>
0

> <i_epik_Tot_abs_Q>
0

> <r_epik_Metal_State_Penalty>
0.0206128

> <b_epik_Metal_Only>
0

> <s_lp_Force_Field>
OPLS_2005

> <r_lp_Energy>
17.5226

> <b_lp_Chiralities_Consistent>
1

> <s_lp_Variant>
AV-unprocessed.smi:2216-2

> <Gold.Version>
5.8.1

> <Gold.Id.Protein>
6NUR|6NUR_protein|mol2

> <Gold.PLP.Fitness>
49.9908

> <Gold.PLP.PLP>
-36.8200

> <Gold.PLP.part.hbond>
-5.0457

> <Gold.PLP.part.metal>
0.0000

> <Gold.PLP.part.buried>
-3.2623

> <Gold.PLP.part.nonpolar>
-30.5501

> <Gold.PLP.part.repulsive>
0.6810

> <Gold.PLP.ligand.clash>
0.0000

> <Gold.PLP.ligand.torsion>
0.7221

> <Gold.PLP.Chemscore.Hbond>
3.8657

> <Gold.PLP.Chemscore.CHOScore>
1.0000

> <Gold.PLP.Chemscore.Metal>
0.0000

> <Gold.Chemscore.Hbonds>
donor molecule, donor type, donor heavy atom, donor atom, acceptor molecule, acceptor atom, score
      L1  H     5    26       P1  7948  0.93
      L1  H     8    27       P1  7948  0.62
      P1  H 10785 10796       L1    20  0.80
      L1  C    17    41       P1 10171  0.94

> <Gold.PLP.Chemscore.Internal.Correction>
0.0179

> <Gold.Rescore>
     Score         DG    S(hbond)    S(metal)    S(lipo)     H(rot)  DE(clash)    DE(int)     intcor
     22.44     -24.00       3.78        0.00      83.08       1.50       0.57       0.99       ----

> <Gold.Chemscore.Fitness>
22.4426

> <Gold.Chemscore.DG>
-24.0007

> <Gold.Chemscore.ZeroCoef>
-5.4800

> <Gold.Chemscore.Hbond>
3.7819

> <Gold.Chemscore.Metal>
0.0000

> <Gold.Chemscore.Lipo>
83.0766

> <Gold.Chemscore.Internal_Hbond>
0.0000

> <Gold.Chemscore.DEClash>
0.5652

> <Gold.Chemscore.DEInternal>
0.9929

> <Gold.Chemscore.Rot>
1.4964

> <Gold.Chemscore.Internal.Correction>
   9.000000E+99

> <Gold.Chemscore.Hbonds>
donor molecule, donor type, donor heavy atom, donor atom, acceptor molecule, acceptor atom, score
      L1  H     5    26       P1  7948  0.89
      L1  H     8    27       P1  7948  0.59
      P1  H 10785 10796       L1    20  0.75

> <Gold.Chemscore.Hbond.Weighted>
-12.6315

> <Gold.Chemscore.Metal.Weighted>
-0.0000

> <Gold.Chemscore.Lipo.Weighted>
-9.7200

> <Gold.Chemscore.Internal_Hbond.Weighted>
0.0000

> <Gold.Chemscore.DEClash.Weighted>
0.5652

> <Gold.Chemscore.DEInternal.Weighted>
0.9929

> <Gold.Chemscore.Rot.Weighted>
3.8308

> <Gold.Chemscore.Internal.Correction.Weighted>
   9.000000E+99

> <Gold.Protein.RotatedTorsions>
[ 6907 6896 6895 6894 ] final   90.62 input  -60.11 | X-H torsion
[ 7974 7965 7964 7962 ] final   63.96 input  175.53 | X-H torsion
[ 8008 7997 7996 7995 ] final  147.99 input   59.86 | X-H torsion
[ 10167 10162 10161 10158 ] final  -27.98 input  -65.29 | X-H torsion
[ 10718 10713 10712 10709 ] final   -2.75 input   66.30 | X-H torsion
[ 10763 10752 10751 10750 ] final  125.04 input  -60.55 | X-H torsion
[ 11005 11000 10999 10996 ] final  148.56 input  -57.11 | X-H torsion

> <Gold.Protein.ActiveResidues>
 VAL166  LYS551  ARG553  GLY616  TRP617  ASP618  TYR619  PRO620  LYS621  CYS622 
 ASP623  PHE694  ASN695  SER759  ASP760  ASP761  ALA762  ILE779  LEU786  VAL792 
 PHE793  MET794  SER795  GLU796  ALA797  LYS798  CYS799  TRP800  GLU811  SER814 

> <Gold.Protein.RotatedAtoms>
  152.5445  134.1783  159.8624 H   0  0  0  0  0  0  0  0  0  0  0  0  # atno 6907 bound_to 6896
  151.1788  133.4731  159.2601 H   0  0  0  0  0  0  0  0  0  0  0  0  # atno 6908 bound_to 6896
  151.1200  135.0085  159.8589 H   0  0  0  0  0  0  0  0  0  0  0  0  # atno 6909 bound_to 6896
  145.8558  139.3283  143.0848 H   0  0  0  0  0  0  0  0  0  0  0  0  # atno 7974 bound_to 7965
  156.2806  140.2140  156.5627 H   0  0  0  0  0  0  0  0  0  0  0  0  # atno 8008 bound_to 7997
  154.7200  140.0504  157.0653 H   0  0  0  0  0  0  0  0  0  0  0  0  # atno 8009 bound_to 7997
  155.0491  140.3154  155.4701 H   0  0  0  0  0  0  0  0  0  0  0  0  # atno 8010 bound_to 7997
  140.7273  143.4048  151.1203 H   0  0  0  0  0  0  0  0  0  0  0  0  # atno 10167 bound_to 10162
  156.7862  130.5346  149.5743 H   0  0  0  0  0  0  0  0  0  0  0  0  # atno 10718 bound_to 10713
  153.6710  135.3330  155.3153 H   0  0  0  0  0  0  0  0  0  0  0  0  # atno 10763 bound_to 10752
  154.8491  135.4386  154.1705 H   0  0  0  0  0  0  0  0  0  0  0  0  # atno 10764 bound_to 10752
  153.2697  135.6999  153.7570 H   0  0  0  0  0  0  0  0  0  0  0  0  # atno 10765 bound_to 10752
  140.0970  134.9006  157.1738 H   0  0  0  0  0  0  0  0  0  0  0  0  # atno 11005 bound_to 11000
  145.9305  140.9051  143.0358 LP  0  0  0  0  0  0  0  0  0  0  0  0  # atno 17320 bound_to 7965
  144.6728  140.1412  143.7437 LP  0  0  0  0  0  0  0  0  0  0  0  0  # atno 17321 bound_to 7965
  139.7673  143.8546  152.3113 LP  0  0  0  0  0  0  0  0  0  0  0  0  # atno 17342 bound_to 10162
  139.8452  144.7191  150.9281 LP  0  0  0  0  0  0  0  0  0  0  0  0  # atno 17343 bound_to 10162
  156.1187  130.6094  151.0161 LP  0  0  0  0  0  0  0  0  0  0  0  0  # atno 17370 bound_to 10713
  157.6623  131.0878  150.7810 LP  0  0  0  0  0  0  0  0  0  0  0  0  # atno 17371 bound_to 10713
  140.3273  134.2849  155.7234 LP  0  0  0  0  0  0  0  0  0  0  0  0  # atno 17394 bound_to 11000
  141.2095  133.7748  156.9994 LP  0  0  0  0  0  0  0  0  0  0  0  0  # atno 17395 bound_to 11000

$$$$
