AV-unprocessed.smi:1954|AV-procd|sdf|7897|dock8
  -GOLD-   2272010 53D 1   1.00000     0.00000
 Structure written by MMmdl.
 45 47  0  0  0  0  0  0  0  0  2 V2000
  149.1595  135.2243  158.1050 O   0  0  0  0  0  0  0  0  0  0  0  0
  148.5644  136.3018  158.1064 C   0  0  0  0  0  0  0  0  0  0  0  0
  148.6154  137.1727  157.0884 N   0  0  0  0  0  0  0  0  0  0  0  0
  149.3670  136.9984  155.8453 C   0  0  0  0  0  0  0  0  0  0  0  0
  149.2137  138.1968  154.8557 C   0  0  2  0  0  0  0  0  0  0  0  0
  148.0846  137.8845  153.9037 N   0  3  0  0  0  0  0  0  0  0  0  0
  146.9574  137.1170  154.5042 C   0  0  0  0  0  0  0  0  0  0  0  0
  145.9795  136.6481  153.4164 C   0  0  0  0  0  0  0  0  0  0  0  0
  145.4841  137.7813  152.7184 O   0  0  0  0  0  0  0  0  0  0  0  0
  146.5260  138.4826  152.0552 C   0  0  0  0  0  0  0  0  0  0  0  0
  147.5549  139.0018  153.0757 C   0  0  0  0  0  0  0  0  0  0  0  0
  150.5729  138.4714  154.1510 C   0  0  0  0  0  0  0  0  0  0  0  0
  151.5407  139.0634  155.1794 C   0  0  0  0  0  0  0  0  0  0  0  0
  150.5595  140.0996  156.2904 S   0  0  0  0  0  0  0  0  0  0  0  0
  148.9711  139.5050  155.6451 C   0  0  0  0  0  0  0  0  0  0  0  0
  147.7892  136.7633  159.1028 N   0  0  0  0  0  0  0  0  0  0  0  0
  147.4918  136.1543  160.3515 C   0  0  0  0  0  0  0  0  0  0  0  0
  147.3766  134.7443  160.4658 C   0  0  0  0  0  0  0  0  0  0  0  0
  147.1096  134.1737  161.7255 C   0  0  0  0  0  0  0  0  0  0  0  0
  146.9773  135.0196  162.8404 C   0  0  0  0  0  0  0  0  0  0  0  0
  147.1240  136.4042  162.6422 C   0  0  0  0  0  0  0  0  0  0  0  0
  147.3801  136.9547  161.4364 N   0  0  0  0  0  0  0  0  0  0  0  0
  148.0845  138.0274  157.1752 H   0  0  0  0  0  0  0  0  0  0  0  0
  150.4156  136.8040  156.0716 H   0  0  0  0  0  0  0  0  0  0  0  0
  149.0148  136.0718  155.3937 H   0  0  0  0  0  0  0  0  0  0  0  0
  147.3245  136.2478  155.0477 H   0  0  0  0  0  0  0  0  0  0  0  0
  146.4161  137.7363  155.2202 H   0  0  0  0  0  0  0  0  0  0  0  0
  146.4595  135.9534  152.7252 H   0  0  0  0  0  0  0  0  0  0  0  0
  145.1408  136.1188  153.8692 H   0  0  0  0  0  0  0  0  0  0  0  0
  147.0053  137.8313  151.3219 H   0  0  0  0  0  0  0  0  0  0  0  0
  146.0935  139.3166  151.5022 H   0  0  0  0  0  0  0  0  0  0  0  0
  147.1050  139.7597  153.7186 H   0  0  0  0  0  0  0  0  0  0  0  0
  148.3518  139.4770  152.5051 H   0  0  0  0  0  0  0  0  0  0  0  0
  150.9899  137.5898  153.6634 H   0  0  0  0  0  0  0  0  0  0  0  0
  150.4647  139.2361  153.3824 H   0  0  0  0  0  0  0  0  0  0  0  0
  152.0183  138.2754  155.7617 H   0  0  0  0  0  0  0  0  0  0  0  0
  152.3319  139.6449  154.7057 H   0  0  0  0  0  0  0  0  0  0  0  0
  148.5900  140.2834  154.9829 H   0  0  0  0  0  0  0  0  0  0  0  0
  148.2535  139.3844  156.4573 H   0  0  0  0  0  0  0  0  0  0  0  0
  147.2831  137.6158  158.9126 H   0  0  0  0  0  0  0  0  0  0  0  0
  147.5008  134.0901  159.6166 H   0  0  0  0  0  0  0  0  0  0  0  0
  147.0150  133.1036  161.8345 H   0  0  0  0  0  0  0  0  0  0  0  0
  146.7744  134.6177  163.8222 H   0  0  0  0  0  0  0  0  0  0  0  0
  147.0372  137.0882  163.4735 H   0  0  0  0  0  0  0  0  0  0  0  0
  148.5004  137.2564  153.2304 H   0  0  0  0  0  0  0  0  0  0  0  0
  1  2  2  0  0  0  0
  2  3  1  0  0  0  0
  2 16  1  0  0  0  0
  3  4  1  0  0  0  0
  3 23  1  0  0  0  0
  4  5  1  0  0  0  0
  4 24  1  0  0  0  0
  4 25  1  0  0  0  0
  5 15  1  0  0  0  0
  5  6  1  0  0  0  0
  5 12  1  0  0  0  0
  6 11  1  0  0  0  0
  6  7  1  0  0  0  0
  6 45  1  0  0  0  0
  7  8  1  0  0  0  0
  7 26  1  0  0  0  0
  7 27  1  0  0  0  0
  8  9  1  0  0  0  0
  8 28  1  0  0  0  0
  8 29  1  0  0  0  0
  9 10  1  0  0  0  0
 10 11  1  0  0  0  0
 10 30  1  0  0  0  0
 10 31  1  0  0  0  0
 11 32  1  0  0  0  0
 11 33  1  0  0  0  0
 12 13  1  0  0  0  0
 12 34  1  0  0  0  0
 12 35  1  0  0  0  0
 13 14  1  0  0  0  0
 13 36  1  0  0  0  0
 13 37  1  0  0  0  0
 14 15  1  0  0  0  0
 15 38  1  0  0  0  0
 15 39  1  0  0  0  0
 16 17  1  0  0  0  0
 16 40  1  0  0  0  0
 17 22  1  0  0  0  0
 17 18  2  0  0  0  0
 18 19  1  0  0  0  0
 18 41  1  0  0  0  0
 19 20  2  0  0  0  0
 19 42  1  0  0  0  0
 20 21  1  0  0  0  0
 20 43  1  0  0  0  0
 21 22  2  0  0  0  0
 21 44  1  0  0  0  0
M  CHG  1   6   1
M  END
> <s_m_source_file>
AV-unprocessed.smi

> <i_m_source_file_index>
1954

> <i_lp_mmshare_version>
43012

> <i_f3d_flags>
0

> <s_epik_input>
bjFbY0hdW2NIXVtjSF1bY0hdYzFbTkhdQyg9TylbTkhdW0NIMl1bQ0BdMihbQ0gyXVtDSDJdU1tDSDJdMilOM1tDSDJdW0NIMl1PW0NIMl1bQ0gyXTM=

> <s_epik_cmdline>
J2VwaWtfcHl0aG9uJywgJy1waCcsICc3LjAnLCAnLXRuJywgJzgnLCAnLW1hJywgJzIwMCcsICctbWV0YWxfYmluZGluZycsICctaW1hZScsICc8aW5maWxlLm1hZT4nLCAnLW9tYWUnLCAnPG91dGZpbGUubWFlPic=

> <r_epik_Ionization_Penalty>
2.03222

> <r_epik_Ionization_Penalty_Charging>
2.03219

> <r_epik_Ionization_Penalty_Neutral>
3.25833e-05

> <r_epik_State_Penalty>
2.16328

> <r_epik_Charging_Adjusted_Penalty>
4.19546

> <i_epik_Tot_Q>
1

> <i_epik_Tot_abs_Q>
1

> <r_epik_Metal_State_Penalty>
2.16328

> <b_epik_Metal_Only>
0

> <s_lp_Force_Field>
OPLS_2005

> <r_lp_Energy>
46.5202

> <b_lp_Chiralities_Consistent>
1

> <s_lp_Variant>
AV-unprocessed.smi:1954-4

> <Gold.Version>
5.8.1

> <Gold.Id.Protein>
6NUR|6NUR_protein|mol2

> <Gold.PLP.Fitness>
48.7381

> <Gold.PLP.PLP>
-37.2559

> <Gold.PLP.part.hbond>
-4.0000

> <Gold.PLP.part.metal>
0.0000

> <Gold.PLP.part.buried>
-3.0357

> <Gold.PLP.part.nonpolar>
-30.7374

> <Gold.PLP.part.repulsive>
0.3890

> <Gold.PLP.ligand.clash>
0.0000

> <Gold.PLP.ligand.torsion>
1.4773

> <Gold.PLP.Chemscore.Hbond>
4.7680

> <Gold.PLP.Chemscore.CHOScore>
0.0000

> <Gold.PLP.Chemscore.Metal>
0.0000

> <Gold.Chemscore.Hbonds>
donor molecule, donor type, donor heavy atom, donor atom, acceptor molecule, acceptor atom, score
      L1  H     6    45       P1  7948  2.00
      P1  H  6896  6907       L1     1  0.65
      P1  H  6931  6943       L1    22  0.70
      P1  H  6934  6947       L1    22  0.72

> <Gold.PLP.Chemscore.Internal.Correction>
0.1328

> <Gold.Rescore>
     Score         DG    S(hbond)    S(metal)    S(lipo)     H(rot)  DE(clash)    DE(int)     intcor
     17.57     -20.62       2.79        0.00      83.49       1.54       0.01       3.04       ----

> <Gold.Chemscore.Fitness>
17.5700

> <Gold.Chemscore.DG>
-20.6229

> <Gold.Chemscore.ZeroCoef>
-5.4800

> <Gold.Chemscore.Hbond>
2.7859

> <Gold.Chemscore.Metal>
0.0000

> <Gold.Chemscore.Lipo>
83.4941

> <Gold.Chemscore.Internal_Hbond>
0.0000

> <Gold.Chemscore.DEClash>
0.0082

> <Gold.Chemscore.DEInternal>
3.0446

> <Gold.Chemscore.Rot>
1.5355

> <Gold.Chemscore.Internal.Correction>
   9.000000E+99

> <Gold.Chemscore.Hbonds>
donor molecule, donor type, donor heavy atom, donor atom, acceptor molecule, acceptor atom, score
      L1  H     6    45       P1  7948  1.00
      P1  H  6896  6907       L1     1  0.65
      P1  H  6931  6943       L1    22  0.19
      P1  H  6934  6947       L1    22  0.57

> <Gold.Chemscore.Hbond.Weighted>
-9.3050

> <Gold.Chemscore.Metal.Weighted>
-0.0000

> <Gold.Chemscore.Lipo.Weighted>
-9.7688

> <Gold.Chemscore.Internal_Hbond.Weighted>
0.0000

> <Gold.Chemscore.DEClash.Weighted>
0.0082

> <Gold.Chemscore.DEInternal.Weighted>
3.0446

> <Gold.Chemscore.Rot.Weighted>
3.9309

> <Gold.Chemscore.Internal.Correction.Weighted>
   9.000000E+99

> <Gold.Protein.RotatedTorsions>
[ 6907 6896 6895 6894 ] final  -81.71 input  -60.11 | X-H torsion
[ 7974 7965 7964 7962 ] final   96.69 input  175.53 | X-H torsion
[ 8008 7997 7996 7995 ] final  -57.94 input   59.86 | X-H torsion
[ 10167 10162 10161 10158 ] final   32.05 input  -65.29 | X-H torsion
[ 10718 10713 10712 10709 ] final  173.29 input   66.30 | X-H torsion
[ 10763 10752 10751 10750 ] final  -82.19 input  -60.55 | X-H torsion
[ 11005 11000 10999 10996 ] final -166.04 input  -57.11 | X-H torsion

> <Gold.Protein.ActiveResidues>
 VAL166  LYS551  ARG553  GLY616  TRP617  ASP618  TYR619  PRO620  LYS621  CYS622 
 ASP623  PHE694  ASN695  SER759  ASP760  ASP761  ALA762  ILE779  LEU786  VAL792 
 PHE793  MET794  SER795  GLU796  ALA797  LYS798  CYS799  TRP800  GLU811  SER814 

> <Gold.Protein.RotatedAtoms>
  150.6908  134.3776  159.5019 H   0  0  0  0  0  0  0  0  0  0  0  0  # atno 6907 bound_to 6896
  152.1583  134.8930  160.0552 H   0  0  0  0  0  0  0  0  0  0  0  0  # atno 6908 bound_to 6896
  152.0002  133.3788  159.4215 H   0  0  0  0  0  0  0  0  0  0  0  0  # atno 6909 bound_to 6896
  145.4354  139.2306  143.3121 H   0  0  0  0  0  0  0  0  0  0  0  0  # atno 7974 bound_to 7965
  154.4288  140.1095  156.5877 H   0  0  0  0  0  0  0  0  0  0  0  0  # atno 8008 bound_to 7997
  155.6045  140.3493  155.4585 H   0  0  0  0  0  0  0  0  0  0  0  0  # atno 8009 bound_to 7997
  156.0147  140.1227  157.0408 H   0  0  0  0  0  0  0  0  0  0  0  0  # atno 8010 bound_to 7997
  140.4533  144.1015  150.6196 H   0  0  0  0  0  0  0  0  0  0  0  0  # atno 10167 bound_to 10162
  156.9664  131.0076  151.2915 H   0  0  0  0  0  0  0  0  0  0  0  0  # atno 10718 bound_to 10713
  154.5727  135.5600  153.7110 H   0  0  0  0  0  0  0  0  0  0  0  0  # atno 10763 bound_to 10752
  153.0054  135.6301  154.2092 H   0  0  0  0  0  0  0  0  0  0  0  0  # atno 10764 bound_to 10752
  154.2032  135.2877  155.2963 H   0  0  0  0  0  0  0  0  0  0  0  0  # atno 10765 bound_to 10752
  140.5689  134.5257  157.5158 H   0  0  0  0  0  0  0  0  0  0  0  0  # atno 11005 bound_to 11000
  146.2585  140.5096  142.8863 LP  0  0  0  0  0  0  0  0  0  0  0  0  # atno 17320 bound_to 7965
  144.8156  140.6461  143.6387 LP  0  0  0  0  0  0  0  0  0  0  0  0  # atno 17321 bound_to 7965
  140.4181  143.2624  151.9750 LP  0  0  0  0  0  0  0  0  0  0  0  0  # atno 17342 bound_to 10162
  139.4798  144.5856  151.7860 LP  0  0  0  0  0  0  0  0  0  0  0  0  # atno 17343 bound_to 10162
  157.5623  130.8254  149.8281 LP  0  0  0  0  0  0  0  0  0  0  0  0  # atno 17370 bound_to 10713
  156.0301  130.3767  150.1712 LP  0  0  0  0  0  0  0  0  0  0  0  0  # atno 17371 bound_to 10713
  139.9371  134.7855  156.0774 LP  0  0  0  0  0  0  0  0  0  0  0  0  # atno 17394 bound_to 11000
  141.1068  133.6657  156.2883 LP  0  0  0  0  0  0  0  0  0  0  0  0  # atno 17395 bound_to 11000

$$$$
