AV-unprocessed.smi:199|AV-procd|sdf|1562|dock7
  -GOLD-   2262019433D 1   1.00000     0.00000
 Structure written by MMmdl.
 51 55  0  0  0  0  0  0  0  0  1 V2000
  146.0306  132.7852  161.8046 C   0  0  0  0  0  0  0  0  0  0  0  0
  146.9062  134.0433  161.9244 C   0  0  2  0  0  0  0  0  0  0  0  0
  146.5088  134.8277  163.0393 O   0  0  0  0  0  0  0  0  0  0  0  0
  147.0832  136.1102  162.8659 C   0  0  0  0  0  0  0  0  0  0  0  0
  146.8230  136.4004  161.3925 C   0  0  0  0  0  0  0  0  0  0  0  0
  146.9054  135.0251  160.7223 C   0  0  2  0  0  0  0  0  0  0  0  0
  145.7531  134.8598  159.9119 O   0  0  0  0  0  0  0  0  0  0  0  0
  148.1558  134.8899  159.8183 C   0  0  0  0  0  0  0  0  0  0  0  0
  148.3237  136.0003  158.8926 N   0  0  0  0  0  0  0  0  0  0  0  0
  147.5932  136.2402  157.7517 C   0  0  0  0  0  0  0  0  0  0  0  0
  147.9465  137.3003  157.0793 N   0  0  0  0  0  0  0  0  0  0  0  0
  149.0016  137.8378  157.8079 C   0  0  0  0  0  0  0  0  0  0  0  0
  149.8539  138.9703  157.6487 C   0  0  0  0  0  0  0  0  0  0  0  0
  149.7833  139.8410  156.6037 N   0  0  0  0  0  0  0  0  0  0  0  0
  150.4784  141.1192  156.6614 C   0  0  1  0  0  0  0  0  0  0  0  0
  151.9631  140.7512  156.4538 C   0  0  0  0  0  0  0  0  0  0  0  0
  151.8448  139.5555  155.4955 C   0  0  0  0  0  0  0  0  0  0  0  0
  150.3172  139.4783  155.2984 C   0  0  2  0  0  0  0  0  0  0  0  0
  149.8684  140.6551  154.4022 C   0  0  1  0  0  0  0  0  0  0  0  0
  148.4564  140.4770  153.8153 C   0  0  0  0  0  0  0  0  0  0  0  0
  148.4366  139.4036  152.8984 O   0  0  0  0  0  0  0  0  0  0  0  0
  149.9558  141.8262  155.4013 C   0  0  0  0  0  0  0  0  0  0  0  0
  150.7752  139.1944  158.6236 N   0  0  0  0  0  0  0  0  0  0  0  0
  150.8812  138.3639  159.6637 C   0  0  0  0  0  0  0  0  0  0  0  0
  150.1732  137.2658  159.9280 N   0  0  0  0  0  0  0  0  0  0  0  0
  149.2350  137.0396  158.9653 C   0  0  0  0  0  0  0  0  0  0  0  0
  146.3215  132.1825  160.9439 H   0  0  0  0  0  0  0  0  0  0  0  0
  144.9757  133.0384  161.6993 H   0  0  0  0  0  0  0  0  0  0  0  0
  146.1308  132.1609  162.6924 H   0  0  0  0  0  0  0  0  0  0  0  0
  147.9297  133.7310  162.1334 H   0  0  0  0  0  0  0  0  0  0  0  0
  146.6310  136.8490  163.5278 H   0  0  0  0  0  0  0  0  0  0  0  0
  148.1534  136.0667  163.0747 H   0  0  0  0  0  0  0  0  0  0  0  0
  145.8237  136.8279  161.2915 H   0  0  0  0  0  0  0  0  0  0  0  0
  147.5286  137.1260  160.9859 H   0  0  0  0  0  0  0  0  0  0  0  0
  145.9131  135.2698  159.0759 H   0  0  0  0  0  0  0  0  0  0  0  0
  149.0587  134.8112  160.4256 H   0  0  0  0  0  0  0  0  0  0  0  0
  148.0996  133.9671  159.2393 H   0  0  0  0  0  0  0  0  0  0  0  0
  146.7902  135.5951  157.4262 H   0  0  0  0  0  0  0  0  0  0  0  0
  150.2982  141.7013  157.5658 H   0  0  0  0  0  0  0  0  0  0  0  0
  152.5439  141.5739  156.0353 H   0  0  0  0  0  0  0  0  0  0  0  0
  152.4328  140.4485  157.3904 H   0  0  0  0  0  0  0  0  0  0  0  0
  152.3868  139.7030  154.5611 H   0  0  0  0  0  0  0  0  0  0  0  0
  152.2233  138.6467  155.9657 H   0  0  0  0  0  0  0  0  0  0  0  0
  149.9923  138.5180  154.9033 H   0  0  0  0  0  0  0  0  0  0  0  0
  150.5720  140.8062  153.5819 H   0  0  0  0  0  0  0  0  0  0  0  0
  147.7236  140.2939  154.6019 H   0  0  0  0  0  0  0  0  0  0  0  0
  148.1491  141.3817  153.2899 H   0  0  0  0  0  0  0  0  0  0  0  0
  149.0384  139.5974  152.1959 H   0  0  0  0  0  0  0  0  0  0  0  0
  148.9738  142.2621  155.5912 H   0  0  0  0  0  0  0  0  0  0  0  0
  150.6161  142.6248  155.0615 H   0  0  0  0  0  0  0  0  0  0  0  0
  151.6437  138.6146  160.3865 H   0  0  0  0  0  0  0  0  0  0  0  0
  1  2  1  0  0  0  0
  1 27  1  0  0  0  0
  1 28  1  0  0  0  0
  1 29  1  0  0  0  0
  2  6  1  0  0  0  0
  2  3  1  0  0  0  0
  2 30  1  0  0  0  0
  3  4  1  0  0  0  0
  4  5  1  0  0  0  0
  4 31  1  0  0  0  0
  4 32  1  0  0  0  0
  5  6  1  0  0  0  0
  5 33  1  0  0  0  0
  5 34  1  0  0  0  0
  6  7  1  0  0  0  0
  6  8  1  0  0  0  0
  7 35  1  0  0  0  0
  8  9  1  0  0  0  0
  8 36  1  0  0  0  0
  8 37  1  0  0  0  0
  9 26  1  0  0  0  0
  9 10  1  0  0  0  0
 10 11  2  0  0  0  0
 10 38  1  0  0  0  0
 11 12  1  0  0  0  0
 12 26  2  0  0  0  0
 12 13  1  0  0  0  0
 13 14  1  0  0  0  0
 13 23  2  0  0  0  0
 14 18  1  0  0  0  0
 14 15  1  0  0  0  0
 15 22  1  0  0  0  0
 15 16  1  0  0  0  0
 15 39  1  0  0  0  0
 16 17  1  0  0  0  0
 16 40  1  0  0  0  0
 16 41  1  0  0  0  0
 17 18  1  0  0  0  0
 17 42  1  0  0  0  0
 17 43  1  0  0  0  0
 18 19  1  0  0  0  0
 18 44  1  0  0  0  0
 19 20  1  0  0  0  0
 19 22  1  0  0  0  0
 19 45  1  0  0  0  0
 20 21  1  0  0  0  0
 20 46  1  0  0  0  0
 20 47  1  0  0  0  0
 21 48  1  0  0  0  0
 22 49  1  0  0  0  0
 22 50  1  0  0  0  0
 23 24  1  0  0  0  0
 24 25  2  0  0  0  0
 24 51  1  0  0  0  0
 25 26  1  0  0  0  0
M  END
> <s_m_source_file>
AV-unprocessed.smi

> <i_m_source_file_index>
199

> <i_lp_mmshare_version>
43012

> <i_f3d_flags>
0

> <s_epik_input>
W0NIMl0xW0NIMl1PW0NAQEhdKFtDSDNdKVtDQEBdMShbT0hdKVtDSDJdbihbY0hdbjIpYyhjMjMpbltjSF1uYzNOKFtDQEBIXTQ1KVtDQEhdKFtDSDJdW0NIMl00KVtDQEhdKFtDSDJdNSlbQ0gyXVtPSF0=

> <s_epik_cmdline>
J2VwaWtfcHl0aG9uJywgJy1waCcsICc3LjAnLCAnLXRuJywgJzgnLCAnLW1hJywgJzIwMCcsICctbWV0YWxfYmluZGluZycsICctaW1hZScsICc8aW5maWxlLm1hZT4nLCAnLW9tYWUnLCAnPG91dGZpbGUubWFlPic=

> <r_lp_tautomer_probability>
1

> <r_epik_Ionization_Penalty>
0.00583903

> <r_epik_Ionization_Penalty_Charging>
0

> <r_epik_Ionization_Penalty_Neutral>
0.00583903

> <r_epik_State_Penalty>
-0

> <r_epik_Charging_Adjusted_Penalty>
0

> <i_epik_Tot_Q>
0

> <i_epik_Tot_abs_Q>
0

> <r_epik_Metal_State_Penalty>
-0

> <b_epik_Metal_Only>
0

> <s_lp_Force_Field>
OPLS_2005

> <r_lp_Energy>
83.6045

> <b_lp_Chiralities_Consistent>
1

> <s_lp_Variant>
AV-unprocessed.smi:199-3

> <Gold.Version>
5.8.1

> <Gold.Id.Protein>
6NUR|6NUR_protein|mol2

> <Gold.PLP.Fitness>
47.9298

> <Gold.PLP.PLP>
-43.1759

> <Gold.PLP.part.hbond>
-3.0000

> <Gold.PLP.part.metal>
0.0000

> <Gold.PLP.part.buried>
-4.6931

> <Gold.PLP.part.nonpolar>
-35.4703

> <Gold.PLP.part.repulsive>
0.0000

> <Gold.PLP.ligand.clash>
0.0000

> <Gold.PLP.ligand.torsion>
0.6453

> <Gold.PLP.Chemscore.Hbond>
2.0000

> <Gold.PLP.Chemscore.CHOScore>
0.0000

> <Gold.PLP.Chemscore.Metal>
0.0000

> <Gold.Chemscore.Hbonds>
donor molecule, donor type, donor heavy atom, donor atom, acceptor molecule, acceptor atom, score
      L1  H    21    48       P1  7957  0.31
      P1  H  6896  6907       L1    25  0.10

> <Gold.PLP.Chemscore.Internal.Correction>
0.0446

> <Gold.Rescore>
     Score         DG    S(hbond)    S(metal)    S(lipo)     H(rot)  DE(clash)    DE(int)     intcor
     10.59     -14.89       1.89        0.00      93.75       3.07       0.91       3.38       ----

> <Gold.Chemscore.Fitness>
10.5938

> <Gold.Chemscore.DG>
-14.8852

> <Gold.Chemscore.ZeroCoef>
-5.4800

> <Gold.Chemscore.Hbond>
1.8871

> <Gold.Chemscore.Metal>
0.0000

> <Gold.Chemscore.Lipo>
93.7521

> <Gold.Chemscore.Internal_Hbond>
0.0000

> <Gold.Chemscore.DEClash>
0.9130

> <Gold.Chemscore.DEInternal>
3.3784

> <Gold.Chemscore.Rot>
3.0729

> <Gold.Chemscore.Internal.Correction>
   9.000000E+99

> <Gold.Chemscore.Hbonds>
donor molecule, donor type, donor heavy atom, donor atom, acceptor molecule, acceptor atom, score
      L1  H    21    48       P1  7957  0.31
      P1  H  6896  6907       L1    25  0.01

> <Gold.Chemscore.Hbond.Weighted>
-6.3030

> <Gold.Chemscore.Metal.Weighted>
-0.0000

> <Gold.Chemscore.Lipo.Weighted>
-10.9690

> <Gold.Chemscore.Internal_Hbond.Weighted>
0.0000

> <Gold.Chemscore.DEClash.Weighted>
0.9130

> <Gold.Chemscore.DEInternal.Weighted>
3.3784

> <Gold.Chemscore.Rot.Weighted>
7.8667

> <Gold.Chemscore.Internal.Correction.Weighted>
   9.000000E+99

> <Gold.Protein.RotatedTorsions>
[ 6907 6896 6895 6894 ] final  -29.69 input  -60.11 | X-H torsion
[ 7974 7965 7964 7962 ] final  -75.82 input  175.53 | X-H torsion
[ 8008 7997 7996 7995 ] final   24.43 input   59.86 | X-H torsion
[ 10167 10162 10161 10158 ] final  117.92 input  -65.29 | X-H torsion
[ 10718 10713 10712 10709 ] final   92.85 input   66.30 | X-H torsion
[ 10763 10752 10751 10750 ] final  -73.08 input  -60.55 | X-H torsion
[ 11005 11000 10999 10996 ] final   34.51 input  -57.11 | X-H torsion

> <Gold.Protein.ActiveResidues>
 VAL166  LYS551  ARG553  GLY616  TRP617  ASP618  TYR619  PRO620  LYS621  CYS622 
 ASP623  PHE694  ASN695  SER759  ASP760  ASP761  ALA762  ILE779  LEU786  VAL792 
 PHE793  MET794  SER795  GLU796  ALA797  LYS798  CYS799  TRP800  GLU811  SER814 

> <Gold.Protein.RotatedAtoms>
  151.1157  135.0052  159.8514 H   0  0  0  0  0  0  0  0  0  0  0  0  # atno 6907 bound_to 6896
  152.5445  134.1782  159.8635 H   0  0  0  0  0  0  0  0  0  0  0  0  # atno 6908 bound_to 6896
  151.1836  133.4665  159.2627 H   0  0  0  0  0  0  0  0  0  0  0  0  # atno 6909 bound_to 6896
  145.6210  140.9363  143.1138 H   0  0  0  0  0  0  0  0  0  0  0  0  # atno 7974 bound_to 7965
  154.9961  140.3119  155.4886 H   0  0  0  0  0  0  0  0  0  0  0  0  # atno 8008 bound_to 7997
  156.2932  140.2240  156.5009 H   0  0  0  0  0  0  0  0  0  0  0  0  # atno 8009 bound_to 7997
  154.7660  140.0455  157.1000 H   0  0  0  0  0  0  0  0  0  0  0  0  # atno 8010 bound_to 7997
  139.6146  144.7089  151.2767 H   0  0  0  0  0  0  0  0  0  0  0  0  # atno 10167 bound_to 10162
  157.6957  131.0457  150.3944 H   0  0  0  0  0  0  0  0  0  0  0  0  # atno 10718 bound_to 10713
  154.4545  135.5909  153.6214 H   0  0  0  0  0  0  0  0  0  0  0  0  # atno 10763 bound_to 10752
  152.9817  135.6029  154.3563 H   0  0  0  0  0  0  0  0  0  0  0  0  # atno 10764 bound_to 10752
  154.3428  135.2841  155.2392 H   0  0  0  0  0  0  0  0  0  0  0  0  # atno 10765 bound_to 10752
  140.2522  134.3290  155.7886 H   0  0  0  0  0  0  0  0  0  0  0  0  # atno 11005 bound_to 11000
  144.7231  139.7965  143.7375 LP  0  0  0  0  0  0  0  0  0  0  0  0  # atno 17320 bound_to 7965
  146.1431  139.4493  143.0096 LP  0  0  0  0  0  0  0  0  0  0  0  0  # atno 17321 bound_to 7965
  140.7342  143.6772  150.8032 LP  0  0  0  0  0  0  0  0  0  0  0  0  # atno 17342 bound_to 10162
  140.0372  143.5383  152.2734 LP  0  0  0  0  0  0  0  0  0  0  0  0  # atno 17343 bound_to 10162
  156.4344  130.3978  149.6739 LP  0  0  0  0  0  0  0  0  0  0  0  0  # atno 17370 bound_to 10713
  156.3944  130.7643  151.2647 LP  0  0  0  0  0  0  0  0  0  0  0  0  # atno 17371 bound_to 10713
  141.2200  133.7360  156.9054 LP  0  0  0  0  0  0  0  0  0  0  0  0  # atno 17394 bound_to 11000
  140.1547  134.9206  157.2638 LP  0  0  0  0  0  0  0  0  0  0  0  0  # atno 17395 bound_to 11000

$$$$
