AV-unprocessed.smi:1535|AV-procd|sdf|6183|dock1
  -GOLD-   22720 6343D 1   1.00000     0.00000
 Structure written by MMmdl.
 47 48  0  0  0  0  0  0  0  0  2 V2000
  152.6074  142.8208  160.3981 C   0  0  0  0  0  0  0  0  0  0  0  0
  152.0265  142.1823  159.1487 C   0  0  0  0  0  0  0  0  0  0  0  0
  152.7059  141.0962  158.5523 C   0  0  0  0  0  0  0  0  0  0  0  0
  152.1984  140.4747  157.3906 C   0  0  0  0  0  0  0  0  0  0  0  0
  152.6904  139.4133  156.6508 N   0  0  0  0  0  0  0  0  0  0  0  0
  151.7750  139.3058  155.6928 C   0  0  0  0  0  0  0  0  0  0  0  0
  150.7368  140.1635  155.7335 N   0  0  0  0  0  0  0  0  0  0  0  0
  149.6153  140.2273  154.8138 C   0  0  0  0  0  0  0  0  0  0  0  0
  149.2323  138.8430  154.2534 C   0  0  1  0  0  0  0  0  0  0  0  0
  150.1682  138.5037  153.2502 O   0  0  0  0  0  0  0  0  0  0  0  0
  149.2125  137.7233  155.3158 C   0  0  0  0  0  0  0  0  0  0  0  0
  148.8620  136.4093  154.7178 N   0  3  2  0  0  0  0  0  0  0  0  0
  147.3987  136.2294  154.5672 C   0  0  0  0  0  0  0  0  0  0  0  0
  149.4948  135.2588  155.4110 C   0  0  0  0  0  0  0  0  0  0  0  0
  149.8318  134.1035  154.4478 C   0  0  1  0  0  0  0  0  0  0  0  0
  150.5589  132.9635  155.1718 C   0  0  0  0  0  0  0  0  0  0  0  0
  148.6258  133.6053  153.7667 C   0  0  0  0  0  0  0  0  0  0  0  0
  147.6807  133.2102  153.2302 N   0  0  0  0  0  0  0  0  0  0  0  0
  150.9814  140.9714  156.8390 C   0  0  0  0  0  0  0  0  0  0  0  0
  150.2986  142.0540  157.4209 C   0  0  0  0  0  0  0  0  0  0  0  0
  150.8203  142.6647  158.5801 C   0  0  0  0  0  0  0  0  0  0  0  0
  150.0760  143.8341  159.1999 C   0  0  0  0  0  0  0  0  0  0  0  0
  153.5206  142.3163  160.7155 H   0  0  0  0  0  0  0  0  0  0  0  0
  151.8943  142.7694  161.2212 H   0  0  0  0  0  0  0  0  0  0  0  0
  152.8499  143.8675  160.2137 H   0  0  0  0  0  0  0  0  0  0  0  0
  153.6263  140.7306  158.9838 H   0  0  0  0  0  0  0  0  0  0  0  0
  151.8583  138.5522  154.9233 H   0  0  0  0  0  0  0  0  0  0  0  0
  148.7692  140.6711  155.3408 H   0  0  0  0  0  0  0  0  0  0  0  0
  149.8713  140.9088  154.0011 H   0  0  0  0  0  0  0  0  0  0  0  0
  148.2553  138.9198  153.7772 H   0  0  0  0  0  0  0  0  0  0  0  0
  149.8557  138.8265  152.4183 H   0  0  0  0  0  0  0  0  0  0  0  0
  150.1860  137.6882  155.8045 H   0  0  0  0  0  0  0  0  0  0  0  0
  148.4972  137.9416  156.1098 H   0  0  0  0  0  0  0  0  0  0  0  0
  146.9116  136.1607  155.5408 H   0  0  0  0  0  0  0  0  0  0  0  0
  147.1783  135.3174  154.0112 H   0  0  0  0  0  0  0  0  0  0  0  0
  146.9491  137.0589  154.0216 H   0  0  0  0  0  0  0  0  0  0  0  0
  150.3860  135.5968  155.9421 H   0  0  0  0  0  0  0  0  0  0  0  0
  148.8103  134.8766  156.1702 H   0  0  0  0  0  0  0  0  0  0  0  0
  150.4906  134.4633  153.6585 H   0  0  0  0  0  0  0  0  0  0  0  0
  150.8195  132.1639  154.4779 H   0  0  0  0  0  0  0  0  0  0  0  0
  149.9360  132.5324  155.9561 H   0  0  0  0  0  0  0  0  0  0  0  0
  151.4825  133.3149  155.6326 H   0  0  0  0  0  0  0  0  0  0  0  0
  149.3816  142.4139  156.9784 H   0  0  0  0  0  0  0  0  0  0  0  0
  149.1915  144.0956  158.6185 H   0  0  0  0  0  0  0  0  0  0  0  0
  150.7168  144.7149  159.2456 H   0  0  0  0  0  0  0  0  0  0  0  0
  149.7521  143.5879  160.2111 H   0  0  0  0  0  0  0  0  0  0  0  0
  149.2448  136.4126  153.7824 H   0  0  0  0  0  0  0  0  0  0  0  0
  1  2  1  0  0  0  0
  1 23  1  0  0  0  0
  1 24  1  0  0  0  0
  1 25  1  0  0  0  0
  2 21  1  0  0  0  0
  2  3  2  0  0  0  0
  3  4  1  0  0  0  0
  3 26  1  0  0  0  0
  4 19  2  0  0  0  0
  4  5  1  0  0  0  0
  5  6  2  0  0  0  0
  6  7  1  0  0  0  0
  6 27  1  0  0  0  0
  7  8  1  0  0  0  0
  7 19  1  0  0  0  0
  8  9  1  0  0  0  0
  8 28  1  0  0  0  0
  8 29  1  0  0  0  0
  9 10  1  0  0  0  0
  9 11  1  0  0  0  0
  9 30  1  0  0  0  0
 10 31  1  0  0  0  0
 11 12  1  0  0  0  0
 11 32  1  0  0  0  0
 11 33  1  0  0  0  0
 12 13  1  0  0  0  0
 12 14  1  0  0  0  0
 12 47  1  0  0  0  0
 13 34  1  0  0  0  0
 13 35  1  0  0  0  0
 13 36  1  0  0  0  0
 14 15  1  0  0  0  0
 14 37  1  0  0  0  0
 14 38  1  0  0  0  0
 15 16  1  0  0  0  0
 15 17  1  0  0  0  0
 15 39  1  0  0  0  0
 16 40  1  0  0  0  0
 16 41  1  0  0  0  0
 16 42  1  0  0  0  0
 17 18  3  0  0  0  0
 19 20  1  0  0  0  0
 20 21  2  0  0  0  0
 20 43  1  0  0  0  0
 21 22  1  0  0  0  0
 22 44  1  0  0  0  0
 22 45  1  0  0  0  0
 22 46  1  0  0  0  0
M  CHG  1  12   1
M  END
> <s_m_source_file>
AV-unprocessed.smi

> <i_m_source_file_index>
1535

> <i_lp_mmshare_version>
43012

> <i_f3d_flags>
0

> <s_epik_input>
W0NIM11jKFtjSF0xKWMoW0NIM10pW2NIXWMoYzEyKW4oW2NIXW4yKVtDSDJdW0NASF0oW09IXSlbQ0gyXU4oW0NIM10pW0NIMl1bQ0BIXShbQ0gzXSlDI04=

> <s_epik_cmdline>
J2VwaWtfcHl0aG9uJywgJy1waCcsICc3LjAnLCAnLXRuJywgJzgnLCAnLW1hJywgJzIwMCcsICctbWV0YWxfYmluZGluZycsICctaW1hZScsICc8aW5maWxlLm1hZT4nLCAnLW9tYWUnLCAnPG91dGZpbGUubWFlPic=

> <r_epik_Ionization_Penalty>
2.21058

> <r_epik_Ionization_Penalty_Charging>
2.12381

> <r_epik_Ionization_Penalty_Neutral>
0.0867699

> <r_epik_State_Penalty>
2.36208

> <r_epik_Charging_Adjusted_Penalty>
4.48589

> <i_epik_Tot_Q>
1

> <i_epik_Tot_abs_Q>
1

> <r_epik_Metal_State_Penalty>
2.2818

> <b_epik_Metal_Only>
0

> <s_lp_Force_Field>
OPLS_2005

> <r_lp_Energy>
13.4259

> <b_lp_Chiralities_Consistent>
1

> <s_lp_Variant>
AV-unprocessed.smi:1535-14

> <Gold.Version>
5.8.1

> <Gold.Id.Protein>
6NUR|6NUR_protein|mol2

> <Gold.PLP.Fitness>
49.1402

> <Gold.PLP.PLP>
-39.3886

> <Gold.PLP.part.hbond>
-4.4089

> <Gold.PLP.part.metal>
0.0000

> <Gold.PLP.part.buried>
-2.7445

> <Gold.PLP.part.nonpolar>
-32.1181

> <Gold.PLP.part.repulsive>
0.1327

> <Gold.PLP.ligand.clash>
0.0000

> <Gold.PLP.ligand.torsion>
1.1757

> <Gold.PLP.Chemscore.Hbond>
3.9500

> <Gold.PLP.Chemscore.CHOScore>
0.0000

> <Gold.PLP.Chemscore.Metal>
0.0000

> <Gold.Chemscore.Hbonds>
donor molecule, donor type, donor heavy atom, donor atom, acceptor molecule, acceptor atom, score
      L1  H    10    31       P1  7957  1.00
      L1  H    12    47       P1  7948  2.00
      P1  H  7997  8009       L1     5  0.90

> <Gold.PLP.Chemscore.Internal.Correction>
0.2531

> <Gold.Rescore>
     Score         DG    S(hbond)    S(metal)    S(lipo)     H(rot)  DE(clash)    DE(int)     intcor
     13.81     -17.01       2.37        0.00      87.75       2.60       0.49       2.71       ----

> <Gold.Chemscore.Fitness>
13.8075

> <Gold.Chemscore.DG>
-17.0057

> <Gold.Chemscore.ZeroCoef>
-5.4800

> <Gold.Chemscore.Hbond>
2.3722

> <Gold.Chemscore.Metal>
0.0000

> <Gold.Chemscore.Lipo>
87.7470

> <Gold.Chemscore.Internal_Hbond>
0.0000

> <Gold.Chemscore.DEClash>
0.4931

> <Gold.Chemscore.DEInternal>
2.7051

> <Gold.Chemscore.Rot>
2.6031

> <Gold.Chemscore.Internal.Correction>
   9.000000E+99

> <Gold.Chemscore.Hbonds>
donor molecule, donor type, donor heavy atom, donor atom, acceptor molecule, acceptor atom, score
      L1  H    10    31       P1  7957  0.44
      L1  H    12    47       P1  7948  0.89
      P1  H  7997  8009       L1     5  0.16

> <Gold.Chemscore.Hbond.Weighted>
-7.9233

> <Gold.Chemscore.Metal.Weighted>
-0.0000

> <Gold.Chemscore.Lipo.Weighted>
-10.2664

> <Gold.Chemscore.Internal_Hbond.Weighted>
0.0000

> <Gold.Chemscore.DEClash.Weighted>
0.4931

> <Gold.Chemscore.DEInternal.Weighted>
2.7051

> <Gold.Chemscore.Rot.Weighted>
6.6640

> <Gold.Chemscore.Internal.Correction.Weighted>
   9.000000E+99

> <Gold.Protein.RotatedTorsions>
[ 6907 6896 6895 6894 ] final   27.36 input  -60.11 | X-H torsion
[ 7974 7965 7964 7962 ] final   -4.76 input  175.53 | X-H torsion
[ 8008 7997 7996 7995 ] final -152.30 input   59.86 | X-H torsion
[ 10167 10162 10161 10158 ] final  168.06 input  -65.29 | X-H torsion
[ 10718 10713 10712 10709 ] final   74.62 input   66.30 | X-H torsion
[ 10763 10752 10751 10750 ] final  -49.23 input  -60.55 | X-H torsion
[ 11005 11000 10999 10996 ] final  158.55 input  -57.11 | X-H torsion

> <Gold.Protein.ActiveResidues>
 VAL166  LYS551  ARG553  GLY616  TRP617  ASP618  TYR619  PRO620  LYS621  CYS622 
 ASP623  PHE694  ASN695  SER759  ASP760  ASP761  ALA762  ILE779  LEU786  VAL792 
 PHE793  MET794  SER795  GLU796  ALA797  LYS798  CYS799  TRP800  GLU811  SER814 

> <Gold.Protein.RotatedAtoms>
  152.0011  134.9927  160.0564 H   0  0  0  0  0  0  0  0  0  0  0  0  # atno 6907 bound_to 6896
  152.1518  133.4522  159.4825 H   0  0  0  0  0  0  0  0  0  0  0  0  # atno 6908 bound_to 6896
  150.6876  134.2098  159.4398 H   0  0  0  0  0  0  0  0  0  0  0  0  # atno 6909 bound_to 6896
  146.2366  140.1920  142.8332 H   0  0  0  0  0  0  0  0  0  0  0  0  # atno 7974 bound_to 7965
  155.6529  140.0714  157.2580 H   0  0  0  0  0  0  0  0  0  0  0  0  # atno 8008 bound_to 7997
  154.4158  140.1730  156.1744 H   0  0  0  0  0  0  0  0  0  0  0  0  # atno 8009 bound_to 7997
  155.9761  140.3358  155.6623 H   0  0  0  0  0  0  0  0  0  0  0  0  # atno 8010 bound_to 7997
  139.4959  144.3855  151.9575 H   0  0  0  0  0  0  0  0  0  0  0  0  # atno 10167 bound_to 10162
  157.6600  130.9687  150.1237 H   0  0  0  0  0  0  0  0  0  0  0  0  # atno 10718 bound_to 10713
  154.0907  135.6578  153.4852 H   0  0  0  0  0  0  0  0  0  0  0  0  # atno 10763 bound_to 10752
  153.0323  135.5201  154.7384 H   0  0  0  0  0  0  0  0  0  0  0  0  # atno 10764 bound_to 10752
  154.6506  135.3001  154.9960 H   0  0  0  0  0  0  0  0  0  0  0  0  # atno 10765 bound_to 10752
  140.1876  134.8431  157.2875 H   0  0  0  0  0  0  0  0  0  0  0  0  # atno 11005 bound_to 11000
  144.9850  140.8495  143.5374 LP  0  0  0  0  0  0  0  0  0  0  0  0  # atno 17320 bound_to 7965
  145.1918  139.2297  143.5238 LP  0  0  0  0  0  0  0  0  0  0  0  0  # atno 17321 bound_to 7965
  140.3292  144.3337  150.5991 LP  0  0  0  0  0  0  0  0  0  0  0  0  # atno 17342 bound_to 10162
  140.5659  143.2186  151.7684 LP  0  0  0  0  0  0  0  0  0  0  0  0  # atno 17343 bound_to 10162
  156.2102  130.3666  149.8680 LP  0  0  0  0  0  0  0  0  0  0  0  0  # atno 17370 bound_to 10713
  156.6561  130.8763  151.3539 LP  0  0  0  0  0  0  0  0  0  0  0  0  # atno 17371 bound_to 10713
  140.2196  134.4039  155.7572 LP  0  0  0  0  0  0  0  0  0  0  0  0  # atno 17394 bound_to 11000
  141.2225  133.7159  156.8470 LP  0  0  0  0  0  0  0  0  0  0  0  0  # atno 17395 bound_to 11000

$$$$
