AV-unprocessed.smi:957|AV-procd|sdf|4265|dock4
  -GOLD-   22720 2173D 1   1.00000     0.00000
 Structure written by MMmdl.
 30 31  0  0  0  0  0  0  0  0  2 V2000
  152.4801  144.6981  158.2735 C   0  0  0  0  0  0  0  0  0  0  0  0
  152.3727  143.9162  159.5884 C   0  0  0  0  0  0  0  0  0  0  0  0
  152.5850  142.4930  159.3894 N   0  0  0  0  0  0  0  0  0  0  0  0
  153.5436  141.7213  159.9248 C   0  0  0  0  0  0  0  0  0  0  0  0
  153.5012  140.4387  159.5697 N   0  0  0  0  0  0  0  0  0  0  0  0
  152.4164  140.3497  158.7229 N   0  0  0  0  0  0  0  0  0  0  0  0
  151.9113  141.5881  158.6449 C   0  0  0  0  0  0  0  0  0  0  0  0
  150.7023  141.9296  157.8186 C   0  0  2  0  0  0  0  0  0  0  0  0
  149.4738  141.0913  158.2214 C   0  0  0  0  0  0  0  0  0  0  0  0
  148.2639  141.4547  157.3473 C   0  0  0  0  0  0  0  0  0  0  0  0
  148.6056  141.3203  155.8543 C   0  0  0  0  0  0  0  0  0  0  0  0
  149.7850  142.1446  155.5116 N   0  3  0  0  0  0  0  0  0  0  0  0
  150.9835  141.7983  156.3073 C   0  0  0  0  0  0  0  0  0  0  0  0
  152.3056  145.7611  158.4404 H   0  0  0  0  0  0  0  0  0  0  0  0
  151.7429  144.3507  157.5491 H   0  0  0  0  0  0  0  0  0  0  0  0
  153.4669  144.5913  157.8229 H   0  0  0  0  0  0  0  0  0  0  0  0
  153.0901  144.2860  160.3212 H   0  0  0  0  0  0  0  0  0  0  0  0
  151.3838  144.0617  160.0247 H   0  0  0  0  0  0  0  0  0  0  0  0
  154.2959  142.1086  160.5963 H   0  0  0  0  0  0  0  0  0  0  0  0
  150.4462  142.9726  158.0009 H   0  0  0  0  0  0  0  0  0  0  0  0
  149.6936  140.0284  158.1111 H   0  0  0  0  0  0  0  0  0  0  0  0
  149.2340  141.2522  159.2730 H   0  0  0  0  0  0  0  0  0  0  0  0
  147.4179  140.8131  157.5961 H   0  0  0  0  0  0  0  0  0  0  0  0
  147.9499  142.4772  157.5619 H   0  0  0  0  0  0  0  0  0  0  0  0
  148.8106  140.2785  155.6038 H   0  0  0  0  0  0  0  0  0  0  0  0
  147.7604  141.6356  155.2421 H   0  0  0  0  0  0  0  0  0  0  0  0
  149.9968  142.0223  154.5315 H   0  0  0  0  0  0  0  0  0  0  0  0
  151.8019  142.4571  156.0150 H   0  0  0  0  0  0  0  0  0  0  0  0
  151.2893  140.7810  156.0588 H   0  0  0  0  0  0  0  0  0  0  0  0
  149.5580  143.1146  155.6772 H   0  0  0  0  0  0  0  0  0  0  0  0
  1  2  1  0  0  0  0
  1 14  1  0  0  0  0
  1 15  1  0  0  0  0
  1 16  1  0  0  0  0
  2  3  1  0  0  0  0
  2 17  1  0  0  0  0
  2 18  1  0  0  0  0
  3  7  1  0  0  0  0
  3  4  1  0  0  0  0
  4  5  2  0  0  0  0
  4 19  1  0  0  0  0
  5  6  1  0  0  0  0
  6  7  2  0  0  0  0
  7  8  1  0  0  0  0
  8 13  1  0  0  0  0
  8  9  1  0  0  0  0
  8 20  1  0  0  0  0
  9 10  1  0  0  0  0
  9 21  1  0  0  0  0
  9 22  1  0  0  0  0
 10 11  1  0  0  0  0
 10 23  1  0  0  0  0
 10 24  1  0  0  0  0
 11 12  1  0  0  0  0
 11 25  1  0  0  0  0
 11 26  1  0  0  0  0
 12 13  1  0  0  0  0
 12 27  1  0  0  0  0
 12 30  1  0  0  0  0
 13 28  1  0  0  0  0
 13 29  1  0  0  0  0
M  CHG  1  12   1
M  END
> <s_m_source_file>
AV-unprocessed.smi

> <i_m_source_file_index>
957

> <i_lp_mmshare_version>
43012

> <i_f3d_flags>
0

> <s_epik_input>
W0NIM11bQ0gyXW4xW2NIXW5uYzFbQ0BASF0yW0NIMl1bQ0gyXVtDSDJdW05IXVtDSDJdMg==

> <s_epik_cmdline>
J2VwaWtfcHl0aG9uJywgJy1waCcsICc3LjAnLCAnLXRuJywgJzgnLCAnLW1hJywgJzIwMCcsICctbWV0YWxfYmluZGluZycsICctaW1hZScsICc8aW5maWxlLm1hZT4nLCAnLW9tYWUnLCAnPG91dGZpbGUubWFlPic=

> <r_lp_tautomer_probability>
1

> <r_epik_Ionization_Penalty>
0.000442722

> <r_epik_Ionization_Penalty_Charging>
0.000426856

> <r_epik_Ionization_Penalty_Neutral>
1.58656e-05

> <r_epik_State_Penalty>
-0

> <r_epik_Charging_Adjusted_Penalty>
0.000426856

> <i_epik_Tot_Q>
1

> <i_epik_Tot_abs_Q>
1

> <r_epik_Metal_State_Penalty>
-0

> <b_epik_Metal_Only>
0

> <s_lp_Force_Field>
OPLS_2005

> <r_lp_Energy>
16.0383

> <b_lp_Chiralities_Consistent>
1

> <s_lp_Variant>
AV-unprocessed.smi:957-1

> <Gold.Version>
5.8.1

> <Gold.Id.Protein>
6NUR|6NUR_protein|mol2

> <Gold.PLP.Fitness>
34.9002

> <Gold.PLP.PLP>
-28.9945

> <Gold.PLP.part.hbond>
-1.0000

> <Gold.PLP.part.metal>
0.0000

> <Gold.PLP.part.buried>
-4.6874

> <Gold.PLP.part.nonpolar>
-23.7508

> <Gold.PLP.part.repulsive>
0.1786

> <Gold.PLP.ligand.clash>
0.0000

> <Gold.PLP.ligand.torsion>
0.0604

> <Gold.PLP.Chemscore.Hbond>
2.0000

> <Gold.PLP.Chemscore.CHOScore>
0.0000

> <Gold.PLP.Chemscore.Metal>
0.0000

> <Gold.Chemscore.Hbonds>
donor molecule, donor type, donor heavy atom, donor atom, acceptor molecule, acceptor atom, score
      L1  H    12    30       P1  8028  2.00

> <Gold.PLP.Chemscore.Internal.Correction>
0.0267

> <Gold.Rescore>
     Score         DG    S(hbond)    S(metal)    S(lipo)     H(rot)  DE(clash)    DE(int)     intcor
     11.83     -11.91       1.00        0.00      53.94       1.26       0.01       0.06       ----

> <Gold.Chemscore.Fitness>
11.8281

> <Gold.Chemscore.DG>
-11.9052

> <Gold.Chemscore.ZeroCoef>
-5.4800

> <Gold.Chemscore.Hbond>
0.9978

> <Gold.Chemscore.Metal>
0.0000

> <Gold.Chemscore.Lipo>
53.9423

> <Gold.Chemscore.Internal_Hbond>
0.0000

> <Gold.Chemscore.DEClash>
0.0135

> <Gold.Chemscore.DEInternal>
0.0636

> <Gold.Chemscore.Rot>
1.2573

> <Gold.Chemscore.Internal.Correction>
   9.000000E+99

> <Gold.Chemscore.Hbonds>
donor molecule, donor type, donor heavy atom, donor atom, acceptor molecule, acceptor atom, score
      L1  H    12    30       P1  8028  1.00

> <Gold.Chemscore.Hbond.Weighted>
-3.3327

> <Gold.Chemscore.Metal.Weighted>
-0.0000

> <Gold.Chemscore.Lipo.Weighted>
-6.3112

> <Gold.Chemscore.Internal_Hbond.Weighted>
0.0000

> <Gold.Chemscore.DEClash.Weighted>
0.0135

> <Gold.Chemscore.DEInternal.Weighted>
0.0636

> <Gold.Chemscore.Rot.Weighted>
3.2188

> <Gold.Chemscore.Internal.Correction.Weighted>
   9.000000E+99

> <Gold.Protein.RotatedTorsions>
[ 6907 6896 6895 6894 ] final   39.12 input  -60.11 | X-H torsion
[ 7974 7965 7964 7962 ] final  142.89 input  175.53 | X-H torsion
[ 8008 7997 7996 7995 ] final   19.32 input   59.86 | X-H torsion
[ 10167 10162 10161 10158 ] final -144.73 input  -65.29 | X-H torsion
[ 10718 10713 10712 10709 ] final -122.28 input   66.30 | X-H torsion
[ 10763 10752 10751 10750 ] final  -87.50 input  -60.55 | X-H torsion
[ 11005 11000 10999 10996 ] final  -71.68 input  -57.11 | X-H torsion

> <Gold.Protein.ActiveResidues>
 VAL166  LYS551  ARG553  GLY616  TRP617  ASP618  TYR619  PRO620  LYS621  CYS622 
 ASP623  PHE694  ASN695  SER759  ASP760  ASP761  ALA762  ILE779  LEU786  VAL792 
 PHE793  MET794  SER795  GLU796  ALA797  LYS798  CYS799  TRP800  GLU811  SER814 

> <Gold.Protein.RotatedAtoms>
  152.1654  134.8878  160.0538 H   0  0  0  0  0  0  0  0  0  0  0  0  # atno 6907 bound_to 6896
  151.9858  133.3768  159.4133 H   0  0  0  0  0  0  0  0  0  0  0  0  # atno 6908 bound_to 6896
  150.6893  134.3912  159.5121 H   0  0  0  0  0  0  0  0  0  0  0  0  # atno 6909 bound_to 6896
  144.8968  139.5479  143.5772 H   0  0  0  0  0  0  0  0  0  0  0  0  # atno 7974 bound_to 7965
  154.9190  140.3024  155.5226 H   0  0  0  0  0  0  0  0  0  0  0  0  # atno 8008 bound_to 7997
  156.3011  140.2375  156.4174 H   0  0  0  0  0  0  0  0  0  0  0  0  # atno 8009 bound_to 7997
  154.8349  140.0416  157.1491 H   0  0  0  0  0  0  0  0  0  0  0  0  # atno 8010 bound_to 7997
  139.7872  143.8017  152.2646 H   0  0  0  0  0  0  0  0  0  0  0  0  # atno 10167 bound_to 10162
  156.1405  130.6462  150.9764 H   0  0  0  0  0  0  0  0  0  0  0  0  # atno 10718 bound_to 10713
  154.6343  135.5411  153.7716 H   0  0  0  0  0  0  0  0  0  0  0  0  # atno 10763 bound_to 10752
  153.0300  135.6443  154.1254 H   0  0  0  0  0  0  0  0  0  0  0  0  # atno 10764 bound_to 10752
  154.1182  135.2922  155.3194 H   0  0  0  0  0  0  0  0  0  0  0  0  # atno 10765 bound_to 10752
  141.1596  133.6824  156.6943 H   0  0  0  0  0  0  0  0  0  0  0  0  # atno 11005 bound_to 11000
  146.3086  139.7666  142.9037 LP  0  0  0  0  0  0  0  0  0  0  0  0  # atno 17320 bound_to 7965
  145.3685  141.0338  143.3244 LP  0  0  0  0  0  0  0  0  0  0  0  0  # atno 17321 bound_to 7965
  139.8098  144.7340  150.9713 LP  0  0  0  0  0  0  0  0  0  0  0  0  # atno 17342 bound_to 10162
  140.7820  143.4262  151.0764 LP  0  0  0  0  0  0  0  0  0  0  0  0  # atno 17343 bound_to 10162
  157.6572  131.0887  150.7921 LP  0  0  0  0  0  0  0  0  0  0  0  0  # atno 17370 bound_to 10713
  156.7997  130.4917  149.5371 LP  0  0  0  0  0  0  0  0  0  0  0  0  # atno 17371 bound_to 10713
  140.3007  134.8166  157.4095 LP  0  0  0  0  0  0  0  0  0  0  0  0  # atno 17394 bound_to 11000
  140.1265  134.5152  155.8141 LP  0  0  0  0  0  0  0  0  0  0  0  0  # atno 17395 bound_to 11000

$$$$
