AV-unprocessed.smi:229|AV-procd|sdf|1751|dock9
  -GOLD-   2262020273D 1   1.00000     0.00000
 Structure written by MMmdl.
 58 62  0  0  0  0  0  0  0  0  1 V2000
  147.5835  132.3466  155.2474 C   0  0  0  0  0  0  0  0  0  0  0  0
  146.3647  132.0217  154.3733 C   0  0  0  0  0  0  0  0  0  0  0  0
  146.2712  132.8756  153.0977 C   0  0  2  0  0  0  0  0  0  0  0  0
  146.2105  134.3869  153.3894 C   0  0  0  0  0  0  0  0  0  0  0  0
  145.9964  135.1256  152.1516 N   0  0  0  0  0  0  0  0  0  0  0  0
  146.2505  136.4568  152.2235 C   0  0  0  0  0  0  0  0  0  0  0  0
  146.1290  137.2331  151.1131 N   0  0  0  0  0  0  0  0  0  0  0  0
  146.3691  138.5459  151.1764 C   0  0  0  0  0  0  0  0  0  0  0  0
  146.7398  139.2766  152.2292 N   0  0  0  0  0  0  0  0  0  0  0  0
  146.8733  138.5029  153.3442 C   0  0  0  0  0  0  0  0  0  0  0  0
  146.6508  137.0992  153.4294 C   0  0  0  0  0  0  0  0  0  0  0  0
  146.8992  136.6600  154.7252 N   0  0  0  0  0  0  0  0  0  0  0  0
  147.2365  137.7432  155.3708 C   0  0  0  0  0  0  0  0  0  0  0  0
  147.2456  138.8948  154.6177 N   0  0  0  0  0  0  0  0  0  0  0  0
  147.5775  140.2310  155.0798 C   0  0  0  0  0  0  0  0  0  0  0  0
  149.0343  140.6197  154.7485 C   0  0  2  0  0  0  0  0  0  0  0  0
  149.1874  140.8555  153.3626 O   0  0  0  0  0  0  0  0  0  0  0  0
  150.0878  139.5837  155.1915 C   0  0  1  0  0  0  0  0  0  0  0  0
  150.0664  138.2815  154.3904 C   0  0  0  0  0  0  0  0  0  0  0  0
  151.4559  137.7461  154.6500 C   0  0  0  0  0  0  0  0  0  0  0  0
  152.2935  139.0221  154.6407 C   0  0  0  0  0  0  0  0  0  0  0  0
  151.4162  140.0764  155.0306 O   0  0  0  0  0  0  0  0  0  0  0  0
  144.8043  134.6902  151.4312 C   0  0  0  0  0  0  0  0  0  0  0  0
  144.8455  133.1666  151.1749 C   0  0  1  0  0  0  0  0  0  0  0  0
  143.5168  132.6709  150.6149 C   0  0  0  0  0  0  0  0  0  0  0  0
  143.7430  132.6991  149.1110 C   0  0  0  0  0  0  0  0  0  0  0  0
  145.0689  132.2177  148.9952 O   0  0  0  0  0  0  0  0  0  0  0  0
  145.8396  132.7646  150.0600 C   0  0  0  0  0  0  0  0  0  0  0  0
  145.0825  132.4823  152.4089 O   0  0  0  0  0  0  0  0  0  0  0  0
  147.6364  131.6704  156.1008 H   0  0  0  0  0  0  0  0  0  0  0  0
  147.5379  133.3629  155.6382 H   0  0  0  0  0  0  0  0  0  0  0  0
  148.5115  132.2434  154.6843 H   0  0  0  0  0  0  0  0  0  0  0  0
  146.4165  130.9702  154.0890 H   0  0  0  0  0  0  0  0  0  0  0  0
  145.4524  132.1316  154.9606 H   0  0  0  0  0  0  0  0  0  0  0  0
  147.1412  132.6629  152.4756 H   0  0  0  0  0  0  0  0  0  0  0  0
  145.3915  134.6047  154.0763 H   0  0  0  0  0  0  0  0  0  0  0  0
  147.1276  134.7057  153.8820 H   0  0  0  0  0  0  0  0  0  0  0  0
  146.2462  139.0885  150.2507 H   0  0  0  0  0  0  0  0  0  0  0  0
  147.4891  137.7327  156.4212 H   0  0  0  0  0  0  0  0  0  0  0  0
  146.8791  140.9298  154.6195 H   0  0  0  0  0  0  0  0  0  0  0  0
  147.4006  140.2791  156.1548 H   0  0  0  0  0  0  0  0  0  0  0  0
  149.2647  141.5672  155.2377 H   0  0  0  0  0  0  0  0  0  0  0  0
  149.5874  140.0927  152.9727 H   0  0  0  0  0  0  0  0  0  0  0  0
  149.9468  139.3300  156.2439 H   0  0  0  0  0  0  0  0  0  0  0  0
  149.2794  137.5984  154.7111 H   0  0  0  0  0  0  0  0  0  0  0  0
  149.9374  138.4747  153.3252 H   0  0  0  0  0  0  0  0  0  0  0  0
  151.4968  137.2773  155.6342 H   0  0  0  0  0  0  0  0  0  0  0  0
  151.7819  137.0156  153.9090 H   0  0  0  0  0  0  0  0  0  0  0  0
  153.1534  138.9543  155.3072 H   0  0  0  0  0  0  0  0  0  0  0  0
  152.6600  139.2327  153.6354 H   0  0  0  0  0  0  0  0  0  0  0  0
  143.9267  134.9422  152.0288 H   0  0  0  0  0  0  0  0  0  0  0  0
  144.7141  135.2270  150.4857 H   0  0  0  0  0  0  0  0  0  0  0  0
  143.3379  131.6407  150.9268 H   0  0  0  0  0  0  0  0  0  0  0  0
  142.6579  133.2649  150.9290 H   0  0  0  0  0  0  0  0  0  0  0  0
  143.0374  132.0736  148.5641 H   0  0  0  0  0  0  0  0  0  0  0  0
  143.6817  133.7166  148.7213 H   0  0  0  0  0  0  0  0  0  0  0  0
  146.4029  133.6249  149.6959 H   0  0  0  0  0  0  0  0  0  0  0  0
  146.5584  132.0131  150.3859 H   0  0  0  0  0  0  0  0  0  0  0  0
  1  2  1  0  0  0  0
  1 30  1  0  0  0  0
  1 31  1  0  0  0  0
  1 32  1  0  0  0  0
  2  3  1  0  0  0  0
  2 33  1  0  0  0  0
  2 34  1  0  0  0  0
  3 29  1  0  0  0  0
  3  4  1  0  0  0  0
  3 35  1  0  0  0  0
  4  5  1  0  0  0  0
  4 36  1  0  0  0  0
  4 37  1  0  0  0  0
  5  6  1  0  0  0  0
  5 23  1  0  0  0  0
  6 11  1  0  0  0  0
  6  7  2  0  0  0  0
  7  8  1  0  0  0  0
  8  9  2  0  0  0  0
  8 38  1  0  0  0  0
  9 10  1  0  0  0  0
 10 14  1  0  0  0  0
 10 11  2  0  0  0  0
 11 12  1  0  0  0  0
 12 13  2  0  0  0  0
 13 14  1  0  0  0  0
 13 39  1  0  0  0  0
 14 15  1  0  0  0  0
 15 16  1  0  0  0  0
 15 40  1  0  0  0  0
 15 41  1  0  0  0  0
 16 17  1  0  0  0  0
 16 18  1  0  0  0  0
 16 42  1  0  0  0  0
 17 43  1  0  0  0  0
 18 22  1  0  0  0  0
 18 19  1  0  0  0  0
 18 44  1  0  0  0  0
 19 20  1  0  0  0  0
 19 45  1  0  0  0  0
 19 46  1  0  0  0  0
 20 21  1  0  0  0  0
 20 47  1  0  0  0  0
 20 48  1  0  0  0  0
 21 22  1  0  0  0  0
 21 49  1  0  0  0  0
 21 50  1  0  0  0  0
 23 24  1  0  0  0  0
 23 51  1  0  0  0  0
 23 52  1  0  0  0  0
 24 28  1  0  0  0  0
 24 25  1  0  0  0  0
 24 29  1  0  0  0  0
 25 26  1  0  0  0  0
 25 53  1  0  0  0  0
 25 54  1  0  0  0  0
 26 27  1  0  0  0  0
 26 55  1  0  0  0  0
 26 56  1  0  0  0  0
 27 28  1  0  0  0  0
 28 57  1  0  0  0  0
 28 58  1  0  0  0  0
M  END
> <s_m_source_file>
AV-unprocessed.smi

> <i_m_source_file_index>
229

> <i_lp_mmshare_version>
43012

> <i_f3d_flags>
0

> <s_epik_input>
W0NIMl0xT1tDSDJdW0NIMl1bQ0BdMTJbQ0gyXU4oW0NIMl1bQ0BIXShPMilbQ0gyXVtDSDNdKWMobltjSF1uMyljKGMzNCluW2NIXW40W0NIMl1bQ0BIXShbT0hdKVtDQEBIXTVbQ0gyXVtDSDJdW0NIMl1PNQ==

> <s_epik_cmdline>
J2VwaWtfcHl0aG9uJywgJy1waCcsICc3LjAnLCAnLXRuJywgJzgnLCAnLW1hJywgJzIwMCcsICctbWV0YWxfYmluZGluZycsICctaW1hZScsICc8aW5maWxlLm1hZT4nLCAnLW9tYWUnLCAnPG91dGZpbGUubWFlPic=

> <r_lp_tautomer_probability>
1

> <r_epik_Ionization_Penalty>
0.00318402

> <r_epik_Ionization_Penalty_Charging>
0

> <r_epik_Ionization_Penalty_Neutral>
0.00318402

> <r_epik_State_Penalty>
0.00215642

> <r_epik_Charging_Adjusted_Penalty>
0.00215642

> <i_epik_Tot_Q>
0

> <i_epik_Tot_abs_Q>
0

> <r_epik_Metal_State_Penalty>
-0

> <b_epik_Metal_Only>
0

> <s_lp_Force_Field>
OPLS_2005

> <r_lp_Energy>
54.9877

> <b_lp_Chiralities_Consistent>
1

> <s_lp_Variant>
AV-unprocessed.smi:229-5

> <Gold.Version>
5.8.1

> <Gold.Id.Protein>
6NUR|6NUR_protein|mol2

> <Gold.PLP.Fitness>
42.4034

> <Gold.PLP.PLP>
-37.3651

> <Gold.PLP.part.hbond>
-3.5427

> <Gold.PLP.part.metal>
0.0000

> <Gold.PLP.part.buried>
-0.6386

> <Gold.PLP.part.nonpolar>
-36.3214

> <Gold.PLP.part.repulsive>
3.8403

> <Gold.PLP.ligand.clash>
0.9722

> <Gold.PLP.ligand.torsion>
0.6149

> <Gold.PLP.Chemscore.Hbond>
1.9220

> <Gold.PLP.Chemscore.CHOScore>
0.3726

> <Gold.PLP.Chemscore.Metal>
0.0000

> <Gold.Chemscore.Hbonds>
donor molecule, donor type, donor heavy atom, donor atom, acceptor molecule, acceptor atom, score
      L1  H    17    43       P1  7957  0.32
      P1  H  7989  7998       L1    22  0.55
      P1  H  8011  8017       L1    17  1.00
      L1  C     8    38       P1 10171  0.41

> <Gold.PLP.Chemscore.Internal.Correction>
0.3566

> <Gold.Rescore>
     Score         DG    S(hbond)    S(metal)    S(lipo)     H(rot)  DE(clash)    DE(int)     intcor
      6.71     -14.06       1.12        0.00      95.14       2.46       4.04       3.31       ----

> <Gold.Chemscore.Fitness>
6.7051

> <Gold.Chemscore.DG>
-14.0610

> <Gold.Chemscore.ZeroCoef>
-5.4800

> <Gold.Chemscore.Hbond>
1.1211

> <Gold.Chemscore.Metal>
0.0000

> <Gold.Chemscore.Lipo>
95.1437

> <Gold.Chemscore.Internal_Hbond>
0.0000

> <Gold.Chemscore.DEClash>
4.0446

> <Gold.Chemscore.DEInternal>
3.3112

> <Gold.Chemscore.Rot>
2.4591

> <Gold.Chemscore.Internal.Correction>
   9.000000E+99

> <Gold.Chemscore.Hbonds>
donor molecule, donor type, donor heavy atom, donor atom, acceptor molecule, acceptor atom, score
      L1  H    17    43       P1  7957  0.32
      P1  H  7989  7998       L1    22  0.03
      P1  H  8011  8017       L1    17  0.59

> <Gold.Chemscore.Hbond.Weighted>
-3.7445

> <Gold.Chemscore.Metal.Weighted>
-0.0000

> <Gold.Chemscore.Lipo.Weighted>
-11.1318

> <Gold.Chemscore.Internal_Hbond.Weighted>
0.0000

> <Gold.Chemscore.DEClash.Weighted>
4.0446

> <Gold.Chemscore.DEInternal.Weighted>
3.3112

> <Gold.Chemscore.Rot.Weighted>
6.2953

> <Gold.Chemscore.Internal.Correction.Weighted>
   9.000000E+99

> <Gold.Protein.RotatedTorsions>
[ 6907 6896 6895 6894 ] final   33.29 input  -60.11 | X-H torsion
[ 7974 7965 7964 7962 ] final  -29.90 input  175.53 | X-H torsion
[ 8008 7997 7996 7995 ] final -149.65 input   59.86 | X-H torsion
[ 10167 10162 10161 10158 ] final  -89.87 input  -65.29 | X-H torsion
[ 10718 10713 10712 10709 ] final -163.24 input   66.30 | X-H torsion
[ 10763 10752 10751 10750 ] final  -20.45 input  -60.55 | X-H torsion
[ 11005 11000 10999 10996 ] final -110.33 input  -57.11 | X-H torsion

> <Gold.Protein.ActiveResidues>
 VAL166  LYS551  ARG553  GLY616  TRP617  ASP618  TYR619  PRO620  LYS621  CYS622 
 ASP623  PHE694  ASN695  SER759  ASP760  ASP761  ALA762  ILE779  LEU786  VAL792 
 PHE793  MET794  SER795  GLU796  ALA797  LYS798  CYS799  TRP800  GLU811  SER814 

> <Gold.Protein.RotatedAtoms>
  152.0865  134.9436  160.0572 H   0  0  0  0  0  0  0  0  0  0  0  0  # atno 6907 bound_to 6896
  152.0704  133.4099  159.4465 H   0  0  0  0  0  0  0  0  0  0  0  0  # atno 6908 bound_to 6896
  150.6836  134.3018  159.4753 H   0  0  0  0  0  0  0  0  0  0  0  0  # atno 6909 bound_to 6896
  146.1183  140.5471  142.8747 H   0  0  0  0  0  0  0  0  0  0  0  0  # atno 7974 bound_to 7965
  155.6110  140.0671  157.2706 H   0  0  0  0  0  0  0  0  0  0  0  0  # atno 8008 bound_to 7997
  154.4253  140.1801  156.1320 H   0  0  0  0  0  0  0  0  0  0  0  0  # atno 8009 bound_to 7997
  156.0085  140.3329  155.6920 H   0  0  0  0  0  0  0  0  0  0  0  0  # atno 8010 bound_to 7997
  140.3605  143.2844  151.9620 H   0  0  0  0  0  0  0  0  0  0  0  0  # atno 10167 bound_to 10162
  156.6218  130.8893  151.2959 H   0  0  0  0  0  0  0  0  0  0  0  0  # atno 10718 bound_to 10713
  153.6206  135.6993  153.5312 H   0  0  0  0  0  0  0  0  0  0  0  0  # atno 10763 bound_to 10752
  153.2941  135.4148  155.1193 H   0  0  0  0  0  0  0  0  0  0  0  0  # atno 10764 bound_to 10752
  154.8544  135.3632  154.5746 H   0  0  0  0  0  0  0  0  0  0  0  0  # atno 10765 bound_to 10752
  141.0798  133.9240  157.2313 H   0  0  0  0  0  0  0  0  0  0  0  0  # atno 11005 bound_to 11000
  144.7573  140.5338  143.6760 LP  0  0  0  0  0  0  0  0  0  0  0  0  # atno 17320 bound_to 7965
  145.5520  139.1477  143.3388 LP  0  0  0  0  0  0  0  0  0  0  0  0  # atno 17321 bound_to 7965
  139.4815  144.5997  151.7628 LP  0  0  0  0  0  0  0  0  0  0  0  0  # atno 17342 bound_to 10162
  140.5131  144.0994  150.6001 LP  0  0  0  0  0  0  0  0  0  0  0  0  # atno 17343 bound_to 10162
  157.7225  130.9578  150.1498 LP  0  0  0  0  0  0  0  0  0  0  0  0  # atno 17370 bound_to 10713
  156.2305  130.3681  149.8450 LP  0  0  0  0  0  0  0  0  0  0  0  0  # atno 17371 bound_to 10713
  139.9611  135.0154  156.9263 LP  0  0  0  0  0  0  0  0  0  0  0  0  # atno 17394 bound_to 11000
  140.5494  134.0642  155.7364 LP  0  0  0  0  0  0  0  0  0  0  0  0  # atno 17395 bound_to 11000

$$$$
