#       Name:                AV-unprocessed.smi:1983
#       Creating user name   scv26
#       Creation time:       Fri Mar 27 10:22:52 2020


#       File generated by GOLD software.
#

@<TRIPOS>MOLECULE
AV-unprocessed.smi:1983
    57    58     1
SMALL
NO_CHARGES


@<TRIPOS>ATOM
      1 ****        -5.6463   0.1496  -4.2559 C.3            1 S1                 0.0000
      2 ****        -4.5183   0.8141  -3.4520 C.3            1 S1                 0.0000
      3 ****        -4.8950   1.0145  -1.9706 C.3            1 S1                 0.0000
      4 ****        -5.8967   2.0011  -1.8440 O.3            1 S1                 0.0000
      5 ****        -3.3110   0.0000  -3.5626 N.am           1 S1                 0.0000
      6 ****        -2.0560   0.4516  -3.4277 C.2            1 S1                 0.0000
      7 ****        -1.7645   1.6236  -3.1892 O.2            1 S1                 0.0000
      8 ****        -1.1562  -0.5308  -3.5737 N.am           1 S1                 0.0000
      9 ****         0.2890  -0.3613  -3.4600 C.3            1 S1                 0.0000
     10 ****         0.8094  -0.3016  -2.0299 C.ar           1 S1                 0.0000
     11 ****         2.0002   0.3922  -1.7417 C.ar           1 S1                 0.0000
     12 ****         2.4726   0.4264  -0.4159 C.ar           1 S1                 0.0000
     13 ****         1.7384  -0.2405   0.5975 C.ar           1 S1                 0.0000
     14 ****         2.1606  -0.2575   1.9457 N.3            1 S1                 0.0000
     15 ****         3.4815   0.2663   2.2753 C.3            1 S1                 0.0000
     16 ****         3.9106  -0.1977   3.6783 C.3            1 S1                 0.0000
     17 ****         5.2314   0.4463   4.1128 C.3            1 S1                 0.0000
     18 ****         2.9088   0.1598   4.6290 O.3            1 S1                 0.0000
     19 ****         1.6123  -0.3783   4.3599 C.3            1 S1                 0.0000
     20 ****         1.5479  -1.8968   4.6039 C.3            1 S1                 0.0000
     21 ****         1.1417   0.0363   2.9519 C.3            1 S1                 0.0000
     22 ****         0.5957  -0.9110   0.3135 N.ar           1 S1                 0.0000
     23 ****         0.1485  -0.9410  -0.9593 C.ar           1 S1                 0.0000
     24 ****        -6.5537   0.7539  -4.2374 H              1 S1                 0.0000
     25 ****        -5.8944  -0.8340  -3.8552 H              1 S1                 0.0000
     26 ****        -5.3613   0.0219  -5.3006 H              1 S1                 0.0000
     27 ****        -4.3147   1.7892  -3.8995 H              1 S1                 0.0000
     28 ****        -5.2410   0.0819  -1.5237 H              1 S1                 0.0000
     29 ****        -4.0315   1.3463  -1.3932 H              1 S1                 0.0000
     30 ****        -6.0884   2.1187  -0.9262 H              1 S1                 0.0000
     31 ****        -3.4435  -0.9820  -3.7549 H              1 S1                 0.0000
     32 ****        -1.4930  -1.4623  -3.7691 H              1 S1                 0.0000
     33 ****         0.7679  -1.2031  -3.9602 H              1 S1                 0.0000
     34 ****         0.5977   0.5347  -4.0018 H              1 S1                 0.0000
     35 ****         2.5473   0.8956  -2.5253 H              1 S1                 0.0000
     36 ****         3.3813   0.9698  -0.2055 H              1 S1                 0.0000
     37 ****         4.2188  -0.0809   1.5508 H              1 S1                 0.0000
     38 ****         3.4563   1.3559   2.2260 H              1 S1                 0.0000
     39 ****         4.0491  -1.2791   3.6791 H              1 S1                 0.0000
     40 ****         6.0367   0.1922   3.4232 H              1 S1                 0.0000
     41 ****         5.5239   0.1035   5.1055 H              1 S1                 0.0000
     42 ****         5.1488   1.5330   4.1463 H              1 S1                 0.0000
     43 ****         0.9379   0.0829   5.0818 H              1 S1                 0.0000
     44 ****         0.5211  -2.2554   4.5293 H              1 S1                 0.0000
     45 ****         1.9123  -2.1465   5.6004 H              1 S1                 0.0000
     46 ****         2.1377  -2.4581   3.8795 H              1 S1                 0.0000
     47 ****         0.9477   1.1094   2.9329 H              1 S1                 0.0000
     48 ****         0.1945  -0.4561   2.7320 H              1 S1                 0.0000
     49 ****        -0.7621  -1.4987  -1.1204 H              1 S1                 0.0000
     50 ****        -6.7222   1.7073  -2.3259 LP             1 S1                 0.0000
     51 ****        -5.5722   2.8630  -2.2338 LP             1 S1                 0.0000
     52 ****        -2.4869   2.3070  -3.0837 LP             1 S1                 0.0000
     53 ****        -0.8053   1.8923  -3.1009 LP             1 S1                 0.0000
     54 ****         2.3161  -1.2429   2.0145 LP             1 S1                 0.0000
     55 ****         2.8353   1.1570   4.6443 LP             1 S1                 0.0000
     56 ****         3.2014  -0.1667   5.5278 LP             1 S1                 0.0000
     57 ****         0.0897  -1.3781   1.0386 LP             1 S1                 0.0000
@<TRIPOS>BOND
    1    1    2 1     
    2    1   24 1     
    3    1   25 1     
    4    1   26 1     
    5    2    3 1     
    6    2    5 1     
    7    2   27 1     
    8    3    4 1     
    9    3   28 1     
   10    3   29 1     
   11    4   30 1     
   12    5    6 am    
   13    5   31 1     
   14    6    7 2     
   15    6    8 am    
   16    8    9 1     
   17    8   32 1     
   18    9   10 1     
   19    9   33 1     
   20    9   34 1     
   21   10   23 ar    
   22   10   11 ar    
   23   11   12 ar    
   24   11   35 1     
   25   12   13 ar    
   26   12   36 1     
   27   13   14 1     
   28   13   22 ar    
   29   14   21 1     
   30   14   15 1     
   31   15   16 1     
   32   15   37 1     
   33   15   38 1     
   34   16   17 1     
   35   16   18 1     
   36   16   39 1     
   37   17   40 1     
   38   17   41 1     
   39   17   42 1     
   40   18   19 1     
   41   19   20 1     
   42   19   21 1     
   43   19   43 1     
   44   20   44 1     
   45   20   45 1     
   46   20   46 1     
   47   21   47 1     
   48   21   48 1     
   49   22   23 ar    
   50   23   49 1     
   51    4   50 1     
   52    4   51 1     
   53    7   52 1     
   54    7   53 1     
   55   14   54 1     
   56   18   55 1     
   57   18   56 1     
   58   22   57 1     
@<TRIPOS>SUBSTRUCTURE
      1 S1             1
@<TRIPOS>SET
LONE_PAIRS      STATIC     ATOMS    <user>   **** ""
8 50 51 52 53 54 55 56 57
DONOR_HYDROGENS      STATIC     ATOMS    <user>   **** ""
3 30 31 32
ATOM$BLUE        STATIC     ATOMS    COLORGROUP SYSTEM
8 50 51 52 53 54 55 56 57
ATOM$RED        STATIC     ATOMS    COLORGROUP SYSTEM
3 30 31 32
