AV-unprocessed.smi:199|AV-procd|sdf|1568|dock2
  -GOLD-   2262019443D 1   1.00000     0.00000
 Structure written by MMmdl.
 51 55  0  0  0  0  0  0  0  0  1 V2000
  146.5401  139.6713  152.1214 C   0  0  0  0  0  0  0  0  0  0  0  0
  147.1503  138.5624  152.9928 C   0  0  2  0  0  0  0  0  0  0  0  0
  146.0876  137.9271  153.6985 O   0  0  0  0  0  0  0  0  0  0  0  0
  146.5894  137.4329  154.9275 C   0  0  0  0  0  0  0  0  0  0  0  0
  147.5068  138.5588  155.3787 C   0  0  0  0  0  0  0  0  0  0  0  0
  148.1730  139.0036  154.0788 C   0  0  1  0  0  0  0  0  0  0  0  0
  149.3451  138.2243  153.9035 O   0  0  0  0  0  0  0  0  0  0  0  0
  148.5861  140.4995  154.0734 C   0  0  0  0  0  0  0  0  0  0  0  0
  149.2849  140.9110  155.2823 N   0  0  0  0  0  0  0  0  0  0  0  0
  148.8834  141.8756  156.1777 C   0  0  0  0  0  0  0  0  0  0  0  0
  149.6909  142.0704  157.1832 N   0  0  0  0  0  0  0  0  0  0  0  0
  150.7241  141.1632  156.9783 C   0  0  0  0  0  0  0  0  0  0  0  0
  151.9255  140.8417  157.6758 C   0  0  0  0  0  0  0  0  0  0  0  0
  152.3268  141.4536  158.8242 N   0  0  0  0  0  0  0  0  0  0  0  0
  153.5017  142.3133  158.8382 C   0  0  1  0  0  0  0  0  0  0  0  0
  153.0291  143.5988  158.1321 C   0  0  0  0  0  0  0  0  0  0  0  0
  151.5672  143.6744  158.5974 C   0  0  0  0  0  0  0  0  0  0  0  0
  151.4674  142.4193  159.4962 C   0  0  2  0  0  0  0  0  0  0  0  0
  152.2220  142.6147  160.8289 C   0  0  2  0  0  0  0  0  0  0  0  0
  151.8116  143.8326  161.6772 C   0  0  0  0  0  0  0  0  0  0  0  0
  150.4148  143.8271  161.8816 O   0  0  0  0  0  0  0  0  0  0  0  0
  153.6822  142.6096  160.3384 C   0  0  0  0  0  0  0  0  0  0  0  0
  152.7238  139.8863  157.1285 N   0  0  0  0  0  0  0  0  0  0  0  0
  152.3675  139.2666  156.0006 C   0  0  0  0  0  0  0  0  0  0  0  0
  151.2769  139.4526  155.2568 N   0  0  0  0  0  0  0  0  0  0  0  0
  150.4801  140.4255  155.7835 C   0  0  0  0  0  0  0  0  0  0  0  0
  147.3054  140.1944  151.5480 H   0  0  0  0  0  0  0  0  0  0  0  0
  146.0013  140.4035  152.7232 H   0  0  0  0  0  0  0  0  0  0  0  0
  145.8304  139.2508  151.4085 H   0  0  0  0  0  0  0  0  0  0  0  0
  147.5958  137.8155  152.3327 H   0  0  0  0  0  0  0  0  0  0  0  0
  145.7880  137.2292  155.6379 H   0  0  0  0  0  0  0  0  0  0  0  0
  147.1482  136.5114  154.7578 H   0  0  0  0  0  0  0  0  0  0  0  0
  146.8911  139.3646  155.7799 H   0  0  0  0  0  0  0  0  0  0  0  0
  148.2092  138.2585  156.1577 H   0  0  0  0  0  0  0  0  0  0  0  0
  149.2714  137.7510  153.0891 H   0  0  0  0  0  0  0  0  0  0  0  0
  149.2313  140.7139  153.2204 H   0  0  0  0  0  0  0  0  0  0  0  0
  147.7090  141.1378  153.9646 H   0  0  0  0  0  0  0  0  0  0  0  0
  147.9709  142.4407  156.0554 H   0  0  0  0  0  0  0  0  0  0  0  0
  154.4043  141.8922  158.3995 H   0  0  0  0  0  0  0  0  0  0  0  0
  153.6117  144.4755  158.4173 H   0  0  0  0  0  0  0  0  0  0  0  0
  153.0835  143.4933  157.0479 H   0  0  0  0  0  0  0  0  0  0  0  0
  151.3262  144.6045  159.1095 H   0  0  0  0  0  0  0  0  0  0  0  0
  150.8951  143.5937  157.7422 H   0  0  0  0  0  0  0  0  0  0  0  0
  150.4420  142.0818  159.6517 H   0  0  0  0  0  0  0  0  0  0  0  0
  152.0552  141.7158  161.4262 H   0  0  0  0  0  0  0  0  0  0  0  0
  152.3050  143.8340  162.6489 H   0  0  0  0  0  0  0  0  0  0  0  0
  152.0840  144.7574  161.1679 H   0  0  0  0  0  0  0  0  0  0  0  0
  150.0902  144.7071  161.7661 H   0  0  0  0  0  0  0  0  0  0  0  0
  154.2461  141.8164  160.8306 H   0  0  0  0  0  0  0  0  0  0  0  0
  154.2038  143.5509  160.5160 H   0  0  0  0  0  0  0  0  0  0  0  0
  153.0562  138.5160  155.6421 H   0  0  0  0  0  0  0  0  0  0  0  0
  1  2  1  0  0  0  0
  1 27  1  0  0  0  0
  1 28  1  0  0  0  0
  1 29  1  0  0  0  0
  2  6  1  0  0  0  0
  2  3  1  0  0  0  0
  2 30  1  0  0  0  0
  3  4  1  0  0  0  0
  4  5  1  0  0  0  0
  4 31  1  0  0  0  0
  4 32  1  0  0  0  0
  5  6  1  0  0  0  0
  5 33  1  0  0  0  0
  5 34  1  0  0  0  0
  6  7  1  0  0  0  0
  6  8  1  0  0  0  0
  7 35  1  0  0  0  0
  8  9  1  0  0  0  0
  8 36  1  0  0  0  0
  8 37  1  0  0  0  0
  9 26  1  0  0  0  0
  9 10  1  0  0  0  0
 10 11  2  0  0  0  0
 10 38  1  0  0  0  0
 11 12  1  0  0  0  0
 12 26  2  0  0  0  0
 12 13  1  0  0  0  0
 13 14  1  0  0  0  0
 13 23  2  0  0  0  0
 14 18  1  0  0  0  0
 14 15  1  0  0  0  0
 15 22  1  0  0  0  0
 15 16  1  0  0  0  0
 15 39  1  0  0  0  0
 16 17  1  0  0  0  0
 16 40  1  0  0  0  0
 16 41  1  0  0  0  0
 17 18  1  0  0  0  0
 17 42  1  0  0  0  0
 17 43  1  0  0  0  0
 18 19  1  0  0  0  0
 18 44  1  0  0  0  0
 19 20  1  0  0  0  0
 19 22  1  0  0  0  0
 19 45  1  0  0  0  0
 20 21  1  0  0  0  0
 20 46  1  0  0  0  0
 20 47  1  0  0  0  0
 21 48  1  0  0  0  0
 22 49  1  0  0  0  0
 22 50  1  0  0  0  0
 23 24  1  0  0  0  0
 24 25  2  0  0  0  0
 24 51  1  0  0  0  0
 25 26  1  0  0  0  0
M  END
> <s_m_source_file>
AV-unprocessed.smi

> <i_m_source_file_index>
199

> <i_lp_mmshare_version>
43012

> <i_f3d_flags>
0

> <s_epik_input>
W0NIMl0xW0NIMl1PW0NAQEhdKFtDSDNdKVtDQEBdMShbT0hdKVtDSDJdbihbY0hdbjIpYyhjMjMpbltjSF1uYzNOKFtDQEBIXTQ1KVtDQEhdKFtDSDJdW0NIMl00KVtDQEhdKFtDSDJdNSlbQ0gyXVtPSF0=

> <s_epik_cmdline>
J2VwaWtfcHl0aG9uJywgJy1waCcsICc3LjAnLCAnLXRuJywgJzgnLCAnLW1hJywgJzIwMCcsICctbWV0YWxfYmluZGluZycsICctaW1hZScsICc8aW5maWxlLm1hZT4nLCAnLW9tYWUnLCAnPG91dGZpbGUubWFlPic=

> <r_lp_tautomer_probability>
1

> <r_epik_Ionization_Penalty>
0.00583903

> <r_epik_Ionization_Penalty_Charging>
0

> <r_epik_Ionization_Penalty_Neutral>
0.00583903

> <r_epik_State_Penalty>
-0

> <r_epik_Charging_Adjusted_Penalty>
0

> <i_epik_Tot_Q>
0

> <i_epik_Tot_abs_Q>
0

> <r_epik_Metal_State_Penalty>
-0

> <b_epik_Metal_Only>
0

> <s_lp_Force_Field>
OPLS_2005

> <r_lp_Energy>
83.953

> <b_lp_Chiralities_Consistent>
1

> <s_lp_Variant>
AV-unprocessed.smi:199-9

> <Gold.Version>
5.8.1

> <Gold.Id.Protein>
6NUR|6NUR_protein|mol2

> <Gold.PLP.Fitness>
43.6549

> <Gold.PLP.PLP>
-35.2463

> <Gold.PLP.part.hbond>
-6.7857

> <Gold.PLP.part.metal>
0.0000

> <Gold.PLP.part.buried>
3.3274

> <Gold.PLP.part.nonpolar>
-33.2412

> <Gold.PLP.part.repulsive>
1.2711

> <Gold.PLP.ligand.clash>
0.0000

> <Gold.PLP.ligand.torsion>
0.2395

> <Gold.PLP.Chemscore.Hbond>
2.5042

> <Gold.PLP.Chemscore.CHOScore>
0.4544

> <Gold.PLP.Chemscore.Metal>
0.0000

> <Gold.Chemscore.Hbonds>
donor molecule, donor type, donor heavy atom, donor atom, acceptor molecule, acceptor atom, score
      L1  H     7    35       P1  7948  1.00
      P1  H  6933  6945       L1    21  0.11
      P1  H  7989  7998       L1    25  0.13
      P1  H  7997  8008       L1    23  0.75
      L1  C    10    38       P1  8028  0.44

> <Gold.PLP.Chemscore.Internal.Correction>
0.0118

> <Gold.Rescore>
     Score         DG    S(hbond)    S(metal)    S(lipo)     H(rot)  DE(clash)    DE(int)     intcor
      4.51     -15.84       1.45        0.00     114.33       3.07       6.50       4.83       ----

> <Gold.Chemscore.Fitness>
4.5145

> <Gold.Chemscore.DG>
-15.8374

> <Gold.Chemscore.ZeroCoef>
-5.4800

> <Gold.Chemscore.Hbond>
1.4515

> <Gold.Chemscore.Metal>
0.0000

> <Gold.Chemscore.Lipo>
114.3262

> <Gold.Chemscore.Internal_Hbond>
0.0000

> <Gold.Chemscore.DEClash>
6.4963

> <Gold.Chemscore.DEInternal>
4.8267

> <Gold.Chemscore.Rot>
3.0729

> <Gold.Chemscore.Internal.Correction>
   9.000000E+99

> <Gold.Chemscore.Hbonds>
donor molecule, donor type, donor heavy atom, donor atom, acceptor molecule, acceptor atom, score
      L1  H     7    35       P1  7948  0.96
      P1  H  6933  6945       L1    21  0.05
      P1  H  7997  8008       L1    23  0.09

> <Gold.Chemscore.Hbond.Weighted>
-4.8480

> <Gold.Chemscore.Metal.Weighted>
-0.0000

> <Gold.Chemscore.Lipo.Weighted>
-13.3762

> <Gold.Chemscore.Internal_Hbond.Weighted>
0.0000

> <Gold.Chemscore.DEClash.Weighted>
6.4963

> <Gold.Chemscore.DEInternal.Weighted>
4.8267

> <Gold.Chemscore.Rot.Weighted>
7.8667

> <Gold.Chemscore.Internal.Correction.Weighted>
   9.000000E+99

> <Gold.Protein.RotatedTorsions>
[ 6907 6896 6895 6894 ] final -109.39 input  -60.11 | X-H torsion
[ 7974 7965 7964 7962 ] final -131.08 input  175.53 | X-H torsion
[ 8008 7997 7996 7995 ] final  -63.17 input   59.86 | X-H torsion
[ 10167 10162 10161 10158 ] final   94.03 input  -65.29 | X-H torsion
[ 10718 10713 10712 10709 ] final -146.16 input   66.30 | X-H torsion
[ 10763 10752 10751 10750 ] final  -35.77 input  -60.55 | X-H torsion
[ 11005 11000 10999 10996 ] final  104.11 input  -57.11 | X-H torsion

> <Gold.Protein.ActiveResidues>
 VAL166  LYS551  ARG553  GLY616  TRP617  ASP618  TYR619  PRO620  LYS621  CYS622 
 ASP623  PHE694  ASN695  SER759  ASP760  ASP761  ALA762  ILE779  LEU786  VAL792 
 PHE793  MET794  SER795  GLU796  ALA797  LYS798  CYS799  TRP800  GLU811  SER814 

> <Gold.Protein.RotatedAtoms>
  150.7559  133.9536  159.3493 H   0  0  0  0  0  0  0  0  0  0  0  0  # atno 6907 bound_to 6896
  151.7455  135.0842  160.0332 H   0  0  0  0  0  0  0  0  0  0  0  0  # atno 6908 bound_to 6896
  152.3500  133.6131  159.5974 H   0  0  0  0  0  0  0  0  0  0  0  0  # atno 6909 bound_to 6896
  144.9414  140.7242  143.4844 H   0  0  0  0  0  0  0  0  0  0  0  0  # atno 7974 bound_to 7965
  154.4539  140.0980  156.6701 H   0  0  0  0  0  0  0  0  0  0  0  0  # atno 8008 bound_to 7997
  155.5198  140.3478  155.4386 H   0  0  0  0  0  0  0  0  0  0  0  0  # atno 8009 bound_to 7997
  156.0739  140.1356  156.9785 H   0  0  0  0  0  0  0  0  0  0  0  0  # atno 8010 bound_to 7997
  139.8123  144.6768  150.9625 H   0  0  0  0  0  0  0  0  0  0  0  0  # atno 10167 bound_to 10162
  156.3915  130.7888  151.2090 H   0  0  0  0  0  0  0  0  0  0  0  0  # atno 10718 bound_to 10713
  153.8686  135.6833  153.4776 H   0  0  0  0  0  0  0  0  0  0  0  0  # atno 10763 bound_to 10752
  153.1300  135.4702  154.9331 H   0  0  0  0  0  0  0  0  0  0  0  0  # atno 10764 bound_to 10752
  154.7725  135.3243  154.8111 H   0  0  0  0  0  0  0  0  0  0  0  0  # atno 10765 bound_to 10752
  139.8789  134.9288  156.5311 H   0  0  0  0  0  0  0  0  0  0  0  0  # atno 11005 bound_to 11000
  145.2986  139.1858  143.4702 LP  0  0  0  0  0  0  0  0  0  0  0  0  # atno 17320 bound_to 7965
  146.3287  140.2973  142.8618 LP  0  0  0  0  0  0  0  0  0  0  0  0  # atno 17321 bound_to 7965
  140.7817  143.4173  151.0897 LP  0  0  0  0  0  0  0  0  0  0  0  0  # atno 17342 bound_to 10162
  139.7839  143.8315  152.3142 LP  0  0  0  0  0  0  0  0  0  0  0  0  # atno 17343 bound_to 10162
  157.7499  131.0314  150.4181 LP  0  0  0  0  0  0  0  0  0  0  0  0  # atno 17370 bound_to 10713
  156.4443  130.3998  149.6677 LP  0  0  0  0  0  0  0  0  0  0  0  0  # atno 17371 bound_to 10713
  140.8380  133.8227  155.9047 LP  0  0  0  0  0  0  0  0  0  0  0  0  # atno 17394 bound_to 11000
  140.9265  134.2076  157.4892 LP  0  0  0  0  0  0  0  0  0  0  0  0  # atno 17395 bound_to 11000

$$$$
