AV-unprocessed.smi:1406|AV-procd|sdf|5722|dock2
  -GOLD-   22720 5353D 1   1.00000     0.00000
 Structure written by MMmdl.
 41 43  0  0  0  0  0  0  0  0  2 V2000
  153.9812  137.4571  161.5216 C   0  0  0  0  0  0  0  0  0  0  0  0
  153.5206  138.1093  160.2023 C   0  0  1  0  0  0  0  0  0  0  0  0
  153.8843  139.5999  160.1091 C   0  0  0  0  0  0  0  0  0  0  0  0
  154.5954  140.0235  159.1973 O   0  0  0  0  0  0  0  0  0  0  0  0
  153.3582  140.3969  161.0527 N   0  0  0  0  0  0  0  0  0  0  0  0
  153.4728  141.8516  161.0702 C   0  0  2  0  0  0  0  0  0  0  0  0
  152.5738  142.5173  162.1040 C   0  0  0  0  0  0  0  0  0  0  0  0
  152.4985  143.9664  161.6119 C   0  0  0  0  0  0  0  0  0  0  0  0
  152.7116  143.9334  160.1439 N   0  3  2  0  0  0  0  0  0  0  0  0
  151.6162  144.5643  159.3596 C   0  0  0  0  0  0  0  0  0  0  0  0
  151.6947  144.1589  157.8803 C   0  0  0  0  0  0  0  0  0  0  0  0
  151.5291  142.6378  157.7021 C   0  0  0  0  0  0  0  0  0  0  0  0
  151.9076  141.8510  158.9710 C   0  0  0  0  0  0  0  0  0  0  0  0
  153.0561  142.5365  159.7535 C   0  0  2  0  0  0  0  0  0  0  0  0
  154.0315  137.4000  159.0349 N   0  0  0  0  0  0  0  0  0  0  0  0
  153.3748  136.7932  158.0441 C   0  0  0  0  0  0  0  0  0  0  0  0
  154.1620  136.2971  157.1002 N   0  0  0  0  0  0  0  0  0  0  0  0
  155.3789  136.6597  157.6038 C   0  0  0  0  0  0  0  0  0  0  0  0
  155.3570  137.3329  158.7539 N   0  0  0  0  0  0  0  0  0  0  0  0
  153.5444  137.9625  162.3838 H   0  0  0  0  0  0  0  0  0  0  0  0
  155.0657  137.4849  161.6362 H   0  0  0  0  0  0  0  0  0  0  0  0
  153.6724  136.4123  161.5662 H   0  0  0  0  0  0  0  0  0  0  0  0
  152.4319  138.0417  160.1695 H   0  0  0  0  0  0  0  0  0  0  0  0
  152.7921  139.9718  161.7728 H   0  0  0  0  0  0  0  0  0  0  0  0
  154.5045  142.1258  161.3009 H   0  0  0  0  0  0  0  0  0  0  0  0
  151.5790  142.0691  162.0863 H   0  0  0  0  0  0  0  0  0  0  0  0
  152.9614  142.4370  163.1201 H   0  0  0  0  0  0  0  0  0  0  0  0
  151.5592  144.4401  161.9005 H   0  0  0  0  0  0  0  0  0  0  0  0
  153.3053  144.5525  162.0532 H   0  0  0  0  0  0  0  0  0  0  0  0
  150.6457  144.2666  159.7609 H   0  0  0  0  0  0  0  0  0  0  0  0
  151.6826  145.6476  159.4654 H   0  0  0  0  0  0  0  0  0  0  0  0
  150.9388  144.6862  157.2976 H   0  0  0  0  0  0  0  0  0  0  0  0
  152.6600  144.4704  157.4784 H   0  0  0  0  0  0  0  0  0  0  0  0
  150.4990  142.4009  157.4338 H   0  0  0  0  0  0  0  0  0  0  0  0
  152.1433  142.3101  156.8625 H   0  0  0  0  0  0  0  0  0  0  0  0
  151.0326  141.7637  159.6166 H   0  0  0  0  0  0  0  0  0  0  0  0
  152.1742  140.8337  158.6851 H   0  0  0  0  0  0  0  0  0  0  0  0
  153.9224  142.5777  159.0915 H   0  0  0  0  0  0  0  0  0  0  0  0
  152.2977  136.7218  158.0072 H   0  0  0  0  0  0  0  0  0  0  0  0
  156.3079  136.4291  157.1035 H   0  0  0  0  0  0  0  0  0  0  0  0
  153.5432  144.4792  159.9670 H   0  0  0  0  0  0  0  0  0  0  0  0
  1  2  1  0  0  0  0
  1 20  1  0  0  0  0
  1 21  1  0  0  0  0
  1 22  1  0  0  0  0
  2  3  1  0  0  0  0
  2 15  1  0  0  0  0
  2 23  1  0  0  0  0
  3  4  2  0  0  0  0
  3  5  1  0  0  0  0
  5  6  1  0  0  0  0
  5 24  1  0  0  0  0
  6 14  1  0  0  0  0
  6  7  1  0  0  0  0
  6 25  1  0  0  0  0
  7  8  1  0  0  0  0
  7 26  1  0  0  0  0
  7 27  1  0  0  0  0
  8  9  1  0  0  0  0
  8 28  1  0  0  0  0
  8 29  1  0  0  0  0
  9 14  1  0  0  0  0
  9 10  1  0  0  0  0
  9 41  1  0  0  0  0
 10 11  1  0  0  0  0
 10 30  1  0  0  0  0
 10 31  1  0  0  0  0
 11 12  1  0  0  0  0
 11 32  1  0  0  0  0
 11 33  1  0  0  0  0
 12 13  1  0  0  0  0
 12 34  1  0  0  0  0
 12 35  1  0  0  0  0
 13 14  1  0  0  0  0
 13 36  1  0  0  0  0
 13 37  1  0  0  0  0
 14 38  1  0  0  0  0
 15 19  1  0  0  0  0
 15 16  1  0  0  0  0
 16 17  2  0  0  0  0
 16 39  1  0  0  0  0
 17 18  1  0  0  0  0
 18 19  2  0  0  0  0
 18 40  1  0  0  0  0
M  CHG  1   9   1
M  END
> <s_m_source_file>
AV-unprocessed.smi

> <i_m_source_file_index>
1406

> <i_lp_mmshare_version>
43012

> <i_f3d_flags>
0

> <s_epik_input>
bjFbY0hdbltjSF1uMVtDQEhdKFtDSDNdKUMoPU8pW05IXVtDQEhdKFtDSDJdW0NIMl0yKVtDQEBIXShOMjMpW0NIMl1bQ0gyXVtDSDJdW0NIMl0z

> <s_epik_cmdline>
J2VwaWtfcHl0aG9uJywgJy1waCcsICc3LjAnLCAnLXRuJywgJzgnLCAnLW1hJywgJzIwMCcsICctbWV0YWxfYmluZGluZycsICctaW1hZScsICc8aW5maWxlLm1hZT4nLCAnLW9tYWUnLCAnPG91dGZpbGUubWFlPic=

> <r_lp_tautomer_probability>
1

> <r_epik_Ionization_Penalty>
0.00197066

> <r_epik_Ionization_Penalty_Charging>
0.00196223

> <r_epik_Ionization_Penalty_Neutral>
8.43107e-06

> <r_epik_State_Penalty>
0.00133866

> <r_epik_Charging_Adjusted_Penalty>
0.00330089

> <i_epik_Tot_Q>
1

> <i_epik_Tot_abs_Q>
1

> <r_epik_Metal_State_Penalty>
-0

> <b_epik_Metal_Only>
0

> <s_lp_Force_Field>
OPLS_2005

> <r_lp_Energy>
45.0436

> <b_lp_Chiralities_Consistent>
1

> <s_lp_Variant>
AV-unprocessed.smi:1406-14

> <Gold.Version>
5.8.1

> <Gold.Id.Protein>
6NUR|6NUR_protein|mol2

> <Gold.PLP.Fitness>
42.7877

> <Gold.PLP.PLP>
-36.9759

> <Gold.PLP.part.hbond>
-2.0000

> <Gold.PLP.part.metal>
0.0000

> <Gold.PLP.part.buried>
-3.6804

> <Gold.PLP.part.nonpolar>
-30.6655

> <Gold.PLP.part.repulsive>
0.0954

> <Gold.PLP.ligand.clash>
0.0000

> <Gold.PLP.ligand.torsion>
0.1497

> <Gold.PLP.Chemscore.Hbond>
2.0000

> <Gold.PLP.Chemscore.CHOScore>
0.0000

> <Gold.PLP.Chemscore.Metal>
0.0000

> <Gold.Chemscore.Hbonds>
donor molecule, donor type, donor heavy atom, donor atom, acceptor molecule, acceptor atom, score
      P1  H  7997  8008       L1     4  1.00
      P1  H 10752 10764       L1    17  1.00

> <Gold.PLP.Chemscore.Internal.Correction>
0.1112

> <Gold.Rescore>
     Score         DG    S(hbond)    S(metal)    S(lipo)     H(rot)  DE(clash)    DE(int)     intcor
     16.43     -18.95       1.93        0.00     101.32       1.89       0.02       2.49       ----

> <Gold.Chemscore.Fitness>
16.4316

> <Gold.Chemscore.DG>
-18.9466

> <Gold.Chemscore.ZeroCoef>
-5.4800

> <Gold.Chemscore.Hbond>
1.9288

> <Gold.Chemscore.Metal>
0.0000

> <Gold.Chemscore.Lipo>
101.3159

> <Gold.Chemscore.Internal_Hbond>
0.0000

> <Gold.Chemscore.DEClash>
0.0234

> <Gold.Chemscore.DEInternal>
2.4916

> <Gold.Chemscore.Rot>
1.8865

> <Gold.Chemscore.Internal.Correction>
   9.000000E+99

> <Gold.Chemscore.Hbonds>
donor molecule, donor type, donor heavy atom, donor atom, acceptor molecule, acceptor atom, score
      P1  H  7997  8008       L1     4  0.94
      P1  H 10752 10764       L1    17  0.94

> <Gold.Chemscore.Hbond.Weighted>
-6.4422

> <Gold.Chemscore.Metal.Weighted>
-0.0000

> <Gold.Chemscore.Lipo.Weighted>
-11.8540

> <Gold.Chemscore.Internal_Hbond.Weighted>
0.0000

> <Gold.Chemscore.DEClash.Weighted>
0.0234

> <Gold.Chemscore.DEInternal.Weighted>
2.4916

> <Gold.Chemscore.Rot.Weighted>
4.8295

> <Gold.Chemscore.Internal.Correction.Weighted>
   9.000000E+99

> <Gold.Protein.RotatedTorsions>
[ 6907 6896 6895 6894 ] final -176.97 input  -60.11 | X-H torsion
[ 7974 7965 7964 7962 ] final  -97.72 input  175.53 | X-H torsion
[ 8008 7997 7996 7995 ] final -112.40 input   59.86 | X-H torsion
[ 10167 10162 10161 10158 ] final -113.39 input  -65.29 | X-H torsion
[ 10718 10713 10712 10709 ] final -133.59 input   66.30 | X-H torsion
[ 10763 10752 10751 10750 ] final   30.01 input  -60.55 | X-H torsion
[ 11005 11000 10999 10996 ] final  -59.71 input  -57.11 | X-H torsion

> <Gold.Protein.ActiveResidues>
 VAL166  LYS551  ARG553  GLY616  TRP617  ASP618  TYR619  PRO620  LYS621  CYS622 
 ASP623  PHE694  ASN695  SER759  ASP760  ASP761  ALA762  ILE779  LEU786  VAL792 
 PHE793  MET794  SER795  GLU796  ALA797  LYS798  CYS799  TRP800  GLU811  SER814 

> <Gold.Protein.RotatedAtoms>
  151.6133  133.3345  159.3071 H   0  0  0  0  0  0  0  0  0  0  0  0  # atno 6907 bound_to 6896
  150.8144  134.7322  159.6729 H   0  0  0  0  0  0  0  0  0  0  0  0  # atno 6908 bound_to 6896
  152.4241  134.5907  160.0025 H   0  0  0  0  0  0  0  0  0  0  0  0  # atno 6909 bound_to 6896
  145.3300  140.9439  143.2667 H   0  0  0  0  0  0  0  0  0  0  0  0  # atno 7974 bound_to 7965
  155.0047  140.0394  157.2374 H   0  0  0  0  0  0  0  0  0  0  0  0  # atno 8008 bound_to 7997
  154.7513  140.2767  155.6267 H   0  0  0  0  0  0  0  0  0  0  0  0  # atno 8009 bound_to 7997
  156.2885  140.2646  156.2267 H   0  0  0  0  0  0  0  0  0  0  0  0  # atno 8010 bound_to 7997
  140.1124  143.4516  152.1744 H   0  0  0  0  0  0  0  0  0  0  0  0  # atno 10167 bound_to 10162
  156.2465  130.7127  151.1010 H   0  0  0  0  0  0  0  0  0  0  0  0  # atno 10718 bound_to 10713
  153.0397  135.6475  154.0978 H   0  0  0  0  0  0  0  0  0  0  0  0  # atno 10763 bound_to 10752
  154.0687  135.2882  155.3313 H   0  0  0  0  0  0  0  0  0  0  0  0  # atno 10764 bound_to 10752
  154.6609  135.5392  153.8081 H   0  0  0  0  0  0  0  0  0  0  0  0  # atno 10765 bound_to 10752
  141.1259  133.6618  156.5113 H   0  0  0  0  0  0  0  0  0  0  0  0  # atno 11005 bound_to 11000
  144.8871  139.4824  143.6695 LP  0  0  0  0  0  0  0  0  0  0  0  0  # atno 17320 bound_to 7965
  146.3049  139.7547  142.9063 LP  0  0  0  0  0  0  0  0  0  0  0  0  # atno 17321 bound_to 7965
  139.5612  144.7407  151.4149 LP  0  0  0  0  0  0  0  0  0  0  0  0  # atno 17342 bound_to 10162
  140.6918  143.7843  150.7267 LP  0  0  0  0  0  0  0  0  0  0  0  0  # atno 17343 bound_to 10162
  157.7197  131.0689  150.6185 LP  0  0  0  0  0  0  0  0  0  0  0  0  # atno 17370 bound_to 10713
  156.6262  130.4419  149.5803 LP  0  0  0  0  0  0  0  0  0  0  0  0  # atno 17371 bound_to 10713
  140.4366  134.7053  157.4970 LP  0  0  0  0  0  0  0  0  0  0  0  0  # atno 17394 bound_to 11000
  140.0257  134.6480  155.9176 LP  0  0  0  0  0  0  0  0  0  0  0  0  # atno 17395 bound_to 11000

$$$$
