AV-unprocessed.smi:212|AV-procd|sdf|1630|dock1
  -GOLD-   2262019583D 1   1.00000     0.00000
 Structure written by MMmdl.
 65 68  0  0  0  0  0  0  0  0  2 V2000
  149.2698  133.4228  156.8968 C   0  0  0  0  0  0  0  0  0  0  0  0
  149.5253  134.5577  155.8906 C   0  0  1  0  0  0  0  0  0  0  0  0
  149.4741  134.0629  154.4291 C   0  0  0  0  0  0  0  0  0  0  0  0
  148.0834  133.7650  153.9984 N   0  3  2  0  0  0  0  0  0  0  0  0
  148.0039  133.1669  152.6398 C   0  0  0  0  0  0  0  0  0  0  0  0
  146.8107  132.1941  152.4917 C   0  0  0  0  0  0  0  0  0  0  0  0
  147.0211  130.9577  153.3817 C   0  0  0  0  0  0  0  0  0  0  0  0
  145.4645  132.8654  152.8225 C   0  0  0  0  0  0  0  0  0  0  0  0
  146.7590  131.7272  151.1579 O   0  0  0  0  0  0  0  0  0  0  0  0
  147.1773  134.9272  154.1837 C   0  0  0  0  0  0  0  0  0  0  0  0
  147.2153  135.4277  155.6390 C   0  0  0  0  0  0  0  0  0  0  0  0
  148.5896  135.6688  156.0821 N   0  0  0  0  0  0  0  0  0  0  0  0
  149.1097  136.9179  155.9548 C   0  0  0  0  0  0  0  0  0  0  0  0
  148.7967  137.6765  154.8707 N   0  0  0  0  0  0  0  0  0  0  0  0
  149.3109  138.9020  154.7313 C   0  0  0  0  0  0  0  0  0  0  0  0
  150.1433  139.5546  155.5442 N   0  0  0  0  0  0  0  0  0  0  0  0
  150.4532  138.8037  156.6391 C   0  0  0  0  0  0  0  0  0  0  0  0
  149.9868  137.4886  156.9202 C   0  0  0  0  0  0  0  0  0  0  0  0
  150.5111  137.0507  158.1313 N   0  0  0  0  0  0  0  0  0  0  0  0
  151.2514  138.0459  158.5377 C   0  0  0  0  0  0  0  0  0  0  0  0
  151.2676  139.1415  157.7046 N   0  0  0  0  0  0  0  0  0  0  0  0
  151.9962  140.3816  157.9047 C   0  0  0  0  0  0  0  0  0  0  0  0
  152.4748  140.5645  159.3682 C   0  0  1  0  0  0  0  0  0  0  0  0
  153.6506  139.6167  159.6988 C   0  0  0  0  0  0  0  0  0  0  0  0
  154.7575  139.8598  158.8558 O   0  0  0  0  0  0  0  0  0  0  0  0
  152.7975  142.0401  159.7309 C   0  0  1  0  0  0  0  0  0  0  0  0
  151.6850  143.0562  159.4951 C   0  0  0  0  0  0  0  0  0  0  0  0
  152.0192  144.1385  160.5116 C   0  0  0  0  0  0  0  0  0  0  0  0
  152.4250  143.3869  161.6431 O   0  0  0  0  0  0  0  0  0  0  0  0
  153.2106  142.2880  161.1931 C   0  0  0  0  0  0  0  0  0  0  0  0
  150.0104  132.6305  156.7859 H   0  0  0  0  0  0  0  0  0  0  0  0
  148.2858  132.9721  156.7667 H   0  0  0  0  0  0  0  0  0  0  0  0
  149.3349  133.7906  157.9211 H   0  0  0  0  0  0  0  0  0  0  0  0
  150.5446  134.9007  156.0668 H   0  0  0  0  0  0  0  0  0  0  0  0
  149.8915  134.8246  153.7681 H   0  0  0  0  0  0  0  0  0  0  0  0
  150.0974  133.1744  154.3181 H   0  0  0  0  0  0  0  0  0  0  0  0
  147.9540  133.9533  151.8844 H   0  0  0  0  0  0  0  0  0  0  0  0
  148.9225  132.6190  152.4233 H   0  0  0  0  0  0  0  0  0  0  0  0
  147.0638  131.2338  154.4360 H   0  0  0  0  0  0  0  0  0  0  0  0
  147.9524  130.4442  153.1386 H   0  0  0  0  0  0  0  0  0  0  0  0
  146.2093  130.2384  153.2653 H   0  0  0  0  0  0  0  0  0  0  0  0
  145.4581  133.2507  153.8426 H   0  0  0  0  0  0  0  0  0  0  0  0
  144.6373  132.1599  152.7339 H   0  0  0  0  0  0  0  0  0  0  0  0
  145.2501  133.6997  152.1539 H   0  0  0  0  0  0  0  0  0  0  0  0
  147.6408  131.5523  150.8646 H   0  0  0  0  0  0  0  0  0  0  0  0
  147.4722  135.7262  153.5022 H   0  0  0  0  0  0  0  0  0  0  0  0
  146.1560  134.6516  153.9212 H   0  0  0  0  0  0  0  0  0  0  0  0
  146.6032  136.3235  155.7525 H   0  0  0  0  0  0  0  0  0  0  0  0
  146.7686  134.6808  156.2952 H   0  0  0  0  0  0  0  0  0  0  0  0
  149.0126  139.4367  153.8415 H   0  0  0  0  0  0  0  0  0  0  0  0
  151.8029  138.0111  159.4662 H   0  0  0  0  0  0  0  0  0  0  0  0
  152.8425  140.3903  157.2177 H   0  0  0  0  0  0  0  0  0  0  0  0
  151.3424  141.1961  157.5950 H   0  0  0  0  0  0  0  0  0  0  0  0
  151.6439  140.2704  160.0115 H   0  0  0  0  0  0  0  0  0  0  0  0
  153.9914  139.7589  160.7239 H   0  0  0  0  0  0  0  0  0  0  0  0
  153.3476  138.5733  159.6069 H   0  0  0  0  0  0  0  0  0  0  0  0
  155.4456  139.2515  159.0793 H   0  0  0  0  0  0  0  0  0  0  0  0
  153.6486  142.3593  159.1276 H   0  0  0  0  0  0  0  0  0  0  0  0
  151.6614  143.4309  158.4713 H   0  0  0  0  0  0  0  0  0  0  0  0
  150.7031  142.6457  159.7260 H   0  0  0  0  0  0  0  0  0  0  0  0
  152.8462  144.7607  160.1657 H   0  0  0  0  0  0  0  0  0  0  0  0
  151.1699  144.7832  160.7384 H   0  0  0  0  0  0  0  0  0  0  0  0
  153.0575  141.4282  161.8445 H   0  0  0  0  0  0  0  0  0  0  0  0
  154.2677  142.5517  161.2501 H   0  0  0  0  0  0  0  0  0  0  0  0
  147.7515  133.0494  154.6291 H   0  0  0  0  0  0  0  0  0  0  0  0
  1  2  1  0  0  0  0
  1 31  1  0  0  0  0
  1 32  1  0  0  0  0
  1 33  1  0  0  0  0
  2 12  1  0  0  0  0
  2  3  1  0  0  0  0
  2 34  1  0  0  0  0
  3  4  1  0  0  0  0
  3 35  1  0  0  0  0
  3 36  1  0  0  0  0
  4  5  1  0  0  0  0
  4 10  1  0  0  0  0
  4 65  1  0  0  0  0
  5  6  1  0  0  0  0
  5 37  1  0  0  0  0
  5 38  1  0  0  0  0
  6  7  1  0  0  0  0
  6  8  1  0  0  0  0
  6  9  1  0  0  0  0
  7 39  1  0  0  0  0
  7 40  1  0  0  0  0
  7 41  1  0  0  0  0
  8 42  1  0  0  0  0
  8 43  1  0  0  0  0
  8 44  1  0  0  0  0
  9 45  1  0  0  0  0
 10 11  1  0  0  0  0
 10 46  1  0  0  0  0
 10 47  1  0  0  0  0
 11 12  1  0  0  0  0
 11 48  1  0  0  0  0
 11 49  1  0  0  0  0
 12 13  1  0  0  0  0
 13 18  1  0  0  0  0
 13 14  2  0  0  0  0
 14 15  1  0  0  0  0
 15 16  2  0  0  0  0
 15 50  1  0  0  0  0
 16 17  1  0  0  0  0
 17 21  1  0  0  0  0
 17 18  2  0  0  0  0
 18 19  1  0  0  0  0
 19 20  2  0  0  0  0
 20 21  1  0  0  0  0
 20 51  1  0  0  0  0
 21 22  1  0  0  0  0
 22 23  1  0  0  0  0
 22 52  1  0  0  0  0
 22 53  1  0  0  0  0
 23 24  1  0  0  0  0
 23 26  1  0  0  0  0
 23 54  1  0  0  0  0
 24 25  1  0  0  0  0
 24 55  1  0  0  0  0
 24 56  1  0  0  0  0
 25 57  1  0  0  0  0
 26 30  1  0  0  0  0
 26 27  1  0  0  0  0
 26 58  1  0  0  0  0
 27 28  1  0  0  0  0
 27 59  1  0  0  0  0
 27 60  1  0  0  0  0
 28 29  1  0  0  0  0
 28 61  1  0  0  0  0
 28 62  1  0  0  0  0
 29 30  1  0  0  0  0
 30 63  1  0  0  0  0
 30 64  1  0  0  0  0
M  CHG  1   4   1
M  END
> <s_m_source_file>
AV-unprocessed.smi

> <i_m_source_file_index>
212

> <i_lp_mmshare_version>
43012

> <i_f3d_flags>
0

> <s_epik_input>
W0NIM11bQ0BASF0xW0NIMl1OKFtDSDJdQyhbQ0gzXSkoW0NIM10pW09IXSlbQ0gyXVtDSDJdTjFjKG5bY0hdbjIpYyhjMjMpbltjSF1uM1tDSDJdW0NASF0oW0NIMl1bT0hdKVtDQEBIXTRbQ0gyXVtDSDJdT1tDSDJdNA==

> <s_epik_cmdline>
J2VwaWtfcHl0aG9uJywgJy1waCcsICc3LjAnLCAnLXRuJywgJzgnLCAnLW1hJywgJzIwMCcsICctbWV0YWxfYmluZGluZycsICctaW1hZScsICc8aW5maWxlLm1hZT4nLCAnLW9tYWUnLCAnPG91dGZpbGUubWFlPic=

> <r_lp_tautomer_probability>
1

> <r_epik_Ionization_Penalty>
0.00182193

> <r_epik_Ionization_Penalty_Charging>
0.00173996

> <r_epik_Ionization_Penalty_Neutral>
8.19718e-05

> <r_epik_State_Penalty>
-0

> <r_epik_Charging_Adjusted_Penalty>
0.00173996

> <i_epik_Tot_Q>
1

> <i_epik_Tot_abs_Q>
1

> <r_epik_Metal_State_Penalty>
-0

> <b_epik_Metal_Only>
0

> <s_lp_Force_Field>
OPLS_2005

> <r_lp_Energy>
60.3061

> <b_lp_Chiralities_Consistent>
1

> <s_lp_Variant>
AV-unprocessed.smi:212-14

> <Gold.Version>
5.8.1

> <Gold.Id.Protein>
6NUR|6NUR_protein|mol2

> <Gold.PLP.Fitness>
47.7656

> <Gold.PLP.PLP>
-40.8073

> <Gold.PLP.part.hbond>
-1.9336

> <Gold.PLP.part.metal>
0.0000

> <Gold.PLP.part.buried>
-5.7520

> <Gold.PLP.part.nonpolar>
-33.6287

> <Gold.PLP.part.repulsive>
0.3226

> <Gold.PLP.ligand.clash>
0.0000

> <Gold.PLP.ligand.torsion>
1.6569

> <Gold.PLP.Chemscore.Hbond>
2.0000

> <Gold.PLP.Chemscore.CHOScore>
0.9946

> <Gold.PLP.Chemscore.Metal>
0.0000

> <Gold.Chemscore.Hbonds>
donor molecule, donor type, donor heavy atom, donor atom, acceptor molecule, acceptor atom, score
      L1  H     9    45       P1 10747  1.00
      P1  H  7997  8010       L1    25  1.00
      L1  C    15    50       P1  7957  0.30

> <Gold.PLP.Chemscore.Internal.Correction>
1.2882

> <Gold.Rescore>
     Score         DG    S(hbond)    S(metal)    S(lipo)     H(rot)  DE(clash)    DE(int)     intcor
     11.78     -13.83       1.82        0.00      93.67       3.40       0.50       1.54       ----

> <Gold.Chemscore.Fitness>
11.7802

> <Gold.Chemscore.DG>
-13.8271

> <Gold.Chemscore.ZeroCoef>
-5.4800

> <Gold.Chemscore.Hbond>
1.8227

> <Gold.Chemscore.Metal>
0.0000

> <Gold.Chemscore.Lipo>
93.6740

> <Gold.Chemscore.Internal_Hbond>
0.0000

> <Gold.Chemscore.DEClash>
0.5035

> <Gold.Chemscore.DEInternal>
1.5434

> <Gold.Chemscore.Rot>
3.3986

> <Gold.Chemscore.Internal.Correction>
   9.000000E+99

> <Gold.Chemscore.Hbonds>
donor molecule, donor type, donor heavy atom, donor atom, acceptor molecule, acceptor atom, score
      L1  H     9    45       P1 10747  0.99
      P1  H  7997  8010       L1    25  0.37

> <Gold.Chemscore.Hbond.Weighted>
-6.0877

> <Gold.Chemscore.Metal.Weighted>
-0.0000

> <Gold.Chemscore.Lipo.Weighted>
-10.9599

> <Gold.Chemscore.Internal_Hbond.Weighted>
0.0000

> <Gold.Chemscore.DEClash.Weighted>
0.5035

> <Gold.Chemscore.DEInternal.Weighted>
1.5434

> <Gold.Chemscore.Rot.Weighted>
8.7005

> <Gold.Chemscore.Internal.Correction.Weighted>
   9.000000E+99

> <Gold.Protein.RotatedTorsions>
[ 6907 6896 6895 6894 ] final -135.85 input  -60.11 | X-H torsion
[ 7974 7965 7964 7962 ] final  164.91 input  175.53 | X-H torsion
[ 8008 7997 7996 7995 ] final   12.14 input   59.86 | X-H torsion
[ 10167 10162 10161 10158 ] final  -85.27 input  -65.29 | X-H torsion
[ 10718 10713 10712 10709 ] final  149.44 input   66.30 | X-H torsion
[ 10763 10752 10751 10750 ] final  -71.12 input  -60.55 | X-H torsion
[ 11005 11000 10999 10996 ] final   46.61 input  -57.11 | X-H torsion

> <Gold.Protein.ActiveResidues>
 VAL166  LYS551  ARG553  GLY616  TRP617  ASP618  TYR619  PRO620  LYS621  CYS622 
 ASP623  PHE694  ASN695  SER759  ASP760  ASP761  ALA762  ILE779  LEU786  VAL792 
 PHE793  MET794  SER795  GLU796  ALA797  LYS798  CYS799  TRP800  GLU811  SER814 

> <Gold.Protein.RotatedAtoms>
  151.0029  133.6039  159.2692 H   0  0  0  0  0  0  0  0  0  0  0  0  # atno 6907 bound_to 6896
  151.3219  135.0819  159.9318 H   0  0  0  0  0  0  0  0  0  0  0  0  # atno 6908 bound_to 6896
  152.5279  133.9674  159.7800 H   0  0  0  0  0  0  0  0  0  0  0  0  # atno 6909 bound_to 6896
  144.7525  139.8394  143.6361 H   0  0  0  0  0  0  0  0  0  0  0  0  # atno 7974 bound_to 7965
  154.8165  140.2877  155.5816 H   0  0  0  0  0  0  0  0  0  0  0  0  # atno 8008 bound_to 7997
  156.2993  140.2558  156.2994 H   0  0  0  0  0  0  0  0  0  0  0  0  # atno 8009 bound_to 7997
  154.9387  140.0382  157.2075 H   0  0  0  0  0  0  0  0  0  0  0  0  # atno 8010 bound_to 7997
  140.4053  143.2645  151.9089 H   0  0  0  0  0  0  0  0  0  0  0  0  # atno 10167 bound_to 10162
  157.2961  131.0862  151.1425 H   0  0  0  0  0  0  0  0  0  0  0  0  # atno 10718 bound_to 10713
  154.4273  135.5972  153.6046 H   0  0  0  0  0  0  0  0  0  0  0  0  # atno 10763 bound_to 10752
  152.9797  135.5966  154.3882 H   0  0  0  0  0  0  0  0  0  0  0  0  # atno 10764 bound_to 10752
  154.3716  135.2841  155.2242 H   0  0  0  0  0  0  0  0  0  0  0  0  # atno 10765 bound_to 10752
  140.1353  134.4653  155.8490 H   0  0  0  0  0  0  0  0  0  0  0  0  # atno 11005 bound_to 11000
  146.1493  139.4571  143.0059 LP  0  0  0  0  0  0  0  0  0  0  0  0  # atno 17320 bound_to 7965
  145.6895  141.0168  143.1563 LP  0  0  0  0  0  0  0  0  0  0  0  0  # atno 17321 bound_to 7965
  139.4783  144.5592  151.8265 LP  0  0  0  0  0  0  0  0  0  0  0  0  # atno 17342 bound_to 10162
  140.4696  144.1606  150.5916 LP  0  0  0  0  0  0  0  0  0  0  0  0  # atno 17343 bound_to 10162
  157.2803  130.6746  149.6062 LP  0  0  0  0  0  0  0  0  0  0  0  0  # atno 17370 bound_to 10713
  155.9669  130.4452  150.5491 LP  0  0  0  0  0  0  0  0  0  0  0  0  # atno 17371 bound_to 10713
  141.2177  133.6812  156.7146 LP  0  0  0  0  0  0  0  0  0  0  0  0  # atno 17394 bound_to 11000
  140.2790  134.8332  157.3916 LP  0  0  0  0  0  0  0  0  0  0  0  0  # atno 17395 bound_to 11000

$$$$
