AV-unprocessed.smi:2734|AV-procd|sdf|10537|dock6
  -GOLD-   2272014583D 1   1.00000     0.00000
 Structure written by MMmdl.
 40 42  0  0  0  0  0  0  0  0  1 V2000
  153.3677  142.7518  161.6100 C   0  0  0  0  0  0  0  0  0  0  0  0
  152.7736  142.4984  160.2356 C   0  0  0  0  0  0  0  0  0  0  0  0
  153.1325  141.3230  159.5381 C   0  0  0  0  0  0  0  0  0  0  0  0
  152.6011  141.0491  158.2587 C   0  0  0  0  0  0  0  0  0  0  0  0
  152.8101  139.9764  157.4091 N   0  0  0  0  0  0  0  0  0  0  0  0
  152.0369  140.2987  156.3758 C   0  0  0  0  0  0  0  0  0  0  0  0
  151.3517  141.4556  156.4559 N   0  0  0  0  0  0  0  0  0  0  0  0
  150.4530  142.0151  155.4623 C   0  0  0  0  0  0  0  0  0  0  0  0
  149.5285  140.9519  154.8398 C   0  0  2  0  0  0  0  0  0  0  0  0
  150.2457  140.2113  153.8707 O   0  0  0  0  0  0  0  0  0  0  0  0
  148.2908  141.5821  154.1819 C   0  0  0  0  0  0  0  0  0  0  0  0
  146.7624  140.6908  154.6059 S   0  0  0  0  0  0  0  0  0  0  0  0
  145.9409  141.9344  155.5538 C   0  0  0  0  0  0  0  0  0  0  0  0
  145.6094  141.8629  156.8382 N   0  0  0  0  0  0  0  0  0  0  0  0
  144.9963  143.0747  157.0936 N   0  0  0  0  0  0  0  0  0  0  0  0
  144.9636  143.8204  156.0279 N   0  0  0  0  0  0  0  0  0  0  0  0
  145.5604  143.1107  155.0399 N   0  0  0  0  0  0  0  0  0  0  0  0
  145.6940  143.6544  153.7030 C   0  0  0  0  0  0  0  0  0  0  0  0
  151.6949  141.9919  157.6915 C   0  0  0  0  0  0  0  0  0  0  0  0
  151.3304  143.1652  158.3750 C   0  0  0  0  0  0  0  0  0  0  0  0
  151.8691  143.4225  159.6530 C   0  0  0  0  0  0  0  0  0  0  0  0
  151.4668  144.6907  160.3849 C   0  0  0  0  0  0  0  0  0  0  0  0
  154.0526  141.9549  161.9012 H   0  0  0  0  0  0  0  0  0  0  0  0
  152.5800  142.8071  162.3618 H   0  0  0  0  0  0  0  0  0  0  0  0
  153.9233  143.6895  161.6199 H   0  0  0  0  0  0  0  0  0  0  0  0
  153.8208  140.6186  159.9815 H   0  0  0  0  0  0  0  0  0  0  0  0
  151.9621  139.6559  155.5108 H   0  0  0  0  0  0  0  0  0  0  0  0
  149.8610  142.7946  155.9434 H   0  0  0  0  0  0  0  0  0  0  0  0
  151.0462  142.5064  154.6894 H   0  0  0  0  0  0  0  0  0  0  0  0
  149.2036  140.2621  155.6198 H   0  0  0  0  0  0  0  0  0  0  0  0
  149.7255  140.1674  153.0827 H   0  0  0  0  0  0  0  0  0  0  0  0
  148.1873  142.6153  154.5157 H   0  0  0  0  0  0  0  0  0  0  0  0
  148.4090  141.6043  153.0976 H   0  0  0  0  0  0  0  0  0  0  0  0
  145.1057  143.0582  153.0055 H   0  0  0  0  0  0  0  0  0  0  0  0
  146.7408  143.6302  153.3994 H   0  0  0  0  0  0  0  0  0  0  0  0
  145.3414  144.6860  153.6720 H   0  0  0  0  0  0  0  0  0  0  0  0
  150.6404  143.8596  157.9188 H   0  0  0  0  0  0  0  0  0  0  0  0
  150.7578  145.2788  159.8016 H   0  0  0  0  0  0  0  0  0  0  0  0
  152.3402  145.3139  160.5775 H   0  0  0  0  0  0  0  0  0  0  0  0
  150.9959  144.4487  161.3379 H   0  0  0  0  0  0  0  0  0  0  0  0
  1  2  1  0  0  0  0
  1 23  1  0  0  0  0
  1 24  1  0  0  0  0
  1 25  1  0  0  0  0
  2 21  1  0  0  0  0
  2  3  2  0  0  0  0
  3  4  1  0  0  0  0
  3 26  1  0  0  0  0
  4 19  2  0  0  0  0
  4  5  1  0  0  0  0
  5  6  2  0  0  0  0
  6  7  1  0  0  0  0
  6 27  1  0  0  0  0
  7  8  1  0  0  0  0
  7 19  1  0  0  0  0
  8  9  1  0  0  0  0
  8 28  1  0  0  0  0
  8 29  1  0  0  0  0
  9 10  1  0  0  0  0
  9 11  1  0  0  0  0
  9 30  1  0  0  0  0
 10 31  1  0  0  0  0
 11 12  1  0  0  0  0
 11 32  1  0  0  0  0
 11 33  1  0  0  0  0
 12 13  1  0  0  0  0
 13 17  1  0  0  0  0
 13 14  2  0  0  0  0
 14 15  1  0  0  0  0
 15 16  2  0  0  0  0
 16 17  1  0  0  0  0
 17 18  1  0  0  0  0
 18 34  1  0  0  0  0
 18 35  1  0  0  0  0
 18 36  1  0  0  0  0
 19 20  1  0  0  0  0
 20 21  2  0  0  0  0
 20 37  1  0  0  0  0
 21 22  1  0  0  0  0
 22 38  1  0  0  0  0
 22 39  1  0  0  0  0
 22 40  1  0  0  0  0
M  END
> <s_m_source_file>
AV-unprocessed.smi

> <i_m_source_file_index>
2734

> <i_lp_mmshare_version>
43012

> <i_f3d_flags>
0

> <s_epik_input>
W0NIM11jKFtjSF0xKWMoW0NIM10pW2NIXWMoYzEyKW4oW2NIXW4yKVtDSDJdW0NASF0oW09IXSlbQ0gyXVNjM25ubm4zW0NIM10=

> <s_epik_cmdline>
J2VwaWtfcHl0aG9uJywgJy1waCcsICc3LjAnLCAnLXRuJywgJzgnLCAnLW1hJywgJzIwMCcsICctbWV0YWxfYmluZGluZycsICctaW1hZScsICc8aW5maWxlLm1hZT4nLCAnLW9tYWUnLCAnPG91dGZpbGUubWFlPic=

> <r_lp_tautomer_probability>
1

> <r_epik_Ionization_Penalty>
0.105517

> <r_epik_Ionization_Penalty_Charging>
0

> <r_epik_Ionization_Penalty_Neutral>
0.105517

> <r_epik_State_Penalty>
0.0953887

> <r_epik_Charging_Adjusted_Penalty>
0.0953887

> <i_epik_Tot_Q>
0

> <i_epik_Tot_abs_Q>
0

> <r_epik_Metal_State_Penalty>
0.0808533

> <b_epik_Metal_Only>
0

> <s_lp_Force_Field>
OPLS_2005

> <r_lp_Energy>
9.5145

> <b_lp_Chiralities_Consistent>
1

> <s_lp_Variant>
AV-unprocessed.smi:2734-1

> <Gold.Version>
5.8.1

> <Gold.Id.Protein>
6NUR|6NUR_protein|mol2

> <Gold.PLP.Fitness>
52.9616

> <Gold.PLP.PLP>
-46.7896

> <Gold.PLP.part.hbond>
-3.0000

> <Gold.PLP.part.metal>
0.0000

> <Gold.PLP.part.buried>
-6.5868

> <Gold.PLP.part.nonpolar>
-37.2231

> <Gold.PLP.part.repulsive>
0.2676

> <Gold.PLP.ligand.clash>
0.0000

> <Gold.PLP.ligand.torsion>
1.4135

> <Gold.PLP.Chemscore.Hbond>
2.9920

> <Gold.PLP.Chemscore.CHOScore>
0.0000

> <Gold.PLP.Chemscore.Metal>
0.0000

> <Gold.Chemscore.Hbonds>
donor molecule, donor type, donor heavy atom, donor atom, acceptor molecule, acceptor atom, score
      L1  H    10    31       P1  7957  0.99
      P1  H  7989  7998       L1    10  0.86
      P1  H  7997  8010       L1     5  1.00

> <Gold.PLP.Chemscore.Internal.Correction>
0.0231

> <Gold.Rescore>
     Score         DG    S(hbond)    S(metal)    S(lipo)     H(rot)  DE(clash)    DE(int)     intcor
     13.86     -15.84       1.31        0.00     113.44       2.85       0.38       1.60       ----

> <Gold.Chemscore.Fitness>
13.8599

> <Gold.Chemscore.DG>
-15.8407

> <Gold.Chemscore.ZeroCoef>
-5.4800

> <Gold.Chemscore.Hbond>
1.3088

> <Gold.Chemscore.Metal>
0.0000

> <Gold.Chemscore.Lipo>
113.4434

> <Gold.Chemscore.Internal_Hbond>
0.0000

> <Gold.Chemscore.DEClash>
0.3765

> <Gold.Chemscore.DEInternal>
1.6042

> <Gold.Chemscore.Rot>
2.8452

> <Gold.Chemscore.Internal.Correction>
   9.000000E+99

> <Gold.Chemscore.Hbonds>
donor molecule, donor type, donor heavy atom, donor atom, acceptor molecule, acceptor atom, score
      L1  H    10    31       P1  7957  0.94
      P1  H  7989  7998       L1    10  0.39
      P1  H  7997  8010       L1     5  0.37

> <Gold.Chemscore.Hbond.Weighted>
-4.3715

> <Gold.Chemscore.Metal.Weighted>
-0.0000

> <Gold.Chemscore.Lipo.Weighted>
-13.2729

> <Gold.Chemscore.Internal_Hbond.Weighted>
0.0000

> <Gold.Chemscore.DEClash.Weighted>
0.3765

> <Gold.Chemscore.DEInternal.Weighted>
1.6042

> <Gold.Chemscore.Rot.Weighted>
7.2837

> <Gold.Chemscore.Internal.Correction.Weighted>
   9.000000E+99

> <Gold.Protein.RotatedTorsions>
[ 6907 6896 6895 6894 ] final  102.73 input  -60.11 | X-H torsion
[ 7974 7965 7964 7962 ] final  -39.77 input  175.53 | X-H torsion
[ 8008 7997 7996 7995 ] final   42.62 input   59.86 | X-H torsion
[ 10167 10162 10161 10158 ] final  129.44 input  -65.29 | X-H torsion
[ 10718 10713 10712 10709 ] final  -45.91 input   66.30 | X-H torsion
[ 10763 10752 10751 10750 ] final  -54.12 input  -60.55 | X-H torsion
[ 11005 11000 10999 10996 ] final  111.07 input  -57.11 | X-H torsion

> <Gold.Protein.ActiveResidues>
 VAL166  LYS551  ARG553  GLY616  TRP617  ASP618  TYR619  PRO620  LYS621  CYS622 
 ASP623  PHE694  ASN695  SER759  ASP760  ASP761  ALA762  ILE779  LEU786  VAL792 
 PHE793  MET794  SER795  GLU796  ALA797  LYS798  CYS799  TRP800  GLU811  SER814 

> <Gold.Protein.RotatedAtoms>
  152.5316  133.9932  159.7860 H   0  0  0  0  0  0  0  0  0  0  0  0  # atno 6907 bound_to 6896
  151.0164  133.5909  159.2683 H   0  0  0  0  0  0  0  0  0  0  0  0  # atno 6908 bound_to 6896
  151.2965  135.0763  159.9276 H   0  0  0  0  0  0  0  0  0  0  0  0  # atno 6909 bound_to 6896
  146.0366  140.6663  142.9107 H   0  0  0  0  0  0  0  0  0  0  0  0  # atno 7974 bound_to 7965
  155.2892  140.3377  155.4253 H   0  0  0  0  0  0  0  0  0  0  0  0  # atno 8008 bound_to 7997
  156.2054  140.1749  156.7851 H   0  0  0  0  0  0  0  0  0  0  0  0  # atno 8009 bound_to 7997
  154.5613  140.0687  156.8808 H   0  0  0  0  0  0  0  0  0  0  0  0  # atno 8010 bound_to 7997
  139.5478  144.6788  151.4419 H   0  0  0  0  0  0  0  0  0  0  0  0  # atno 10167 bound_to 10162
  156.2236  130.4168  149.8962 H   0  0  0  0  0  0  0  0  0  0  0  0  # atno 10718 bound_to 10713
  154.1697  135.6461  153.5006 H   0  0  0  0  0  0  0  0  0  0  0  0  # atno 10763 bound_to 10752
  153.0087  135.5380  154.6625 H   0  0  0  0  0  0  0  0  0  0  0  0  # atno 10764 bound_to 10752
  154.5961  135.2939  155.0557 H   0  0  0  0  0  0  0  0  0  0  0  0  # atno 10765 bound_to 10752
  139.8895  134.9499  156.6376 H   0  0  0  0  0  0  0  0  0  0  0  0  # atno 11005 bound_to 11000
  144.7054  140.3831  143.7122 LP  0  0  0  0  0  0  0  0  0  0  0  0  # atno 17320 bound_to 7965
  145.6954  139.1648  143.2623 LP  0  0  0  0  0  0  0  0  0  0  0  0  # atno 17321 bound_to 7965
  140.6731  143.8249  150.7024 LP  0  0  0  0  0  0  0  0  0  0  0  0  # atno 17342 bound_to 10162
  140.1680  143.4219  152.2021 LP  0  0  0  0  0  0  0  0  0  0  0  0  # atno 17343 bound_to 10162
  156.6599  130.8778  151.3545 LP  0  0  0  0  0  0  0  0  0  0  0  0  # atno 17370 bound_to 10713
  157.7100  130.9429  150.1056 LP  0  0  0  0  0  0  0  0  0  0  0  0  # atno 17371 bound_to 10713
  140.7618  133.8811  155.8424 LP  0  0  0  0  0  0  0  0  0  0  0  0  # atno 17394 bound_to 11000
  140.9915  134.1272  157.4403 LP  0  0  0  0  0  0  0  0  0  0  0  0  # atno 17395 bound_to 11000

$$$$
