AV-unprocessed.smi:261|AV-procd|sdf|1985|dock3
  -GOLD-   2262021163D 1   1.00000     0.00000
 Structure written by MMmdl.
 51 54  0  0  0  0  0  0  0  0  1 V2000
  146.6558  133.1207  153.1250 C   0  0  0  0  0  0  0  0  0  0  0  0
  146.9784  134.4140  153.6094 O   0  0  0  0  0  0  0  0  0  0  0  0
  147.9760  134.4055  154.6199 C   0  0  1  0  0  0  0  0  0  0  0  0
  149.3155  133.8381  154.1473 C   0  0  0  0  0  0  0  0  0  0  0  0
  150.3607  134.4927  155.0710 C   0  0  2  0  0  0  0  0  0  0  0  0
  150.7551  133.5732  156.2373 C   0  0  0  0  0  0  0  0  0  0  0  0
  151.3142  132.4036  155.9183 N   0  0  0  0  0  0  0  0  0  0  0  0
  150.5459  133.8984  157.4052 O   0  0  0  0  0  0  0  0  0  0  0  0
  149.7054  135.7043  155.5718 N   0  0  0  0  0  0  0  0  0  0  0  0
  150.4432  136.8347  155.5987 C   0  0  0  0  0  0  0  0  0  0  0  0
  151.4978  136.9798  154.7540 N   0  0  0  0  0  0  0  0  0  0  0  0
  152.2275  138.0995  154.7875 C   0  0  0  0  0  0  0  0  0  0  0  0
  152.0779  139.1716  155.5699 N   0  0  0  0  0  0  0  0  0  0  0  0
  151.0175  139.0233  156.4155 C   0  0  0  0  0  0  0  0  0  0  0  0
  150.1540  137.8960  156.4937 C   0  0  0  0  0  0  0  0  0  0  0  0
  149.1880  138.0992  157.4708 N   0  0  0  0  0  0  0  0  0  0  0  0
  149.4662  139.2829  157.9466 C   0  0  0  0  0  0  0  0  0  0  0  0
  150.5497  139.9077  157.3701 N   0  0  0  0  0  0  0  0  0  0  0  0
  151.0827  141.2162  157.7030 C   0  0  0  0  0  0  0  0  0  0  0  0
  149.9791  142.2854  157.8178 C   0  0  2  0  0  0  0  0  0  0  0  0
  149.3959  142.5361  156.5531 O   0  0  0  0  0  0  0  0  0  0  0  0
  150.4835  143.5972  158.4521 C   0  0  2  0  0  0  0  0  0  0  0  0
  151.6467  144.2961  157.7432 C   0  0  0  0  0  0  0  0  0  0  0  0
  152.2169  145.1294  158.8691 C   0  0  0  0  0  0  0  0  0  0  0  0
  152.0641  144.1891  160.0626 C   0  0  0  0  0  0  0  0  0  0  0  0
  150.8980  143.4112  159.8036 O   0  0  0  0  0  0  0  0  0  0  0  0
  148.3681  135.8271  155.0088 C   0  0  0  0  0  0  0  0  0  0  0  0
  147.6306  133.8726  155.5082 H   0  0  0  0  0  0  0  0  0  0  0  0
  151.2584  134.7265  154.4947 H   0  0  0  0  0  0  0  0  0  0  0  0
  145.8690  133.1991  152.3749 H   0  0  0  0  0  0  0  0  0  0  0  0
  146.2903  132.4788  153.9277 H   0  0  0  0  0  0  0  0  0  0  0  0
  147.5158  132.6410  152.6569 H   0  0  0  0  0  0  0  0  0  0  0  0
  149.3386  132.7475  154.1648 H   0  0  0  0  0  0  0  0  0  0  0  0
  149.5022  134.1496  153.1185 H   0  0  0  0  0  0  0  0  0  0  0  0
  151.5903  131.7607  156.6461 H   0  0  0  0  0  0  0  0  0  0  0  0
  151.4567  132.1658  154.9473 H   0  0  0  0  0  0  0  0  0  0  0  0
  153.0487  138.1431  154.0874 H   0  0  0  0  0  0  0  0  0  0  0  0
  148.8874  139.7339  158.7396 H   0  0  0  0  0  0  0  0  0  0  0  0
  151.6256  141.1325  158.6452 H   0  0  0  0  0  0  0  0  0  0  0  0
  151.8144  141.4971  156.9444 H   0  0  0  0  0  0  0  0  0  0  0  0
  149.1832  141.8942  158.4527 H   0  0  0  0  0  0  0  0  0  0  0  0
  149.4253  143.4668  156.3914 H   0  0  0  0  0  0  0  0  0  0  0  0
  149.6495  144.3001  158.4908 H   0  0  0  0  0  0  0  0  0  0  0  0
  152.3980  143.5838  157.4010 H   0  0  0  0  0  0  0  0  0  0  0  0
  151.3271  144.8919  156.8879 H   0  0  0  0  0  0  0  0  0  0  0  0
  153.2487  145.4368  158.6968 H   0  0  0  0  0  0  0  0  0  0  0  0
  151.6121  146.0255  159.0157 H   0  0  0  0  0  0  0  0  0  0  0  0
  152.9201  143.5162  160.1270 H   0  0  0  0  0  0  0  0  0  0  0  0
  151.9839  144.7257  161.0083 H   0  0  0  0  0  0  0  0  0  0  0  0
  148.3758  136.4739  154.1295 H   0  0  0  0  0  0  0  0  0  0  0  0
  147.6721  136.2513  155.7332 H   0  0  0  0  0  0  0  0  0  0  0  0
  1  2  1  0  0  0  0
  1 30  1  0  0  0  0
  1 31  1  0  0  0  0
  1 32  1  0  0  0  0
  2  3  1  0  0  0  0
  3 28  1  0  0  0  0
  3 27  1  0  0  0  0
  3  4  1  0  0  0  0
  4  5  1  0  0  0  0
  4 33  1  0  0  0  0
  4 34  1  0  0  0  0
  5 29  1  0  0  0  0
  5  6  1  0  0  0  0
  5  9  1  0  0  0  0
  6  7  1  0  0  0  0
  6  8  2  0  0  0  0
  7 35  1  0  0  0  0
  7 36  1  0  0  0  0
  9 10  1  0  0  0  0
  9 27  1  0  0  0  0
 10 15  1  0  0  0  0
 10 11  2  0  0  0  0
 11 12  1  0  0  0  0
 12 13  2  0  0  0  0
 12 37  1  0  0  0  0
 13 14  1  0  0  0  0
 14 18  1  0  0  0  0
 14 15  2  0  0  0  0
 15 16  1  0  0  0  0
 16 17  2  0  0  0  0
 17 18  1  0  0  0  0
 17 38  1  0  0  0  0
 18 19  1  0  0  0  0
 19 20  1  0  0  0  0
 19 39  1  0  0  0  0
 19 40  1  0  0  0  0
 20 21  1  0  0  0  0
 20 22  1  0  0  0  0
 20 41  1  0  0  0  0
 21 42  1  0  0  0  0
 22 26  1  0  0  0  0
 22 23  1  0  0  0  0
 22 43  1  0  0  0  0
 23 24  1  0  0  0  0
 23 44  1  0  0  0  0
 23 45  1  0  0  0  0
 24 25  1  0  0  0  0
 24 46  1  0  0  0  0
 24 47  1  0  0  0  0
 25 26  1  0  0  0  0
 25 48  1  0  0  0  0
 25 49  1  0  0  0  0
 27 50  1  0  0  0  0
 27 51  1  0  0  0  0
M  END
> <s_m_source_file>
AV-unprocessed.smi

> <i_m_source_file_index>
261

> <i_lp_mmshare_version>
43012

> <i_f3d_flags>
0

> <s_epik_input>
W0NIM11PW0NASF0xW0NIMl1bQ0BASF0oQyg9TylbTkgyXSlOKFtDSDJdMSljKG5bY0hdbjIpYyhjMjMpbltjSF1uM1tDSDJdW0NASF0oW09IXSlbQ0BASF00W0NIMl1bQ0gyXVtDSDJdTzQ=

> <s_epik_cmdline>
J2VwaWtfcHl0aG9uJywgJy1waCcsICc3LjAnLCAnLXRuJywgJzgnLCAnLW1hJywgJzIwMCcsICctbWV0YWxfYmluZGluZycsICctaW1hZScsICc8aW5maWxlLm1hZT4nLCAnLW9tYWUnLCAnPG91dGZpbGUubWFlPic=

> <r_lp_tautomer_probability>
1

> <r_epik_Ionization_Penalty>
0.000713824

> <r_epik_Ionization_Penalty_Charging>
0

> <r_epik_Ionization_Penalty_Neutral>
0.000713824

> <r_epik_State_Penalty>
0.000402132

> <r_epik_Charging_Adjusted_Penalty>
0.000402132

> <i_epik_Tot_Q>
0

> <i_epik_Tot_abs_Q>
0

> <r_epik_Metal_State_Penalty>
-0

> <b_epik_Metal_Only>
0

> <s_lp_Force_Field>
OPLS_2005

> <r_lp_Energy>
48.1487

> <b_lp_Chiralities_Consistent>
1

> <s_lp_Variant>
AV-unprocessed.smi:261-3

> <Gold.Version>
5.8.1

> <Gold.Id.Protein>
6NUR|6NUR_protein|mol2

> <Gold.PLP.Fitness>
47.7384

> <Gold.PLP.PLP>
-40.6613

> <Gold.PLP.part.hbond>
-3.0715

> <Gold.PLP.part.metal>
0.0000

> <Gold.PLP.part.buried>
-6.8944

> <Gold.PLP.part.nonpolar>
-31.2024

> <Gold.PLP.part.repulsive>
0.4806

> <Gold.PLP.ligand.clash>
0.0000

> <Gold.PLP.ligand.torsion>
0.7339

> <Gold.PLP.Chemscore.Hbond>
2.7360

> <Gold.PLP.Chemscore.CHOScore>
0.0000

> <Gold.PLP.Chemscore.Metal>
0.0000

> <Gold.Chemscore.Hbonds>
donor molecule, donor type, donor heavy atom, donor atom, acceptor molecule, acceptor atom, score
      L1  H    21    42       P1  8028  1.00
      P1  H  6896  6908       L1     8  0.72
      P1  H 10752 10763       L1    11  1.00

> <Gold.PLP.Chemscore.Internal.Correction>
0.3369

> <Gold.Rescore>
     Score         DG    S(hbond)    S(metal)    S(lipo)     H(rot)  DE(clash)    DE(int)     intcor
     12.26     -12.96       1.96        0.00      86.32       3.57       0.05       0.65       ----

> <Gold.Chemscore.Fitness>
12.2637

> <Gold.Chemscore.DG>
-12.9646

> <Gold.Chemscore.ZeroCoef>
-5.4800

> <Gold.Chemscore.Hbond>
1.9566

> <Gold.Chemscore.Metal>
0.0000

> <Gold.Chemscore.Lipo>
86.3171

> <Gold.Chemscore.Internal_Hbond>
0.0000

> <Gold.Chemscore.DEClash>
0.0485

> <Gold.Chemscore.DEInternal>
0.6524

> <Gold.Chemscore.Rot>
3.5740

> <Gold.Chemscore.Internal.Correction>
   9.000000E+99

> <Gold.Chemscore.Hbonds>
donor molecule, donor type, donor heavy atom, donor atom, acceptor molecule, acceptor atom, score
      L1  H    21    42       P1  8028  0.90
      P1  H  6896  6908       L1     8  0.72
      P1  H 10752 10763       L1    11  0.25

> <Gold.Chemscore.Hbond.Weighted>
-6.5350

> <Gold.Chemscore.Metal.Weighted>
-0.0000

> <Gold.Chemscore.Lipo.Weighted>
-10.0991

> <Gold.Chemscore.Internal_Hbond.Weighted>
0.0000

> <Gold.Chemscore.DEClash.Weighted>
0.0485

> <Gold.Chemscore.DEInternal.Weighted>
0.6524

> <Gold.Chemscore.Rot.Weighted>
9.1495

> <Gold.Chemscore.Internal.Correction.Weighted>
   9.000000E+99

> <Gold.Protein.RotatedTorsions>
[ 6907 6896 6895 6894 ] final  123.82 input  -60.11 | X-H torsion
[ 7974 7965 7964 7962 ] final   42.16 input  175.53 | X-H torsion
[ 8008 7997 7996 7995 ] final -123.38 input   59.86 | X-H torsion
[ 10167 10162 10161 10158 ] final    3.13 input  -65.29 | X-H torsion
[ 10718 10713 10712 10709 ] final    7.54 input   66.30 | X-H torsion
[ 10763 10752 10751 10750 ] final   45.13 input  -60.55 | X-H torsion
[ 11005 11000 10999 10996 ] final  135.30 input  -57.11 | X-H torsion

> <Gold.Protein.ActiveResidues>
 VAL166  LYS551  ARG553  GLY616  TRP617  ASP618  TYR619  PRO620  LYS621  CYS622 
 ASP623  PHE694  ASN695  SER759  ASP760  ASP761  ALA762  ILE779  LEU786  VAL792 
 PHE793  MET794  SER795  GLU796  ALA797  LYS798  CYS799  TRP800  GLU811  SER814 

> <Gold.Protein.RotatedAtoms>
  152.4130  133.6993  159.6413 H   0  0  0  0  0  0  0  0  0  0  0  0  # atno 6907 bound_to 6896
  150.8009  133.8591  159.3235 H   0  0  0  0  0  0  0  0  0  0  0  0  # atno 6908 bound_to 6896
  151.6328  135.1023  160.0177 H   0  0  0  0  0  0  0  0  0  0  0  0  # atno 6909 bound_to 6896
  146.0763  139.5332  142.9565 H   0  0  0  0  0  0  0  0  0  0  0  0  # atno 7974 bound_to 7965
  155.1796  140.0410  157.2879 H   0  0  0  0  0  0  0  0  0  0  0  0  # atno 8008 bound_to 7997
  154.6213  140.2501  155.7518 H   0  0  0  0  0  0  0  0  0  0  0  0  # atno 8009 bound_to 7997
  156.2435  140.2894  156.0522 H   0  0  0  0  0  0  0  0  0  0  0  0  # atno 8010 bound_to 7997
  140.6601  143.7326  150.7723 H   0  0  0  0  0  0  0  0  0  0  0  0  # atno 10167 bound_to 10162
  156.9384  130.5852  149.5651 H   0  0  0  0  0  0  0  0  0  0  0  0  # atno 10718 bound_to 10713
  152.9829  135.6049  154.3387 H   0  0  0  0  0  0  0  0  0  0  0  0  # atno 10763 bound_to 10752
  154.3086  135.2771  155.2579 H   0  0  0  0  0  0  0  0  0  0  0  0  # atno 10764 bound_to 10752
  154.4799  135.5920  153.6438 H   0  0  0  0  0  0  0  0  0  0  0  0  # atno 10765 bound_to 10752
  139.9971  134.9493  156.9988 H   0  0  0  0  0  0  0  0  0  0  0  0  # atno 11005 bound_to 11000
  145.6300  141.0306  143.1868 LP  0  0  0  0  0  0  0  0  0  0  0  0  # atno 17320 bound_to 7965
  144.7264  139.7863  143.7363 LP  0  0  0  0  0  0  0  0  0  0  0  0  # atno 17321 bound_to 7965
  140.0994  143.4802  152.2434 LP  0  0  0  0  0  0  0  0  0  0  0  0  # atno 17342 bound_to 10162
  139.5832  144.7520  151.3585 LP  0  0  0  0  0  0  0  0  0  0  0  0  # atno 17343 bound_to 10162
  156.0416  130.5497  150.8783 LP  0  0  0  0  0  0  0  0  0  0  0  0  # atno 17370 bound_to 10713
  157.5801  131.0946  150.9284 LP  0  0  0  0  0  0  0  0  0  0  0  0  # atno 17371 bound_to 10713
  140.4798  134.1301  155.7215 LP  0  0  0  0  0  0  0  0  0  0  0  0  # atno 17394 bound_to 11000
  141.1612  133.8788  157.1841 LP  0  0  0  0  0  0  0  0  0  0  0  0  # atno 17395 bound_to 11000

$$$$
