#       Name:                AV-unprocessed.smi:1225
#       Creating user name   scv26
#       Creation time:       Fri Mar 27 04:20:48 2020


#       File generated by GOLD software.
#

@<TRIPOS>MOLECULE
AV-unprocessed.smi:1225
    53    55     1
SMALL
NO_CHARGES


@<TRIPOS>ATOM
      1 ****        -2.7378   5.8607  -1.4312 C.3            1 S1                 0.0000
      2 ****        -2.6425   4.5757  -0.6820 C.2            1 S1                 0.0000
      3 ****        -3.2264   4.3637   0.4996 N.2            1 S1                 0.0000
      4 ****        -2.9867   3.0788   0.9909 C.2            1 S1                 0.0000
      5 ****        -2.2124   2.3043   0.1624 C.2            1 S1                 0.0000
      6 ****        -1.7794   0.8905   0.3705 C.3            1 S1                 0.0000
      7 ****        -2.5220  -0.0545  -0.5026 N.4            1 S1                 1.0000
      8 ****        -3.9246  -0.2488  -0.0669 C.3            1 S1                 0.0000
      9 ****        -1.8135  -1.3437  -0.6993 C.3            1 S1                 0.0000
     10 ****        -0.7076  -1.2380  -1.7733 C.3            1 S1                 0.0000
     11 ****        -1.3157  -1.0061  -3.0273 O.3            1 S1                 0.0000
     12 ****         0.1618  -2.5057  -1.8940 C.3            1 S1                 0.0000
     13 ****         0.7859  -2.8776  -0.6369 N.pl3          1 S1                 0.0000
     14 ****         0.5267  -3.9717   0.1055 C.2            1 S1                 0.0000
     15 ****         1.2091  -4.1146   1.2375 N.2            1 S1                 0.0000
     16 ****         2.0157  -2.9900   1.2218 C.ar           1 S1                 0.0000
     17 ****         2.9834  -2.5432   2.1477 C.ar           1 S1                 0.0000
     18 ****         3.6989  -1.3448   1.9269 C.ar           1 S1                 0.0000
     19 ****         4.7318  -0.9027   2.9485 C.3            1 S1                 0.0000
     20 ****         3.4513  -0.5736   0.7630 C.ar           1 S1                 0.0000
     21 ****         4.2095   0.7163   0.5040 C.3            1 S1                 0.0000
     22 ****         2.4886  -1.0060  -0.1729 C.ar           1 S1                 0.0000
     23 ****         1.7800  -2.1981   0.0598 C.ar           1 S1                 0.0000
     24 ****        -1.7505   3.1801  -1.2745 S.3            1 S1                 0.0000
     25 ****        -3.1513   6.6456  -0.7971 H              1 S1                 0.0000
     26 ****        -3.3829   5.7372  -2.3012 H              1 S1                 0.0000
     27 ****        -1.7488   6.1706  -1.7688 H              1 S1                 0.0000
     28 ****        -3.4129   2.7950   1.9419 H              1 S1                 0.0000
     29 ****        -0.7093   0.8295   0.1740 H              1 S1                 0.0000
     30 ****        -1.9056   0.6027   1.4154 H              1 S1                 0.0000
     31 ****        -3.9661  -0.7273   0.9125 H              1 S1                 0.0000
     32 ****        -4.4662  -0.8752  -0.7765 H              1 S1                 0.0000
     33 ****        -4.4547   0.7018  -0.0061 H              1 S1                 0.0000
     34 ****        -1.4104  -1.6654   0.2617 H              1 S1                 0.0000
     35 ****        -2.5173  -2.1196  -1.0049 H              1 S1                 0.0000
     36 ****        -0.0563  -0.3905  -1.5643 H              1 S1                 0.0000
     37 ****        -0.6379  -0.9290  -3.6822 H              1 S1                 0.0000
     38 ****        -0.4412  -3.3460  -2.2424 H              1 S1                 0.0000
     39 ****         0.9499  -2.3576  -2.6336 H              1 S1                 0.0000
     40 ****        -0.2121  -4.6998  -0.1963 H              1 S1                 0.0000
     41 ****         3.1739  -3.1322   3.0330 H              1 S1                 0.0000
     42 ****         4.4777   0.0781   3.3510 H              1 S1                 0.0000
     43 ****         5.7198  -0.8449   2.4911 H              1 S1                 0.0000
     44 ****         4.7910  -1.6016   3.7832 H              1 S1                 0.0000
     45 ****         3.8963   1.1817  -0.4311 H              1 S1                 0.0000
     46 ****         5.2807   0.5235   0.4392 H              1 S1                 0.0000
     47 ****         4.0338   1.4311   1.3082 H              1 S1                 0.0000
     48 ****         2.2953  -0.4288  -1.0647 H              1 S1                 0.0000
     49 ****        -2.5683   0.3702  -1.4183 H              1 S1                 0.0000
     50 ****        -3.7745   5.0488   0.9794 LP             1 S1                 0.0000
     51 ****        -1.8479  -0.1602  -2.9922 LP             1 S1                 0.0000
     52 ****        -1.9191  -1.7702  -3.2555 LP             1 S1                 0.0000
     53 ****         1.1541  -4.8429   1.9205 LP             1 S1                 0.0000
@<TRIPOS>BOND
    1    1    2 1     
    2    1   25 1     
    3    1   26 1     
    4    1   27 1     
    5    2   24 1     
    6    2    3 2     
    7    3    4 1     
    8    4    5 2     
    9    4   28 1     
   10    5    6 1     
   11    5   24 1     
   12    6    7 1     
   13    6   29 1     
   14    6   30 1     
   15    7    8 1     
   16    7    9 1     
   17    7   49 1     
   18    8   31 1     
   19    8   32 1     
   20    8   33 1     
   21    9   10 1     
   22    9   34 1     
   23    9   35 1     
   24   10   11 1     
   25   10   12 1     
   26   10   36 1     
   27   11   37 1     
   28   12   13 1     
   29   12   38 1     
   30   12   39 1     
   31   13   23 1     
   32   13   14 1     
   33   14   15 2     
   34   14   40 1     
   35   15   16 1     
   36   16   23 ar    
   37   16   17 ar    
   38   17   18 ar    
   39   17   41 1     
   40   18   19 1     
   41   18   20 ar    
   42   19   42 1     
   43   19   43 1     
   44   19   44 1     
   45   20   21 1     
   46   20   22 ar    
   47   21   45 1     
   48   21   46 1     
   49   21   47 1     
   50   22   23 ar    
   51   22   48 1     
   52    3   50 1     
   53   11   51 1     
   54   11   52 1     
   55   15   53 1     
@<TRIPOS>SUBSTRUCTURE
      1 S1             1
@<TRIPOS>SET
LONE_PAIRS      STATIC     ATOMS    <user>   **** ""
4 50 51 52 53
DONOR_HYDROGENS      STATIC     ATOMS    <user>   **** ""
2 49 37
ATOM$BLUE        STATIC     ATOMS    COLORGROUP SYSTEM
4 50 51 52 53
ATOM$RED        STATIC     ATOMS    COLORGROUP SYSTEM
2 49 37
