AV-unprocessed.smi:1268|AV-procd|sdf|5326|dock10
  -GOLD-   22720 4453D 1   1.00000     0.00000
 Structure written by MMmdl.
 39 40  0  0  0  0  0  0  0  0  3 V2000
  149.5715  135.8449  158.9133 O   0  0  0  0  0  0  0  0  0  0  0  0
  149.2781  136.9218  159.4387 C   0  0  0  0  0  0  0  0  0  0  0  0
  150.0520  137.9973  159.2337 N   0  0  0  0  0  0  0  0  0  0  0  0
  151.2568  138.0351  158.4109 C   0  0  0  0  0  0  0  0  0  0  0  0
  152.0203  139.3658  158.5725 C   0  0  1  0  0  0  0  0  0  0  0  0
  153.3003  139.2133  157.9910 O   0  0  0  0  0  0  0  0  0  0  0  0
  151.3084  140.5191  157.8387 C   0  0  0  0  0  0  0  0  0  0  0  0
  152.0323  141.8091  157.9728 N   0  3  0  0  0  0  0  0  0  0  0  0
  152.4315  142.1163  159.3731 C   0  0  0  0  0  0  0  0  0  0  0  0
  153.2928  143.3890  159.4372 C   0  0  0  0  0  0  0  0  0  0  0  0
  152.5607  144.5807  158.8070 C   0  0  0  0  0  0  0  0  0  0  0  0
  152.1251  144.2310  157.3781 C   0  0  0  0  0  0  0  0  0  0  0  0
  151.2907  142.9392  157.3555 C   0  0  0  0  0  0  0  0  0  0  0  0
  148.2102  137.1634  160.2311 N   0  5  0  0  0  0  0  0  0  0  0  0
  147.6568  136.1632  160.9363 C   0  0  0  0  0  0  0  0  0  0  0  0
  147.9647  134.8759  160.7411 N   0  0  0  0  0  0  0  0  0  0  0  0
  147.2757  134.0056  161.5879 C   0  0  0  0  0  0  0  0  0  0  0  0
  146.4286  134.6460  162.4529 C   0  0  0  0  0  0  0  0  0  0  0  0
  146.4724  136.3715  162.2294 S   0  0  0  0  0  0  0  0  0  0  0  0
  149.7794  138.8571  159.6875 H   0  0  0  0  0  0  0  0  0  0  0  0
  151.8925  137.1837  158.6570 H   0  0  0  0  0  0  0  0  0  0  0  0
  150.9596  137.8946  157.3701 H   0  0  0  0  0  0  0  0  0  0  0  0
  152.1361  139.6057  159.6288 H   0  0  0  0  0  0  0  0  0  0  0  0
  153.3620  138.3387  157.6363 H   0  0  0  0  0  0  0  0  0  0  0  0
  151.2112  140.2512  156.7851 H   0  0  0  0  0  0  0  0  0  0  0  0
  150.2910  140.6430  158.2134 H   0  0  0  0  0  0  0  0  0  0  0  0
  151.5387  142.2383  159.9883 H   0  0  0  0  0  0  0  0  0  0  0  0
  152.9953  141.2882  159.8011 H   0  0  0  0  0  0  0  0  0  0  0  0
  153.5490  143.6145  160.4728 H   0  0  0  0  0  0  0  0  0  0  0  0
  154.2356  143.2191  158.9152 H   0  0  0  0  0  0  0  0  0  0  0  0
  151.6868  144.8373  159.4073 H   0  0  0  0  0  0  0  0  0  0  0  0
  153.2058  145.4598  158.8007 H   0  0  0  0  0  0  0  0  0  0  0  0
  151.5506  145.0542  156.9522 H   0  0  0  0  0  0  0  0  0  0  0  0
  153.0059  144.1091  156.7460 H   0  0  0  0  0  0  0  0  0  0  0  0
  151.0416  142.6956  156.3218 H   0  0  0  0  0  0  0  0  0  0  0  0
  150.3474  143.0887  157.8832 H   0  0  0  0  0  0  0  0  0  0  0  0
  147.4515  132.9433  161.5067 H   0  0  0  0  0  0  0  0  0  0  0  0
  145.7865  134.2121  163.2041 H   0  0  0  0  0  0  0  0  0  0  0  0
  152.8833  141.7058  157.4382 H   0  0  0  0  0  0  0  0  0  0  0  0
  1  2  2  0  0  0  0
  2  3  1  0  0  0  0
  2 14  1  0  0  0  0
  3  4  1  0  0  0  0
  3 20  1  0  0  0  0
  4  5  1  0  0  0  0
  4 21  1  0  0  0  0
  4 22  1  0  0  0  0
  5  6  1  0  0  0  0
  5  7  1  0  0  0  0
  5 23  1  0  0  0  0
  6 24  1  0  0  0  0
  7  8  1  0  0  0  0
  7 25  1  0  0  0  0
  7 26  1  0  0  0  0
  8 13  1  0  0  0  0
  8  9  1  0  0  0  0
  8 39  1  0  0  0  0
  9 10  1  0  0  0  0
  9 27  1  0  0  0  0
  9 28  1  0  0  0  0
 10 11  1  0  0  0  0
 10 29  1  0  0  0  0
 10 30  1  0  0  0  0
 11 12  1  0  0  0  0
 11 31  1  0  0  0  0
 11 32  1  0  0  0  0
 12 13  1  0  0  0  0
 12 33  1  0  0  0  0
 12 34  1  0  0  0  0
 13 35  1  0  0  0  0
 13 36  1  0  0  0  0
 14 15  1  0  0  0  0
 15 19  1  0  0  0  0
 15 16  2  0  0  0  0
 16 17  1  0  0  0  0
 17 18  2  0  0  0  0
 17 37  1  0  0  0  0
 18 19  1  0  0  0  0
 18 38  1  0  0  0  0
M  CHG  1   8   1
M  CHG  1  14  -1
M  END
> <s_m_source_file>
AV-unprocessed.smi

> <i_m_source_file_index>
1268

> <i_lp_mmshare_version>
43012

> <i_f3d_flags>
0

> <s_epik_input>
czFbY0hdW2NIXW5jMVtOSF1DKD1PKVtOSF1bQ0gyXVtDQEhdKFtPSF0pW0NIMl1OMltDSDJdW0NIMl1bQ0gyXVtDSDJdW0NIMl0y

> <s_epik_cmdline>
J2VwaWtfcHl0aG9uJywgJy1waCcsICc3LjAnLCAnLXRuJywgJzgnLCAnLW1hJywgJzIwMCcsICctbWV0YWxfYmluZGluZycsICctaW1hZScsICc8aW5maWxlLm1hZT4nLCAnLW9tYWUnLCAnPG91dGZpbGUubWFlPic=

> <r_lp_tautomer_probability>
0.999

> <r_epik_Ionization_Penalty>
6.36291

> <r_epik_Ionization_Penalty_Charging>
5.4816

> <r_epik_Ionization_Penalty_Neutral>
0.881305

> <r_epik_State_Penalty>
5.4805

> <r_epik_Charging_Adjusted_Penalty>
10.9621

> <i_epik_Tot_Q>
0

> <i_epik_Tot_abs_Q>
2

> <r_epik_Metal_State_Penalty>
1.48871

> <b_epik_Metal_Only>
1

> <s_lp_Force_Field>
OPLS_2005

> <r_lp_Energy>
8.43067

> <b_lp_Chiralities_Consistent>
1

> <s_lp_Variant>
AV-unprocessed.smi:1268-4

> <Gold.Version>
5.8.1

> <Gold.Id.Protein>
6NUR|6NUR_protein|mol2

> <Gold.PLP.Fitness>
53.3166

> <Gold.PLP.PLP>
-40.7807

> <Gold.PLP.part.hbond>
-4.0000

> <Gold.PLP.part.metal>
0.0000

> <Gold.PLP.part.buried>
-4.5669

> <Gold.PLP.part.nonpolar>
-34.5639

> <Gold.PLP.part.repulsive>
1.4702

> <Gold.PLP.ligand.clash>
0.0000

> <Gold.PLP.ligand.torsion>
0.3455

> <Gold.PLP.Chemscore.Hbond>
4.3782

> <Gold.PLP.Chemscore.CHOScore>
0.0000

> <Gold.PLP.Chemscore.Metal>
0.0000

> <Gold.Chemscore.Hbonds>
donor molecule, donor type, donor heavy atom, donor atom, acceptor molecule, acceptor atom, score
      P1  H  6896  6909       L1     1  1.00
      P1  H  6931  6943       L1    14  0.85
      P1  H  6934  6947       L1    14  0.68
      P1  H  7997  8010       L1     6  1.00

> <Gold.PLP.Chemscore.Internal.Correction>
0.0924

> <Gold.Rescore>
     Score         DG    S(hbond)    S(metal)    S(lipo)     H(rot)  DE(clash)    DE(int)     intcor
     14.31     -17.69       1.98        0.00     102.17       2.48       1.37       2.02       ----

> <Gold.Chemscore.Fitness>
14.3088

> <Gold.Chemscore.DG>
-17.6950

> <Gold.Chemscore.ZeroCoef>
-5.4800

> <Gold.Chemscore.Hbond>
1.9815

> <Gold.Chemscore.Metal>
0.0000

> <Gold.Chemscore.Lipo>
102.1734

> <Gold.Chemscore.Internal_Hbond>
0.0000

> <Gold.Chemscore.DEClash>
1.3658

> <Gold.Chemscore.DEInternal>
2.0204

> <Gold.Chemscore.Rot>
2.4834

> <Gold.Chemscore.Internal.Correction>
   9.000000E+99

> <Gold.Chemscore.Hbonds>
donor molecule, donor type, donor heavy atom, donor atom, acceptor molecule, acceptor atom, score
      P1  H  6896  6909       L1     1  0.98
      P1  H  6931  6943       L1    14  0.03
      P1  H  6934  6947       L1    14  0.19
      P1  H  7997  8010       L1     6  0.26

> <Gold.Chemscore.Hbond.Weighted>
-6.6182

> <Gold.Chemscore.Metal.Weighted>
-0.0000

> <Gold.Chemscore.Lipo.Weighted>
-11.9543

> <Gold.Chemscore.Internal_Hbond.Weighted>
0.0000

> <Gold.Chemscore.DEClash.Weighted>
1.3658

> <Gold.Chemscore.DEInternal.Weighted>
2.0204

> <Gold.Chemscore.Rot.Weighted>
6.3575

> <Gold.Chemscore.Internal.Correction.Weighted>
   9.000000E+99

> <Gold.Protein.RotatedTorsions>
[ 6907 6896 6895 6894 ] final   65.61 input  -60.11 | X-H torsion
[ 7974 7965 7964 7962 ] final   55.42 input  175.53 | X-H torsion
[ 8008 7997 7996 7995 ] final   36.30 input   59.86 | X-H torsion
[ 10167 10162 10161 10158 ] final  -39.96 input  -65.29 | X-H torsion
[ 10718 10713 10712 10709 ] final   54.26 input   66.30 | X-H torsion
[ 10763 10752 10751 10750 ] final -116.12 input  -60.55 | X-H torsion
[ 11005 11000 10999 10996 ] final -155.07 input  -57.11 | X-H torsion

> <Gold.Protein.ActiveResidues>
 VAL166  LYS551  ARG553  GLY616  TRP617  ASP618  TYR619  PRO620  LYS621  CYS622 
 ASP623  PHE694  ASN695  SER759  ASP760  ASP761  ALA762  ILE779  LEU786  VAL792 
 PHE793  MET794  SER795  GLU796  ALA797  LYS798  CYS799  TRP800  GLU811  SER814 

> <Gold.Protein.RotatedAtoms>
  152.4420  134.5572  159.9883 H   0  0  0  0  0  0  0  0  0  0  0  0  # atno 6907 bound_to 6896
  151.5666  133.3390  159.2989 H   0  0  0  0  0  0  0  0  0  0  0  0  # atno 6908 bound_to 6896
  150.8328  134.7622  159.6932 H   0  0  0  0  0  0  0  0  0  0  0  0  # atno 6909 bound_to 6896
  145.9506  139.3969  143.0308 H   0  0  0  0  0  0  0  0  0  0  0  0  # atno 7974 bound_to 7965
  155.1851  140.3303  155.4368 H   0  0  0  0  0  0  0  0  0  0  0  0  # atno 8008 bound_to 7997
  156.2463  140.1920  156.6897 H   0  0  0  0  0  0  0  0  0  0  0  0  # atno 8009 bound_to 7997
  154.6244  140.0591  156.9641 H   0  0  0  0  0  0  0  0  0  0  0  0  # atno 8010 bound_to 7997
  140.7048  143.3182  151.2857 H   0  0  0  0  0  0  0  0  0  0  0  0  # atno 10167 bound_to 10162
  157.5241  130.8585  149.8598 H   0  0  0  0  0  0  0  0  0  0  0  0  # atno 10718 bound_to 10713
  154.8507  135.4357  154.1771 H   0  0  0  0  0  0  0  0  0  0  0  0  # atno 10763 bound_to 10752
  153.2871  135.6958  153.7335 H   0  0  0  0  0  0  0  0  0  0  0  0  # atno 10764 bound_to 10752
  153.6517  135.3450  155.3076 H   0  0  0  0  0  0  0  0  0  0  0  0  # atno 10765 bound_to 10752
  140.6905  134.4047  157.5219 H   0  0  0  0  0  0  0  0  0  0  0  0  # atno 11005 bound_to 11000
  145.8176  140.9695  143.0916 LP  0  0  0  0  0  0  0  0  0  0  0  0  # atno 17320 bound_to 7965
  144.6795  140.0000  143.7484 LP  0  0  0  0  0  0  0  0  0  0  0  0  # atno 17321 bound_to 7965
  139.6628  144.0159  152.2703 LP  0  0  0  0  0  0  0  0  0  0  0  0  # atno 17342 bound_to 10162
  139.9732  144.6479  150.7969 LP  0  0  0  0  0  0  0  0  0  0  0  0  # atno 17343 bound_to 10162
  156.0374  130.3747  150.1524 LP  0  0  0  0  0  0  0  0  0  0  0  0  # atno 17370 bound_to 10713
  156.9711  130.9835  151.3458 LP  0  0  0  0  0  0  0  0  0  0  0  0  # atno 17371 bound_to 10713
  139.8925  134.8754  156.2268 LP  0  0  0  0  0  0  0  0  0  0  0  0  # atno 17394 bound_to 11000
  141.0245  133.7022  156.1325 LP  0  0  0  0  0  0  0  0  0  0  0  0  # atno 17395 bound_to 11000

$$$$
