AV-unprocessed.smi:2502|AV-procd|sdf|9845|dock8
  -GOLD-   2272013473D 1   1.00000     0.00000
 Structure written by MMmdl.
 39 41  0  0  0  0  0  0  0  0  1 V2000
  152.4361  136.4124  156.4337 O   0  0  0  0  0  0  0  0  0  0  0  0
  151.3894  137.2820  156.0482 C   0  0  2  0  0  0  0  0  0  0  0  0
  150.2451  136.4580  155.4360 C   0  0  0  0  0  0  0  0  0  0  0  0
  150.1388  135.2037  156.0960 O   0  0  0  0  0  0  0  0  0  0  0  0
  150.1984  134.0737  155.2349 C   0  0  0  0  0  0  0  0  0  0  0  0
  149.0160  134.0464  154.2503 C   0  0  0  0  0  0  0  0  0  0  0  0
  148.9927  132.7195  153.4739 C   0  0  0  0  0  0  0  0  0  0  0  0
  148.9367  131.6226  154.3801 O   0  0  0  0  0  0  0  0  0  0  0  0
  150.0712  131.5507  155.2373 C   0  0  0  0  0  0  0  0  0  0  0  0
  150.1493  132.8143  156.1097 C   0  0  0  0  0  0  0  0  0  0  0  0
  151.9019  138.4102  155.1306 C   0  0  0  0  0  0  0  0  0  0  0  0
  151.3177  139.6981  155.4605 N   0  0  0  0  0  0  0  0  0  0  0  0
  150.4561  140.2852  154.5824 N   0  0  0  0  0  0  0  0  0  0  0  0
  150.0532  141.4133  155.0861 N   0  0  0  0  0  0  0  0  0  0  0  0
  150.6629  141.5741  156.3191 C   0  0  0  0  0  0  0  0  0  0  0  0
  150.5817  142.6036  157.2830 C   0  0  0  0  0  0  0  0  0  0  0  0
  151.3228  142.5193  158.4821 C   0  0  0  0  0  0  0  0  0  0  0  0
  151.1960  143.7984  159.6368 Cl  0  0  0  0  0  0  0  0  0  0  0  0
  152.1551  141.4011  158.7306 C   0  0  0  0  0  0  0  0  0  0  0  0
  153.0697  141.2833  160.1916 Cl  0  0  0  0  0  0  0  0  0  0  0  0
  152.2438  140.3654  157.7789 C   0  0  0  0  0  0  0  0  0  0  0  0
  151.4985  140.4694  156.5920 C   0  0  0  0  0  0  0  0  0  0  0  0
  152.4861  136.4018  157.3773 H   0  0  0  0  0  0  0  0  0  0  0  0
  151.0135  137.7273  156.9702 H   0  0  0  0  0  0  0  0  0  0  0  0
  149.3107  137.0174  155.4835 H   0  0  0  0  0  0  0  0  0  0  0  0
  150.4598  136.2830  154.3806 H   0  0  0  0  0  0  0  0  0  0  0  0
  151.1409  134.0745  154.6841 H   0  0  0  0  0  0  0  0  0  0  0  0
  148.0790  134.1632  154.7962 H   0  0  0  0  0  0  0  0  0  0  0  0
  149.0742  134.8762  153.5468 H   0  0  0  0  0  0  0  0  0  0  0  0
  148.1192  132.6824  152.8230 H   0  0  0  0  0  0  0  0  0  0  0  0
  149.8707  132.6294  152.8325 H   0  0  0  0  0  0  0  0  0  0  0  0
  149.9801  130.6656  155.8672 H   0  0  0  0  0  0  0  0  0  0  0  0
  150.9799  131.4281  154.6458 H   0  0  0  0  0  0  0  0  0  0  0  0
  151.0257  132.7714  156.7570 H   0  0  0  0  0  0  0  0  0  0  0  0
  149.2782  132.8541  156.7648 H   0  0  0  0  0  0  0  0  0  0  0  0
  152.9872  138.4976  155.1962 H   0  0  0  0  0  0  0  0  0  0  0  0
  151.6715  138.1825  154.0889 H   0  0  0  0  0  0  0  0  0  0  0  0
  149.9480  143.4589  157.1001 H   0  0  0  0  0  0  0  0  0  0  0  0
  152.8732  139.5060  157.9574 H   0  0  0  0  0  0  0  0  0  0  0  0
  1  2  1  0  0  0  0
  1 23  1  0  0  0  0
  2  3  1  0  0  0  0
  2 11  1  0  0  0  0
  2 24  1  0  0  0  0
  3  4  1  0  0  0  0
  3 25  1  0  0  0  0
  3 26  1  0  0  0  0
  4  5  1  0  0  0  0
  5 10  1  0  0  0  0
  5  6  1  0  0  0  0
  5 27  1  0  0  0  0
  6  7  1  0  0  0  0
  6 28  1  0  0  0  0
  6 29  1  0  0  0  0
  7  8  1  0  0  0  0
  7 30  1  0  0  0  0
  7 31  1  0  0  0  0
  8  9  1  0  0  0  0
  9 10  1  0  0  0  0
  9 32  1  0  0  0  0
  9 33  1  0  0  0  0
 10 34  1  0  0  0  0
 10 35  1  0  0  0  0
 11 12  1  0  0  0  0
 11 36  1  0  0  0  0
 11 37  1  0  0  0  0
 12 22  1  0  0  0  0
 12 13  1  0  0  0  0
 13 14  2  0  0  0  0
 14 15  1  0  0  0  0
 15 22  2  0  0  0  0
 15 16  1  0  0  0  0
 16 17  2  0  0  0  0
 16 38  1  0  0  0  0
 17 18  1  0  0  0  0
 17 19  1  0  0  0  0
 19 20  1  0  0  0  0
 19 21  2  0  0  0  0
 21 22  1  0  0  0  0
 21 39  1  0  0  0  0
M  END
> <s_m_source_file>
AV-unprocessed.smi

> <i_m_source_file_index>
2502

> <i_lp_mmshare_version>
43012

> <i_f3d_flags>
0

> <s_epik_input>
W2NIXTFjKENsKWMoQ2wpW2NIXWMoYzEyKW4obm4yKVtDSDJdW0NASF0oW09IXSlbQ0gyXU9bQ0hdM1tDSDJdW0NIMl1PW0NIMl1bQ0gyXTM=

> <s_epik_cmdline>
J2VwaWtfcHl0aG9uJywgJy1waCcsICc3LjAnLCAnLXRuJywgJzgnLCAnLW1hJywgJzIwMCcsICctbWV0YWxfYmluZGluZycsICctaW1hZScsICc8aW5maWxlLm1hZT4nLCAnLW9tYWUnLCAnPG91dGZpbGUubWFlPic=

> <r_lp_tautomer_probability>
1

> <r_epik_Ionization_Penalty>
2.65748e-06

> <r_epik_Ionization_Penalty_Charging>
0

> <r_epik_Ionization_Penalty_Neutral>
2.65748e-06

> <r_epik_State_Penalty>
-0

> <r_epik_Charging_Adjusted_Penalty>
0

> <i_epik_Tot_Q>
0

> <i_epik_Tot_abs_Q>
0

> <r_epik_Metal_State_Penalty>
-0

> <b_epik_Metal_Only>
0

> <s_lp_Force_Field>
OPLS_2005

> <r_lp_Energy>
14.9544

> <b_lp_Chiralities_Consistent>
1

> <s_lp_Variant>
AV-unprocessed.smi:2502-1

> <Gold.Version>
5.8.1

> <Gold.Id.Protein>
6NUR|6NUR_protein|mol2

> <Gold.PLP.Fitness>
45.2277

> <Gold.PLP.PLP>
-41.6139

> <Gold.PLP.part.hbond>
-3.0000

> <Gold.PLP.part.metal>
0.0000

> <Gold.PLP.part.buried>
-4.4170

> <Gold.PLP.part.nonpolar>
-34.4787

> <Gold.PLP.part.repulsive>
0.2507

> <Gold.PLP.ligand.clash>
0.0000

> <Gold.PLP.ligand.torsion>
1.2201

> <Gold.PLP.Chemscore.Hbond>
2.0000

> <Gold.PLP.Chemscore.CHOScore>
0.0000

> <Gold.PLP.Chemscore.Metal>
0.0000

> <Gold.Chemscore.Hbonds>
donor molecule, donor type, donor heavy atom, donor atom, acceptor molecule, acceptor atom, score
      P1  H  7989  7998       L1    13  0.86
      P1  H 10752 10765       L1     1  0.96

> <Gold.PLP.Chemscore.Internal.Correction>
0.0540

> <Gold.Rescore>
     Score         DG    S(hbond)    S(metal)    S(lipo)     H(rot)  DE(clash)    DE(int)     intcor
     17.27     -18.43       1.62        0.00     112.76       2.21       0.07       1.09       ----

> <Gold.Chemscore.Fitness>
17.2659

> <Gold.Chemscore.DG>
-18.4259

> <Gold.Chemscore.ZeroCoef>
-5.4800

> <Gold.Chemscore.Hbond>
1.6174

> <Gold.Chemscore.Metal>
0.0000

> <Gold.Chemscore.Lipo>
112.7553

> <Gold.Chemscore.Internal_Hbond>
0.0000

> <Gold.Chemscore.DEClash>
0.0718

> <Gold.Chemscore.DEInternal>
1.0882

> <Gold.Chemscore.Rot>
2.2065

> <Gold.Chemscore.Internal.Correction>
   9.000000E+99

> <Gold.Chemscore.Hbonds>
donor molecule, donor type, donor heavy atom, donor atom, acceptor molecule, acceptor atom, score
      P1  H  7989  7998       L1    13  0.04
      P1  H 10752 10765       L1     1  0.92

> <Gold.Chemscore.Hbond.Weighted>
-5.4020

> <Gold.Chemscore.Metal.Weighted>
-0.0000

> <Gold.Chemscore.Lipo.Weighted>
-13.1924

> <Gold.Chemscore.Internal_Hbond.Weighted>
0.0000

> <Gold.Chemscore.DEClash.Weighted>
0.0718

> <Gold.Chemscore.DEInternal.Weighted>
1.0882

> <Gold.Chemscore.Rot.Weighted>
5.6485

> <Gold.Chemscore.Internal.Correction.Weighted>
   9.000000E+99

> <Gold.Protein.RotatedTorsions>
[ 6907 6896 6895 6894 ] final   49.05 input  -60.11 | X-H torsion
[ 7974 7965 7964 7962 ] final -128.01 input  175.53 | X-H torsion
[ 8008 7997 7996 7995 ] final -174.09 input   59.86 | X-H torsion
[ 10167 10162 10161 10158 ] final  -96.19 input  -65.29 | X-H torsion
[ 10718 10713 10712 10709 ] final   52.69 input   66.30 | X-H torsion
[ 10763 10752 10751 10750 ] final -121.10 input  -60.55 | X-H torsion
[ 11005 11000 10999 10996 ] final  176.50 input  -57.11 | X-H torsion

> <Gold.Protein.ActiveResidues>
 VAL166  LYS551  ARG553  GLY616  TRP617  ASP618  TYR619  PRO620  LYS621  CYS622 
 ASP623  PHE694  ASN695  SER759  ASP760  ASP761  ALA762  ILE779  LEU786  VAL792 
 PHE793  MET794  SER795  GLU796  ALA797  LYS798  CYS799  TRP800  GLU811  SER814 

> <Gold.Protein.RotatedAtoms>
  152.2865  134.7770  160.0386 H   0  0  0  0  0  0  0  0  0  0  0  0  # atno 6907 bound_to 6896
  151.8331  133.3406  159.3628 H   0  0  0  0  0  0  0  0  0  0  0  0  # atno 6908 bound_to 6896
  150.7211  134.5392  159.5783 H   0  0  0  0  0  0  0  0  0  0  0  0  # atno 6909 bound_to 6896
  144.9714  140.7549  143.4668 H   0  0  0  0  0  0  0  0  0  0  0  0  # atno 7974 bound_to 7965
  155.9658  140.1153  157.0856 H   0  0  0  0  0  0  0  0  0  0  0  0  # atno 8008 bound_to 7997
  154.4143  140.1173  156.5307 H   0  0  0  0  0  0  0  0  0  0  0  0  # atno 8009 bound_to 7997
  155.6662  140.3473  155.4803 H   0  0  0  0  0  0  0  0  0  0  0  0  # atno 8010 bound_to 7997
  140.2964  143.3189  152.0293 H   0  0  0  0  0  0  0  0  0  0  0  0  # atno 10167 bound_to 10162
  157.5098  130.8493  149.8420 H   0  0  0  0  0  0  0  0  0  0  0  0  # atno 10718 bound_to 10713
  154.8660  135.4180  154.2566 H   0  0  0  0  0  0  0  0  0  0  0  0  # atno 10763 bound_to 10752
  153.3502  135.6998  153.6801 H   0  0  0  0  0  0  0  0  0  0  0  0  # atno 10764 bound_to 10752
  153.5743  135.3585  155.2823 H   0  0  0  0  0  0  0  0  0  0  0  0  # atno 10765 bound_to 10752
  140.3738  134.7006  157.4409 H   0  0  0  0  0  0  0  0  0  0  0  0  # atno 11005 bound_to 11000
  145.2554  139.2014  143.4920 LP  0  0  0  0  0  0  0  0  0  0  0  0  # atno 17320 bound_to 7965
  146.3383  140.2474  142.8597 LP  0  0  0  0  0  0  0  0  0  0  0  0  # atno 17321 bound_to 7965
  139.4925  144.6488  151.6721 LP  0  0  0  0  0  0  0  0  0  0  0  0  # atno 17342 bound_to 10162
  140.5688  144.0144  150.6206 LP  0  0  0  0  0  0  0  0  0  0  0  0  # atno 17343 bound_to 10162
  156.0281  130.3773  150.1764 LP  0  0  0  0  0  0  0  0  0  0  0  0  # atno 17370 bound_to 10713
  156.9953  130.9906  151.3404 LP  0  0  0  0  0  0  0  0  0  0  0  0  # atno 17371 bound_to 10713
  140.0531  134.6102  155.8838 LP  0  0  0  0  0  0  0  0  0  0  0  0  # atno 17394 bound_to 11000
  141.1946  133.6583  156.5602 LP  0  0  0  0  0  0  0  0  0  0  0  0  # atno 17395 bound_to 11000

$$$$
