#       Name:                AV-unprocessed.smi:2772
#       Creating user name   scv26
#       Creation time:       Fri Mar 27 15:12:13 2020


#       File generated by GOLD software.
#

@<TRIPOS>MOLECULE
AV-unprocessed.smi:2772
    58    60     1
SMALL
NO_CHARGES


@<TRIPOS>ATOM
      1 ****        -8.0191   5.2545  -0.0229 C.3            1 S1                 0.0000
      2 ****        -6.8752   4.2627  -0.0062 C.ar           1 S1                 0.0000
      3 ****        -7.0444   2.9184   0.3861 C.ar           1 S1                 0.0000
      4 ****        -5.9297   2.0542   0.3798 C.ar           1 S1                 0.0000
      5 ****        -4.6633   2.5447  -0.0088 C.ar           1 S1                 0.0000
      6 ****        -3.5706   1.6337  -0.0064 N.am           1 S1                 0.0000
      7 ****        -2.2535   1.9060  -0.0165 C.2            1 S1                 0.0000
      8 ****        -1.7634   3.0347  -0.0085 O.2            1 S1                 0.0000
      9 ****        -1.5229   0.7806  -0.0198 N.am           1 S1                 0.0000
     10 ****        -0.0625   0.7148  -0.0195 C.3            1 S1                 0.0000
     11 ****         0.4367  -0.0544  -1.2459 C.3            1 S1                 0.0000
     12 ****         1.9688  -0.1901  -1.2317 C.3            1 S1                 0.0000
     13 ****         2.4766  -0.8449   0.0120 N.4            1 S1                 1.0000
     14 ****         3.9695  -1.0353   0.0179 C.3            1 S1                 0.0000
     15 ****         4.5150  -1.7972  -1.2167 C.3            1 S1                 0.0000
     16 ****         4.0756  -3.2735  -1.2226 C.3            1 S1                 0.0000
     17 ****         4.5198  -3.9664   0.0129 N.4            1 S1                 1.0000
     18 ****         4.1822  -5.4063   0.0059 C.3            1 S1                 0.0000
     19 ****         4.0536  -3.2803   1.2440 C.3            1 S1                 0.0000
     20 ****         4.4966  -1.8053   1.2548 C.3            1 S1                 0.0000
     21 ****         1.9718  -0.1343   1.2261 C.3            1 S1                 0.0000
     22 ****         0.4398   0.0014   1.2389 C.3            1 S1                 0.0000
     23 ****        -4.5612   3.9017  -0.4060 C.ar           1 S1                 0.0000
     24 ****        -5.6535   4.6962  -0.3867 N.pl3          1 S1                 1.0000
     25 ****        -8.9445   4.7942   0.3244 H              1 S1                 0.0000
     26 ****        -8.1828   5.6288  -1.0339 H              1 S1                 0.0000
     27 ****        -7.7964   6.1020   0.6262 H              1 S1                 0.0000
     28 ****        -8.0141   2.5507   0.6892 H              1 S1                 0.0000
     29 ****        -6.0497   1.0228   0.6786 H              1 S1                 0.0000
     30 ****        -3.8213   0.6577   0.0584 H              1 S1                 0.0000
     31 ****        -2.0157  -0.1007  -0.0224 H              1 S1                 0.0000
     32 ****         0.3672   1.7181  -0.0435 H              1 S1                 0.0000
     33 ****        -0.0164  -1.0466  -1.2752 H              1 S1                 0.0000
     34 ****         0.1233   0.4552  -2.1581 H              1 S1                 0.0000
     35 ****         2.2313  -0.7701  -2.1133 H              1 S1                 0.0000
     36 ****         2.4331   0.7911  -1.3425 H              1 S1                 0.0000
     37 ****         4.4154  -0.0392   0.0227 H              1 S1                 0.0000
     38 ****         4.2619  -1.3121  -2.1573 H              1 S1                 0.0000
     39 ****         5.6054  -1.7659  -1.1898 H              1 S1                 0.0000
     40 ****         2.9913  -3.3471  -1.3190 H              1 S1                 0.0000
     41 ****         4.5048  -3.7762  -2.0904 H              1 S1                 0.0000
     42 ****         3.1020  -5.5563  -0.0171 H              1 S1                 0.0000
     43 ****         4.5772  -5.8994   0.8948 H              1 S1                 0.0000
     44 ****         4.6147  -5.8985  -0.8660 H              1 S1                 0.0000
     45 ****         2.9674  -3.3521   1.3194 H              1 S1                 0.0000
     46 ****         4.4651  -3.7889   2.1168 H              1 S1                 0.0000
     47 ****         5.5874  -1.7760   1.2440 H              1 S1                 0.0000
     48 ****         4.2298  -1.3280   2.1953 H              1 S1                 0.0000
     49 ****         2.2393  -0.6709   2.1334 H              1 S1                 0.0000
     50 ****         2.4346   0.8518   1.2894 H              1 S1                 0.0000
     51 ****         0.1289   0.5519   2.1280 H              1 S1                 0.0000
     52 ****        -0.0132  -0.9885   1.3142 H              1 S1                 0.0000
     53 ****        -3.6596   4.3862  -0.7480 H              1 S1                 0.0000
     54 ****         2.0661  -1.7672   0.0323 H              1 S1                 0.0000
     55 ****         5.5289  -3.9137   0.0226 H              1 S1                 0.0000
     56 ****        -5.5506   5.6695  -0.6753 H              1 S1                 0.0000
     57 ****        -2.3585   3.8382   0.0067 LP             1 S1                 0.0000
     58 ****        -0.7699   3.1485  -0.0171 LP             1 S1                 0.0000
@<TRIPOS>BOND
    1    1    2 1     
    2    1   25 1     
    3    1   26 1     
    4    1   27 1     
    5    2   24 ar    
    6    2    3 ar    
    7    3    4 ar    
    8    3   28 1     
    9    4    5 ar    
   10    4   29 1     
   11    5    6 1     
   12    5   23 ar    
   13    6    7 am    
   14    6   30 1     
   15    7    8 2     
   16    7    9 am    
   17    9   10 1     
   18    9   31 1     
   19   10   22 1     
   20   10   11 1     
   21   10   32 1     
   22   11   12 1     
   23   11   33 1     
   24   11   34 1     
   25   12   13 1     
   26   12   35 1     
   27   12   36 1     
   28   13   14 1     
   29   13   21 1     
   30   13   54 1     
   31   14   20 1     
   32   14   15 1     
   33   14   37 1     
   34   15   16 1     
   35   15   38 1     
   36   15   39 1     
   37   16   17 1     
   38   16   40 1     
   39   16   41 1     
   40   17   18 1     
   41   17   19 1     
   42   17   55 1     
   43   18   42 1     
   44   18   43 1     
   45   18   44 1     
   46   19   20 1     
   47   19   45 1     
   48   19   46 1     
   49   20   47 1     
   50   20   48 1     
   51   21   22 1     
   52   21   49 1     
   53   21   50 1     
   54   22   51 1     
   55   22   52 1     
   56   23   24 ar    
   57   23   53 1     
   58   24   56 1     
   59    8   57 1     
   60    8   58 1     
@<TRIPOS>SUBSTRUCTURE
      1 S1             1
@<TRIPOS>SET
LONE_PAIRS      STATIC     ATOMS    <user>   **** ""
2 57 58
DONOR_HYDROGENS      STATIC     ATOMS    <user>   **** ""
5 30 31 54 55 56
ATOM$BLUE        STATIC     ATOMS    COLORGROUP SYSTEM
2 57 58
ATOM$RED        STATIC     ATOMS    COLORGROUP SYSTEM
5 30 31 54 55 56
