AV-unprocessed.smi:2317|AV-procd|sdf|9274|dock2
  -GOLD-   2272012493D 1   1.00000     0.00000
 Structure written by MMmdl.
 37 38  0  0  0  0  0  0  0  0  1 V2000
  145.9439  138.5003  153.8460 O   0  0  0  0  0  0  0  0  0  0  0  0
  146.8701  138.1066  153.1378 C   0  0  0  0  0  0  0  0  0  0  0  0
  146.7186  137.2037  152.1576 N   0  0  0  0  0  0  0  0  0  0  0  0
  145.4567  136.5830  151.7613 C   0  0  0  0  0  0  0  0  0  0  0  0
  145.6369  135.1279  151.2652 C   0  0  1  0  0  0  0  0  0  0  0  0
  146.0735  134.1808  152.4086 C   0  0  0  0  0  0  0  0  0  0  0  0
  146.2082  132.7230  151.9425 C   0  0  0  0  0  0  0  0  0  0  0  0
  144.9042  132.2210  151.3101 C   0  0  0  0  0  0  0  0  0  0  0  0
  144.4820  133.1291  150.1482 C   0  0  0  0  0  0  0  0  0  0  0  0
  144.3417  134.5943  150.6014 C   0  0  2  0  0  0  0  0  0  0  0  0
  144.0166  135.3656  149.4618 O   0  0  0  0  0  0  0  0  0  0  0  0
  148.1533  138.4930  153.2440 N   0  0  0  0  0  0  0  0  0  0  0  0
  148.7387  139.4333  154.1365 C   0  0  0  0  0  0  0  0  0  0  0  0
  148.1072  140.6231  154.5743 C   0  0  0  0  0  0  0  0  0  0  0  0
  148.8080  141.4771  155.4495 C   0  0  0  0  0  0  0  0  0  0  0  0
  150.0584  141.2270  155.8916 N   0  0  0  0  0  0  0  0  0  0  0  0
  150.6620  140.0987  155.4632 C   0  0  0  0  0  0  0  0  0  0  0  0
  150.0507  139.1778  154.5889 C   0  0  0  0  0  0  0  0  0  0  0  0
  150.7163  138.0654  154.1944 F   0  0  0  0  0  0  0  0  0  0  0  0
  147.5380  136.9322  151.6341 H   0  0  0  0  0  0  0  0  0  0  0  0
  144.7289  136.6175  152.5738 H   0  0  0  0  0  0  0  0  0  0  0  0
  145.0432  137.2019  150.9651 H   0  0  0  0  0  0  0  0  0  0  0  0
  146.4274  135.1235  150.5127 H   0  0  0  0  0  0  0  0  0  0  0  0
  147.0288  134.5005  152.8247 H   0  0  0  0  0  0  0  0  0  0  0  0
  145.3510  134.2345  153.2240 H   0  0  0  0  0  0  0  0  0  0  0  0
  147.0214  132.6429  151.2201 H   0  0  0  0  0  0  0  0  0  0  0  0
  146.4800  132.0875  152.7857 H   0  0  0  0  0  0  0  0  0  0  0  0
  145.0308  131.1975  150.9567 H   0  0  0  0  0  0  0  0  0  0  0  0
  144.1153  132.1951  152.0630 H   0  0  0  0  0  0  0  0  0  0  0  0
  145.2215  133.0566  149.3491 H   0  0  0  0  0  0  0  0  0  0  0  0
  143.5391  132.7744  149.7300 H   0  0  0  0  0  0  0  0  0  0  0  0
  143.5142  134.6715  151.3079 H   0  0  0  0  0  0  0  0  0  0  0  0
  144.7626  135.3738  148.8819 H   0  0  0  0  0  0  0  0  0  0  0  0
  148.8059  138.0242  152.6331 H   0  0  0  0  0  0  0  0  0  0  0  0
  147.1167  140.9056  154.2549 H   0  0  0  0  0  0  0  0  0  0  0  0
  148.3520  142.3912  155.7994 H   0  0  0  0  0  0  0  0  0  0  0  0
  151.6639  139.9252  155.8267 H   0  0  0  0  0  0  0  0  0  0  0  0
  1  2  2  0  0  0  0
  2  3  1  0  0  0  0
  2 12  1  0  0  0  0
  3  4  1  0  0  0  0
  3 20  1  0  0  0  0
  4  5  1  0  0  0  0
  4 21  1  0  0  0  0
  4 22  1  0  0  0  0
  5 10  1  0  0  0  0
  5  6  1  0  0  0  0
  5 23  1  0  0  0  0
  6  7  1  0  0  0  0
  6 24  1  0  0  0  0
  6 25  1  0  0  0  0
  7  8  1  0  0  0  0
  7 26  1  0  0  0  0
  7 27  1  0  0  0  0
  8  9  1  0  0  0  0
  8 28  1  0  0  0  0
  8 29  1  0  0  0  0
  9 10  1  0  0  0  0
  9 30  1  0  0  0  0
  9 31  1  0  0  0  0
 10 11  1  0  0  0  0
 10 32  1  0  0  0  0
 11 33  1  0  0  0  0
 12 13  1  0  0  0  0
 12 34  1  0  0  0  0
 13 18  1  0  0  0  0
 13 14  2  0  0  0  0
 14 15  1  0  0  0  0
 14 35  1  0  0  0  0
 15 16  2  0  0  0  0
 15 36  1  0  0  0  0
 16 17  1  0  0  0  0
 17 18  2  0  0  0  0
 17 37  1  0  0  0  0
 18 19  1  0  0  0  0
M  END
> <s_m_source_file>
AV-unprocessed.smi

> <i_m_source_file_index>
2317

> <i_lp_mmshare_version>
43012

> <i_f3d_flags>
0

> <s_epik_input>
RmMxW2NIXW5bY0hdW2NIXWMxW05IXUMoPU8pW05IXVtDSDJdW0NAQEhdMltDSDJdW0NIMl1bQ0gyXVtDSDJdW0NASF0yW09IXQ==

> <s_epik_cmdline>
J2VwaWtfcHl0aG9uJywgJy1waCcsICc3LjAnLCAnLXRuJywgJzgnLCAnLW1hJywgJzIwMCcsICctbWV0YWxfYmluZGluZycsICctaW1hZScsICc8aW5maWxlLm1hZT4nLCAnLW9tYWUnLCAnPG91dGZpbGUubWFlPic=

> <r_epik_Ionization_Penalty>
0.00317647

> <r_epik_Ionization_Penalty_Charging>
0

> <r_epik_Ionization_Penalty_Neutral>
0.00317647

> <r_epik_State_Penalty>
0.0022093

> <r_epik_Charging_Adjusted_Penalty>
0.0022093

> <i_epik_Tot_Q>
0

> <i_epik_Tot_abs_Q>
0

> <r_epik_Metal_State_Penalty>
-0

> <b_epik_Metal_Only>
0

> <s_lp_Force_Field>
OPLS_2005

> <r_lp_Energy>
17.8728

> <b_lp_Chiralities_Consistent>
1

> <s_lp_Variant>
AV-unprocessed.smi:2317-4

> <Gold.Version>
5.8.1

> <Gold.Id.Protein>
6NUR|6NUR_protein|mol2

> <Gold.PLP.Fitness>
44.8049

> <Gold.PLP.PLP>
-34.8499

> <Gold.PLP.part.hbond>
-4.0994

> <Gold.PLP.part.metal>
0.0000

> <Gold.PLP.part.buried>
-0.9196

> <Gold.PLP.part.nonpolar>
-30.2057

> <Gold.PLP.part.repulsive>
0.4955

> <Gold.PLP.ligand.clash>
0.0000

> <Gold.PLP.ligand.torsion>
0.4749

> <Gold.PLP.Chemscore.Hbond>
2.6320

> <Gold.PLP.Chemscore.CHOScore>
1.0000

> <Gold.PLP.Chemscore.Metal>
0.0000

> <Gold.Chemscore.Hbonds>
donor molecule, donor type, donor heavy atom, donor atom, acceptor molecule, acceptor atom, score
      L1  H     3    20       P1  7948  0.83
      L1  H    11    33       P1  7921  1.00
      L1  H    12    34       P1  7948  0.74
      L1  C    15    36       P1  8028  1.00

> <Gold.PLP.Chemscore.Internal.Correction>
0.0087

> <Gold.Rescore>
     Score         DG    S(hbond)    S(metal)    S(lipo)     H(rot)  DE(clash)    DE(int)     intcor
     18.14     -18.74       2.76        0.00      73.60       1.79       0.06       0.53       ----

> <Gold.Chemscore.Fitness>
18.1399

> <Gold.Chemscore.DG>
-18.7358

> <Gold.Chemscore.ZeroCoef>
-5.4800

> <Gold.Chemscore.Hbond>
2.7590

> <Gold.Chemscore.Metal>
0.0000

> <Gold.Chemscore.Lipo>
73.5988

> <Gold.Chemscore.Internal_Hbond>
0.0000

> <Gold.Chemscore.DEClash>
0.0631

> <Gold.Chemscore.DEInternal>
0.5329

> <Gold.Chemscore.Rot>
1.7853

> <Gold.Chemscore.Internal.Correction>
   9.000000E+99

> <Gold.Chemscore.Hbonds>
donor molecule, donor type, donor heavy atom, donor atom, acceptor molecule, acceptor atom, score
      L1  H     3    20       P1  7948  0.80
      L1  H    11    33       P1  7921  0.99
      L1  H    12    34       P1  7948  0.73

> <Gold.Chemscore.Hbond.Weighted>
-9.2152

> <Gold.Chemscore.Metal.Weighted>
-0.0000

> <Gold.Chemscore.Lipo.Weighted>
-8.6111

> <Gold.Chemscore.Internal_Hbond.Weighted>
0.0000

> <Gold.Chemscore.DEClash.Weighted>
0.0631

> <Gold.Chemscore.DEInternal.Weighted>
0.5329

> <Gold.Chemscore.Rot.Weighted>
4.5704

> <Gold.Chemscore.Internal.Correction.Weighted>
   9.000000E+99

> <Gold.Protein.RotatedTorsions>
[ 6907 6896 6895 6894 ] final  -51.20 input  -60.11 | X-H torsion
[ 7974 7965 7964 7962 ] final   84.82 input  175.53 | X-H torsion
[ 8008 7997 7996 7995 ] final   24.48 input   59.86 | X-H torsion
[ 10167 10162 10161 10158 ] final   91.38 input  -65.29 | X-H torsion
[ 10718 10713 10712 10709 ] final  108.17 input   66.30 | X-H torsion
[ 10763 10752 10751 10750 ] final -149.72 input  -60.55 | X-H torsion
[ 11005 11000 10999 10996 ] final -116.31 input  -57.11 | X-H torsion

> <Gold.Protein.ActiveResidues>
 VAL166  LYS551  ARG553  GLY616  TRP617  ASP618  TYR619  PRO620  LYS621  CYS622 
 ASP623  PHE694  ASN695  SER759  ASP760  ASP761  ALA762  ILE779  LEU786  VAL792 
 PHE793  MET794  SER795  GLU796  ALA797  LYS798  CYS799  TRP800  GLU811  SER814 

> <Gold.Protein.RotatedAtoms>
  150.8634  134.7991  159.7099 H   0  0  0  0  0  0  0  0  0  0  0  0  # atno 6907 bound_to 6896
  152.4663  134.5063  159.9750 H   0  0  0  0  0  0  0  0  0  0  0  0  # atno 6908 bound_to 6896
  151.5163  133.3436  159.2929 H   0  0  0  0  0  0  0  0  0  0  0  0  # atno 6909 bound_to 6896
  145.5937  139.2342  143.2285 H   0  0  0  0  0  0  0  0  0  0  0  0  # atno 7974 bound_to 7965
  154.9969  140.3120  155.4883 H   0  0  0  0  0  0  0  0  0  0  0  0  # atno 8008 bound_to 7997
  156.2931  140.2239  156.5018 H   0  0  0  0  0  0  0  0  0  0  0  0  # atno 8009 bound_to 7997
  154.7653  140.0456  157.0995 H   0  0  0  0  0  0  0  0  0  0  0  0  # atno 8010 bound_to 7997
  139.8380  144.6655  150.9318 H   0  0  0  0  0  0  0  0  0  0  0  0  # atno 10167 bound_to 10162
  157.6597  131.0888  150.6266 H   0  0  0  0  0  0  0  0  0  0  0  0  # atno 10718 bound_to 10713
  154.8161  135.3302  154.7172 H   0  0  0  0  0  0  0  0  0  0  0  0  # atno 10763 bound_to 10752
  153.7812  135.6918  153.4892 H   0  0  0  0  0  0  0  0  0  0  0  0  # atno 10764 bound_to 10752
  153.1979  135.4527  155.0177 H   0  0  0  0  0  0  0  0  0  0  0  0  # atno 10765 bound_to 10752
  141.0430  133.9806  157.2963 H   0  0  0  0  0  0  0  0  0  0  0  0  # atno 11005 bound_to 11000
  146.1628  140.6763  142.9269 LP  0  0  0  0  0  0  0  0  0  0  0  0  # atno 17320 bound_to 7965
  144.7340  140.4755  143.6917 LP  0  0  0  0  0  0  0  0  0  0  0  0  # atno 17321 bound_to 7965
  140.7801  143.3939  151.1263 LP  0  0  0  0  0  0  0  0  0  0  0  0  # atno 17342 bound_to 10162
  139.7587  143.8668  152.3095 LP  0  0  0  0  0  0  0  0  0  0  0  0  # atno 17343 bound_to 10162
  156.6569  130.4501  149.5700 LP  0  0  0  0  0  0  0  0  0  0  0  0  # atno 17370 bound_to 10713
  156.2095  130.6670  151.1255 LP  0  0  0  0  0  0  0  0  0  0  0  0  # atno 17371 bound_to 10713
  139.9290  135.0200  156.8335 LP  0  0  0  0  0  0  0  0  0  0  0  0  # atno 17394 bound_to 11000
  140.6199  134.0004  155.7613 LP  0  0  0  0  0  0  0  0  0  0  0  0  # atno 17395 bound_to 11000

$$$$
