AV-unprocessed.smi:1831|AV-procd|sdf|7463|dock4
  -GOLD-   22720 9153D 1   1.00000     0.00000
 Structure written by MMmdl.
 40 41  0  0  0  0  0  0  0  0  3 V2000
  151.4198  143.0445  155.6656 C   0  0  0  0  0  0  0  0  0  0  0  0
  151.3179  141.5956  155.3324 C   0  0  0  0  0  0  0  0  0  0  0  0
  152.2135  140.6942  155.7423 N   0  0  0  0  0  0  0  0  0  0  0  0
  151.9030  139.4138  155.3080 N   0  0  0  0  0  0  0  0  0  0  0  0
  150.7742  139.3626  154.5873 C   0  0  0  0  0  0  0  0  0  0  0  0
  150.2979  138.2158  154.0751 N   0  5  0  0  0  0  0  0  0  0  0  0
  150.5677  137.0422  154.6879 C   0  0  0  0  0  0  0  0  0  0  0  0
  151.3867  136.8630  155.5933 O   0  0  0  0  0  0  0  0  0  0  0  0
  149.8263  136.0157  154.2437 N   0  0  0  0  0  0  0  0  0  0  0  0
  149.8858  134.6428  154.7381 C   0  0  0  0  0  0  0  0  0  0  0  0
  148.4878  134.0457  155.0260 C   0  0  1  0  0  0  0  0  0  0  0  0
  147.5140  135.1239  155.5053 C   0  0  0  0  0  0  0  0  0  0  0  0
  146.8429  135.6493  154.2255 C   0  0  0  0  0  0  0  0  0  0  0  0
  147.1984  134.7092  153.1333 N   0  3  2  0  0  0  0  0  0  0  0  0
  146.1308  134.4599  152.1254 C   0  0  0  0  0  0  0  0  0  0  0  0
  146.5657  133.4082  151.0868 C   0  0  0  0  0  0  0  0  0  0  0  0
  145.7373  135.7623  151.4041 C   0  0  0  0  0  0  0  0  0  0  0  0
  147.7551  133.5101  153.7911 C   0  0  0  0  0  0  0  0  0  0  0  0
  150.0048  140.9350  154.3729 S   0  0  0  0  0  0  0  0  0  0  0  0
  150.9124  143.2449  156.6092 H   0  0  0  0  0  0  0  0  0  0  0  0
  150.9557  143.6449  154.8831 H   0  0  0  0  0  0  0  0  0  0  0  0
  152.4649  143.3414  155.7578 H   0  0  0  0  0  0  0  0  0  0  0  0
  149.1682  136.2071  153.5020 H   0  0  0  0  0  0  0  0  0  0  0  0
  150.3834  134.0418  153.9767 H   0  0  0  0  0  0  0  0  0  0  0  0
  150.5222  134.5811  155.6225 H   0  0  0  0  0  0  0  0  0  0  0  0
  148.5927  133.2579  155.7731 H   0  0  0  0  0  0  0  0  0  0  0  0
  146.7594  134.6702  156.1494 H   0  0  0  0  0  0  0  0  0  0  0  0
  147.9985  135.9139  156.0806 H   0  0  0  0  0  0  0  0  0  0  0  0
  145.7637  135.7097  154.3726 H   0  0  0  0  0  0  0  0  0  0  0  0
  147.2024  136.6464  153.9691 H   0  0  0  0  0  0  0  0  0  0  0  0
  145.2522  134.0776  152.6471 H   0  0  0  0  0  0  0  0  0  0  0  0
  145.8053  133.2818  150.3159 H   0  0  0  0  0  0  0  0  0  0  0  0
  146.7202  132.4281  151.5379 H   0  0  0  0  0  0  0  0  0  0  0  0
  147.4931  133.6995  150.5916 H   0  0  0  0  0  0  0  0  0  0  0  0
  144.9707  135.5758  150.6515 H   0  0  0  0  0  0  0  0  0  0  0  0
  146.5946  136.2073  150.8978 H   0  0  0  0  0  0  0  0  0  0  0  0
  145.3330  136.5062  152.0902 H   0  0  0  0  0  0  0  0  0  0  0  0
  148.3847  132.9198  153.1280 H   0  0  0  0  0  0  0  0  0  0  0  0
  146.9348  132.8647  154.1099 H   0  0  0  0  0  0  0  0  0  0  0  0
  147.9755  135.1293  152.6424 H   0  0  0  0  0  0  0  0  0  0  0  0
  1  2  1  0  0  0  0
  1 20  1  0  0  0  0
  1 21  1  0  0  0  0
  1 22  1  0  0  0  0
  2 19  1  0  0  0  0
  2  3  2  0  0  0  0
  3  4  1  0  0  0  0
  4  5  2  0  0  0  0
  5  6  1  0  0  0  0
  5 19  1  0  0  0  0
  6  7  1  0  0  0  0
  7  8  2  0  0  0  0
  7  9  1  0  0  0  0
  9 10  1  0  0  0  0
  9 23  1  0  0  0  0
 10 11  1  0  0  0  0
 10 24  1  0  0  0  0
 10 25  1  0  0  0  0
 11 18  1  0  0  0  0
 11 12  1  0  0  0  0
 11 26  1  0  0  0  0
 12 13  1  0  0  0  0
 12 27  1  0  0  0  0
 12 28  1  0  0  0  0
 13 14  1  0  0  0  0
 13 29  1  0  0  0  0
 13 30  1  0  0  0  0
 14 15  1  0  0  0  0
 14 18  1  0  0  0  0
 14 40  1  0  0  0  0
 15 16  1  0  0  0  0
 15 17  1  0  0  0  0
 15 31  1  0  0  0  0
 16 32  1  0  0  0  0
 16 33  1  0  0  0  0
 16 34  1  0  0  0  0
 17 35  1  0  0  0  0
 17 36  1  0  0  0  0
 17 37  1  0  0  0  0
 18 38  1  0  0  0  0
 18 39  1  0  0  0  0
M  CHG  1   6  -1
M  CHG  1  14   1
M  END
> <s_m_source_file>
AV-unprocessed.smi

> <i_m_source_file_index>
1831

> <i_lp_mmshare_version>
43012

> <i_f3d_flags>
0

> <s_epik_input>
W0NIM11jMW5uYyhzMSlbTkhdQyg9TylbTkhdW0NIMl1bQ0BASF0yW0NIMl1bQ0gyXU4oW0NIMl0yKVtDSF0oW0NIM10pW0NIM10=

> <s_epik_cmdline>
J2VwaWtfcHl0aG9uJywgJy1waCcsICc3LjAnLCAnLXRuJywgJzgnLCAnLW1hJywgJzIwMCcsICctbWV0YWxfYmluZGluZycsICctaW1hZScsICc8aW5maWxlLm1hZT4nLCAnLW9tYWUnLCAnPG91dGZpbGUubWFlPic=

> <r_lp_tautomer_probability>
1

> <r_epik_Ionization_Penalty>
4.24531

> <r_epik_Ionization_Penalty_Charging>
4.11954

> <r_epik_Ionization_Penalty_Neutral>
0.125766

> <r_epik_State_Penalty>
4.11879

> <r_epik_Charging_Adjusted_Penalty>
8.23833

> <i_epik_Tot_Q>
0

> <i_epik_Tot_abs_Q>
2

> <r_epik_Metal_State_Penalty>
0.659341

> <b_epik_Metal_Only>
1

> <s_lp_Force_Field>
OPLS_2005

> <r_lp_Energy>
23.48

> <b_lp_Chiralities_Consistent>
1

> <s_lp_Variant>
AV-unprocessed.smi:1831-8

> <Gold.Version>
5.8.1

> <Gold.Id.Protein>
6NUR|6NUR_protein|mol2

> <Gold.PLP.Fitness>
40.9125

> <Gold.PLP.PLP>
-27.9727

> <Gold.PLP.part.hbond>
-4.9946

> <Gold.PLP.part.metal>
0.0000

> <Gold.PLP.part.buried>
-2.2860

> <Gold.PLP.part.nonpolar>
-19.5622

> <Gold.PLP.part.repulsive>
0.3456

> <Gold.PLP.ligand.clash>
0.0000

> <Gold.PLP.ligand.torsion>
0.5643

> <Gold.PLP.Chemscore.Hbond>
4.6453

> <Gold.PLP.Chemscore.CHOScore>
0.0000

> <Gold.PLP.Chemscore.Metal>
0.0000

> <Gold.Chemscore.Hbonds>
donor molecule, donor type, donor heavy atom, donor atom, acceptor molecule, acceptor atom, score
      L1  H     9    23       P1  7948  0.86
      L1  H    14    40       P1  7948  2.00
      P1  H  7997  8009       L1     3  0.17
      P1  H 10752 10763       L1     8  0.50

> <Gold.PLP.Chemscore.Internal.Correction>
0.1327

> <Gold.Rescore>
     Score         DG    S(hbond)    S(metal)    S(lipo)     H(rot)  DE(clash)    DE(int)     intcor
     14.53     -18.39       3.23        0.00      51.31       1.51       0.28       3.58       ----

> <Gold.Chemscore.Fitness>
14.5265

> <Gold.Chemscore.DG>
-18.3853

> <Gold.Chemscore.ZeroCoef>
-5.4800

> <Gold.Chemscore.Hbond>
3.2263

> <Gold.Chemscore.Metal>
0.0000

> <Gold.Chemscore.Lipo>
51.3080

> <Gold.Chemscore.Internal_Hbond>
0.0000

> <Gold.Chemscore.DEClash>
0.2835

> <Gold.Chemscore.DEInternal>
3.5753

> <Gold.Chemscore.Rot>
1.5131

> <Gold.Chemscore.Internal.Correction>
   9.000000E+99

> <Gold.Chemscore.Hbonds>
donor molecule, donor type, donor heavy atom, donor atom, acceptor molecule, acceptor atom, score
      L1  H     9    23       P1  7948  0.78
      L1  H    14    40       P1  7948  0.96
      P1  H  7997  8009       L1     3  0.02
      P1  H 10752 10763       L1     8  0.22

> <Gold.Chemscore.Hbond.Weighted>
-10.7758

> <Gold.Chemscore.Metal.Weighted>
-0.0000

> <Gold.Chemscore.Lipo.Weighted>
-6.0030

> <Gold.Chemscore.Internal_Hbond.Weighted>
0.0000

> <Gold.Chemscore.DEClash.Weighted>
0.2835

> <Gold.Chemscore.DEInternal.Weighted>
3.5753

> <Gold.Chemscore.Rot.Weighted>
3.8735

> <Gold.Chemscore.Internal.Correction.Weighted>
   9.000000E+99

> <Gold.Protein.RotatedTorsions>
[ 6907 6896 6895 6894 ] final  -41.31 input  -60.11 | X-H torsion
[ 7974 7965 7964 7962 ] final  -85.21 input  175.53 | X-H torsion
[ 8008 7997 7996 7995 ] final -169.84 input   59.86 | X-H torsion
[ 10167 10162 10161 10158 ] final  138.24 input  -65.29 | X-H torsion
[ 10718 10713 10712 10709 ] final  178.66 input   66.30 | X-H torsion
[ 10763 10752 10751 10750 ] final   62.03 input  -60.55 | X-H torsion
[ 11005 11000 10999 10996 ] final  131.70 input  -57.11 | X-H torsion

> <Gold.Protein.ActiveResidues>
 VAL166  LYS551  ARG553  GLY616  TRP617  ASP618  TYR619  PRO620  LYS621  CYS622 
 ASP623  PHE694  ASN695  SER759  ASP760  ASP761  ALA762  ILE779  LEU786  VAL792 
 PHE793  MET794  SER795  GLU796  ALA797  LYS798  CYS799  TRP800  GLU811  SER814 

> <Gold.Protein.RotatedAtoms>
  150.9683  134.9060  159.7771 H   0  0  0  0  0  0  0  0  0  0  0  0  # atno 6907 bound_to 6896
  152.5181  134.3577  159.9283 H   0  0  0  0  0  0  0  0  0  0  0  0  # atno 6908 bound_to 6896
  151.3587  133.3857  159.2722 H   0  0  0  0  0  0  0  0  0  0  0  0  # atno 6909 bound_to 6896
  145.4963  140.9550  143.1784 H   0  0  0  0  0  0  0  0  0  0  0  0  # atno 7974 bound_to 7965
  155.9104  140.1056  157.1284 H   0  0  0  0  0  0  0  0  0  0  0  0  # atno 8008 bound_to 7997
  154.4038  140.1275  156.4614 H   0  0  0  0  0  0  0  0  0  0  0  0  # atno 8009 bound_to 7997
  155.7317  140.3468  155.5065 H   0  0  0  0  0  0  0  0  0  0  0  0  # atno 8010 bound_to 7997
  139.5117  144.6365  151.5684 H   0  0  0  0  0  0  0  0  0  0  0  0  # atno 10167 bound_to 10162
  156.8872  130.9835  151.3054 H   0  0  0  0  0  0  0  0  0  0  0  0  # atno 10718 bound_to 10713
  152.9969  135.5480  154.6127 H   0  0  0  0  0  0  0  0  0  0  0  0  # atno 10763 bound_to 10752
  154.5444  135.2822  155.1068 H   0  0  0  0  0  0  0  0  0  0  0  0  # atno 10764 bound_to 10752
  154.2332  135.6430  153.5235 H   0  0  0  0  0  0  0  0  0  0  0  0  # atno 10765 bound_to 10752
  139.9746  134.9567  156.9476 H   0  0  0  0  0  0  0  0  0  0  0  0  # atno 11005 bound_to 11000
  144.7805  139.6536  143.7156 LP  0  0  0  0  0  0  0  0  0  0  0  0  # atno 17320 bound_to 7965
  146.2253  139.5711  142.9591 LP  0  0  0  0  0  0  0  0  0  0  0  0  # atno 17321 bound_to 7965
  140.6115  143.9427  150.6457 LP  0  0  0  0  0  0  0  0  0  0  0  0  # atno 17342 bound_to 10162
  140.2671  143.3482  152.1271 LP  0  0  0  0  0  0  0  0  0  0  0  0  # atno 17343 bound_to 10162
  157.6105  130.8579  149.8944 LP  0  0  0  0  0  0  0  0  0  0  0  0  # atno 17370 bound_to 10713
  156.0647  130.3694  150.0905 LP  0  0  0  0  0  0  0  0  0  0  0  0  # atno 17371 bound_to 10713
  140.5222  134.0896  155.7295 LP  0  0  0  0  0  0  0  0  0  0  0  0  # atno 17394 bound_to 11000
  141.1424  133.9115  157.2295 LP  0  0  0  0  0  0  0  0  0  0  0  0  # atno 17395 bound_to 11000

$$$$
