AV-unprocessed.smi:34|AV-procd|sdf|241|dock5
  -GOLD-   2262015593D 1   1.00000     0.00000
 Structure written by MMmdl.
 54 58  0  0  0  0  0  0  0  0  2 V2000
  156.9387  133.5662  155.4651 O   0  0  0  0  0  0  0  0  0  0  0  0
  158.1284  133.8843  155.4049 C   0  0  0  0  0  0  0  0  0  0  0  0
  159.0503  133.8478  156.4005 N   0  5  0  0  0  0  0  0  0  0  0  0
  158.6510  133.8431  157.6813 C   0  0  0  0  0  0  0  0  0  0  0  0
  159.4164  133.2521  158.6344 N   0  0  0  0  0  0  0  0  0  0  0  0
  159.0197  133.2445  159.9126 C   0  0  0  0  0  0  0  0  0  0  0  0
  157.9095  133.7589  160.4518 N   0  0  0  0  0  0  0  0  0  0  0  0
  157.1285  134.3473  159.4999 C   0  0  0  0  0  0  0  0  0  0  0  0
  157.4255  134.4244  158.1091 C   0  0  0  0  0  0  0  0  0  0  0  0
  156.4137  135.0858  157.4287 N   0  0  0  0  0  0  0  0  0  0  0  0
  155.5701  135.3784  158.4168 C   0  0  0  0  0  0  0  0  0  0  0  0
  155.9163  134.9933  159.6630 N   0  0  0  0  0  0  0  0  0  0  0  0
  155.1777  135.1687  160.9546 C   0  0  2  0  0  0  0  0  0  0  0  0
  153.8952  135.6604  160.6828 O   0  0  0  0  0  0  0  0  0  0  0  0
  153.7355  136.9811  161.1939 C   0  0  2  0  0  0  0  0  0  0  0  0
  154.0101  138.0073  160.0822 C   0  0  0  0  0  0  0  0  0  0  0  0
  153.6225  139.2974  160.5257 O   0  0  0  0  0  0  0  0  0  0  0  0
  153.3900  140.2779  159.6321 C   0  0  0  0  0  0  0  0  0  0  0  0
  153.5097  140.1332  158.4138 O   0  0  0  0  0  0  0  0  0  0  0  0
  152.9746  141.5590  160.2731 C   0  0  0  0  0  0  0  0  0  0  0  0
  153.3009  141.7935  161.6294 C   0  0  0  0  0  0  0  0  0  0  0  0
  152.9181  142.9920  162.2626 C   0  0  0  0  0  0  0  0  0  0  0  0
  152.2042  143.9710  161.5472 C   0  0  0  0  0  0  0  0  0  0  0  0
  151.8737  143.7499  160.1974 C   0  0  0  0  0  0  0  0  0  0  0  0
  152.2556  142.5519  159.5625 C   0  0  0  0  0  0  0  0  0  0  0  0
  154.7236  137.0480  162.3599 C   0  0  1  0  0  0  0  0  0  0  0  0
  154.1573  136.5230  163.4479 F   0  0  0  0  0  0  0  0  0  0  0  0
  155.8735  136.1633  161.9118 C   0  0  2  0  0  0  0  0  0  0  0  0
  156.8984  136.9433  161.3204 O   0  0  0  0  0  0  0  0  0  0  0  0
  158.6638  134.4479  154.1151 C   0  0  0  0  0  0  0  0  0  0  0  0
  157.7813  134.6902  153.0376 C   0  0  0  0  0  0  0  0  0  0  0  0
  158.2650  135.1905  151.8131 C   0  0  0  0  0  0  0  0  0  0  0  0
  159.6390  135.4468  151.6496 C   0  0  0  0  0  0  0  0  0  0  0  0
  160.5295  135.1979  152.7103 C   0  0  0  0  0  0  0  0  0  0  0  0
  160.0467  134.6963  153.9347 C   0  0  0  0  0  0  0  0  0  0  0  0
  159.6905  132.7569  160.6043 H   0  0  0  0  0  0  0  0  0  0  0  0
  154.6479  135.9029  158.2169 H   0  0  0  0  0  0  0  0  0  0  0  0
  155.1033  134.1598  161.3625 H   0  0  0  0  0  0  0  0  0  0  0  0
  152.7101  137.1080  161.5432 H   0  0  0  0  0  0  0  0  0  0  0  0
  155.0642  138.0084  159.8037 H   0  0  0  0  0  0  0  0  0  0  0  0
  153.4379  137.7478  159.1906 H   0  0  0  0  0  0  0  0  0  0  0  0
  153.8476  141.0559  162.1993 H   0  0  0  0  0  0  0  0  0  0  0  0
  153.1724  143.1594  163.2989 H   0  0  0  0  0  0  0  0  0  0  0  0
  151.9103  144.8896  162.0331 H   0  0  0  0  0  0  0  0  0  0  0  0
  151.3254  144.5003  159.6470 H   0  0  0  0  0  0  0  0  0  0  0  0
  151.9844  142.4138  158.5260 H   0  0  0  0  0  0  0  0  0  0  0  0
  155.0250  138.0626  162.6243 H   0  0  0  0  0  0  0  0  0  0  0  0
  156.3099  135.6156  162.7479 H   0  0  0  0  0  0  0  0  0  0  0  0
  156.6489  137.1401  160.4298 H   0  0  0  0  0  0  0  0  0  0  0  0
  156.7238  134.4967  153.1454 H   0  0  0  0  0  0  0  0  0  0  0  0
  157.5806  135.3754  150.9986 H   0  0  0  0  0  0  0  0  0  0  0  0
  160.0100  135.8297  150.7105 H   0  0  0  0  0  0  0  0  0  0  0  0
  161.5853  135.3875  152.5848 H   0  0  0  0  0  0  0  0  0  0  0  0
  160.7498  134.5012  154.7316 H   0  0  0  0  0  0  0  0  0  0  0  0
  1  2  2  0  0  0  0
  2  3  1  0  0  0  0
  2 30  1  0  0  0  0
  3  4  1  0  0  0  0
  4  9  1  0  0  0  0
  4  5  2  0  0  0  0
  5  6  1  0  0  0  0
  6  7  2  0  0  0  0
  6 36  1  0  0  0  0
  7  8  1  0  0  0  0
  8 12  1  0  0  0  0
  8  9  2  0  0  0  0
  9 10  1  0  0  0  0
 10 11  2  0  0  0  0
 11 12  1  0  0  0  0
 11 37  1  0  0  0  0
 12 13  1  0  0  0  0
 13 28  1  0  0  0  0
 13 14  1  0  0  0  0
 13 38  1  0  0  0  0
 14 15  1  0  0  0  0
 15 16  1  0  0  0  0
 15 26  1  0  0  0  0
 15 39  1  0  0  0  0
 16 17  1  0  0  0  0
 16 40  1  0  0  0  0
 16 41  1  0  0  0  0
 17 18  1  0  0  0  0
 18 19  2  0  0  0  0
 18 20  1  0  0  0  0
 20 25  1  0  0  0  0
 20 21  2  0  0  0  0
 21 22  1  0  0  0  0
 21 42  1  0  0  0  0
 22 23  2  0  0  0  0
 22 43  1  0  0  0  0
 23 24  1  0  0  0  0
 23 44  1  0  0  0  0
 24 25  2  0  0  0  0
 24 45  1  0  0  0  0
 25 46  1  0  0  0  0
 26 27  1  0  0  0  0
 26 28  1  0  0  0  0
 26 47  1  0  0  0  0
 28 29  1  0  0  0  0
 28 48  1  0  0  0  0
 29 49  1  0  0  0  0
 30 35  1  0  0  0  0
 30 31  2  0  0  0  0
 31 32  1  0  0  0  0
 31 50  1  0  0  0  0
 32 33  2  0  0  0  0
 32 51  1  0  0  0  0
 33 34  1  0  0  0  0
 33 52  1  0  0  0  0
 34 35  2  0  0  0  0
 34 53  1  0  0  0  0
 35 54  1  0  0  0  0
M  CHG  1   3  -1
M  END
> <s_m_source_file>
AV-unprocessed.smi

> <i_m_source_file_index>
34

> <i_lp_mmshare_version>
43012

> <i_f3d_flags>
0

> <s_epik_input>
W2NIXTFbY0hdW2NIXVtjSF1bY0hdYzFDKD1PKVtOSF1jKG5bY0hdbjIpYyhjMjMpbltjSF1uM1tDQEBIXTRPW0NASF0oW0NAQEhdKEYpW0NASF00W09IXSlbQ0gyXU9DKD1PKWM1W2NIXVtjSF1bY0hdW2NIXVtjSF01

> <s_epik_cmdline>
J2VwaWtfcHl0aG9uJywgJy1waCcsICc3LjAnLCAnLXRuJywgJzgnLCAnLW1hJywgJzIwMCcsICctbWV0YWxfYmluZGluZycsICctaW1hZScsICc8aW5maWxlLm1hZT4nLCAnLW9tYWUnLCAnPG91dGZpbGUubWFlPic=

> <r_lp_tautomer_probability>
1

> <r_epik_Ionization_Penalty>
4.33227

> <r_epik_Ionization_Penalty_Charging>
3.41027

> <r_epik_Ionization_Penalty_Neutral>
0.922001

> <r_epik_State_Penalty>
3.41358

> <r_epik_Charging_Adjusted_Penalty>
6.82385

> <i_epik_Tot_Q>
-1

> <i_epik_Tot_abs_Q>
1

> <r_epik_Metal_State_Penalty>
0.496292

> <b_epik_Metal_Only>
1

> <s_epik_Chemistry_Notes>
This compound has an ester and may undergo hydrolysis at high or low pH. This compound contains an acetal/aminal-like group ( X-CH(R)-Y where X, Y are N, S, or O) that may be acid/base labile, releasing an aldehyde.

> <s_lp_Force_Field>
OPLS_2005

> <r_lp_Energy>
50.7645

> <b_lp_Chiralities_Consistent>
1

> <s_lp_Variant>
AV-unprocessed.smi:34-27

> <Gold.Version>
5.8.1

> <Gold.Id.Protein>
6NUR|6NUR_protein|mol2

> <Gold.PLP.Fitness>
54.5954

> <Gold.PLP.PLP>
-49.8304

> <Gold.PLP.part.hbond>
-2.0000

> <Gold.PLP.part.metal>
0.0000

> <Gold.PLP.part.buried>
-4.3293

> <Gold.PLP.part.nonpolar>
-42.8436

> <Gold.PLP.part.repulsive>
0.0000

> <Gold.PLP.ligand.clash>
0.0000

> <Gold.PLP.ligand.torsion>
0.8487

> <Gold.PLP.Chemscore.Hbond>
1.9920

> <Gold.PLP.Chemscore.CHOScore>
0.0000

> <Gold.PLP.Chemscore.Metal>
0.0000

> <Gold.Chemscore.Hbonds>
donor molecule, donor type, donor heavy atom, donor atom, acceptor molecule, acceptor atom, score
      P1  H  6896  6908       L1    14  1.00
      P1  H  7997  8008       L1    19  0.98

> <Gold.PLP.Chemscore.Internal.Correction>
0.4864

> <Gold.Rescore>
     Score         DG    S(hbond)    S(metal)    S(lipo)     H(rot)  DE(clash)    DE(int)     intcor
     17.11     -21.61       1.92        0.00     141.99       2.69       0.05       4.45       ----

> <Gold.Chemscore.Fitness>
17.1101

> <Gold.Chemscore.DG>
-21.6143

> <Gold.Chemscore.ZeroCoef>
-5.4800

> <Gold.Chemscore.Hbond>
1.9219

> <Gold.Chemscore.Metal>
0.0000

> <Gold.Chemscore.Lipo>
141.9894

> <Gold.Chemscore.Internal_Hbond>
0.0000

> <Gold.Chemscore.DEClash>
0.0532

> <Gold.Chemscore.DEInternal>
4.4510

> <Gold.Chemscore.Rot>
2.6944

> <Gold.Chemscore.Internal.Correction>
   9.000000E+99

> <Gold.Chemscore.Hbonds>
donor molecule, donor type, donor heavy atom, donor atom, acceptor molecule, acceptor atom, score
      P1  H  6896  6908       L1    14  0.94
      P1  H  7997  8008       L1    19  0.93

> <Gold.Chemscore.Hbond.Weighted>
-6.4191

> <Gold.Chemscore.Metal.Weighted>
-0.0000

> <Gold.Chemscore.Lipo.Weighted>
-16.6128

> <Gold.Chemscore.Internal_Hbond.Weighted>
0.0000

> <Gold.Chemscore.DEClash.Weighted>
0.0532

> <Gold.Chemscore.DEInternal.Weighted>
4.4510

> <Gold.Chemscore.Rot.Weighted>
6.8975

> <Gold.Chemscore.Internal.Correction.Weighted>
   9.000000E+99

> <Gold.Protein.RotatedTorsions>
[ 6907 6896 6895 6894 ] final  -71.16 input  -60.11 | X-H torsion
[ 7974 7965 7964 7962 ] final  113.30 input  175.53 | X-H torsion
[ 8008 7997 7996 7995 ] final  -94.61 input   59.86 | X-H torsion
[ 10167 10162 10161 10158 ] final  102.77 input  -65.29 | X-H torsion
[ 10718 10713 10712 10709 ] final -106.67 input   66.30 | X-H torsion
[ 10763 10752 10751 10750 ] final   53.29 input  -60.55 | X-H torsion
[ 11005 11000 10999 10996 ] final  -79.53 input  -57.11 | X-H torsion

> <Gold.Protein.ActiveResidues>
 VAL166  LYS551  ARG553  GLY616  TRP617  ASP618  TYR619  PRO620  LYS621  CYS622 
 ASP623  PHE694  ASN695  SER759  ASP760  ASP761  ALA762  ILE779  LEU786  VAL792 
 PHE793  MET794  SER795  GLU796  ALA797  LYS798  CYS799  TRP800  GLU811  SER814 

> <Gold.Protein.RotatedAtoms>
  150.7225  134.5349  159.5718 H   0  0  0  0  0  0  0  0  0  0  0  0  # atno 6907 bound_to 6896
  152.2873  134.7758  160.0394 H   0  0  0  0  0  0  0  0  0  0  0  0  # atno 6908 bound_to 6896
  151.8384  133.3384  159.3672 H   0  0  0  0  0  0  0  0  0  0  0  0  # atno 6909 bound_to 6896
  145.2187  139.2872  143.4230 H   0  0  0  0  0  0  0  0  0  0  0  0  # atno 7974 bound_to 7965
  154.7506  140.0487  157.0890 H   0  0  0  0  0  0  0  0  0  0  0  0  # atno 8008 bound_to 7997
  155.0062  140.3130  155.4828 H   0  0  0  0  0  0  0  0  0  0  0  0  # atno 8009 bound_to 7997
  156.2884  140.2192  156.5174 H   0  0  0  0  0  0  0  0  0  0  0  0  # atno 8010 bound_to 7997
  139.7321  144.7033  151.0706 H   0  0  0  0  0  0  0  0  0  0  0  0  # atno 10167 bound_to 10162
  156.0401  130.5624  150.7714 H   0  0  0  0  0  0  0  0  0  0  0  0  # atno 10718 bound_to 10713
  152.9794  135.5783  154.4718 H   0  0  0  0  0  0  0  0  0  0  0  0  # atno 10763 bound_to 10752
  154.4280  135.2773  155.1934 H   0  0  0  0  0  0  0  0  0  0  0  0  # atno 10764 bound_to 10752
  154.3654  135.6179  153.5766 H   0  0  0  0  0  0  0  0  0  0  0  0  # atno 10765 bound_to 10752
  141.1667  133.7110  156.8137 H   0  0  0  0  0  0  0  0  0  0  0  0  # atno 11005 bound_to 11000
  146.3381  140.2486  142.8598 LP  0  0  0  0  0  0  0  0  0  0  0  0  # atno 17320 bound_to 7965
  144.9786  140.8438  143.5411 LP  0  0  0  0  0  0  0  0  0  0  0  0  # atno 17321 bound_to 7965
  140.7773  143.5030  150.9747 LP  0  0  0  0  0  0  0  0  0  0  0  0  # atno 17342 bound_to 10162
  139.8718  143.7183  152.3165 LP  0  0  0  0  0  0  0  0  0  0  0  0  # atno 17343 bound_to 10162
  157.5207  131.0931  151.0082 LP  0  0  0  0  0  0  0  0  0  0  0  0  # atno 17370 bound_to 10713
  157.0414  130.5750  149.5356 LP  0  0  0  0  0  0  0  0  0  0  0  0  # atno 17371 bound_to 10713
  140.2169  134.8786  157.3335 LP  0  0  0  0  0  0  0  0  0  0  0  0  # atno 17394 bound_to 11000
  140.2028  134.4234  155.7653 LP  0  0  0  0  0  0  0  0  0  0  0  0  # atno 17395 bound_to 11000

$$$$
