AV-unprocessed.smi:148|AV-procd|sdf|1230|dock5
  -GOLD-   2262018433D 1   1.00000     0.00000
 Structure written by MMmdl.
 63 67  0  0  0  0  0  0  0  0  1 V2000
  141.4346  134.3830  154.0952 O   0  0  0  0  0  0  0  0  0  0  0  0
  142.3063  135.4820  153.9360 C   0  0  0  0  0  0  0  0  0  0  0  0
  143.7950  135.0548  154.0175 C   0  0  2  0  0  0  0  0  0  0  0  0
  144.6789  136.1923  154.5921 C   0  0  0  0  0  0  0  0  0  0  0  0
  145.0582  135.9920  155.9804 N   0  0  0  0  0  0  0  0  0  0  0  0
  145.8527  134.9858  156.4816 C   0  0  0  0  0  0  0  0  0  0  0  0
  146.0557  135.0279  157.7699 N   0  0  0  0  0  0  0  0  0  0  0  0
  145.3318  136.1368  158.1921 C   0  0  0  0  0  0  0  0  0  0  0  0
  145.1077  136.7613  159.4528 C   0  0  0  0  0  0  0  0  0  0  0  0
  145.6311  136.3481  160.6305 N   0  0  0  0  0  0  0  0  0  0  0  0
  147.0914  136.3304  160.5328 C   0  0  0  0  0  0  0  0  0  0  0  0
  147.7485  136.1010  161.9001 C   0  0  0  0  0  0  0  0  0  0  0  0
  147.2033  134.8236  162.5460 C   0  0  0  0  0  0  0  0  0  0  0  0
  145.6756  134.9087  162.6498 C   0  0  0  0  0  0  0  0  0  0  0  0
  145.0220  135.1639  161.2645 C   0  0  1  0  0  0  0  0  0  0  0  0
  143.4619  135.2221  161.3259 C   0  0  1  0  0  0  0  0  0  0  0  0
  142.8278  134.0111  162.0432 C   0  0  0  0  0  0  0  0  0  0  0  0
  142.1284  134.5677  163.2842 C   0  0  0  0  0  0  0  0  0  0  0  0
  141.6942  135.9668  162.8617 C   0  0  0  0  0  0  0  0  0  0  0  0
  142.8643  136.4742  162.0151 C   0  0  2  0  0  0  0  0  0  0  0  0
  142.4203  137.4387  161.0833 O   0  0  0  0  0  0  0  0  0  0  0  0
  144.3374  137.8769  159.4803 N   0  0  0  0  0  0  0  0  0  0  0  0
  143.7947  138.3436  158.3517 C   0  0  0  0  0  0  0  0  0  0  0  0
  143.9044  137.8631  157.1111 N   0  0  0  0  0  0  0  0  0  0  0  0
  144.6950  136.7522  157.0780 C   0  0  0  0  0  0  0  0  0  0  0  0
  144.3465  134.5855  152.6421 C   0  0  1  0  0  0  0  0  0  0  0  0
  143.6206  133.3974  152.0322 C   0  0  0  0  0  0  0  0  0  0  0  0
  144.0550  133.4612  150.5722 C   0  0  0  0  0  0  0  0  0  0  0  0
  144.2425  134.8419  150.2872 O   0  0  0  0  0  0  0  0  0  0  0  0
  144.2141  135.5946  151.4954 C   0  0  0  0  0  0  0  0  0  0  0  0
  141.9527  133.6029  154.2234 H   0  0  0  0  0  0  0  0  0  0  0  0
  142.0974  135.9812  152.9895 H   0  0  0  0  0  0  0  0  0  0  0  0
  142.0448  136.1852  154.7254 H   0  0  0  0  0  0  0  0  0  0  0  0
  143.8624  134.2170  154.7135 H   0  0  0  0  0  0  0  0  0  0  0  0
  145.6017  136.2920  154.0208 H   0  0  0  0  0  0  0  0  0  0  0  0
  144.1587  137.1475  154.5099 H   0  0  0  0  0  0  0  0  0  0  0  0
  146.2894  134.2208  155.8561 H   0  0  0  0  0  0  0  0  0  0  0  0
  147.3952  135.5423  159.8418 H   0  0  0  0  0  0  0  0  0  0  0  0
  147.4509  137.2725  160.1151 H   0  0  0  0  0  0  0  0  0  0  0  0
  148.8308  136.0334  161.7879 H   0  0  0  0  0  0  0  0  0  0  0  0
  147.5541  136.9553  162.5500 H   0  0  0  0  0  0  0  0  0  0  0  0
  147.4874  133.9546  161.9513 H   0  0  0  0  0  0  0  0  0  0  0  0
  147.6411  134.6849  163.5348 H   0  0  0  0  0  0  0  0  0  0  0  0
  145.3040  133.9864  163.0941 H   0  0  0  0  0  0  0  0  0  0  0  0
  145.4260  135.7043  163.3504 H   0  0  0  0  0  0  0  0  0  0  0  0
  145.2838  134.3067  160.6439 H   0  0  0  0  0  0  0  0  0  0  0  0
  143.0737  135.1758  160.3078 H   0  0  0  0  0  0  0  0  0  0  0  0
  142.0802  133.5601  161.3888 H   0  0  0  0  0  0  0  0  0  0  0  0
  143.5384  133.2216  162.2865 H   0  0  0  0  0  0  0  0  0  0  0  0
  141.2924  133.9475  163.6084 H   0  0  0  0  0  0  0  0  0  0  0  0
  142.8365  134.6350  164.1112 H   0  0  0  0  0  0  0  0  0  0  0  0
  140.7886  135.8937  162.2568 H   0  0  0  0  0  0  0  0  0  0  0  0
  141.4769  136.6161  163.7105 H   0  0  0  0  0  0  0  0  0  0  0  0
  143.5903  136.9512  162.6705 H   0  0  0  0  0  0  0  0  0  0  0  0
  141.6425  137.8520  161.4276 H   0  0  0  0  0  0  0  0  0  0  0  0
  143.1873  139.2304  158.4573 H   0  0  0  0  0  0  0  0  0  0  0  0
  145.4002  134.3222  152.7485 H   0  0  0  0  0  0  0  0  0  0  0  0
  143.8807  132.4455  152.4956 H   0  0  0  0  0  0  0  0  0  0  0  0
  142.5403  133.5311  152.1077 H   0  0  0  0  0  0  0  0  0  0  0  0
  145.0073  132.9475  150.4356 H   0  0  0  0  0  0  0  0  0  0  0  0
  143.3259  133.0091  149.8994 H   0  0  0  0  0  0  0  0  0  0  0  0
  143.2575  136.1163  151.5473 H   0  0  0  0  0  0  0  0  0  0  0  0
  145.0078  136.3418  151.5019 H   0  0  0  0  0  0  0  0  0  0  0  0
  1  2  1  0  0  0  0
  1 31  1  0  0  0  0
  2  3  1  0  0  0  0
  2 32  1  0  0  0  0
  2 33  1  0  0  0  0
  3  4  1  0  0  0  0
  3 26  1  0  0  0  0
  3 34  1  0  0  0  0
  4  5  1  0  0  0  0
  4 35  1  0  0  0  0
  4 36  1  0  0  0  0
  5 25  1  0  0  0  0
  5  6  1  0  0  0  0
  6  7  2  0  0  0  0
  6 37  1  0  0  0  0
  7  8  1  0  0  0  0
  8 25  2  0  0  0  0
  8  9  1  0  0  0  0
  9 10  1  0  0  0  0
  9 22  2  0  0  0  0
 10 15  1  0  0  0  0
 10 11  1  0  0  0  0
 11 12  1  0  0  0  0
 11 38  1  0  0  0  0
 11 39  1  0  0  0  0
 12 13  1  0  0  0  0
 12 40  1  0  0  0  0
 12 41  1  0  0  0  0
 13 14  1  0  0  0  0
 13 42  1  0  0  0  0
 13 43  1  0  0  0  0
 14 15  1  0  0  0  0
 14 44  1  0  0  0  0
 14 45  1  0  0  0  0
 15 16  1  0  0  0  0
 15 46  1  0  0  0  0
 16 20  1  0  0  0  0
 16 17  1  0  0  0  0
 16 47  1  0  0  0  0
 17 18  1  0  0  0  0
 17 48  1  0  0  0  0
 17 49  1  0  0  0  0
 18 19  1  0  0  0  0
 18 50  1  0  0  0  0
 18 51  1  0  0  0  0
 19 20  1  0  0  0  0
 19 52  1  0  0  0  0
 19 53  1  0  0  0  0
 20 21  1  0  0  0  0
 20 54  1  0  0  0  0
 21 55  1  0  0  0  0
 22 23  1  0  0  0  0
 23 24  2  0  0  0  0
 23 56  1  0  0  0  0
 24 25  1  0  0  0  0
 26 30  1  0  0  0  0
 26 27  1  0  0  0  0
 26 57  1  0  0  0  0
 27 28  1  0  0  0  0
 27 58  1  0  0  0  0
 27 59  1  0  0  0  0
 28 29  1  0  0  0  0
 28 60  1  0  0  0  0
 28 61  1  0  0  0  0
 29 30  1  0  0  0  0
 30 62  1  0  0  0  0
 30 63  1  0  0  0  0
M  END
> <s_m_source_file>
AV-unprocessed.smi

> <i_m_source_file_index>
148

> <i_lp_mmshare_version>
43012

> <i_f3d_flags>
0

> <s_epik_input>
W0NIMl0xT1tDSDJdW0NIMl1bQ0BIXTFbQ0BIXShbQ0gyXVtPSF0pW0NIMl1uKFtjSF1uMiljKGMyMyluW2NIXW5jM040W0NIMl1bQ0gyXVtDSDJdW0NIMl1bQ0BIXTRbQ0BASF01W0NIMl1bQ0gyXVtDSDJdW0NASF01W09IXQ==

> <s_epik_cmdline>
J2VwaWtfcHl0aG9uJywgJy1waCcsICc3LjAnLCAnLXRuJywgJzgnLCAnLW1hJywgJzIwMCcsICctbWV0YWxfYmluZGluZycsICctaW1hZScsICc8aW5maWxlLm1hZT4nLCAnLW9tYWUnLCAnPG91dGZpbGUubWFlPic=

> <r_lp_tautomer_probability>
1

> <r_epik_Ionization_Penalty>
0.00556303

> <r_epik_Ionization_Penalty_Charging>
0

> <r_epik_Ionization_Penalty_Neutral>
0.00556303

> <r_epik_State_Penalty>
0.00401767

> <r_epik_Charging_Adjusted_Penalty>
0.00401767

> <i_epik_Tot_Q>
0

> <i_epik_Tot_abs_Q>
0

> <r_epik_Metal_State_Penalty>
-0

> <b_epik_Metal_Only>
0

> <s_lp_Force_Field>
OPLS_2005

> <r_lp_Energy>
68.4818

> <b_lp_Chiralities_Consistent>
1

> <s_lp_Variant>
AV-unprocessed.smi:148-29

> <Gold.Version>
5.8.1

> <Gold.Id.Protein>
6NUR|6NUR_protein|mol2

> <Gold.PLP.Fitness>
39.7891

> <Gold.PLP.PLP>
-35.9868

> <Gold.PLP.part.hbond>
-2.1506

> <Gold.PLP.part.metal>
0.0000

> <Gold.PLP.part.buried>
-7.0129

> <Gold.PLP.part.nonpolar>
-27.1856

> <Gold.PLP.part.repulsive>
0.2537

> <Gold.PLP.ligand.clash>
0.0000

> <Gold.PLP.ligand.torsion>
1.3037

> <Gold.PLP.Chemscore.Hbond>
1.9760

> <Gold.PLP.Chemscore.CHOScore>
0.0000

> <Gold.PLP.Chemscore.Metal>
0.0000

> <Gold.Chemscore.Hbonds>
donor molecule, donor type, donor heavy atom, donor atom, acceptor molecule, acceptor atom, score
      L1  H     1    31       P1 10957  1.00
      P1  H 11000 11005       L1     1  0.83

> <Gold.PLP.Chemscore.Internal.Correction>
0.4817

> <Gold.Rescore>
     Score         DG    S(hbond)    S(metal)    S(lipo)     H(rot)  DE(clash)    DE(int)     intcor
     11.07     -14.14       1.74        0.00      96.98       3.32       0.07       3.00       ----

> <Gold.Chemscore.Fitness>
11.0654

> <Gold.Chemscore.DG>
-14.1365

> <Gold.Chemscore.ZeroCoef>
-5.4800

> <Gold.Chemscore.Hbond>
1.7394

> <Gold.Chemscore.Metal>
0.0000

> <Gold.Chemscore.Lipo>
96.9806

> <Gold.Chemscore.Internal_Hbond>
0.0000

> <Gold.Chemscore.DEClash>
0.0703

> <Gold.Chemscore.DEInternal>
3.0007

> <Gold.Chemscore.Rot>
3.3203

> <Gold.Chemscore.Internal.Correction>
   9.000000E+99

> <Gold.Chemscore.Hbonds>
donor molecule, donor type, donor heavy atom, donor atom, acceptor molecule, acceptor atom, score
      L1  H     1    31       P1 10957  0.93
      P1  H 11000 11005       L1     1  0.13

> <Gold.Chemscore.Hbond.Weighted>
-5.8097

> <Gold.Chemscore.Metal.Weighted>
-0.0000

> <Gold.Chemscore.Lipo.Weighted>
-11.3467

> <Gold.Chemscore.Internal_Hbond.Weighted>
0.0000

> <Gold.Chemscore.DEClash.Weighted>
0.0703

> <Gold.Chemscore.DEInternal.Weighted>
3.0007

> <Gold.Chemscore.Rot.Weighted>
8.5000

> <Gold.Chemscore.Internal.Correction.Weighted>
   9.000000E+99

> <Gold.Protein.RotatedTorsions>
[ 6907 6896 6895 6894 ] final  114.35 input  -60.11 | X-H torsion
[ 7974 7965 7964 7962 ] final  -68.25 input  175.53 | X-H torsion
[ 8008 7997 7996 7995 ] final  -70.96 input   59.86 | X-H torsion
[ 10167 10162 10161 10158 ] final  147.96 input  -65.29 | X-H torsion
[ 10718 10713 10712 10709 ] final  102.33 input   66.30 | X-H torsion
[ 10763 10752 10751 10750 ] final  116.31 input  -60.55 | X-H torsion
[ 11005 11000 10999 10996 ] final   25.85 input  -57.11 | X-H torsion

> <Gold.Protein.ActiveResidues>
 VAL166  LYS551  ARG553  GLY616  TRP617  ASP618  TYR619  PRO620  LYS621  CYS622 
 ASP623  PHE694  ASN695  SER759  ASP760  ASP761  ALA762  ILE779  LEU786  VAL792 
 PHE793  MET794  SER795  GLU796  ALA797  LYS798  CYS799  TRP800  GLU811  SER814 

> <Gold.Protein.RotatedAtoms>
  152.4808  133.8249  159.7072 H   0  0  0  0  0  0  0  0  0  0  0  0  # atno 6907 bound_to 6896
  150.8856  133.7303  159.2926 H   0  0  0  0  0  0  0  0  0  0  0  0  # atno 6908 bound_to 6896
  151.4793  135.1055  159.9825 H   0  0  0  0  0  0  0  0  0  0  0  0  # atno 6909 bound_to 6896
  145.7189  140.9047  143.0641 H   0  0  0  0  0  0  0  0  0  0  0  0  # atno 7974 bound_to 7965
  154.5052  140.0824  156.7879 H   0  0  0  0  0  0  0  0  0  0  0  0  # atno 8008 bound_to 7997
  155.3911  140.3432  155.4233 H   0  0  0  0  0  0  0  0  0  0  0  0  # atno 8009 bound_to 7997
  156.1506  140.1557  156.8763 H   0  0  0  0  0  0  0  0  0  0  0  0  # atno 8010 bound_to 7997
  139.4882  144.5715  151.7045 H   0  0  0  0  0  0  0  0  0  0  0  0  # atno 10167 bound_to 10162
  157.6805  131.0750  150.5387 H   0  0  0  0  0  0  0  0  0  0  0  0  # atno 10718 bound_to 10713
  153.5353  135.3570  155.2694 H   0  0  0  0  0  0  0  0  0  0  0  0  # atno 10763 bound_to 10752
  154.8723  135.4078  154.3105 H   0  0  0  0  0  0  0  0  0  0  0  0  # atno 10764 bound_to 10752
  153.3801  135.7068  153.6639 H   0  0  0  0  0  0  0  0  0  0  0  0  # atno 10765 bound_to 10752
  140.3434  134.2308  155.7687 H   0  0  0  0  0  0  0  0  0  0  0  0  # atno 11005 bound_to 11000
  144.6922  139.9175  143.7466 LP  0  0  0  0  0  0  0  0  0  0  0  0  # atno 17320 bound_to 7965
  146.0644  139.3636  143.0561 LP  0  0  0  0  0  0  0  0  0  0  0  0  # atno 17321 bound_to 7965
  140.5304  144.0740  150.6051 LP  0  0  0  0  0  0  0  0  0  0  0  0  # atno 17342 bound_to 10162
  140.3728  143.2845  152.0259 LP  0  0  0  0  0  0  0  0  0  0  0  0  # atno 17343 bound_to 10162
  156.5695  130.4276  149.6026 LP  0  0  0  0  0  0  0  0  0  0  0  0  # atno 17370 bound_to 10713
  156.2753  130.7040  151.1849 LP  0  0  0  0  0  0  0  0  0  0  0  0  # atno 17371 bound_to 10713
  141.2032  133.7917  157.0350 LP  0  0  0  0  0  0  0  0  0  0  0  0  # atno 17394 bound_to 11000
  140.0762  134.9674  157.1550 LP  0  0  0  0  0  0  0  0  0  0  0  0  # atno 17395 bound_to 11000

$$$$
