#       Name:                AV-unprocessed.smi:2522
#       Creating user name   scv26
#       Creation time:       Fri Mar 27 13:55:44 2020


#       File generated by GOLD software.
#

@<TRIPOS>MOLECULE
AV-unprocessed.smi:2522
    46    47     1
SMALL
NO_CHARGES


@<TRIPOS>ATOM
      1 ****        -1.5524  -1.4233  -0.4030 C.3            1 S1                 0.0000
      2 ****        -2.4878  -0.4101  -1.0955 C.3            1 S1                 0.0000
      3 ****        -3.8894  -1.0350  -1.2242 C.3            1 S1                 0.0000
      4 ****        -2.5899   0.8584  -0.2235 C.3            1 S1                 0.0000
      5 ****        -1.9694  -0.0671  -2.5171 C.3            1 S1                 0.0000
      6 ****        -0.6147   0.4776  -2.5103 N.am           1 S1                 0.0000
      7 ****        -0.2819   1.7716  -2.6417 C.2            1 S1                 0.0000
      8 ****        -1.0922   2.6634  -2.8925 O.2            1 S1                 0.0000
      9 ****         1.1928   2.1144  -2.4207 C.3            1 S1                 0.0000
     10 ****         1.5190   2.0211  -0.9572 C.2            1 S1                 0.0000
     11 ****         1.5998   3.0580  -0.0602 C.2            1 S1                 0.0000
     12 ****         1.9507   2.4999   1.5537 S.3            1 S1                 0.0000
     13 ****         1.9783   0.8475   0.9415 C.2            1 S1                 0.0000
     14 ****         2.1975  -0.2970   1.7654 N.am           1 S1                 0.0000
     15 ****         2.4186  -0.1644   3.2002 C.3            1 S1                 0.0000
     16 ****         2.3939  -1.5889   3.7656 C.3            1 S1                 0.0000
     17 ****         2.5036  -2.5110   2.5530 C.3            1 S1                 0.0000
     18 ****         2.2431  -1.5855   1.3765 C.2            1 S1                 0.0000
     19 ****         2.1007  -2.0219   0.2344 O.2            1 S1                 0.0000
     20 ****         1.7603   0.7718  -0.3757 N.2            1 S1                 0.0000
     21 ****        -1.9421  -1.7207   0.5711 H              1 S1                 0.0000
     22 ****        -0.5585  -1.0082  -0.2358 H              1 S1                 0.0000
     23 ****        -1.4345  -2.3283  -0.9997 H              1 S1                 0.0000
     24 ****        -3.8650  -1.9455  -1.8240 H              1 S1                 0.0000
     25 ****        -4.5888  -0.3469  -1.7004 H              1 S1                 0.0000
     26 ****        -4.3008  -1.2969  -0.2487 H              1 S1                 0.0000
     27 ****        -3.0298   0.6357   0.7490 H              1 S1                 0.0000
     28 ****        -3.2122   1.6171  -0.6992 H              1 S1                 0.0000
     29 ****        -1.6119   1.3033  -0.0374 H              1 S1                 0.0000
     30 ****        -1.9509  -0.9690  -3.1297 H              1 S1                 0.0000
     31 ****        -2.6581   0.6163  -3.0169 H              1 S1                 0.0000
     32 ****         0.1287  -0.1747  -2.3052 H              1 S1                 0.0000
     33 ****         1.8148   1.4336  -3.0034 H              1 S1                 0.0000
     34 ****         1.3928   3.1179  -2.7983 H              1 S1                 0.0000
     35 ****         1.4590   4.1122  -0.2482 H              1 S1                 0.0000
     36 ****         3.3886   0.3044   3.3719 H              1 S1                 0.0000
     37 ****         1.6528   0.4558   3.6678 H              1 S1                 0.0000
     38 ****         3.2008  -1.7545   4.4802 H              1 S1                 0.0000
     39 ****         1.4521  -1.7708   4.2851 H              1 S1                 0.0000
     40 ****         3.5039  -2.9360   2.4650 H              1 S1                 0.0000
     41 ****         1.7786  -3.3247   2.5881 H              1 S1                 0.0000
     42 ****        -2.0600   2.4410  -3.0103 LP             1 S1                 0.0000
     43 ****        -0.7828   3.6104  -2.9785 LP             1 S1                 0.0000
     44 ****         1.9303  -1.3925  -0.5237 LP             1 S1                 0.0000
     45 ****         2.1554  -3.0059   0.0647 LP             1 S1                 0.0000
     46 ****         1.7688  -0.0858  -0.8899 LP             1 S1                 0.0000
@<TRIPOS>BOND
    1    1    2 1     
    2    1   21 1     
    3    1   22 1     
    4    1   23 1     
    5    2    3 1     
    6    2    4 1     
    7    2    5 1     
    8    3   24 1     
    9    3   25 1     
   10    3   26 1     
   11    4   27 1     
   12    4   28 1     
   13    4   29 1     
   14    5    6 1     
   15    5   30 1     
   16    5   31 1     
   17    6    7 am    
   18    6   32 1     
   19    7    8 2     
   20    7    9 1     
   21    9   10 1     
   22    9   33 1     
   23    9   34 1     
   24   10   20 1     
   25   10   11 2     
   26   11   12 1     
   27   11   35 1     
   28   12   13 1     
   29   13   14 1     
   30   13   20 2     
   31   14   18 am    
   32   14   15 1     
   33   15   16 1     
   34   15   36 1     
   35   15   37 1     
   36   16   17 1     
   37   16   38 1     
   38   16   39 1     
   39   17   18 1     
   40   17   40 1     
   41   17   41 1     
   42   18   19 2     
   43    8   42 1     
   44    8   43 1     
   45   19   44 1     
   46   19   45 1     
   47   20   46 1     
@<TRIPOS>SUBSTRUCTURE
      1 S1             1
@<TRIPOS>SET
LONE_PAIRS      STATIC     ATOMS    <user>   **** ""
5 42 43 44 45 46
DONOR_HYDROGENS      STATIC     ATOMS    <user>   **** ""
1 32
ATOM$BLUE        STATIC     ATOMS    COLORGROUP SYSTEM
5 42 43 44 45 46
ATOM$RED        STATIC     ATOMS    COLORGROUP SYSTEM
1 32
