AV-unprocessed.smi:1915|AV-procd|sdf|7763|dock7
  -GOLD-   22720 9503D 1   1.00000     0.00000
 Structure written by MMmdl.
 45 46  0  0  0  0  0  0  0  0  2 V2000
  149.3648  133.5951  154.0900 C   0  0  0  0  0  0  0  0  0  0  0  0
  150.3058  133.9199  155.2630 C   0  0  0  0  0  0  0  0  0  0  0  0
  150.4580  132.6972  156.1804 C   0  0  0  0  0  0  0  0  0  0  0  0
  149.8644  135.1554  156.0795 C   0  0  0  0  0  0  0  0  0  0  0  0
  149.9246  136.4013  155.3148 N   0  0  0  0  0  0  0  0  0  0  0  0
  151.1755  136.8385  154.7156 C   0  0  0  0  0  0  0  0  0  0  0  0
  150.9309  138.2886  154.2443 C   0  0  2  0  0  0  0  0  0  0  0  0
  151.7005  139.3204  155.0831 C   0  0  0  0  0  0  0  0  0  0  0  0
  152.8801  139.5689  154.8304 O   0  0  0  0  0  0  0  0  0  0  0  0
  151.0266  139.8980  156.0905 N   0  0  0  0  0  0  0  0  0  0  0  0
  151.5685  140.8944  157.0120 C   0  0  0  0  0  0  0  0  0  0  0  0
  150.4857  141.8105  157.6184 C   0  0  0  0  0  0  0  0  0  0  0  0
  151.0399  142.9857  158.4057 C   0  0  0  0  0  0  0  0  0  0  0  0
  151.9525  142.8080  159.4678 C   0  0  0  0  0  0  0  0  0  0  0  0
  152.4014  143.9351  160.1869 C   0  0  0  0  0  0  0  0  0  0  0  0
  151.9303  145.2153  159.8289 C   0  0  0  0  0  0  0  0  0  0  0  0
  151.0208  145.3359  158.7589 C   0  0  0  0  0  0  0  0  0  0  0  0
  150.6131  144.2320  158.0951 N   0  3  0  0  0  0  0  0  0  0  0  0
  149.4090  138.4974  154.3658 C   0  0  0  0  0  0  0  0  0  0  0  0
  148.9327  137.2832  155.1442 C   0  0  0  0  0  0  0  0  0  0  0  0
  147.7805  137.1723  155.5602 O   0  0  0  0  0  0  0  0  0  0  0  0
  148.3426  133.4370  154.4348 H   0  0  0  0  0  0  0  0  0  0  0  0
  149.6833  132.6911  153.5706 H   0  0  0  0  0  0  0  0  0  0  0  0
  149.3502  134.3970  153.3523 H   0  0  0  0  0  0  0  0  0  0  0  0
  151.2906  134.1308  154.8441 H   0  0  0  0  0  0  0  0  0  0  0  0
  149.5061  132.4222  156.6361 H   0  0  0  0  0  0  0  0  0  0  0  0
  151.1673  132.8941  156.9849 H   0  0  0  0  0  0  0  0  0  0  0  0
  150.8243  131.8322  155.6268 H   0  0  0  0  0  0  0  0  0  0  0  0
  148.8542  135.0059  156.4647 H   0  0  0  0  0  0  0  0  0  0  0  0
  150.5020  135.2605  156.9582 H   0  0  0  0  0  0  0  0  0  0  0  0
  151.9975  136.7546  155.4287 H   0  0  0  0  0  0  0  0  0  0  0  0
  151.4117  136.1929  153.8686 H   0  0  0  0  0  0  0  0  0  0  0  0
  151.2330  138.3840  153.1999 H   0  0  0  0  0  0  0  0  0  0  0  0
  150.0599  139.6365  156.2220 H   0  0  0  0  0  0  0  0  0  0  0  0
  152.1376  140.4094  157.8070 H   0  0  0  0  0  0  0  0  0  0  0  0
  152.2848  141.5023  156.4588 H   0  0  0  0  0  0  0  0  0  0  0  0
  149.8503  142.1974  156.8208 H   0  0  0  0  0  0  0  0  0  0  0  0
  149.8308  141.2259  158.2662 H   0  0  0  0  0  0  0  0  0  0  0  0
  152.2958  141.8197  159.7366 H   0  0  0  0  0  0  0  0  0  0  0  0
  153.0957  143.8182  161.0061 H   0  0  0  0  0  0  0  0  0  0  0  0
  152.2597  146.0908  160.3692 H   0  0  0  0  0  0  0  0  0  0  0  0
  150.6058  146.2740  158.4200 H   0  0  0  0  0  0  0  0  0  0  0  0
  149.1306  139.4155  154.8851 H   0  0  0  0  0  0  0  0  0  0  0  0
  148.9337  138.5078  153.3844 H   0  0  0  0  0  0  0  0  0  0  0  0
  149.9478  144.3422  157.3298 H   0  0  0  0  0  0  0  0  0  0  0  0
  1  2  1  0  0  0  0
  1 22  1  0  0  0  0
  1 23  1  0  0  0  0
  1 24  1  0  0  0  0
  2  3  1  0  0  0  0
  2  4  1  0  0  0  0
  2 25  1  0  0  0  0
  3 26  1  0  0  0  0
  3 27  1  0  0  0  0
  3 28  1  0  0  0  0
  4  5  1  0  0  0  0
  4 29  1  0  0  0  0
  4 30  1  0  0  0  0
  5 20  1  0  0  0  0
  5  6  1  0  0  0  0
  6  7  1  0  0  0  0
  6 31  1  0  0  0  0
  6 32  1  0  0  0  0
  7  8  1  0  0  0  0
  7 19  1  0  0  0  0
  7 33  1  0  0  0  0
  8  9  2  0  0  0  0
  8 10  1  0  0  0  0
 10 11  1  0  0  0  0
 10 34  1  0  0  0  0
 11 12  1  0  0  0  0
 11 35  1  0  0  0  0
 11 36  1  0  0  0  0
 12 13  1  0  0  0  0
 12 37  1  0  0  0  0
 12 38  1  0  0  0  0
 13 18  1  0  0  0  0
 13 14  2  0  0  0  0
 14 15  1  0  0  0  0
 14 39  1  0  0  0  0
 15 16  2  0  0  0  0
 15 40  1  0  0  0  0
 16 17  1  0  0  0  0
 16 41  1  0  0  0  0
 17 18  2  0  0  0  0
 17 42  1  0  0  0  0
 18 45  1  0  0  0  0
 19 20  1  0  0  0  0
 19 43  1  0  0  0  0
 19 44  1  0  0  0  0
 20 21  2  0  0  0  0
M  CHG  1  18   1
M  END
> <s_m_source_file>
AV-unprocessed.smi

> <i_m_source_file_index>
1915

> <i_lp_mmshare_version>
43012

> <i_f3d_flags>
0

> <s_epik_input>
W0NIM11bQ0hdKFtDSDNdKVtDSDJdTjFbQ0gyXVtDQEhdKFtDSDJdQzE9TylDKD1PKVtOSF1bQ0gyXVtDSDJdYzJbY0hdW2NIXVtjSF1bY0hdbjI=

> <s_epik_cmdline>
J2VwaWtfcHl0aG9uJywgJy1waCcsICc3LjAnLCAnLXRuJywgJzgnLCAnLW1hJywgJzIwMCcsICctbWV0YWxfYmluZGluZycsICctaW1hZScsICc8aW5maWxlLm1hZT4nLCAnLW9tYWUnLCAnPG91dGZpbGUubWFlPic=

> <r_epik_Ionization_Penalty>
1.88249

> <r_epik_Ionization_Penalty_Charging>
1.88249

> <r_epik_Ionization_Penalty_Neutral>
3.64574e-08

> <r_epik_State_Penalty>
2.00238

> <r_epik_Charging_Adjusted_Penalty>
3.88487

> <i_epik_Tot_Q>
1

> <i_epik_Tot_abs_Q>
1

> <r_epik_Metal_State_Penalty>
2.02676

> <b_epik_Metal_Only>
0

> <s_lp_Force_Field>
OPLS_2005

> <r_lp_Energy>
20.6112

> <b_lp_Chiralities_Consistent>
1

> <s_lp_Variant>
AV-unprocessed.smi:1915-4

> <Gold.Version>
5.8.1

> <Gold.Id.Protein>
6NUR|6NUR_protein|mol2

> <Gold.PLP.Fitness>
50.8285

> <Gold.PLP.PLP>
-43.6579

> <Gold.PLP.part.hbond>
-3.0499

> <Gold.PLP.part.metal>
0.0000

> <Gold.PLP.part.buried>
-4.9851

> <Gold.PLP.part.nonpolar>
-35.8057

> <Gold.PLP.part.repulsive>
0.2365

> <Gold.PLP.ligand.clash>
0.0643

> <Gold.PLP.ligand.torsion>
0.9285

> <Gold.PLP.Chemscore.Hbond>
3.0000

> <Gold.PLP.Chemscore.CHOScore>
0.0000

> <Gold.PLP.Chemscore.Metal>
0.0000

> <Gold.Chemscore.Hbonds>
donor molecule, donor type, donor heavy atom, donor atom, acceptor molecule, acceptor atom, score
      L1  H    18    45       P1  8028  2.00
      P1  H  7997  8009       L1     9  1.00

> <Gold.PLP.Chemscore.Internal.Correction>
0.0920

> <Gold.Rescore>
     Score         DG    S(hbond)    S(metal)    S(lipo)     H(rot)  DE(clash)    DE(int)     intcor
     18.56     -20.02       1.85        0.00     112.25       1.86       0.50       0.96       ----

> <Gold.Chemscore.Fitness>
18.5619

> <Gold.Chemscore.DG>
-20.0186

> <Gold.Chemscore.ZeroCoef>
-5.4800

> <Gold.Chemscore.Hbond>
1.8494

> <Gold.Chemscore.Metal>
0.0000

> <Gold.Chemscore.Lipo>
112.2467

> <Gold.Chemscore.Internal_Hbond>
0.0000

> <Gold.Chemscore.DEClash>
0.4968

> <Gold.Chemscore.DEInternal>
0.9599

> <Gold.Chemscore.Rot>
1.8638

> <Gold.Chemscore.Internal.Correction>
   9.000000E+99

> <Gold.Chemscore.Hbonds>
donor molecule, donor type, donor heavy atom, donor atom, acceptor molecule, acceptor atom, score
      L1  H    18    45       P1  8028  0.44
      P1  H  7997  8009       L1     9  0.97

> <Gold.Chemscore.Hbond.Weighted>
-6.1771

> <Gold.Chemscore.Metal.Weighted>
-0.0000

> <Gold.Chemscore.Lipo.Weighted>
-13.1329

> <Gold.Chemscore.Internal_Hbond.Weighted>
0.0000

> <Gold.Chemscore.DEClash.Weighted>
0.4968

> <Gold.Chemscore.DEInternal.Weighted>
0.9599

> <Gold.Chemscore.Rot.Weighted>
4.7713

> <Gold.Chemscore.Internal.Correction.Weighted>
   9.000000E+99

> <Gold.Protein.RotatedTorsions>
[ 6907 6896 6895 6894 ] final  -50.26 input  -60.11 | X-H torsion
[ 7974 7965 7964 7962 ] final   47.37 input  175.53 | X-H torsion
[ 8008 7997 7996 7995 ] final -131.49 input   59.86 | X-H torsion
[ 10167 10162 10161 10158 ] final  -56.04 input  -65.29 | X-H torsion
[ 10718 10713 10712 10709 ] final  -38.02 input   66.30 | X-H torsion
[ 10763 10752 10751 10750 ] final   85.06 input  -60.55 | X-H torsion
[ 11005 11000 10999 10996 ] final  -48.07 input  -57.11 | X-H torsion

> <Gold.Protein.ActiveResidues>
 VAL166  LYS551  ARG553  GLY616  TRP617  ASP618  TYR619  PRO620  LYS621  CYS622 
 ASP623  PHE694  ASN695  SER759  ASP760  ASP761  ALA762  ILE779  LEU786  VAL792 
 PHE793  MET794  SER795  GLU796  ALA797  LYS798  CYS799  TRP800  GLU811  SER814 

> <Gold.Protein.RotatedAtoms>
  150.8724  134.8100  159.7164 H   0  0  0  0  0  0  0  0  0  0  0  0  # atno 6907 bound_to 6896
  152.4723  134.4926  159.9710 H   0  0  0  0  0  0  0  0  0  0  0  0  # atno 6908 bound_to 6896
  151.5012  133.3465  159.2905 H   0  0  0  0  0  0  0  0  0  0  0  0  # atno 6909 bound_to 6896
  146.0304  139.4757  142.9841 H   0  0  0  0  0  0  0  0  0  0  0  0  # atno 7974 bound_to 7965
  155.3133  140.0458  157.3036 H   0  0  0  0  0  0  0  0  0  0  0  0  # atno 8008 bound_to 7997
  154.5421  140.2291  155.8590 H   0  0  0  0  0  0  0  0  0  0  0  0  # atno 8009 bound_to 7997
  156.1890  140.3055  155.9302 H   0  0  0  0  0  0  0  0  0  0  0  0  # atno 8010 bound_to 7997
  140.6340  143.2473  151.5166 H   0  0  0  0  0  0  0  0  0  0  0  0  # atno 10167 bound_to 10162
  156.3085  130.4249  149.8073 H   0  0  0  0  0  0  0  0  0  0  0  0  # atno 10718 bound_to 10713
  153.1439  135.4631  154.9537 H   0  0  0  0  0  0  0  0  0  0  0  0  # atno 10763 bound_to 10752
  154.7770  135.3176  154.8073 H   0  0  0  0  0  0  0  0  0  0  0  0  # atno 10764 bound_to 10752
  153.8591  135.6914  153.4839 H   0  0  0  0  0  0  0  0  0  0  0  0  # atno 10765 bound_to 10752
  141.0679  133.6688  156.3389 H   0  0  0  0  0  0  0  0  0  0  0  0  # atno 11005 bound_to 11000
  145.7050  141.0124  143.1484 LP  0  0  0  0  0  0  0  0  0  0  0  0  # atno 17320 bound_to 7965
  144.7028  139.8689  143.7439 LP  0  0  0  0  0  0  0  0  0  0  0  0  # atno 17321 bound_to 7965
  139.5552  144.2294  152.1599 LP  0  0  0  0  0  0  0  0  0  0  0  0  # atno 17342 bound_to 10162
  140.1546  144.5083  150.6668 LP  0  0  0  0  0  0  0  0  0  0  0  0  # atno 17343 bound_to 10162
  156.5425  130.8306  151.3274 LP  0  0  0  0  0  0  0  0  0  0  0  0  # atno 17370 bound_to 10713
  157.7385  130.9815  150.2258 LP  0  0  0  0  0  0  0  0  0  0  0  0  # atno 17371 bound_to 10713
  140.5735  134.5817  157.5463 LP  0  0  0  0  0  0  0  0  0  0  0  0  # atno 17394 bound_to 11000
  139.9494  134.7643  156.0484 LP  0  0  0  0  0  0  0  0  0  0  0  0  # atno 17395 bound_to 11000

$$$$
