AV-unprocessed.smi:2226|AV-procd|sdf|9012|dock3
  -GOLD-   2272012213D 1   1.00000     0.00000
 Structure written by MMmdl.
 40 42  0  0  0  0  0  0  0  0  2 V2000
  146.1603  142.0670  154.8813 C   0  0  0  0  0  0  0  0  0  0  0  0
  146.1489  140.8100  154.0960 N   0  3  1  0  0  0  0  0  0  0  0  0
  147.0665  140.7939  152.9309 C   0  0  1  0  0  0  0  0  0  0  0  0
  148.5485  140.7399  153.3819 C   0  0  0  0  0  0  0  0  0  0  0  0
  148.8587  139.6118  154.3840 C   0  0  0  0  0  0  0  0  0  0  0  0
  147.7599  139.4539  155.4521 C   0  0  0  0  0  0  0  0  0  0  0  0
  146.3177  139.5727  154.8963 C   0  0  2  0  0  0  0  0  0  0  0  0
  145.8440  138.3656  154.0540 C   0  0  0  0  0  0  0  0  0  0  0  0
  146.4838  138.2734  152.6472 C   0  0  1  0  0  0  0  0  0  0  0  0
  145.6546  137.4173  151.7994 N   0  0  0  0  0  0  0  0  0  0  0  0
  145.5402  136.0820  151.8772 C   0  0  0  0  0  0  0  0  0  0  0  0
  146.1602  135.4239  152.7186 O   0  0  0  0  0  0  0  0  0  0  0  0
  144.6603  135.6301  150.9045 N   0  0  0  0  0  0  0  0  0  0  0  0
  144.3529  134.3709  150.8481 C   0  0  0  0  0  0  0  0  0  0  0  0
  143.4987  133.7490  149.9513 N   0  0  0  0  0  0  0  0  0  0  0  0
  143.4640  132.4151  150.2513 C   0  0  0  0  0  0  0  0  0  0  0  0
  144.2625  132.2045  151.2936 C   0  0  0  0  0  0  0  0  0  0  0  0
  144.8226  133.3834  151.6833 O   0  0  0  0  0  0  0  0  0  0  0  0
  146.6363  139.6586  151.9733 C   0  0  0  0  0  0  0  0  0  0  0  0
  147.1222  142.2484  155.3600 H   0  0  0  0  0  0  0  0  0  0  0  0
  145.3970  142.0347  155.6592 H   0  0  0  0  0  0  0  0  0  0  0  0
  145.9381  142.9183  154.2373 H   0  0  0  0  0  0  0  0  0  0  0  0
  146.9279  141.7278  152.3838 H   0  0  0  0  0  0  0  0  0  0  0  0
  149.2029  140.6521  152.5139 H   0  0  0  0  0  0  0  0  0  0  0  0
  148.8096  141.6919  153.8448 H   0  0  0  0  0  0  0  0  0  0  0  0
  149.0152  138.6728  153.8604 H   0  0  0  0  0  0  0  0  0  0  0  0
  149.8132  139.8119  154.8720 H   0  0  0  0  0  0  0  0  0  0  0  0
  147.8853  138.5039  155.9725 H   0  0  0  0  0  0  0  0  0  0  0  0
  147.9073  140.2212  156.2125 H   0  0  0  0  0  0  0  0  0  0  0  0
  145.6444  139.6344  155.7525 H   0  0  0  0  0  0  0  0  0  0  0  0
  146.0057  137.4351  154.5996 H   0  0  0  0  0  0  0  0  0  0  0  0
  144.7622  138.4546  153.9393 H   0  0  0  0  0  0  0  0  0  0  0  0
  147.4698  137.8282  152.7460 H   0  0  0  0  0  0  0  0  0  0  0  0
  145.1145  137.8817  151.0837 H   0  0  0  0  0  0  0  0  0  0  0  0
  142.9742  134.1647  149.1952 H   0  0  0  0  0  0  0  0  0  0  0  0
  142.8537  131.7395  149.6700 H   0  0  0  0  0  0  0  0  0  0  0  0
  144.5263  131.3162  151.8486 H   0  0  0  0  0  0  0  0  0  0  0  0
  145.6749  139.9442  151.5427 H   0  0  0  0  0  0  0  0  0  0  0  0
  147.3263  139.5904  151.1313 H   0  0  0  0  0  0  0  0  0  0  0  0
  145.2172  140.7590  153.7093 H   0  0  0  0  0  0  0  0  0  0  0  0
  1  2  1  0  0  0  0
  1 20  1  0  0  0  0
  1 21  1  0  0  0  0
  1 22  1  0  0  0  0
  2  7  1  0  0  0  0
  2  3  1  0  0  0  0
  2 40  1  0  0  0  0
  3 19  1  0  0  0  0
  3  4  1  0  0  0  0
  3 23  1  0  0  0  0
  4  5  1  0  0  0  0
  4 24  1  0  0  0  0
  4 25  1  0  0  0  0
  5  6  1  0  0  0  0
  5 26  1  0  0  0  0
  5 27  1  0  0  0  0
  6  7  1  0  0  0  0
  6 28  1  0  0  0  0
  6 29  1  0  0  0  0
  7  8  1  0  0  0  0
  7 30  1  0  0  0  0
  8  9  1  0  0  0  0
  8 31  1  0  0  0  0
  8 32  1  0  0  0  0
  9 10  1  0  0  0  0
  9 19  1  0  0  0  0
  9 33  1  0  0  0  0
 10 34  1  0  0  0  0
 10 11  1  0  0  0  0
 11 13  1  0  0  0  0
 11 12  2  0  0  0  0
 13 14  2  0  0  0  0
 14 18  1  0  0  0  0
 14 15  1  0  0  0  0
 15 35  1  0  0  0  0
 15 16  1  0  0  0  0
 16 36  1  0  0  0  0
 16 17  2  0  0  0  0
 17 37  1  0  0  0  0
 17 18  1  0  0  0  0
 19 38  1  0  0  0  0
 19 39  1  0  0  0  0
M  CHG  1   2   1
M  END
> <s_m_source_file>
AV-unprocessed.smi

> <i_m_source_file_index>
2226

> <i_lp_mmshare_version>
43012

> <i_f3d_flags>
0

> <s_epik_input>
W0NIMl0xW0NIMl1bQ0gyXVtDQEhdKE4oW0NIM10pW0NIXTEyKVtDSDJdW0NASF0oW0NIMl0yKVtOSF1DKD1PKVtOSF1jM25bY0hdW2NIXW8z

> <s_epik_cmdline>
J2VwaWtfcHl0aG9uJywgJy1waCcsICc3LjAnLCAnLXRuJywgJzgnLCAnLW1hJywgJzIwMCcsICctbWV0YWxfYmluZGluZycsICctaW1hZScsICc8aW5maWxlLm1hZT4nLCAnLW9tYWUnLCAnPG91dGZpbGUubWFlPic=

> <r_lp_tautomer_probability>
0.107061

> <r_epik_Ionization_Penalty>
1.08307

> <r_epik_Ionization_Penalty_Charging>
1.08272

> <r_epik_Ionization_Penalty_Neutral>
0.000345913

> <r_epik_State_Penalty>
2.5744

> <r_epik_Charging_Adjusted_Penalty>
3.65713

> <i_epik_Tot_Q>
1

> <i_epik_Tot_abs_Q>
1

> <r_epik_Metal_State_Penalty>
3.72133

> <b_epik_Metal_Only>
0

> <s_lp_Force_Field>
OPLS_2005

> <r_lp_Energy>
57.4325

> <b_lp_Chiralities_Consistent>
1

> <s_lp_Variant>
AV-unprocessed.smi:2226-12

> <Gold.Version>
5.8.1

> <Gold.Id.Protein>
6NUR|6NUR_protein|mol2

> <Gold.PLP.Fitness>
39.8889

> <Gold.PLP.PLP>
-27.3553

> <Gold.PLP.part.hbond>
-3.0000

> <Gold.PLP.part.metal>
0.0000

> <Gold.PLP.part.buried>
1.2036

> <Gold.PLP.part.nonpolar>
-26.6773

> <Gold.PLP.part.repulsive>
1.5299

> <Gold.PLP.ligand.clash>
0.0000

> <Gold.PLP.ligand.torsion>
0.1806

> <Gold.PLP.Chemscore.Hbond>
3.2964

> <Gold.PLP.Chemscore.CHOScore>
1.0000

> <Gold.PLP.Chemscore.Metal>
0.0000

> <Gold.Chemscore.Hbonds>
donor molecule, donor type, donor heavy atom, donor atom, acceptor molecule, acceptor atom, score
      L1  H     2    40       P1 10175  2.00
      L1  H    10    34       P1 10171  1.00
      L1  H    15    35       P1 10186  0.32
      L1  C    16    36       P1 10952  1.00

> <Gold.PLP.Chemscore.Internal.Correction>
0.0056

> <Gold.Rescore>
     Score         DG    S(hbond)    S(metal)    S(lipo)     H(rot)  DE(clash)    DE(int)     intcor
     15.24     -18.82       2.34        0.00      69.20       1.00       1.90       1.68       ----

> <Gold.Chemscore.Fitness>
15.2394

> <Gold.Chemscore.DG>
-18.8197

> <Gold.Chemscore.ZeroCoef>
-5.4800

> <Gold.Chemscore.Hbond>
2.3363

> <Gold.Chemscore.Metal>
0.0000

> <Gold.Chemscore.Lipo>
69.1993

> <Gold.Chemscore.Internal_Hbond>
0.0000

> <Gold.Chemscore.DEClash>
1.8954

> <Gold.Chemscore.DEInternal>
1.6849

> <Gold.Chemscore.Rot>
1.0000

> <Gold.Chemscore.Internal.Correction>
   9.000000E+99

> <Gold.Chemscore.Hbonds>
donor molecule, donor type, donor heavy atom, donor atom, acceptor molecule, acceptor atom, score
      L1  H     2    40       P1 10175  0.90
      L1  H    10    34       P1 10171  1.00
      L1  H    15    35       P1 10186  0.31

> <Gold.Chemscore.Hbond.Weighted>
-7.8034

> <Gold.Chemscore.Metal.Weighted>
-0.0000

> <Gold.Chemscore.Lipo.Weighted>
-8.0963

> <Gold.Chemscore.Internal_Hbond.Weighted>
0.0000

> <Gold.Chemscore.DEClash.Weighted>
1.8954

> <Gold.Chemscore.DEInternal.Weighted>
1.6849

> <Gold.Chemscore.Rot.Weighted>
2.5600

> <Gold.Chemscore.Internal.Correction.Weighted>
   9.000000E+99

> <Gold.Protein.RotatedTorsions>
[ 6907 6896 6895 6894 ] final -141.81 input  -60.11 | X-H torsion
[ 7974 7965 7964 7962 ] final  -76.61 input  175.53 | X-H torsion
[ 8008 7997 7996 7995 ] final  -65.99 input   59.86 | X-H torsion
[ 10167 10162 10161 10158 ] final  -98.15 input  -65.29 | X-H torsion
[ 10718 10713 10712 10709 ] final  178.75 input   66.30 | X-H torsion
[ 10763 10752 10751 10750 ] final   50.83 input  -60.55 | X-H torsion
[ 11005 11000 10999 10996 ] final  129.24 input  -57.11 | X-H torsion

> <Gold.Protein.ActiveResidues>
 VAL166  LYS551  ARG553  GLY616  TRP617  ASP618  TYR619  PRO620  LYS621  CYS622 
 ASP623  PHE694  ASN695  SER759  ASP760  ASP761  ALA762  ILE779  LEU786  VAL792 
 PHE793  MET794  SER795  GLU796  ALA797  LYS798  CYS799  TRP800  GLU811  SER814 

> <Gold.Protein.RotatedAtoms>
  151.0787  133.5407  159.2621 H   0  0  0  0  0  0  0  0  0  0  0  0  # atno 6907 bound_to 6896
  151.2319  135.0557  159.9001 H   0  0  0  0  0  0  0  0  0  0  0  0  # atno 6908 bound_to 6896
  152.5421  134.0574  159.8191 H   0  0  0  0  0  0  0  0  0  0  0  0  # atno 6909 bound_to 6896
  145.6106  140.9387  143.1191 H   0  0  0  0  0  0  0  0  0  0  0  0  # atno 7974 bound_to 7965
  154.4706  140.0922  156.7135 H   0  0  0  0  0  0  0  0  0  0  0  0  # atno 8008 bound_to 7997
  155.4734  140.3465  155.4311 H   0  0  0  0  0  0  0  0  0  0  0  0  # atno 8009 bound_to 7997
  156.1033  140.1428  156.9427 H   0  0  0  0  0  0  0  0  0  0  0  0  # atno 8010 bound_to 7997
  140.2760  143.3313  152.0488 H   0  0  0  0  0  0  0  0  0  0  0  0  # atno 10167 bound_to 10162
  156.8859  130.9831  151.3056 H   0  0  0  0  0  0  0  0  0  0  0  0  # atno 10718 bound_to 10713
  152.9784  135.5866  154.4316 H   0  0  0  0  0  0  0  0  0  0  0  0  # atno 10763 bound_to 10752
  154.3928  135.2768  155.2146 H   0  0  0  0  0  0  0  0  0  0  0  0  # atno 10764 bound_to 10752
  154.4011  135.6103  153.5952 H   0  0  0  0  0  0  0  0  0  0  0  0  # atno 10765 bound_to 10752
  139.9605  134.9603  156.9120 H   0  0  0  0  0  0  0  0  0  0  0  0  # atno 11005 bound_to 11000
  144.7271  139.7840  143.7361 LP  0  0  0  0  0  0  0  0  0  0  0  0  # atno 17320 bound_to 7965
  146.1507  139.4589  143.0050 LP  0  0  0  0  0  0  0  0  0  0  0  0  # atno 17321 bound_to 7965
  139.4975  144.6624  151.6434 LP  0  0  0  0  0  0  0  0  0  0  0  0  # atno 17342 bound_to 10162
  140.5851  143.9878  150.6291 LP  0  0  0  0  0  0  0  0  0  0  0  0  # atno 17343 bound_to 10162
  157.6113  130.8585  149.8956 LP  0  0  0  0  0  0  0  0  0  0  0  0  # atno 17370 bound_to 10713
  156.0654  130.3693  150.0891 LP  0  0  0  0  0  0  0  0  0  0  0  0  # atno 17371 bound_to 10713
  140.5512  134.0625  155.7370 LP  0  0  0  0  0  0  0  0  0  0  0  0  # atno 17394 bound_to 11000
  141.1281  133.9349  157.2593 LP  0  0  0  0  0  0  0  0  0  0  0  0  # atno 17395 bound_to 11000

$$$$
