AV-unprocessed.smi:1620|AV-procd|sdf|6491|dock6
  -GOLD-   22720 7153D 1   1.00000     0.00000
 Structure written by MMmdl.
 40 40  0  0  0  0  0  0  0  0  1 V2000
  145.0983  133.7810  162.5429 C   0  0  0  0  0  0  0  0  0  0  0  0
  145.7991  133.5166  161.1980 C   0  0  0  0  0  0  0  0  0  0  0  0
  145.6461  132.0299  160.8248 C   0  0  0  0  0  0  0  0  0  0  0  0
  147.2828  133.9868  161.2048 C   0  0  2  0  0  0  0  0  0  0  0  0
  148.1906  133.2159  162.1875 C   0  0  0  0  0  0  0  0  0  0  0  0
  147.4060  135.4517  161.4217 N   0  0  0  0  0  0  0  0  0  0  0  0
  147.2151  135.9099  162.8046 C   0  0  0  0  0  0  0  0  0  0  0  0
  147.7920  136.3617  160.4877 C   0  0  0  0  0  0  0  0  0  0  0  0
  147.5741  137.5684  160.6108 O   0  0  0  0  0  0  0  0  0  0  0  0
  148.3470  135.8284  159.3821 N   0  0  0  0  0  0  0  0  0  0  0  0
  148.8420  136.5085  158.2409 C   0  0  0  0  0  0  0  0  0  0  0  0
  148.2580  137.6733  157.6788 C   0  0  0  0  0  0  0  0  0  0  0  0
  148.9350  138.0847  156.6176 N   0  0  0  0  0  0  0  0  0  0  0  0
  149.9517  137.1961  156.4825 N   0  0  0  0  0  0  0  0  0  0  0  0
  150.9022  137.3489  155.3959 C   0  0  0  0  0  0  0  0  0  0  0  0
  150.5580  138.5602  154.5277 C   0  0  0  0  0  0  0  0  0  0  0  0
  150.0136  138.3181  153.3323 N   0  0  0  0  0  0  0  0  0  0  0  0
  150.7803  139.6995  154.9319 O   0  0  0  0  0  0  0  0  0  0  0  0
  149.9230  136.2184  157.4578 C   0  0  0  0  0  0  0  0  0  0  0  0
  145.6102  133.2767  163.3632 H   0  0  0  0  0  0  0  0  0  0  0  0
  144.0689  133.4216  162.5256 H   0  0  0  0  0  0  0  0  0  0  0  0
  145.0558  134.8446  162.7758 H   0  0  0  0  0  0  0  0  0  0  0  0
  145.2598  134.0906  160.4443 H   0  0  0  0  0  0  0  0  0  0  0  0
  146.1841  131.3887  161.5236 H   0  0  0  0  0  0  0  0  0  0  0  0
  146.0204  131.8218  159.8226 H   0  0  0  0  0  0  0  0  0  0  0  0
  144.5985  131.7282  160.8395 H   0  0  0  0  0  0  0  0  0  0  0  0
  147.6847  133.7200  160.2275 H   0  0  0  0  0  0  0  0  0  0  0  0
  148.3055  132.1740  161.8900 H   0  0  0  0  0  0  0  0  0  0  0  0
  147.7971  133.2224  163.2038 H   0  0  0  0  0  0  0  0  0  0  0  0
  149.1918  133.6472  162.2146 H   0  0  0  0  0  0  0  0  0  0  0  0
  146.6333  136.8325  162.8394 H   0  0  0  0  0  0  0  0  0  0  0  0
  148.1794  136.0985  163.2781 H   0  0  0  0  0  0  0  0  0  0  0  0
  146.6801  135.1849  163.4167 H   0  0  0  0  0  0  0  0  0  0  0  0
  148.4292  134.8222  159.3632 H   0  0  0  0  0  0  0  0  0  0  0  0
  147.3852  138.2231  157.9987 H   0  0  0  0  0  0  0  0  0  0  0  0
  151.9110  137.4460  155.8011 H   0  0  0  0  0  0  0  0  0  0  0  0
  150.8876  136.4426  154.7890 H   0  0  0  0  0  0  0  0  0  0  0  0
  149.7621  139.0876  152.7288 H   0  0  0  0  0  0  0  0  0  0  0  0
  149.8476  137.3660  153.0400 H   0  0  0  0  0  0  0  0  0  0  0  0
  150.6582  135.4281  157.4967 H   0  0  0  0  0  0  0  0  0  0  0  0
  1  2  1  0  0  0  0
  1 20  1  0  0  0  0
  1 21  1  0  0  0  0
  1 22  1  0  0  0  0
  2  3  1  0  0  0  0
  2  4  1  0  0  0  0
  2 23  1  0  0  0  0
  3 24  1  0  0  0  0
  3 25  1  0  0  0  0
  3 26  1  0  0  0  0
  4  5  1  0  0  0  0
  4  6  1  0  0  0  0
  4 27  1  0  0  0  0
  5 28  1  0  0  0  0
  5 29  1  0  0  0  0
  5 30  1  0  0  0  0
  6  7  1  0  0  0  0
  6  8  1  0  0  0  0
  7 31  1  0  0  0  0
  7 32  1  0  0  0  0
  7 33  1  0  0  0  0
  8  9  2  0  0  0  0
  8 10  1  0  0  0  0
 10 11  1  0  0  0  0
 10 34  1  0  0  0  0
 11 19  2  0  0  0  0
 11 12  1  0  0  0  0
 12 13  2  0  0  0  0
 12 35  1  0  0  0  0
 13 14  1  0  0  0  0
 14 15  1  0  0  0  0
 14 19  1  0  0  0  0
 15 16  1  0  0  0  0
 15 36  1  0  0  0  0
 15 37  1  0  0  0  0
 16 17  1  0  0  0  0
 16 18  2  0  0  0  0
 17 38  1  0  0  0  0
 17 39  1  0  0  0  0
 19 40  1  0  0  0  0
M  END
> <s_m_source_file>
AV-unprocessed.smi

> <i_m_source_file_index>
1620

> <i_lp_mmshare_version>
43012

> <i_f3d_flags>
0

> <s_epik_input>
W0NIM11bQ0hdKFtDSDNdKVtDQEhdKFtDSDNdKU4oW0NIM10pQyg9TylbTkhdYzFbY0hdbm4oW2NIXTEpW0NIMl1DKD1PKVtOSDJd

> <s_epik_cmdline>
J2VwaWtfcHl0aG9uJywgJy1waCcsICc3LjAnLCAnLXRuJywgJzgnLCAnLW1hJywgJzIwMCcsICctbWV0YWxfYmluZGluZycsICctaW1hZScsICc8aW5maWxlLm1hZT4nLCAnLW9tYWUnLCAnPG91dGZpbGUubWFlPic=

> <r_lp_tautomer_probability>
1

> <r_epik_Ionization_Penalty>
4.85642e-05

> <r_epik_Ionization_Penalty_Charging>
0

> <r_epik_Ionization_Penalty_Neutral>
4.85642e-05

> <r_epik_State_Penalty>
-0

> <r_epik_Charging_Adjusted_Penalty>
0

> <i_epik_Tot_Q>
0

> <i_epik_Tot_abs_Q>
0

> <r_epik_Metal_State_Penalty>
-0

> <b_epik_Metal_Only>
0

> <s_lp_Force_Field>
OPLS_2005

> <r_lp_Energy>
32.3257

> <b_lp_Chiralities_Consistent>
1

> <s_lp_Variant>
AV-unprocessed.smi:1620-1

> <Gold.Version>
5.8.1

> <Gold.Id.Protein>
6NUR|6NUR_protein|mol2

> <Gold.PLP.Fitness>
41.4038

> <Gold.PLP.PLP>
-29.5251

> <Gold.PLP.part.hbond>
-5.2679

> <Gold.PLP.part.metal>
0.0000

> <Gold.PLP.part.buried>
-3.0947

> <Gold.PLP.part.nonpolar>
-20.1292

> <Gold.PLP.part.repulsive>
0.2690

> <Gold.PLP.ligand.clash>
0.0000

> <Gold.PLP.ligand.torsion>
0.8283

> <Gold.PLP.Chemscore.Hbond>
4.4320

> <Gold.PLP.Chemscore.CHOScore>
0.0000

> <Gold.PLP.Chemscore.Metal>
0.0000

> <Gold.Chemscore.Hbonds>
donor molecule, donor type, donor heavy atom, donor atom, acceptor molecule, acceptor atom, score
      L1  H    17    38       P1  7957  1.00
      L1  H    17    39       P1  7948  0.94
      P1  H  6931  6943       L1     9  0.55
      P1  H  6934  6947       L1     9  0.93
      P1  H  7989  7998       L1    18  0.99

> <Gold.PLP.Chemscore.Internal.Correction>
0.2392

> <Gold.Rescore>
     Score         DG    S(hbond)    S(metal)    S(lipo)     H(rot)  DE(clash)    DE(int)     intcor
     18.41     -20.13       4.25        0.00      50.02       2.10       0.12       1.59       ----

> <Gold.Chemscore.Fitness>
18.4146

> <Gold.Chemscore.DG>
-20.1273

> <Gold.Chemscore.ZeroCoef>
-5.4800

> <Gold.Chemscore.Hbond>
4.2457

> <Gold.Chemscore.Metal>
0.0000

> <Gold.Chemscore.Lipo>
50.0241

> <Gold.Chemscore.Internal_Hbond>
0.0000

> <Gold.Chemscore.DEClash>
0.1214

> <Gold.Chemscore.DEInternal>
1.5913

> <Gold.Chemscore.Rot>
2.1039

> <Gold.Chemscore.Internal.Correction>
   9.000000E+99

> <Gold.Chemscore.Hbonds>
donor molecule, donor type, donor heavy atom, donor atom, acceptor molecule, acceptor atom, score
      L1  H    17    38       P1  7957  0.91
      L1  H    17    39       P1  7948  0.32
      P1  H  6931  6943       L1     9  0.29
      P1  H  6934  6947       L1     9  0.85
      P1  H  7989  7998       L1    18  0.76

> <Gold.Chemscore.Hbond.Weighted>
-14.1805

> <Gold.Chemscore.Metal.Weighted>
-0.0000

> <Gold.Chemscore.Lipo.Weighted>
-5.8528

> <Gold.Chemscore.Internal_Hbond.Weighted>
0.0000

> <Gold.Chemscore.DEClash.Weighted>
0.1214

> <Gold.Chemscore.DEInternal.Weighted>
1.5913

> <Gold.Chemscore.Rot.Weighted>
5.3860

> <Gold.Chemscore.Internal.Correction.Weighted>
   9.000000E+99

> <Gold.Protein.RotatedTorsions>
[ 6907 6896 6895 6894 ] final   40.80 input  -60.11 | X-H torsion
[ 7974 7965 7964 7962 ] final  145.85 input  175.53 | X-H torsion
[ 8008 7997 7996 7995 ] final  -83.79 input   59.86 | X-H torsion
[ 10167 10162 10161 10158 ] final  -23.63 input  -65.29 | X-H torsion
[ 10718 10713 10712 10709 ] final -104.43 input   66.30 | X-H torsion
[ 10763 10752 10751 10750 ] final  -89.01 input  -60.55 | X-H torsion
[ 11005 11000 10999 10996 ] final -141.66 input  -57.11 | X-H torsion

> <Gold.Protein.ActiveResidues>
 VAL166  LYS551  ARG553  GLY616  TRP617  ASP618  TYR619  PRO620  LYS621  CYS622 
 ASP623  PHE694  ASN695  SER759  ASP760  ASP761  ALA762  ILE779  LEU786  VAL792 
 PHE793  MET794  SER795  GLU796  ALA797  LYS798  CYS799  TRP800  GLU811  SER814 

> <Gold.Protein.RotatedAtoms>
  152.1871  134.8704  160.0520 H   0  0  0  0  0  0  0  0  0  0  0  0  # atno 6907 bound_to 6896
  151.9607  133.3689  159.4042 H   0  0  0  0  0  0  0  0  0  0  0  0  # atno 6908 bound_to 6896
  150.6928  134.4167  159.5230 H   0  0  0  0  0  0  0  0  0  0  0  0  # atno 6909 bound_to 6896
  144.8719  139.5833  143.5883 H   0  0  0  0  0  0  0  0  0  0  0  0  # atno 7974 bound_to 7965
  154.6228  140.0614  156.9637 H   0  0  0  0  0  0  0  0  0  0  0  0  # atno 8008 bound_to 7997
  155.1789  140.3297  155.4360 H   0  0  0  0  0  0  0  0  0  0  0  0  # atno 8009 bound_to 7997
  156.2441  140.1901  156.6887 H   0  0  0  0  0  0  0  0  0  0  0  0  # atno 8010 bound_to 7997
  140.7288  143.4425  151.0635 H   0  0  0  0  0  0  0  0  0  0  0  0  # atno 10167 bound_to 10162
  156.0304  130.5515  150.7395 H   0  0  0  0  0  0  0  0  0  0  0  0  # atno 10718 bound_to 10713
  154.6507  135.5356  153.7898 H   0  0  0  0  0  0  0  0  0  0  0  0  # atno 10763 bound_to 10752
  153.0384  135.6481  154.1021 H   0  0  0  0  0  0  0  0  0  0  0  0  # atno 10764 bound_to 10752
  154.0939  135.2938  155.3246 H   0  0  0  0  0  0  0  0  0  0  0  0  # atno 10765 bound_to 10752
  140.8302  134.2526  157.4860 H   0  0  0  0  0  0  0  0  0  0  0  0  # atno 11005 bound_to 11000
  146.2936  139.7211  142.9143 LP  0  0  0  0  0  0  0  0  0  0  0  0  # atno 17320 bound_to 7965
  145.4115  141.0397  143.3014 LP  0  0  0  0  0  0  0  0  0  0  0  0  # atno 17321 bound_to 7965
  139.8094  143.7972  152.3170 LP  0  0  0  0  0  0  0  0  0  0  0  0  # atno 17342 bound_to 10162
  139.8016  144.7371  150.9816 LP  0  0  0  0  0  0  0  0  0  0  0  0  # atno 17343 bound_to 10162
  157.4968  131.0915  151.0362 LP  0  0  0  0  0  0  0  0  0  0  0  0  # atno 17370 bound_to 10713
  157.0754  130.5881  149.5410 LP  0  0  0  0  0  0  0  0  0  0  0  0  # atno 17371 bound_to 10713
  139.8705  134.9582  156.4293 LP  0  0  0  0  0  0  0  0  0  0  0  0  # atno 17394 bound_to 11000
  140.9006  133.7782  155.9675 LP  0  0  0  0  0  0  0  0  0  0  0  0  # atno 17395 bound_to 11000

$$$$
