AV-unprocessed.smi:1984|AV-procd|sdf|8040|dock9
  -GOLD-   2272010233D 1   1.00000     0.00000
 Structure written by MMmdl.
 38 39  0  0  0  0  0  0  0  0  1 V2000
  154.0714  141.4364  161.3456 C   0  0  0  0  0  0  0  0  0  0  0  0
  153.0822  142.4022  160.7630 C   0  0  0  0  0  0  0  0  0  0  0  0
  152.6140  143.6257  161.3176 C   0  0  0  0  0  0  0  0  0  0  0  0
  151.7212  144.0952  160.3960 C   0  0  0  0  0  0  0  0  0  0  0  0
  150.8894  145.3354  160.4095 C   0  0  0  0  0  0  0  0  0  0  0  0
  151.6878  143.1744  159.3632 N   0  0  0  0  0  0  0  0  0  0  0  0
  150.8796  143.1766  158.1504 C   0  0  0  0  0  0  0  0  0  0  0  0
  150.0807  141.8775  158.0173 C   0  0  0  0  0  0  0  0  0  0  0  0
  149.3980  141.4738  158.9581 O   0  0  0  0  0  0  0  0  0  0  0  0
  150.1492  141.2508  156.8323 N   0  0  0  0  0  0  0  0  0  0  0  0
  149.3028  140.1369  156.4238 C   0  0  0  0  0  0  0  0  0  0  0  0
  150.1175  138.8337  156.2955 C   0  0  2  0  0  0  0  0  0  0  0  0
  149.2426  137.6150  155.9461 C   0  0  0  0  0  0  0  0  0  0  0  0
  150.0921  136.3498  156.1034 C   0  0  0  0  0  0  0  0  0  0  0  0
  151.2103  136.6820  157.5154 S   0  0  0  0  0  0  0  0  0  0  0  0
  150.6490  136.0822  158.7354 O   0  0  0  0  0  0  0  0  0  0  0  0
  152.5968  136.4106  157.1066 O   0  0  0  0  0  0  0  0  0  0  0  0
  150.9253  138.4913  157.5609 C   0  0  0  0  0  0  0  0  0  0  0  0
  152.5287  142.1410  159.5906 N   0  0  0  0  0  0  0  0  0  0  0  0
  154.6236  141.8881  162.1699 H   0  0  0  0  0  0  0  0  0  0  0  0
  154.7975  141.1130  160.5991 H   0  0  0  0  0  0  0  0  0  0  0  0
  153.5688  140.5485  161.7297 H   0  0  0  0  0  0  0  0  0  0  0  0
  152.8886  144.0866  162.2549 H   0  0  0  0  0  0  0  0  0  0  0  0
  151.0033  145.8702  161.3527 H   0  0  0  0  0  0  0  0  0  0  0  0
  149.8326  145.0997  160.2851 H   0  0  0  0  0  0  0  0  0  0  0  0
  151.1856  146.0087  159.6050 H   0  0  0  0  0  0  0  0  0  0  0  0
  150.1995  144.0284  158.1605 H   0  0  0  0  0  0  0  0  0  0  0  0
  151.5364  143.3029  157.2884 H   0  0  0  0  0  0  0  0  0  0  0  0
  150.7508  141.6465  156.1246 H   0  0  0  0  0  0  0  0  0  0  0  0
  148.5209  140.0168  157.1741 H   0  0  0  0  0  0  0  0  0  0  0  0
  148.7996  140.3709  155.4842 H   0  0  0  0  0  0  0  0  0  0  0  0
  150.8321  138.9505  155.4791 H   0  0  0  0  0  0  0  0  0  0  0  0
  148.4018  137.5649  156.6390 H   0  0  0  0  0  0  0  0  0  0  0  0
  148.8248  137.6910  154.9419 H   0  0  0  0  0  0  0  0  0  0  0  0
  149.5001  135.4540  156.2901 H   0  0  0  0  0  0  0  0  0  0  0  0
  150.7070  136.1858  155.2181 H   0  0  0  0  0  0  0  0  0  0  0  0
  151.8786  139.0188  157.6101 H   0  0  0  0  0  0  0  0  0  0  0  0
  150.3584  138.7163  158.4645 H   0  0  0  0  0  0  0  0  0  0  0  0
  1  2  1  0  0  0  0
  1 20  1  0  0  0  0
  1 21  1  0  0  0  0
  1 22  1  0  0  0  0
  2 19  2  0  0  0  0
  2  3  1  0  0  0  0
  3  4  2  0  0  0  0
  3 23  1  0  0  0  0
  4  5  1  0  0  0  0
  4  6  1  0  0  0  0
  5 24  1  0  0  0  0
  5 25  1  0  0  0  0
  5 26  1  0  0  0  0
  6  7  1  0  0  0  0
  6 19  1  0  0  0  0
  7  8  1  0  0  0  0
  7 27  1  0  0  0  0
  7 28  1  0  0  0  0
  8  9  2  0  0  0  0
  8 10  1  0  0  0  0
 10 11  1  0  0  0  0
 10 29  1  0  0  0  0
 11 12  1  0  0  0  0
 11 30  1  0  0  0  0
 11 31  1  0  0  0  0
 12 18  1  0  0  0  0
 12 13  1  0  0  0  0
 12 32  1  0  0  0  0
 13 14  1  0  0  0  0
 13 33  1  0  0  0  0
 13 34  1  0  0  0  0
 14 15  1  0  0  0  0
 14 35  1  0  0  0  0
 14 36  1  0  0  0  0
 15 16  2  0  0  0  0
 15 17  2  0  0  0  0
 15 18  1  0  0  0  0
 18 37  1  0  0  0  0
 18 38  1  0  0  0  0
M  END
> <s_m_source_file>
AV-unprocessed.smi

> <i_m_source_file_index>
1984

> <i_lp_mmshare_version>
43012

> <i_f3d_flags>
0

> <s_epik_input>
W0NIM11jMVtjSF1jKFtDSDNdKW4objEpW0NIMl1DKD1PKVtOSF1bQ0gyXVtDQEBIXShbQ0gyXTIpW0NIMl1bQ0gyXVMyKD1PKT1P

> <s_epik_cmdline>
J2VwaWtfcHl0aG9uJywgJy1waCcsICc3LjAnLCAnLXRuJywgJzgnLCAnLW1hJywgJzIwMCcsICctbWV0YWxfYmluZGluZycsICctaW1hZScsICc8aW5maWxlLm1hZT4nLCAnLW9tYWUnLCAnPG91dGZpbGUubWFlPic=

> <r_lp_tautomer_probability>
1

> <r_epik_Ionization_Penalty>
0.000335865

> <r_epik_Ionization_Penalty_Charging>
0

> <r_epik_Ionization_Penalty_Neutral>
0.000335865

> <r_epik_State_Penalty>
-0

> <r_epik_Charging_Adjusted_Penalty>
0

> <i_epik_Tot_Q>
0

> <i_epik_Tot_abs_Q>
0

> <r_epik_Metal_State_Penalty>
-0

> <b_epik_Metal_Only>
0

> <s_lp_Force_Field>
OPLS_2005

> <r_lp_Energy>
1.39039

> <b_lp_Chiralities_Consistent>
1

> <s_lp_Variant>
AV-unprocessed.smi:1984-1

> <Gold.Version>
5.8.1

> <Gold.Id.Protein>
6NUR|6NUR_protein|mol2

> <Gold.PLP.Fitness>
42.8255

> <Gold.PLP.PLP>
-39.7644

> <Gold.PLP.part.hbond>
-1.8467

> <Gold.PLP.part.metal>
0.0000

> <Gold.PLP.part.buried>
-5.2846

> <Gold.PLP.part.nonpolar>
-33.5514

> <Gold.PLP.part.repulsive>
0.2083

> <Gold.PLP.ligand.clash>
0.0000

> <Gold.PLP.ligand.torsion>
0.1695

> <Gold.PLP.Chemscore.Hbond>
1.1310

> <Gold.PLP.Chemscore.CHOScore>
0.0000

> <Gold.PLP.Chemscore.Metal>
0.0000

> <Gold.Chemscore.Hbonds>
donor molecule, donor type, donor heavy atom, donor atom, acceptor molecule, acceptor atom, score
      P1  H  6896  6908       L1    16  0.80
      P1  H 10752 10763       L1    17  0.47

> <Gold.PLP.Chemscore.Internal.Correction>
0.0070

> <Gold.Rescore>
     Score         DG    S(hbond)    S(metal)    S(lipo)     H(rot)  DE(clash)    DE(int)     intcor
     16.95     -17.42       1.75        0.00      88.90       1.68       0.25       0.22       ----

> <Gold.Chemscore.Fitness>
16.9479

> <Gold.Chemscore.DG>
-17.4221

> <Gold.Chemscore.ZeroCoef>
-5.4800

> <Gold.Chemscore.Hbond>
1.7484

> <Gold.Chemscore.Metal>
0.0000

> <Gold.Chemscore.Lipo>
88.9049

> <Gold.Chemscore.Internal_Hbond>
0.0000

> <Gold.Chemscore.DEClash>
0.2512

> <Gold.Chemscore.DEInternal>
0.2229

> <Gold.Chemscore.Rot>
1.6795

> <Gold.Chemscore.Internal.Correction>
   9.000000E+99

> <Gold.Chemscore.Hbonds>
donor molecule, donor type, donor heavy atom, donor atom, acceptor molecule, acceptor atom, score
      P1  H  6896  6908       L1    16  0.77
      P1  H 10752 10763       L1    17  0.48

> <Gold.Chemscore.Hbond.Weighted>
-5.8397

> <Gold.Chemscore.Metal.Weighted>
-0.0000

> <Gold.Chemscore.Lipo.Weighted>
-10.4019

> <Gold.Chemscore.Internal_Hbond.Weighted>
0.0000

> <Gold.Chemscore.DEClash.Weighted>
0.2512

> <Gold.Chemscore.DEInternal.Weighted>
0.2229

> <Gold.Chemscore.Rot.Weighted>
4.2995

> <Gold.Chemscore.Internal.Correction.Weighted>
   9.000000E+99

> <Gold.Protein.RotatedTorsions>
[ 6907 6896 6895 6894 ] final -174.66 input  -60.11 | X-H torsion
[ 7974 7965 7964 7962 ] final -121.37 input  175.53 | X-H torsion
[ 8008 7997 7996 7995 ] final -104.54 input   59.86 | X-H torsion
[ 10167 10162 10161 10158 ] final  -73.17 input  -65.29 | X-H torsion
[ 10718 10713 10712 10709 ] final -153.81 input   66.30 | X-H torsion
[ 10763 10752 10751 10750 ] final  112.69 input  -60.55 | X-H torsion
[ 11005 11000 10999 10996 ] final   36.23 input  -57.11 | X-H torsion

> <Gold.Protein.ActiveResidues>
 VAL166  LYS551  ARG553  GLY616  TRP617  ASP618  TYR619  PRO620  LYS621  CYS622 
 ASP623  PHE694  ASN695  SER759  ASP760  ASP761  ALA762  ILE779  LEU786  VAL792 
 PHE793  MET794  SER795  GLU796  ALA797  LYS798  CYS799  TRP800  GLU811  SER814 

> <Gold.Protein.RotatedAtoms>
  151.5759  133.3384  159.2998 H   0  0  0  0  0  0  0  0  0  0  0  0  # atno 6907 bound_to 6896
  150.8341  134.7609  159.6889 H   0  0  0  0  0  0  0  0  0  0  0  0  # atno 6908 bound_to 6896
  152.4420  134.5578  159.9937 H   0  0  0  0  0  0  0  0  0  0  0  0  # atno 6909 bound_to 6896
  145.0411  140.8145  143.4266 H   0  0  0  0  0  0  0  0  0  0  0  0  # atno 7974 bound_to 7965
  154.8868  140.0417  157.1815 H   0  0  0  0  0  0  0  0  0  0  0  0  # atno 8008 bound_to 7997
  154.8582  140.2940  155.5535 H   0  0  0  0  0  0  0  0  0  0  0  0  # atno 8009 bound_to 7997
  156.2998  140.2452  156.3551 H   0  0  0  0  0  0  0  0  0  0  0  0  # atno 8010 bound_to 7997
  140.5132  143.2342  151.7557 H   0  0  0  0  0  0  0  0  0  0  0  0  # atno 10167 bound_to 10162
  156.4908  130.8346  151.2569 H   0  0  0  0  0  0  0  0  0  0  0  0  # atno 10718 bound_to 10713
  153.4815  135.3678  155.2444 H   0  0  0  0  0  0  0  0  0  0  0  0  # atno 10763 bound_to 10752
  154.8755  135.3955  154.3694 H   0  0  0  0  0  0  0  0  0  0  0  0  # atno 10764 bound_to 10752
  153.4299  135.7082  153.6303 H   0  0  0  0  0  0  0  0  0  0  0  0  # atno 10765 bound_to 10752
  140.2346  134.3487  155.7950 H   0  0  0  0  0  0  0  0  0  0  0  0  # atno 11005 bound_to 11000
  145.1647  139.2438  143.5373 LP  0  0  0  0  0  0  0  0  0  0  0  0  # atno 17320 bound_to 7965
  146.3509  140.1383  142.8595 LP  0  0  0  0  0  0  0  0  0  0  0  0  # atno 17321 bound_to 7965
  139.4902  144.4360  151.9818 LP  0  0  0  0  0  0  0  0  0  0  0  0  # atno 17342 bound_to 10162
  140.3454  144.3154  150.5959 LP  0  0  0  0  0  0  0  0  0  0  0  0  # atno 17343 bound_to 10162
  157.7474  131.0014  150.2962 LP  0  0  0  0  0  0  0  0  0  0  0  0  # atno 17370 bound_to 10713
  156.3428  130.3818  149.7394 LP  0  0  0  0  0  0  0  0  0  0  0  0  # atno 17371 bound_to 10713
  141.2215  133.7264  156.8787 LP  0  0  0  0  0  0  0  0  0  0  0  0  # atno 17394 bound_to 11000
  140.1715  134.9096  157.2839 LP  0  0  0  0  0  0  0  0  0  0  0  0  # atno 17395 bound_to 11000

$$$$
