AV-unprocessed.smi:912|AV-procd|sdf|4143|dock8
  -GOLD-   22720 2 53D 1   1.00000     0.00000
 Structure written by MMmdl.
 27 27  0  0  0  0  0  0  0  0  2 V2000
  146.1572  137.6524  151.6628 C   0  0  0  0  0  0  0  0  0  0  0  0
  146.2848  136.1968  151.4160 N   0  3  0  0  0  0  0  0  0  0  0  0
  145.3693  135.2752  152.1499 C   0  0  2  0  0  0  0  0  0  0  0  0
  144.0094  135.9748  152.4105 C   0  0  0  0  0  0  0  0  0  0  0  0
  146.0653  134.8692  153.4744 C   0  0  0  0  0  0  0  0  0  0  0  0
  147.2792  135.3747  153.7240 N   0  0  0  0  0  0  0  0  0  0  0  0
  145.5118  134.1191  154.2761 O   0  0  0  0  0  0  0  0  0  0  0  0
  145.1176  133.9987  151.3190 C   0  0  0  0  0  0  0  0  0  0  0  0
  146.1689  133.1661  150.8568 C   0  0  0  0  0  0  0  0  0  0  0  0
  145.8522  132.0200  150.0997 C   0  0  0  0  0  0  0  0  0  0  0  0
  144.5913  131.6633  149.7825 N   0  0  0  0  0  0  0  0  0  0  0  0
  143.5880  132.4517  150.2174 C   0  0  0  0  0  0  0  0  0  0  0  0
  143.7963  133.6174  150.9803 C   0  0  0  0  0  0  0  0  0  0  0  0
  146.9538  138.1770  151.1354 H   0  0  0  0  0  0  0  0  0  0  0  0
  146.2442  137.8989  152.7211 H   0  0  0  0  0  0  0  0  0  0  0  0
  145.2106  138.0410  151.2878 H   0  0  0  0  0  0  0  0  0  0  0  0
  146.1417  136.0440  150.4280 H   0  0  0  0  0  0  0  0  0  0  0  0
  143.3034  135.3188  152.9205 H   0  0  0  0  0  0  0  0  0  0  0  0
  143.5427  136.2841  151.4746 H   0  0  0  0  0  0  0  0  0  0  0  0
  144.1066  136.8621  153.0366 H   0  0  0  0  0  0  0  0  0  0  0  0
  147.7564  135.1582  154.5872 H   0  0  0  0  0  0  0  0  0  0  0  0
  147.7059  135.9988  153.0536 H   0  0  0  0  0  0  0  0  0  0  0  0
  147.2078  133.3741  151.0618 H   0  0  0  0  0  0  0  0  0  0  0  0
  146.6367  131.3713  149.7390 H   0  0  0  0  0  0  0  0  0  0  0  0
  142.5874  132.1450  149.9510 H   0  0  0  0  0  0  0  0  0  0  0  0
  142.9468  134.2026  151.3006 H   0  0  0  0  0  0  0  0  0  0  0  0
  147.2305  135.9245  151.6421 H   0  0  0  0  0  0  0  0  0  0  0  0
  1  2  1  0  0  0  0
  1 14  1  0  0  0  0
  1 15  1  0  0  0  0
  1 16  1  0  0  0  0
  2  3  1  0  0  0  0
  2 17  1  0  0  0  0
  2 27  1  0  0  0  0
  3  4  1  0  0  0  0
  3  5  1  0  0  0  0
  3  8  1  0  0  0  0
  4 18  1  0  0  0  0
  4 19  1  0  0  0  0
  4 20  1  0  0  0  0
  5  6  1  0  0  0  0
  5  7  2  0  0  0  0
  6 21  1  0  0  0  0
  6 22  1  0  0  0  0
  8 13  1  0  0  0  0
  8  9  2  0  0  0  0
  9 10  1  0  0  0  0
  9 23  1  0  0  0  0
 10 11  2  0  0  0  0
 10 24  1  0  0  0  0
 11 12  1  0  0  0  0
 12 13  2  0  0  0  0
 12 25  1  0  0  0  0
 13 26  1  0  0  0  0
M  CHG  1   2   1
M  END
> <s_m_source_file>
AV-unprocessed.smi

> <i_m_source_file_index>
912

> <i_lp_mmshare_version>
43012

> <i_f3d_flags>
0

> <s_epik_input>
W0NIM11bTkhdW0NAQF0oW0NIM10pKEMoPU8pW05IMl0pYzFbY0hdW2NIXW5bY0hdW2NIXTE=

> <s_epik_cmdline>
J2VwaWtfcHl0aG9uJywgJy1waCcsICc3LjAnLCAnLXRuJywgJzgnLCAnLW1hJywgJzIwMCcsICctbWV0YWxfYmluZGluZycsICctaW1hZScsICc8aW5maWxlLm1hZT4nLCAnLW9tYWUnLCAnPG91dGZpbGUubWFlPic=

> <r_epik_Ionization_Penalty>
0.8426

> <r_epik_Ionization_Penalty_Charging>
0.842363

> <r_epik_Ionization_Penalty_Neutral>
0.000236815

> <r_epik_State_Penalty>
0.498415

> <r_epik_Charging_Adjusted_Penalty>
1.34078

> <i_epik_Tot_Q>
1

> <i_epik_Tot_abs_Q>
1

> <r_epik_Metal_State_Penalty>
0.661775

> <b_epik_Metal_Only>
0

> <s_lp_Force_Field>
OPLS_2005

> <r_lp_Energy>
11.5286

> <b_lp_Chiralities_Consistent>
1

> <s_lp_Variant>
AV-unprocessed.smi:912-4

> <Gold.Version>
5.8.1

> <Gold.Id.Protein>
6NUR|6NUR_protein|mol2

> <Gold.PLP.Fitness>
37.1924

> <Gold.PLP.PLP>
-21.8765

> <Gold.PLP.part.hbond>
-3.0000

> <Gold.PLP.part.metal>
0.0000

> <Gold.PLP.part.buried>
-1.0791

> <Gold.PLP.part.nonpolar>
-19.3419

> <Gold.PLP.part.repulsive>
0.3266

> <Gold.PLP.ligand.clash>
0.0000

> <Gold.PLP.ligand.torsion>
0.5729

> <Gold.PLP.Chemscore.Hbond>
3.2141

> <Gold.PLP.Chemscore.CHOScore>
2.2702

> <Gold.PLP.Chemscore.Metal>
0.0000

> <Gold.Chemscore.Hbonds>
donor molecule, donor type, donor heavy atom, donor atom, acceptor molecule, acceptor atom, score
      L1  H     2    27       P1  7948  2.00
      L1  H     6    22       P1  7948  0.93
      P1  H 10785 10796       L1    11  0.13
      L1  C    10    24       P1 10747  1.00
      L1  C    12    25       P1 10186  0.21
      L1  C    12    25       P1 10952  0.97

> <Gold.PLP.Chemscore.Internal.Correction>
0.0087

> <Gold.Rescore>
     Score         DG    S(hbond)    S(metal)    S(lipo)     H(rot)  DE(clash)    DE(int)     intcor
     13.17     -14.26       2.03        0.00      57.03       1.83       0.41       0.68       ----

> <Gold.Chemscore.Fitness>
13.1663

> <Gold.Chemscore.DG>
-14.2598

> <Gold.Chemscore.ZeroCoef>
-5.4800

> <Gold.Chemscore.Hbond>
2.0312

> <Gold.Chemscore.Metal>
0.0000

> <Gold.Chemscore.Lipo>
57.0323

> <Gold.Chemscore.Internal_Hbond>
0.0000

> <Gold.Chemscore.DEClash>
0.4089

> <Gold.Chemscore.DEInternal>
0.6847

> <Gold.Chemscore.Rot>
1.8270

> <Gold.Chemscore.Internal.Correction>
   9.000000E+99

> <Gold.Chemscore.Hbonds>
donor molecule, donor type, donor heavy atom, donor atom, acceptor molecule, acceptor atom, score
      L1  H     2    27       P1  7948  0.98
      L1  H     6    22       P1  7948  0.90
      P1  H 10785 10796       L1    11  0.02

> <Gold.Chemscore.Hbond.Weighted>
-6.7841

> <Gold.Chemscore.Metal.Weighted>
-0.0000

> <Gold.Chemscore.Lipo.Weighted>
-6.6728

> <Gold.Chemscore.Internal_Hbond.Weighted>
0.0000

> <Gold.Chemscore.DEClash.Weighted>
0.4089

> <Gold.Chemscore.DEInternal.Weighted>
0.6847

> <Gold.Chemscore.Rot.Weighted>
4.6771

> <Gold.Chemscore.Internal.Correction.Weighted>
   9.000000E+99

> <Gold.Protein.RotatedTorsions>
[ 6907 6896 6895 6894 ] final  -25.18 input  -60.11 | X-H torsion
[ 7974 7965 7964 7962 ] final  -78.77 input  175.53 | X-H torsion
[ 8008 7997 7996 7995 ] final  -48.90 input   59.86 | X-H torsion
[ 10167 10162 10161 10158 ] final  -30.14 input  -65.29 | X-H torsion
[ 10718 10713 10712 10709 ] final  -44.65 input   66.30 | X-H torsion
[ 10763 10752 10751 10750 ] final  141.44 input  -60.55 | X-H torsion
[ 11005 11000 10999 10996 ] final   35.27 input  -57.11 | X-H torsion

> <Gold.Protein.ActiveResidues>
 VAL166  LYS551  ARG553  GLY616  TRP617  ASP618  TYR619  PRO620  LYS621  CYS622 
 ASP623  PHE694  ASN695  SER759  ASP760  ASP761  ALA762  ILE779  LEU786  VAL792 
 PHE793  MET794  SER795  GLU796  ALA797  LYS798  CYS799  TRP800  GLU811  SER814 

> <Gold.Protein.RotatedAtoms>
  151.1789  135.0352  159.8783 H   0  0  0  0  0  0  0  0  0  0  0  0  # atno 6907 bound_to 6896
  152.5445  134.1086  159.8359 H   0  0  0  0  0  0  0  0  0  0  0  0  # atno 6908 bound_to 6896
  151.1200  133.5064  159.2634 H   0  0  0  0  0  0  0  0  0  0  0  0  # atno 6909 bound_to 6896
  145.5821  140.9446  143.1338 H   0  0  0  0  0  0  0  0  0  0  0  0  # atno 7974 bound_to 7965
  154.4035  140.1310  156.4414 H   0  0  0  0  0  0  0  0  0  0  0  0  # atno 8008 bound_to 7997
  155.7455  140.3489  155.5105 H   0  0  0  0  0  0  0  0  0  0  0  0  # atno 8009 bound_to 7997
  155.8999  140.1017  157.1348 H   0  0  0  0  0  0  0  0  0  0  0  0  # atno 8010 bound_to 7997
  140.7253  143.3872  151.1494 H   0  0  0  0  0  0  0  0  0  0  0  0  # atno 10167 bound_to 10162
  156.2364  130.4176  149.8813 H   0  0  0  0  0  0  0  0  0  0  0  0  # atno 10718 bound_to 10713
  153.9392  135.2982  155.3443 H   0  0  0  0  0  0  0  0  0  0  0  0  # atno 10763 bound_to 10752
  154.7486  135.4991  153.9251 H   0  0  0  0  0  0  0  0  0  0  0  0  # atno 10764 bound_to 10752
  153.1051  135.6744  153.9708 H   0  0  0  0  0  0  0  0  0  0  0  0  # atno 10765 bound_to 10752
  140.2443  134.3378  155.7914 H   0  0  0  0  0  0  0  0  0  0  0  0  # atno 11005 bound_to 11000
  144.7389  139.7505  143.7318 LP  0  0  0  0  0  0  0  0  0  0  0  0  # atno 17320 bound_to 7965
  146.1709  139.4859  142.9928 LP  0  0  0  0  0  0  0  0  0  0  0  0  # atno 17321 bound_to 7965
  139.7471  143.8835  152.3066 LP  0  0  0  0  0  0  0  0  0  0  0  0  # atno 17342 bound_to 10162
  139.8676  144.7085  150.9026 LP  0  0  0  0  0  0  0  0  0  0  0  0  # atno 17343 bound_to 10162
  156.6409  130.8704  151.3514 LP  0  0  0  0  0  0  0  0  0  0  0  0  # atno 17370 bound_to 10713
  157.7156  130.9493  150.1243 LP  0  0  0  0  0  0  0  0  0  0  0  0  # atno 17371 bound_to 10713
  141.2207  133.7317  156.8936 LP  0  0  0  0  0  0  0  0  0  0  0  0  # atno 17394 bound_to 11000
  140.1621  134.9158  157.2728 LP  0  0  0  0  0  0  0  0  0  0  0  0  # atno 17395 bound_to 11000

$$$$
