#       Name:                AV-unprocessed.smi:2611
#       Creating user name   scv26
#       Creation time:       Fri Mar 27 14:21:42 2020


#       File generated by GOLD software.
#

@<TRIPOS>MOLECULE
AV-unprocessed.smi:2611
    45    46     1
SMALL
NO_CHARGES


@<TRIPOS>ATOM
      1 ****        -5.6241  -1.0176  -0.0674 C.3            1 S1                 0.0000
      2 ****        -5.3070   0.2954  -0.7983 C.3            1 S1                 0.0000
      3 ****        -5.4516   0.1822  -2.3230 C.3            1 S1                 0.0000
      4 ****        -3.9667   0.8383  -0.4068 C.2            1 S1                 0.0000
      5 ****        -3.8521   2.0007   0.2255 N.2            1 S1                 0.0000
      6 ****        -2.4688   2.1355   0.4111 O.3            1 S1                 0.0000
      7 ****        -1.9119   1.0371  -0.1525 C.2            1 S1                 0.0000
      8 ****        -0.4329   0.8587  -0.0745 C.3            1 S1                 0.0000
      9 ****         0.0101   0.2133   1.2481 C.3            1 S1                 0.0000
     10 ****         1.4613   0.0931   1.3251 N.am           1 S1                 0.0000
     11 ****         2.1929  -0.8754   0.7480 C.2            1 S1                 0.0000
     12 ****         1.6762  -1.7908   0.1057 O.2            1 S1                 0.0000
     13 ****         3.5315  -0.7733   0.9499 N.am           1 S1                 0.0000
     14 ****         4.2342   0.3999   1.4950 C.3            1 S1                 0.0000
     15 ****         4.7547   1.2584   0.3303 C.3            1 S1                 0.0000
     16 ****         5.9660   0.3360  -0.6674 S.3            1 S1                 0.0000
     17 ****         5.0329  -1.2035  -0.9387 C.3            1 S1                 0.0000
     18 ****         4.4699  -1.7498   0.3844 C.3            1 S1                 0.0000
     19 ****        -2.7980   0.1859  -0.6624 N.2            1 S1                 0.0000
     20 ****        -5.5831  -0.8843   1.0140 H              1 S1                 0.0000
     21 ****        -4.9150  -1.8017  -0.3340 H              1 S1                 0.0000
     22 ****        -6.6231  -1.3748  -0.3183 H              1 S1                 0.0000
     23 ****        -6.0574   1.0173  -0.4716 H              1 S1                 0.0000
     24 ****        -5.2939   1.1478  -2.8044 H              1 S1                 0.0000
     25 ****        -6.4480  -0.1646  -2.5974 H              1 S1                 0.0000
     26 ****        -4.7293  -0.5205  -2.7400 H              1 S1                 0.0000
     27 ****        -0.1133   0.2496  -0.9210 H              1 S1                 0.0000
     28 ****         0.0407   1.8339  -0.1948 H              1 S1                 0.0000
     29 ****        -0.3212   0.8244   2.0881 H              1 S1                 0.0000
     30 ****        -0.4567  -0.7653   1.3727 H              1 S1                 0.0000
     31 ****         1.9501   0.8042   1.8493 H              1 S1                 0.0000
     32 ****         3.6113   1.0047   2.1542 H              1 S1                 0.0000
     33 ****         5.0684   0.0764   2.1193 H              1 S1                 0.0000
     34 ****         3.9296   1.5727  -0.3100 H              1 S1                 0.0000
     35 ****         5.2302   2.1638   0.7070 H              1 S1                 0.0000
     36 ****         4.2247  -1.0099  -1.6449 H              1 S1                 0.0000
     37 ****         5.6934  -1.9360  -1.4030 H              1 S1                 0.0000
     38 ****         5.2810  -1.9444   1.0874 H              1 S1                 0.0000
     39 ****         3.9962  -2.7182   0.2162 H              1 S1                 0.0000
     40 ****        -4.5786   2.6294   0.5028 LP             1 S1                 0.0000
     41 ****        -2.2506   2.1752   1.3862 LP             1 S1                 0.0000
     42 ****        -2.1363   2.9643  -0.0389 LP             1 S1                 0.0000
     43 ****         0.6824  -1.8291   0.0008 LP             1 S1                 0.0000
     44 ****         2.2505  -2.4955  -0.3109 LP             1 S1                 0.0000
     45 ****        -2.6472  -0.6946  -1.1118 LP             1 S1                 0.0000
@<TRIPOS>BOND
    1    1    2 1     
    2    1   20 1     
    3    1   21 1     
    4    1   22 1     
    5    2    3 1     
    6    2    4 1     
    7    2   23 1     
    8    3   24 1     
    9    3   25 1     
   10    3   26 1     
   11    4   19 1     
   12    4    5 2     
   13    5    6 1     
   14    6    7 1     
   15    7    8 1     
   16    7   19 2     
   17    8    9 1     
   18    8   27 1     
   19    8   28 1     
   20    9   10 1     
   21    9   29 1     
   22    9   30 1     
   23   10   11 am    
   24   10   31 1     
   25   11   12 2     
   26   11   13 am    
   27   13   18 1     
   28   13   14 1     
   29   14   15 1     
   30   14   32 1     
   31   14   33 1     
   32   15   16 1     
   33   15   34 1     
   34   15   35 1     
   35   16   17 1     
   36   17   18 1     
   37   17   36 1     
   38   17   37 1     
   39   18   38 1     
   40   18   39 1     
   41    5   40 1     
   42    6   41 1     
   43    6   42 1     
   44   12   43 1     
   45   12   44 1     
   46   19   45 1     
@<TRIPOS>SUBSTRUCTURE
      1 S1             1
@<TRIPOS>SET
LONE_PAIRS      STATIC     ATOMS    <user>   **** ""
6 40 41 42 43 44 45
DONOR_HYDROGENS      STATIC     ATOMS    <user>   **** ""
1 31
ATOM$BLUE        STATIC     ATOMS    COLORGROUP SYSTEM
6 40 41 42 43 44 45
ATOM$RED        STATIC     ATOMS    COLORGROUP SYSTEM
1 31
