AV-unprocessed.smi:904|AV-procd|sdf|4097|dock2
  -GOLD-   22720 1583D 1   1.00000     0.00000
 Structure written by MMmdl.
 42 43  0  0  0  0  0  0  0  0  1 V2000
  150.7706  134.9706  156.2436 C   0  0  0  0  0  0  0  0  0  0  0  0
  150.8309  133.5205  155.8569 C   0  0  0  0  0  0  0  0  0  0  0  0
  151.3596  132.6454  156.6960 N   0  0  0  0  0  0  0  0  0  0  0  0
  151.2663  131.4600  156.0610 N   0  0  0  0  0  0  0  0  0  0  0  0
  151.7616  130.2634  156.7131 C   0  0  0  0  0  0  0  0  0  0  0  0
  150.6749  131.5857  154.8191 C   0  0  0  0  0  0  0  0  0  0  0  0
  150.4643  130.4120  153.9172 C   0  0  0  0  0  0  0  0  0  0  0  0
  150.3768  132.9120  154.6501 C   0  0  0  0  0  0  0  0  0  0  0  0
  149.7252  133.5948  153.4728 C   0  0  0  0  0  0  0  0  0  0  0  0
  148.3358  133.0064  153.2193 C   0  0  0  0  0  0  0  0  0  0  0  0
  147.9948  131.9688  153.7868 O   0  0  0  0  0  0  0  0  0  0  0  0
  147.5500  133.6715  152.3575 N   0  0  0  0  0  0  0  0  0  0  0  0
  146.1974  133.2851  151.9712 C   0  0  2  0  0  0  0  0  0  0  0  0
  146.2156  131.9313  151.2321 C   0  0  0  0  0  0  0  0  0  0  0  0
  144.8133  131.5414  150.7384 C   0  0  0  0  0  0  0  0  0  0  0  0
  144.2123  132.6454  149.8517 C   0  0  1  0  0  0  0  0  0  0  0  0
  142.9017  132.2843  149.4706 O   0  0  0  0  0  0  0  0  0  0  0  0
  144.1799  133.9933  150.5922 C   0  0  0  0  0  0  0  0  0  0  0  0
  145.5811  134.3864  151.0877 C   0  0  0  0  0  0  0  0  0  0  0  0
  151.1518  135.6041  155.4424 H   0  0  0  0  0  0  0  0  0  0  0  0
  151.3629  135.1766  157.1357 H   0  0  0  0  0  0  0  0  0  0  0  0
  149.7444  135.2755  156.4485 H   0  0  0  0  0  0  0  0  0  0  0  0
  152.4258  129.7236  156.0380 H   0  0  0  0  0  0  0  0  0  0  0  0
  150.9234  129.6194  156.9792 H   0  0  0  0  0  0  0  0  0  0  0  0
  152.3136  130.5188  157.6187 H   0  0  0  0  0  0  0  0  0  0  0  0
  149.8709  130.6822  153.0442 H   0  0  0  0  0  0  0  0  0  0  0  0
  149.9425  129.6092  154.4384 H   0  0  0  0  0  0  0  0  0  0  0  0
  151.4189  130.0223  153.5635 H   0  0  0  0  0  0  0  0  0  0  0  0
  149.6270  134.6686  153.6315 H   0  0  0  0  0  0  0  0  0  0  0  0
  150.3285  133.4810  152.5712 H   0  0  0  0  0  0  0  0  0  0  0  0
  147.9163  134.5170  151.9446 H   0  0  0  0  0  0  0  0  0  0  0  0
  145.5813  133.1886  152.8674 H   0  0  0  0  0  0  0  0  0  0  0  0
  146.8959  131.9835  150.3808 H   0  0  0  0  0  0  0  0  0  0  0  0
  146.6020  131.1500  151.8877 H   0  0  0  0  0  0  0  0  0  0  0  0
  144.8643  130.6021  150.1866 H   0  0  0  0  0  0  0  0  0  0  0  0
  144.1661  131.3615  151.5982 H   0  0  0  0  0  0  0  0  0  0  0  0
  144.8093  132.7453  148.9442 H   0  0  0  0  0  0  0  0  0  0  0  0
  142.3209  133.0013  149.6743 H   0  0  0  0  0  0  0  0  0  0  0  0
  143.7891  134.7725  149.9366 H   0  0  0  0  0  0  0  0  0  0  0  0
  143.4998  133.9337  151.4433 H   0  0  0  0  0  0  0  0  0  0  0  0
  145.5238  135.3226  151.6444 H   0  0  0  0  0  0  0  0  0  0  0  0
  146.2262  134.5767  150.2287 H   0  0  0  0  0  0  0  0  0  0  0  0
  1  2  1  0  0  0  0
  1 20  1  0  0  0  0
  1 21  1  0  0  0  0
  1 22  1  0  0  0  0
  2  8  1  0  0  0  0
  2  3  2  0  0  0  0
  3  4  1  0  0  0  0
  4  5  1  0  0  0  0
  4  6  1  0  0  0  0
  5 23  1  0  0  0  0
  5 24  1  0  0  0  0
  5 25  1  0  0  0  0
  6  7  1  0  0  0  0
  6  8  2  0  0  0  0
  7 26  1  0  0  0  0
  7 27  1  0  0  0  0
  7 28  1  0  0  0  0
  8  9  1  0  0  0  0
  9 10  1  0  0  0  0
  9 29  1  0  0  0  0
  9 30  1  0  0  0  0
 10 11  2  0  0  0  0
 10 12  1  0  0  0  0
 12 13  1  0  0  0  0
 12 31  1  0  0  0  0
 13 19  1  0  0  0  0
 13 14  1  0  0  0  0
 13 32  1  0  0  0  0
 14 15  1  0  0  0  0
 14 33  1  0  0  0  0
 14 34  1  0  0  0  0
 15 16  1  0  0  0  0
 15 35  1  0  0  0  0
 15 36  1  0  0  0  0
 16 17  1  0  0  0  0
 16 18  1  0  0  0  0
 16 37  1  0  0  0  0
 17 38  1  0  0  0  0
 18 19  1  0  0  0  0
 18 39  1  0  0  0  0
 18 40  1  0  0  0  0
 19 41  1  0  0  0  0
 19 42  1  0  0  0  0
M  END
> <s_m_source_file>
AV-unprocessed.smi

> <i_m_source_file_index>
904

> <i_lp_mmshare_version>
43012

> <i_f3d_flags>
0

> <s_epik_input>
W0NIM11jMW5uKFtDSDNdKWMoW0NIM10pYzFbQ0gyXUMoPU8pW05IXVtDQEBIXTJbQ0gyXVtDSDJdW0NAQEhdKFtPSF0pW0NIMl1bQ0gyXTI=

> <s_epik_cmdline>
J2VwaWtfcHl0aG9uJywgJy1waCcsICc3LjAnLCAnLXRuJywgJzgnLCAnLW1hJywgJzIwMCcsICctbWV0YWxfYmluZGluZycsICctaW1hZScsICc8aW5maWxlLm1hZT4nLCAnLW9tYWUnLCAnPG91dGZpbGUubWFlPic=

> <r_lp_tautomer_probability>
1

> <r_epik_Ionization_Penalty>
0.00340889

> <r_epik_Ionization_Penalty_Charging>
0

> <r_epik_Ionization_Penalty_Neutral>
0.00340889

> <r_epik_State_Penalty>
0.00241397

> <r_epik_Charging_Adjusted_Penalty>
0.00241397

> <i_epik_Tot_Q>
0

> <i_epik_Tot_abs_Q>
0

> <r_epik_Metal_State_Penalty>
-0

> <b_epik_Metal_Only>
0

> <s_lp_Force_Field>
OPLS_2005

> <r_lp_Energy>
1.52997

> <b_lp_Chiralities_Consistent>
1

> <s_lp_Variant>
AV-unprocessed.smi:904-1

> <Gold.Version>
5.8.1

> <Gold.Id.Protein>
6NUR|6NUR_protein|mol2

> <Gold.PLP.Fitness>
48.2563

> <Gold.PLP.PLP>
-37.4726

> <Gold.PLP.part.hbond>
-4.8713

> <Gold.PLP.part.metal>
0.0000

> <Gold.PLP.part.buried>
-5.8218

> <Gold.PLP.part.nonpolar>
-27.8853

> <Gold.PLP.part.repulsive>
0.0559

> <Gold.PLP.ligand.clash>
0.0000

> <Gold.PLP.ligand.torsion>
0.1498

> <Gold.PLP.Chemscore.Hbond>
3.6900

> <Gold.PLP.Chemscore.CHOScore>
0.0000

> <Gold.PLP.Chemscore.Metal>
0.0000

> <Gold.Chemscore.Hbonds>
donor molecule, donor type, donor heavy atom, donor atom, acceptor molecule, acceptor atom, score
      L1  H    12    31       P1  7948  0.90
      L1  H    17    38       P1 10186  1.00
      P1  H 10785 10796       L1    17  0.37

> <Gold.PLP.Chemscore.Internal.Correction>
0.0133

> <Gold.Rescore>
     Score         DG    S(hbond)    S(metal)    S(lipo)     H(rot)  DE(clash)    DE(int)     intcor
     17.61     -20.37       3.12        0.00      78.60       1.84       0.08       2.68       ----

> <Gold.Chemscore.Fitness>
17.6061

> <Gold.Chemscore.DG>
-20.3696

> <Gold.Chemscore.ZeroCoef>
-5.4800

> <Gold.Chemscore.Hbond>
3.1155

> <Gold.Chemscore.Metal>
0.0000

> <Gold.Chemscore.Lipo>
78.5962

> <Gold.Chemscore.Internal_Hbond>
0.0000

> <Gold.Chemscore.DEClash>
0.0806

> <Gold.Chemscore.DEInternal>
2.6830

> <Gold.Chemscore.Rot>
1.8406

> <Gold.Chemscore.Internal.Correction>
   9.000000E+99

> <Gold.Chemscore.Hbonds>
donor molecule, donor type, donor heavy atom, donor atom, acceptor molecule, acceptor atom, score
      L1  H    12    31       P1  7948  0.18
      L1  H    17    38       P1 10186  0.99
      P1  H 10785 10796       L1    17  0.13

> <Gold.Chemscore.Hbond.Weighted>
-10.4057

> <Gold.Chemscore.Metal.Weighted>
-0.0000

> <Gold.Chemscore.Lipo.Weighted>
-9.1958

> <Gold.Chemscore.Internal_Hbond.Weighted>
0.0000

> <Gold.Chemscore.DEClash.Weighted>
0.0806

> <Gold.Chemscore.DEInternal.Weighted>
2.6830

> <Gold.Chemscore.Rot.Weighted>
4.7118

> <Gold.Chemscore.Internal.Correction.Weighted>
   9.000000E+99

> <Gold.Protein.RotatedTorsions>
[ 6907 6896 6895 6894 ] final -148.10 input  -60.11 | X-H torsion
[ 7974 7965 7964 7962 ] final   65.30 input  175.53 | X-H torsion
[ 8008 7997 7996 7995 ] final  147.04 input   59.86 | X-H torsion
[ 10167 10162 10161 10158 ] final  -92.88 input  -65.29 | X-H torsion
[ 10718 10713 10712 10709 ] final  142.49 input   66.30 | X-H torsion
[ 10763 10752 10751 10750 ] final -154.73 input  -60.55 | X-H torsion
[ 11005 11000 10999 10996 ] final  173.35 input  -57.11 | X-H torsion

> <Gold.Protein.ActiveResidues>
 VAL166  LYS551  ARG553  GLY616  TRP617  ASP618  TYR619  PRO620  LYS621  CYS622 
 ASP623  PHE694  ASN695  SER759  ASP760  ASP761  ALA762  ILE779  LEU786  VAL792 
 PHE793  MET794  SER795  GLU796  ALA797  LYS798  CYS799  TRP800  GLU811  SER814 

> <Gold.Protein.RotatedAtoms>
  151.1650  133.4820  159.2593 H   0  0  0  0  0  0  0  0  0  0  0  0  # atno 6907 bound_to 6896
  151.1414  135.0181  159.8637 H   0  0  0  0  0  0  0  0  0  0  0  0  # atno 6908 bound_to 6896
  152.5462  134.1543  159.8585 H   0  0  0  0  0  0  0  0  0  0  0  0  # atno 6909 bound_to 6896
  145.8401  139.3190  143.0936 H   0  0  0  0  0  0  0  0  0  0  0  0  # atno 7974 bound_to 7965
  156.2837  140.2166  156.5474 H   0  0  0  0  0  0  0  0  0  0  0  0  # atno 8008 bound_to 7997
  154.7320  140.0494  157.0757 H   0  0  0  0  0  0  0  0  0  0  0  0  # atno 8009 bound_to 7997
  155.0342  140.3138  155.4750 H   0  0  0  0  0  0  0  0  0  0  0  0  # atno 8010 bound_to 7997
  140.3303  143.2998  151.9949 H   0  0  0  0  0  0  0  0  0  0  0  0  # atno 10167 bound_to 10162
  157.3799  131.0990  151.0748 H   0  0  0  0  0  0  0  0  0  0  0  0  # atno 10718 bound_to 10713
  154.7838  135.3183  154.7932 H   0  0  0  0  0  0  0  0  0  0  0  0  # atno 10763 bound_to 10752
  153.8637  135.6851  153.4785 H   0  0  0  0  0  0  0  0  0  0  0  0  # atno 10764 bound_to 10752
  153.1482  135.4710  154.9536 H   0  0  0  0  0  0  0  0  0  0  0  0  # atno 10765 bound_to 10752
  140.3396  134.7288  157.4192 H   0  0  0  0  0  0  0  0  0  0  0  0  # atno 11005 bound_to 11000
  145.9475  140.8934  143.0276 LP  0  0  0  0  0  0  0  0  0  0  0  0  # atno 17320 bound_to 7965
  144.6734  140.1633  143.7420 LP  0  0  0  0  0  0  0  0  0  0  0  0  # atno 17321 bound_to 7965
  139.4857  144.6240  151.7200 LP  0  0  0  0  0  0  0  0  0  0  0  0  # atno 17342 bound_to 10162
  140.5403  144.0590  150.6086 LP  0  0  0  0  0  0  0  0  0  0  0  0  # atno 17343 bound_to 10162
  157.1821  130.6314  149.5675 LP  0  0  0  0  0  0  0  0  0  0  0  0  # atno 17370 bound_to 10713
  155.9773  130.4750  150.6587 LP  0  0  0  0  0  0  0  0  0  0  0  0  # atno 17371 bound_to 10713
  140.0792  134.5754  155.8558 LP  0  0  0  0  0  0  0  0  0  0  0  0  # atno 17394 bound_to 11000
  141.2042  133.6637  156.6107 LP  0  0  0  0  0  0  0  0  0  0  0  0  # atno 17395 bound_to 11000

$$$$
