#       Name:                AV-unprocessed.smi:3199
#       Creating user name   scv26
#       Creation time:       Fri Mar 27 18:06:49 2020


#       File generated by GOLD software.
#

@<TRIPOS>MOLECULE
AV-unprocessed.smi:3199
    40    41     1
SMALL
NO_CHARGES


@<TRIPOS>ATOM
      1 ****        -2.9019   5.8662  -0.2007 C.3            1 S1                 0.0000
      2 ****        -2.3795   4.4610  -0.4119 C.ar           1 S1                 0.0000
      3 ****        -1.8881   4.0185  -1.6591 C.ar           1 S1                 0.0000
      4 ****        -1.4152   2.6953  -1.7833 C.ar           1 S1                 0.0000
      5 ****        -1.4437   1.8416  -0.6586 C.ar           1 S1                 0.0000
      6 ****        -0.9447   0.4132  -0.7540 C.3            1 S1                 0.0000
      7 ****         0.5062   0.2710  -0.2643 C.3            1 S1                 0.0000
      8 ****         0.9589  -1.1137  -0.3202 N.am           1 S1                 0.0000
      9 ****         0.6586  -2.0594   0.5848 C.2            1 S1                 0.0000
     10 ****        -0.0571  -1.8434   1.5633 O.2            1 S1                 0.0000
     11 ****         1.2269  -3.4660   0.3442 C.3            1 S1                 0.0000
     12 ****         1.7553  -4.1660   1.6115 C.3            1 S1                 0.0000
     13 ****         3.1824  -4.5512   1.2575 C.3            1 S1                 0.0000
     14 ****         3.1791  -4.5137  -0.2645 C.3            1 S1                 0.0000
     15 ****         2.3448  -3.4022  -0.5395 O.3            1 S1                 0.0000
     16 ****        -1.9444   2.3398   0.5633 C.ar           1 S1                 0.0000
     17 ****        -2.3873   3.6137   0.6417 N.pl3          1 S1                 1.0000
     18 ****        -3.0948   6.3589  -1.1542 H              1 S1                 0.0000
     19 ****        -2.1736   6.4609   0.3510 H              1 S1                 0.0000
     20 ****        -3.8333   5.8493   0.3661 H              1 S1                 0.0000
     21 ****        -1.8725   4.6826  -2.5112 H              1 S1                 0.0000
     22 ****        -1.0359   2.3429  -2.7315 H              1 S1                 0.0000
     23 ****        -1.6082  -0.2229  -0.1665 H              1 S1                 0.0000
     24 ****        -1.0263   0.0695  -1.7861 H              1 S1                 0.0000
     25 ****         1.1701   0.8727  -0.8857 H              1 S1                 0.0000
     26 ****         0.6067   0.6494   0.7544 H              1 S1                 0.0000
     27 ****         1.5523  -1.3750  -1.0948 H              1 S1                 0.0000
     28 ****         0.4556  -4.0818  -0.1212 H              1 S1                 0.0000
     29 ****         1.7344  -3.5402   2.5048 H              1 S1                 0.0000
     30 ****         1.1591  -5.0548   1.8207 H              1 S1                 0.0000
     31 ****         3.8747  -3.8015   1.6428 H              1 S1                 0.0000
     32 ****         3.4750  -5.5220   1.6584 H              1 S1                 0.0000
     33 ****         4.1758  -4.3854  -0.6869 H              1 S1                 0.0000
     34 ****         2.7374  -5.4206  -0.6804 H              1 S1                 0.0000
     35 ****        -2.0023   1.7622   1.4746 H              1 S1                 0.0000
     36 ****        -2.7439   3.9514   1.5360 H              1 S1                 0.0000
     37 ****        -0.4419  -0.9321   1.7099 LP             1 S1                 0.0000
     38 ****        -0.2536  -2.5793   2.2113 LP             1 S1                 0.0000
     39 ****         2.8497  -2.5524  -0.3883 LP             1 S1                 0.0000
     40 ****         2.0308  -3.4391  -1.4882 LP             1 S1                 0.0000
@<TRIPOS>BOND
    1    1    2 1     
    2    1   18 1     
    3    1   19 1     
    4    1   20 1     
    5    2   17 ar    
    6    2    3 ar    
    7    3    4 ar    
    8    3   21 1     
    9    4    5 ar    
   10    4   22 1     
   11    5    6 1     
   12    5   16 ar    
   13    6    7 1     
   14    6   23 1     
   15    6   24 1     
   16    7    8 1     
   17    7   25 1     
   18    7   26 1     
   19    8    9 am    
   20    8   27 1     
   21    9   10 2     
   22    9   11 1     
   23   11   15 1     
   24   11   12 1     
   25   11   28 1     
   26   12   13 1     
   27   12   29 1     
   28   12   30 1     
   29   13   14 1     
   30   13   31 1     
   31   13   32 1     
   32   14   15 1     
   33   14   33 1     
   34   14   34 1     
   35   16   17 ar    
   36   16   35 1     
   37   17   36 1     
   38   10   37 1     
   39   10   38 1     
   40   15   39 1     
   41   15   40 1     
@<TRIPOS>SUBSTRUCTURE
      1 S1             1
@<TRIPOS>SET
LONE_PAIRS      STATIC     ATOMS    <user>   **** ""
4 37 38 39 40
DONOR_HYDROGENS      STATIC     ATOMS    <user>   **** ""
2 27 36
ATOM$BLUE        STATIC     ATOMS    COLORGROUP SYSTEM
4 37 38 39 40
ATOM$RED        STATIC     ATOMS    COLORGROUP SYSTEM
2 27 36
