AV-unprocessed.smi:283|AV-procd|sdf|2151|dock2
  -GOLD-   2262021493D 1   1.00000     0.00000
 Structure written by MMmdl.
 48 51  0  0  0  0  0  0  0  0  1 V2000
  150.8910  142.5550  156.9958 C   0  0  0  0  0  0  0  0  0  0  0  0
  151.8206  141.6520  157.8270 C   0  0  2  0  0  0  0  0  0  0  0  0
  151.2906  140.2925  157.9277 N   0  0  0  0  0  0  0  0  0  0  0  0
  151.4691  139.3815  156.9453 C   0  0  0  0  0  0  0  0  0  0  0  0
  152.3142  139.6151  155.9079 N   0  0  0  0  0  0  0  0  0  0  0  0
  152.4697  138.6943  154.9528 C   0  0  0  0  0  0  0  0  0  0  0  0
  151.8920  137.4958  154.8481 N   0  0  0  0  0  0  0  0  0  0  0  0
  151.0473  137.2497  155.8911 C   0  0  0  0  0  0  0  0  0  0  0  0
  150.7848  138.1388  156.9712 C   0  0  0  0  0  0  0  0  0  0  0  0
  149.8757  137.5614  157.8468 N   0  0  0  0  0  0  0  0  0  0  0  0
  149.6178  136.3991  157.3111 C   0  0  0  0  0  0  0  0  0  0  0  0
  150.2824  136.1247  156.1358 N   0  0  0  0  0  0  0  0  0  0  0  0
  150.1617  134.8845  155.3044 C   0  0  1  0  0  0  0  0  0  0  0  0
  150.9041  133.8735  155.9217 O   0  0  0  0  0  0  0  0  0  0  0  0
  150.0574  132.7940  156.3079 C   0  0  2  0  0  0  0  0  0  0  0  0
  150.8371  131.4669  156.3265 C   0  0  0  0  0  0  0  0  0  0  0  0
  151.8082  131.4814  157.3513 O   0  0  0  0  0  0  0  0  0  0  0  0
  148.8623  132.8924  155.3499 C   0  0  2  0  0  0  0  0  0  0  0  0
  149.1516  132.2472  154.1189 O   0  0  0  0  0  0  0  0  0  0  0  0
  148.7060  134.4026  155.1961 C   0  0  2  0  0  0  0  0  0  0  0  0
  148.0908  134.7388  153.9673 O   0  0  0  0  0  0  0  0  0  0  0  0
  152.0729  142.2853  159.1944 C   0  0  0  0  0  0  0  0  0  0  0  0
  151.4233  143.4929  159.5440 C   0  0  0  0  0  0  0  0  0  0  0  0
  151.6506  144.0953  160.7956 C   0  0  0  0  0  0  0  0  0  0  0  0
  152.5361  143.5001  161.7116 C   0  0  0  0  0  0  0  0  0  0  0  0
  153.1974  142.3061  161.3708 C   0  0  0  0  0  0  0  0  0  0  0  0
  152.9746  141.6985  160.1186 C   0  0  0  0  0  0  0  0  0  0  0  0
  153.8302  140.2415  159.7497 Cl  0  0  0  0  0  0  0  0  0  0  0  0
  150.6138  135.1341  154.3436 H   0  0  0  0  0  0  0  0  0  0  0  0
  149.7054  133.0000  157.3184 H   0  0  0  0  0  0  0  0  0  0  0  0
  147.9665  132.4357  155.7724 H   0  0  0  0  0  0  0  0  0  0  0  0
  148.1163  134.7988  156.0230 H   0  0  0  0  0  0  0  0  0  0  0  0
  151.3171  143.5523  156.8823 H   0  0  0  0  0  0  0  0  0  0  0  0
  149.9162  142.6641  157.4721 H   0  0  0  0  0  0  0  0  0  0  0  0
  150.7269  142.1595  155.9938 H   0  0  0  0  0  0  0  0  0  0  0  0
  152.7808  141.5772  157.3180 H   0  0  0  0  0  0  0  0  0  0  0  0
  150.7546  140.0964  158.7608 H   0  0  0  0  0  0  0  0  0  0  0  0
  153.1554  138.9545  154.1599 H   0  0  0  0  0  0  0  0  0  0  0  0
  148.9282  135.7019  157.7649 H   0  0  0  0  0  0  0  0  0  0  0  0
  150.1738  130.6120  156.4587 H   0  0  0  0  0  0  0  0  0  0  0  0
  151.3464  131.3248  155.3731 H   0  0  0  0  0  0  0  0  0  0  0  0
  151.9969  130.5890  157.5997 H   0  0  0  0  0  0  0  0  0  0  0  0
  148.4408  132.4178  153.5196 H   0  0  0  0  0  0  0  0  0  0  0  0
  148.5671  135.4616  153.5872 H   0  0  0  0  0  0  0  0  0  0  0  0
  150.7468  143.9722  158.8518 H   0  0  0  0  0  0  0  0  0  0  0  0
  151.1469  145.0158  161.0514 H   0  0  0  0  0  0  0  0  0  0  0  0
  152.7121  143.9615  162.6720 H   0  0  0  0  0  0  0  0  0  0  0  0
  153.8829  141.8561  162.0736 H   0  0  0  0  0  0  0  0  0  0  0  0
  1  2  1  0  0  0  0
  1 33  1  0  0  0  0
  1 34  1  0  0  0  0
  1 35  1  0  0  0  0
  2  3  1  0  0  0  0
  2 22  1  0  0  0  0
  2 36  1  0  0  0  0
  3  4  1  0  0  0  0
  3 37  1  0  0  0  0
  4  9  1  0  0  0  0
  4  5  2  0  0  0  0
  5  6  1  0  0  0  0
  6  7  2  0  0  0  0
  6 38  1  0  0  0  0
  7  8  1  0  0  0  0
  8 12  1  0  0  0  0
  8  9  2  0  0  0  0
  9 10  1  0  0  0  0
 10 11  2  0  0  0  0
 11 12  1  0  0  0  0
 11 39  1  0  0  0  0
 12 13  1  0  0  0  0
 13 29  1  0  0  0  0
 13 20  1  0  0  0  0
 13 14  1  0  0  0  0
 14 15  1  0  0  0  0
 15 30  1  0  0  0  0
 15 16  1  0  0  0  0
 15 18  1  0  0  0  0
 16 17  1  0  0  0  0
 16 40  1  0  0  0  0
 16 41  1  0  0  0  0
 17 42  1  0  0  0  0
 18 31  1  0  0  0  0
 18 19  1  0  0  0  0
 18 20  1  0  0  0  0
 19 43  1  0  0  0  0
 20 32  1  0  0  0  0
 20 21  1  0  0  0  0
 21 44  1  0  0  0  0
 22 27  1  0  0  0  0
 22 23  2  0  0  0  0
 23 24  1  0  0  0  0
 23 45  1  0  0  0  0
 24 25  2  0  0  0  0
 24 46  1  0  0  0  0
 25 26  1  0  0  0  0
 25 47  1  0  0  0  0
 26 27  2  0  0  0  0
 26 48  1  0  0  0  0
 27 28  1  0  0  0  0
M  END
> <s_m_source_file>
AV-unprocessed.smi

> <i_m_source_file_index>
283

> <i_lp_mmshare_version>
43012

> <i_f3d_flags>
0

> <s_epik_input>
Q2xjMVtjSF1bY0hdW2NIXVtjSF1jMVtDQEhdKFtDSDNdKVtOSF1jKG5bY0hdbjIpYyhjMjMpbltjSF1uM1tDQEBIXTRPW0NASF0oW0NIMl1bT0hdKVtDQEBIXShbT0hdKVtDQEhdNFtPSF0=

> <s_epik_cmdline>
J2VwaWtfcHl0aG9uJywgJy1waCcsICc3LjAnLCAnLXRuJywgJzgnLCAnLW1hJywgJzIwMCcsICctbWV0YWxfYmluZGluZycsICctaW1hZScsICc8aW5maWxlLm1hZT4nLCAnLW9tYWUnLCAnPG91dGZpbGUubWFlPic=

> <r_lp_tautomer_probability>
1

> <r_epik_Ionization_Penalty>
0.000266407

> <r_epik_Ionization_Penalty_Charging>
0

> <r_epik_Ionization_Penalty_Neutral>
0.000266407

> <r_epik_State_Penalty>
-0

> <r_epik_Charging_Adjusted_Penalty>
0

> <i_epik_Tot_Q>
0

> <i_epik_Tot_abs_Q>
0

> <r_epik_Metal_State_Penalty>
-0

> <b_epik_Metal_Only>
0

> <s_epik_Chemistry_Notes>
This compound contains an acetal/aminal-like group ( X-CH(R)-Y where X, Y are N, S, or O) that may be acid/base labile, releasing an aldehyde.

> <s_lp_Force_Field>
OPLS_2005

> <r_lp_Energy>
49.1948

> <b_lp_Chiralities_Consistent>
1

> <s_lp_Variant>
AV-unprocessed.smi:283-27

> <Gold.Version>
5.8.1

> <Gold.Id.Protein>
6NUR|6NUR_protein|mol2

> <Gold.PLP.Fitness>
53.2961

> <Gold.PLP.PLP>
-47.2202

> <Gold.PLP.part.hbond>
-3.0000

> <Gold.PLP.part.metal>
0.0000

> <Gold.PLP.part.buried>
-7.2195

> <Gold.PLP.part.nonpolar>
-37.3245

> <Gold.PLP.part.repulsive>
0.1729

> <Gold.PLP.ligand.clash>
0.0000

> <Gold.PLP.ligand.torsion>
0.8684

> <Gold.PLP.Chemscore.Hbond>
2.5449

> <Gold.PLP.Chemscore.CHOScore>
0.0000

> <Gold.PLP.Chemscore.Metal>
0.0000

> <Gold.Chemscore.Hbonds>
donor molecule, donor type, donor heavy atom, donor atom, acceptor molecule, acceptor atom, score
      L1  H    21    44       P1  7948  0.80
      P1  H  7997  8009       L1     5  0.68
      P1  H 10752 10765       L1     7  0.60

> <Gold.PLP.Chemscore.Internal.Correction>
0.1781

> <Gold.Rescore>
     Score         DG    S(hbond)    S(metal)    S(lipo)     H(rot)  DE(clash)    DE(int)     intcor
     14.42     -15.45       2.31        0.00     108.92       4.10       0.16       0.86       ----

> <Gold.Chemscore.Fitness>
14.4241

> <Gold.Chemscore.DG>
-15.4470

> <Gold.Chemscore.ZeroCoef>
-5.4800

> <Gold.Chemscore.Hbond>
2.3089

> <Gold.Chemscore.Metal>
0.0000

> <Gold.Chemscore.Lipo>
108.9170

> <Gold.Chemscore.Internal_Hbond>
0.0000

> <Gold.Chemscore.DEClash>
0.1609

> <Gold.Chemscore.DEInternal>
0.8620

> <Gold.Chemscore.Rot>
4.0968

> <Gold.Chemscore.Internal.Correction>
   9.000000E+99

> <Gold.Chemscore.Hbonds>
donor molecule, donor type, donor heavy atom, donor atom, acceptor molecule, acceptor atom, score
      L1  H    21    44       P1  7948  0.78
      P1  H  7997  8009       L1     5  0.25
      P1  H 10752 10765       L1     7  0.32

> <Gold.Chemscore.Hbond.Weighted>
-7.7117

> <Gold.Chemscore.Metal.Weighted>
-0.0000

> <Gold.Chemscore.Lipo.Weighted>
-12.7433

> <Gold.Chemscore.Internal_Hbond.Weighted>
0.0000

> <Gold.Chemscore.DEClash.Weighted>
0.1609

> <Gold.Chemscore.DEInternal.Weighted>
0.8620

> <Gold.Chemscore.Rot.Weighted>
10.4879

> <Gold.Chemscore.Internal.Correction.Weighted>
   9.000000E+99

> <Gold.Protein.RotatedTorsions>
[ 6907 6896 6895 6894 ] final -165.11 input  -60.11 | X-H torsion
[ 7974 7965 7964 7962 ] final -162.09 input  175.53 | X-H torsion
[ 8008 7997 7996 7995 ] final -170.90 input   59.86 | X-H torsion
[ 10167 10162 10161 10158 ] final  179.30 input  -65.29 | X-H torsion
[ 10718 10713 10712 10709 ] final  157.47 input   66.30 | X-H torsion
[ 10763 10752 10751 10750 ] final  172.31 input  -60.55 | X-H torsion
[ 11005 11000 10999 10996 ] final  106.09 input  -57.11 | X-H torsion

> <Gold.Protein.ActiveResidues>
 VAL166  LYS551  ARG553  GLY616  TRP617  ASP618  TYR619  PRO620  LYS621  CYS622 
 ASP623  PHE694  ASN695  SER759  ASP760  ASP761  ALA762  ILE779  LEU786  VAL792 
 PHE793  MET794  SER795  GLU796  ALA797  LYS798  CYS799  TRP800  GLU811  SER814 

> <Gold.Protein.RotatedAtoms>
  151.4225  133.3694  159.2757 H   0  0  0  0  0  0  0  0  0  0  0  0  # atno 6907 bound_to 6896
  150.9283  134.8701  159.7545 H   0  0  0  0  0  0  0  0  0  0  0  0  # atno 6908 bound_to 6896
  152.5016  134.4167  159.9519 H   0  0  0  0  0  0  0  0  0  0  0  0  # atno 6909 bound_to 6896
  144.7369  140.3302  143.6154 H   0  0  0  0  0  0  0  0  0  0  0  0  # atno 7974 bound_to 7965
  155.9244  140.1080  157.1181 H   0  0  0  0  0  0  0  0  0  0  0  0  # atno 8008 bound_to 7997
  154.4060  140.1249  156.4787 H   0  0  0  0  0  0  0  0  0  0  0  0  # atno 8009 bound_to 7997
  155.7156  140.3470  155.4995 H   0  0  0  0  0  0  0  0  0  0  0  0  # atno 8010 bound_to 7997
  139.5330  144.2578  152.0732 H   0  0  0  0  0  0  0  0  0  0  0  0  # atno 10167 bound_to 10162
  157.1910  131.0654  151.2079 H   0  0  0  0  0  0  0  0  0  0  0  0  # atno 10718 bound_to 10713
  154.4242  135.2758  155.1955 H   0  0  0  0  0  0  0  0  0  0  0  0  # atno 10763 bound_to 10752
  154.3888  135.6071  153.5835 H   0  0  0  0  0  0  0  0  0  0  0  0  # atno 10764 bound_to 10752
  152.9834  135.5898  154.4543 H   0  0  0  0  0  0  0  0  0  0  0  0  # atno 10765 bound_to 10752
  139.8810  134.9358  156.5614 H   0  0  0  0  0  0  0  0  0  0  0  0  # atno 11005 bound_to 11000
  145.7479  139.1784  143.2338 LP  0  0  0  0  0  0  0  0  0  0  0  0  # atno 17320 bound_to 7965
  146.1083  140.7459  142.9515 LP  0  0  0  0  0  0  0  0  0  0  0  0  # atno 17321 bound_to 7965
  140.2044  144.4626  150.6416 LP  0  0  0  0  0  0  0  0  0  0  0  0  # atno 17342 bound_to 10162
  140.6520  143.2227  151.6054 LP  0  0  0  0  0  0  0  0  0  0  0  0  # atno 17343 bound_to 10162
  157.3860  130.7256  149.6663 LP  0  0  0  0  0  0  0  0  0  0  0  0  # atno 17370 bound_to 10713
  155.9711  130.4159  150.4206 LP  0  0  0  0  0  0  0  0  0  0  0  0  # atno 17371 bound_to 10713
  140.8166  133.8386  155.8858 LP  0  0  0  0  0  0  0  0  0  0  0  0  # atno 17394 bound_to 11000
  140.9457  134.1844  157.4765 LP  0  0  0  0  0  0  0  0  0  0  0  0  # atno 17395 bound_to 11000

$$$$
