AV-unprocessed.smi:1940|AV-procd|sdf|7840|dock1
  -GOLD-   22720 9583D 1   1.00000     0.00000
 Structure written by MMmdl.
 49 51  0  0  0  0  0  0  0  0  1 V2000
  149.3914  132.4456  154.0511 C   0  0  0  0  0  0  0  0  0  0  0  0
  148.2765  133.4690  154.3338 C   0  0  1  0  0  0  0  0  0  0  0  0
  148.7882  134.8245  154.1466 N   0  0  0  0  0  0  0  0  0  0  0  0
  149.1453  135.6654  155.1275 C   0  0  0  0  0  0  0  0  0  0  0  0
  149.1032  135.3715  156.3217 O   0  0  0  0  0  0  0  0  0  0  0  0
  149.5615  136.8407  154.6257 N   0  0  0  0  0  0  0  0  0  0  0  0
  150.0367  137.9897  155.3149 C   0  0  0  0  0  0  0  0  0  0  0  0
  150.2493  137.8807  156.7028 C   0  0  0  0  0  0  0  0  0  0  0  0
  150.7318  138.9935  157.4164 C   0  0  0  0  0  0  0  0  0  0  0  0
  150.9996  140.1949  156.7202 C   0  0  0  0  0  0  0  0  0  0  0  0
  151.4854  141.3224  157.4166 N   0  0  0  0  0  0  0  0  0  0  0  0
  151.9703  141.1191  158.7840 C   0  0  0  0  0  0  0  0  0  0  0  0
  152.7994  142.3224  159.2641 C   0  0  0  0  0  0  0  0  0  0  0  0
  152.0127  143.6318  159.1065 C   0  0  0  0  0  0  0  0  0  0  0  0
  151.5380  143.7882  157.6543 C   0  0  0  0  0  0  0  0  0  0  0  0
  150.7325  142.5592  157.1991 C   0  0  0  0  0  0  0  0  0  0  0  0
  150.8021  140.2987  155.3832 N   0  0  0  0  0  0  0  0  0  0  0  0
  150.3399  139.2288  154.7021 C   0  0  0  0  0  0  0  0  0  0  0  0
  147.0529  133.2645  153.4193 C   0  0  1  0  0  0  0  0  0  0  0  0
  147.3658  133.2540  151.9221 C   0  0  0  0  0  0  0  0  0  0  0  0
  146.1977  132.4699  151.3709 C   0  0  0  0  0  0  0  0  0  0  0  0
  146.0044  131.4062  152.4463 C   0  0  0  0  0  0  0  0  0  0  0  0
  146.4503  131.9945  153.6658 O   0  0  0  0  0  0  0  0  0  0  0  0
  149.0476  131.4256  154.2230 H   0  0  0  0  0  0  0  0  0  0  0  0
  150.2526  132.6062  154.7004 H   0  0  0  0  0  0  0  0  0  0  0  0
  149.7371  132.5111  153.0190 H   0  0  0  0  0  0  0  0  0  0  0  0
  147.9516  133.3556  155.3699 H   0  0  0  0  0  0  0  0  0  0  0  0
  148.8552  135.1522  153.1942 H   0  0  0  0  0  0  0  0  0  0  0  0
  149.5886  136.9029  153.6186 H   0  0  0  0  0  0  0  0  0  0  0  0
  150.0395  136.9563  157.2207 H   0  0  0  0  0  0  0  0  0  0  0  0
  150.8778  138.9193  158.4837 H   0  0  0  0  0  0  0  0  0  0  0  0
  151.1180  140.9655  159.4474 H   0  0  0  0  0  0  0  0  0  0  0  0
  152.5853  140.2195  158.8340 H   0  0  0  0  0  0  0  0  0  0  0  0
  153.0907  142.1826  160.3053 H   0  0  0  0  0  0  0  0  0  0  0  0
  153.7241  142.3809  158.6884 H   0  0  0  0  0  0  0  0  0  0  0  0
  151.1526  143.6275  159.7772 H   0  0  0  0  0  0  0  0  0  0  0  0
  152.6317  144.4817  159.3951 H   0  0  0  0  0  0  0  0  0  0  0  0
  150.9317  144.6886  157.5537 H   0  0  0  0  0  0  0  0  0  0  0  0
  152.4008  143.9205  157.0001 H   0  0  0  0  0  0  0  0  0  0  0  0
  150.4579  142.6848  156.1526 H   0  0  0  0  0  0  0  0  0  0  0  0
  149.7993  142.4994  157.7608 H   0  0  0  0  0  0  0  0  0  0  0  0
  150.2354  139.3879  153.6410 H   0  0  0  0  0  0  0  0  0  0  0  0
  146.3006  134.0299  153.6187 H   0  0  0  0  0  0  0  0  0  0  0  0
  147.4443  134.2544  151.4956 H   0  0  0  0  0  0  0  0  0  0  0  0
  148.2979  132.7224  151.7251 H   0  0  0  0  0  0  0  0  0  0  0  0
  145.3154  133.1081  151.3093 H   0  0  0  0  0  0  0  0  0  0  0  0
  146.3877  132.0501  150.3829 H   0  0  0  0  0  0  0  0  0  0  0  0
  144.9686  131.0737  152.5192 H   0  0  0  0  0  0  0  0  0  0  0  0
  146.6260  130.5349  152.2368 H   0  0  0  0  0  0  0  0  0  0  0  0
  1  2  1  0  0  0  0
  1 24  1  0  0  0  0
  1 25  1  0  0  0  0
  1 26  1  0  0  0  0
  2  3  1  0  0  0  0
  2 19  1  0  0  0  0
  2 27  1  0  0  0  0
  3  4  1  0  0  0  0
  3 28  1  0  0  0  0
  4  5  2  0  0  0  0
  4  6  1  0  0  0  0
  6  7  1  0  0  0  0
  6 29  1  0  0  0  0
  7 18  1  0  0  0  0
  7  8  2  0  0  0  0
  8  9  1  0  0  0  0
  8 30  1  0  0  0  0
  9 10  2  0  0  0  0
  9 31  1  0  0  0  0
 10 11  1  0  0  0  0
 10 17  1  0  0  0  0
 11 16  1  0  0  0  0
 11 12  1  0  0  0  0
 12 13  1  0  0  0  0
 12 32  1  0  0  0  0
 12 33  1  0  0  0  0
 13 14  1  0  0  0  0
 13 34  1  0  0  0  0
 13 35  1  0  0  0  0
 14 15  1  0  0  0  0
 14 36  1  0  0  0  0
 14 37  1  0  0  0  0
 15 16  1  0  0  0  0
 15 38  1  0  0  0  0
 15 39  1  0  0  0  0
 16 40  1  0  0  0  0
 16 41  1  0  0  0  0
 17 18  2  0  0  0  0
 18 42  1  0  0  0  0
 19 23  1  0  0  0  0
 19 20  1  0  0  0  0
 19 43  1  0  0  0  0
 20 21  1  0  0  0  0
 20 44  1  0  0  0  0
 20 45  1  0  0  0  0
 21 22  1  0  0  0  0
 21 46  1  0  0  0  0
 21 47  1  0  0  0  0
 22 23  1  0  0  0  0
 22 48  1  0  0  0  0
 22 49  1  0  0  0  0
M  END
> <s_m_source_file>
AV-unprocessed.smi

> <i_m_source_file_index>
1940

> <i_lp_mmshare_version>
43012

> <i_f3d_flags>
0

> <s_epik_input>
TzFbQ0gyXVtDSDJdW0NIMl1bQ0BIXTFbQ0BIXShbQ0gzXSlbTkhdQyg9TylbTkhdYzJbY0hdW2NIXWMobltjSF0yKU4zW0NIMl1bQ0gyXVtDSDJdW0NIMl1bQ0gyXTM=

> <s_epik_cmdline>
J2VwaWtfcHl0aG9uJywgJy1waCcsICc3LjAnLCAnLXRuJywgJzgnLCAnLW1hJywgJzIwMCcsICctbWV0YWxfYmluZGluZycsICctaW1hZScsICc8aW5maWxlLm1hZT4nLCAnLW9tYWUnLCAnPG91dGZpbGUubWFlPic=

> <r_lp_tautomer_probability>
1

> <r_epik_Ionization_Penalty>
0.105688

> <r_epik_Ionization_Penalty_Charging>
0

> <r_epik_Ionization_Penalty_Neutral>
0.105688

> <r_epik_State_Penalty>
0.0895745

> <r_epik_Charging_Adjusted_Penalty>
0.0895745

> <i_epik_Tot_Q>
0

> <i_epik_Tot_abs_Q>
0

> <r_epik_Metal_State_Penalty>
0.0765749

> <b_epik_Metal_Only>
0

> <s_lp_Force_Field>
OPLS_2005

> <r_lp_Energy>
33.4739

> <b_lp_Chiralities_Consistent>
1

> <s_lp_Variant>
AV-unprocessed.smi:1940-4

> <Gold.Version>
5.8.1

> <Gold.Id.Protein>
6NUR|6NUR_protein|mol2

> <Gold.PLP.Fitness>
48.2343

> <Gold.PLP.PLP>
-38.9034

> <Gold.PLP.part.hbond>
-3.0000

> <Gold.PLP.part.metal>
0.0000

> <Gold.PLP.part.buried>
-3.4339

> <Gold.PLP.part.nonpolar>
-32.4359

> <Gold.PLP.part.repulsive>
0.2339

> <Gold.PLP.ligand.clash>
0.0000

> <Gold.PLP.ligand.torsion>
0.4663

> <Gold.PLP.Chemscore.Hbond>
2.2760

> <Gold.PLP.Chemscore.CHOScore>
0.9949

> <Gold.PLP.Chemscore.Metal>
0.0000

> <Gold.Chemscore.Hbonds>
donor molecule, donor type, donor heavy atom, donor atom, acceptor molecule, acceptor atom, score
      L1  H     3    28       P1  7948  1.00
      L1  H     6    29       P1  7948  0.99
      P1  H  7989  7998       L1    17  0.19
      L1  C    18    42       P1  7957  0.75

> <Gold.PLP.Chemscore.Internal.Correction>
0.4507

> <Gold.Rescore>
     Score         DG    S(hbond)    S(metal)    S(lipo)     H(rot)  DE(clash)    DE(int)     intcor
     17.84     -20.02       1.85        0.00     100.67       1.34       0.04       2.14       ----

> <Gold.Chemscore.Fitness>
17.8438

> <Gold.Chemscore.DG>
-20.0212

> <Gold.Chemscore.ZeroCoef>
-5.4800

> <Gold.Chemscore.Hbond>
1.8512

> <Gold.Chemscore.Metal>
0.0000

> <Gold.Chemscore.Lipo>
100.6676

> <Gold.Chemscore.Internal_Hbond>
0.0000

> <Gold.Chemscore.DEClash>
0.0414

> <Gold.Chemscore.DEInternal>
2.1360

> <Gold.Chemscore.Rot>
1.3359

> <Gold.Chemscore.Internal.Correction>
   9.000000E+99

> <Gold.Chemscore.Hbonds>
donor molecule, donor type, donor heavy atom, donor atom, acceptor molecule, acceptor atom, score
      L1  H     3    28       P1  7948  0.50
      L1  H     6    29       P1  7948  0.73

> <Gold.Chemscore.Hbond.Weighted>
-6.1830

> <Gold.Chemscore.Metal.Weighted>
-0.0000

> <Gold.Chemscore.Lipo.Weighted>
-11.7781

> <Gold.Chemscore.Internal_Hbond.Weighted>
0.0000

> <Gold.Chemscore.DEClash.Weighted>
0.0414

> <Gold.Chemscore.DEInternal.Weighted>
2.1360

> <Gold.Chemscore.Rot.Weighted>
3.4199

> <Gold.Chemscore.Internal.Correction.Weighted>
   9.000000E+99

> <Gold.Protein.RotatedTorsions>
[ 6907 6896 6895 6894 ] final  102.63 input  -60.11 | X-H torsion
[ 7974 7965 7964 7962 ] final  114.84 input  175.53 | X-H torsion
[ 8008 7997 7996 7995 ] final   75.66 input   59.86 | X-H torsion
[ 10167 10162 10161 10158 ] final -105.07 input  -65.29 | X-H torsion
[ 10718 10713 10712 10709 ] final -170.40 input   66.30 | X-H torsion
[ 10763 10752 10751 10750 ] final  -75.74 input  -60.55 | X-H torsion
[ 11005 11000 10999 10996 ] final   61.46 input  -57.11 | X-H torsion

> <Gold.Protein.ActiveResidues>
 VAL166  LYS551  ARG553  GLY616  TRP617  ASP618  TYR619  PRO620  LYS621  CYS622 
 ASP623  PHE694  ASN695  SER759  ASP760  ASP761  ALA762  ILE779  LEU786  VAL792 
 PHE793  MET794  SER795  GLU796  ALA797  LYS798  CYS799  TRP800  GLU811  SER814 

> <Gold.Protein.RotatedAtoms>
  152.5318  133.9946  159.7866 H   0  0  0  0  0  0  0  0  0  0  0  0  # atno 6907 bound_to 6896
  151.0176  133.5899  159.2682 H   0  0  0  0  0  0  0  0  0  0  0  0  # atno 6908 bound_to 6896
  151.2951  135.0759  159.9271 H   0  0  0  0  0  0  0  0  0  0  0  0  # atno 6909 bound_to 6896
  145.1994  139.2960  143.4326 H   0  0  0  0  0  0  0  0  0  0  0  0  # atno 7974 bound_to 7965
  155.8162  140.3471  155.5487 H   0  0  0  0  0  0  0  0  0  0  0  0  # atno 8008 bound_to 7997
  155.8390  140.0938  157.1766 H   0  0  0  0  0  0  0  0  0  0  0  0  # atno 8009 bound_to 7997
  154.4005  140.1398  156.3693 H   0  0  0  0  0  0  0  0  0  0  0  0  # atno 8010 bound_to 7997
  140.2025  143.3808  152.1118 H   0  0  0  0  0  0  0  0  0  0  0  0  # atno 10167 bound_to 10162
  156.7257  130.9287  151.3101 H   0  0  0  0  0  0  0  0  0  0  0  0  # atno 10718 bound_to 10713
  154.4906  135.5821  153.6456 H   0  0  0  0  0  0  0  0  0  0  0  0  # atno 10763 bound_to 10752
  152.9861  135.6112  154.3130 H   0  0  0  0  0  0  0  0  0  0  0  0  # atno 10764 bound_to 10752
  154.3029  135.2846  155.2582 H   0  0  0  0  0  0  0  0  0  0  0  0  # atno 10765 bound_to 10752
  140.0160  134.6225  155.9710 H   0  0  0  0  0  0  0  0  0  0  0  0  # atno 11005 bound_to 11000
  146.3420  140.2233  142.8592 LP  0  0  0  0  0  0  0  0  0  0  0  0  # atno 17320 bound_to 7965
  144.9963  140.8592  143.5309 LP  0  0  0  0  0  0  0  0  0  0  0  0  # atno 17321 bound_to 7965
  139.5211  144.7042  151.5403 LP  0  0  0  0  0  0  0  0  0  0  0  0  # atno 17342 bound_to 10162
  140.6380  143.8945  150.6665 LP  0  0  0  0  0  0  0  0  0  0  0  0  # atno 17343 bound_to 10162
  157.6880  130.9204  150.0436 LP  0  0  0  0  0  0  0  0  0  0  0  0  # atno 17370 bound_to 10713
  156.1563  130.3643  149.9363 LP  0  0  0  0  0  0  0  0  0  0  0  0  # atno 17371 bound_to 10713
  141.1743  133.6539  156.4767 LP  0  0  0  0  0  0  0  0  0  0  0  0  # atno 17394 bound_to 11000
  140.4471  134.6963  157.5021 LP  0  0  0  0  0  0  0  0  0  0  0  0  # atno 17395 bound_to 11000

$$$$
