#       Name:                AV-unprocessed.smi:2343
#       Creating user name   scv26
#       Creation time:       Fri Mar 27 12:57:55 2020


#       File generated by GOLD software.
#

@<TRIPOS>MOLECULE
AV-unprocessed.smi:2343
    37    38     1
SMALL
NO_CHARGES


@<TRIPOS>ATOM
      1 ****        -0.9195   1.4054  -0.5689 O.2            1 S1                 0.0000
      2 ****        -1.4136   0.2781  -0.5586 C.2            1 S1                 0.0000
      3 ****        -0.6843  -0.8468  -0.5763 N.am           1 S1                 0.0000
      4 ****         0.7719  -0.9010  -0.6266 C.3            1 S1                 0.0000
      5 ****         1.3926  -0.7207   0.7686 C.3            1 S1                 0.0000
      6 ****         2.9011  -0.8716   0.7551 C.2            1 S1                 0.0000
      7 ****         3.6090  -1.8253   1.3587 C.2            1 S1                 0.0000
      8 ****         5.0899  -1.6699   1.1482 C.3            1 S1                 0.0000
      9 ****         5.2139  -0.3867   0.2963 C.3            1 S1                 0.0000
     10 ****         3.7773   0.1156   0.0278 C.3            1 S1                 0.0000
     11 ****        -2.7282   0.0012  -0.5113 N.am           1 S1                 0.0000
     12 ****        -3.8349   0.8947  -0.5109 C.ar           1 S1                 0.0000
     13 ****        -3.7678   2.2510  -0.9131 C.ar           1 S1                 0.0000
     14 ****        -4.9466   3.0232  -0.8822 C.ar           1 S1                 0.0000
     15 ****        -6.1451   2.5378  -0.4951 N.ar           1 S1                 0.0000
     16 ****        -6.2078   1.2417  -0.1238 C.ar           1 S1                 0.0000
     17 ****        -5.0901   0.3833  -0.1180 C.ar           1 S1                 0.0000
     18 ****        -5.2246  -0.9107   0.2616 F              1 S1                 0.0000
     19 ****        -1.1711  -1.7311  -0.5583 H              1 S1                 0.0000
     20 ****         1.0571  -1.8707  -1.0353 H              1 S1                 0.0000
     21 ****         1.1494  -0.1486  -1.3209 H              1 S1                 0.0000
     22 ****         1.1471   0.2624   1.1722 H              1 S1                 0.0000
     23 ****         0.9722  -1.4555   1.4565 H              1 S1                 0.0000
     24 ****         3.1950  -2.6354   1.9410 H              1 S1                 0.0000
     25 ****         5.6008  -1.5712   2.1063 H              1 S1                 0.0000
     26 ****         5.4883  -2.5412   0.6277 H              1 S1                 0.0000
     27 ****         5.7909   0.3710   0.8277 H              1 S1                 0.0000
     28 ****         5.7345  -0.5915  -0.6398 H              1 S1                 0.0000
     29 ****         3.5494   0.1184  -1.0384 H              1 S1                 0.0000
     30 ****         3.6222   1.1216   0.4188 H              1 S1                 0.0000
     31 ****        -2.9699  -0.9755  -0.4287 H              1 S1                 0.0000
     32 ****        -2.8528   2.7102  -1.2525 H              1 S1                 0.0000
     33 ****        -4.9264   4.0600  -1.1841 H              1 S1                 0.0000
     34 ****        -7.1790   0.8763   0.1758 H              1 S1                 0.0000
     35 ****         0.0741   1.5157  -0.5915 LP             1 S1                 0.0000
     36 ****        -1.5118   2.2111  -0.5546 LP             1 S1                 0.0000
     37 ****        -6.9590   3.1188  -0.4838 LP             1 S1                 0.0000
@<TRIPOS>BOND
    1    1    2 2     
    2    2    3 am    
    3    2   11 am    
    4    3    4 1     
    5    3   19 1     
    6    4    5 1     
    7    4   20 1     
    8    4   21 1     
    9    5    6 1     
   10    5   22 1     
   11    5   23 1     
   12    6   10 1     
   13    6    7 2     
   14    7    8 1     
   15    7   24 1     
   16    8    9 1     
   17    8   25 1     
   18    8   26 1     
   19    9   10 1     
   20    9   27 1     
   21    9   28 1     
   22   10   29 1     
   23   10   30 1     
   24   11   12 1     
   25   11   31 1     
   26   12   17 ar    
   27   12   13 ar    
   28   13   14 ar    
   29   13   32 1     
   30   14   15 ar    
   31   14   33 1     
   32   15   16 ar    
   33   16   17 ar    
   34   16   34 1     
   35   17   18 1     
   36    1   35 1     
   37    1   36 1     
   38   15   37 1     
@<TRIPOS>SUBSTRUCTURE
      1 S1             1
@<TRIPOS>SET
LONE_PAIRS      STATIC     ATOMS    <user>   **** ""
3 35 36 37
DONOR_HYDROGENS      STATIC     ATOMS    <user>   **** ""
2 19 31
ATOM$BLUE        STATIC     ATOMS    COLORGROUP SYSTEM
3 35 36 37
ATOM$RED        STATIC     ATOMS    COLORGROUP SYSTEM
2 19 31
