AV-unprocessed.smi:1758|AV-procd|sdf|7082|dock6
  -GOLD-   22720 8303D 1   1.00000     0.00000
 Structure written by MMmdl.
 44 46  0  0  0  0  0  0  0  0  2 V2000
  145.9652  143.0628  153.8728 C   0  0  0  0  0  0  0  0  0  0  0  0
  146.8476  142.2848  154.8568 C   0  0  0  0  0  0  0  0  0  0  0  0
  147.2808  141.0168  154.3033 N   0  0  0  0  0  0  0  0  0  0  0  0
  146.5004  139.9659  153.8631 C   0  0  0  0  0  0  0  0  0  0  0  0
  147.3773  139.0121  153.4292 C   0  0  0  0  0  0  0  0  0  0  0  0
  147.1150  137.7376  152.8672 N   0  0  0  0  0  0  0  0  0  0  0  0
  145.9181  137.1535  152.6963 C   0  0  0  0  0  0  0  0  0  0  0  0
  144.8382  137.6370  153.0355 O   0  0  0  0  0  0  0  0  0  0  0  0
  146.0419  135.9505  152.1172 N   0  0  0  0  0  0  0  0  0  0  0  0
  144.9360  135.0491  151.7980 C   0  0  1  0  0  0  0  0  0  0  0  0
  144.6210  134.9951  150.2907 C   0  0  0  0  0  0  0  0  0  0  0  0
  144.3349  133.5166  150.0081 C   0  0  0  0  0  0  0  0  0  0  0  0
  145.2283  132.8266  150.9454 N   0  3  2  0  0  0  0  0  0  0  0  0
  145.0657  131.3715  151.1378 C   0  0  0  0  0  0  0  0  0  0  0  0
  146.2319  130.8636  152.0128 C   0  0  0  0  0  0  0  0  0  0  0  0
  146.3736  131.6685  153.3248 C   0  0  0  0  0  0  0  0  0  0  0  0
  146.4060  133.1902  153.0642 C   0  0  0  0  0  0  0  0  0  0  0  0
  145.1848  133.5788  152.2115 C   0  0  1  0  0  0  0  0  0  0  0  0
  148.6726  139.5534  153.6360 C   0  0  0  0  0  0  0  0  0  0  0  0
  148.6062  140.7640  154.1682 N   0  0  0  0  0  0  0  0  0  0  0  0
  145.6385  144.0069  154.3089 H   0  0  0  0  0  0  0  0  0  0  0  0
  145.0744  142.4925  153.6079 H   0  0  0  0  0  0  0  0  0  0  0  0
  146.5036  143.2903  152.9523 H   0  0  0  0  0  0  0  0  0  0  0  0
  147.7281  142.8705  155.1237 H   0  0  0  0  0  0  0  0  0  0  0  0
  146.3009  142.0939  155.7809 H   0  0  0  0  0  0  0  0  0  0  0  0
  145.4214  139.9998  153.8948 H   0  0  0  0  0  0  0  0  0  0  0  0
  147.9255  137.2161  152.5672 H   0  0  0  0  0  0  0  0  0  0  0  0
  146.9703  135.6366  151.8750 H   0  0  0  0  0  0  0  0  0  0  0  0
  144.0372  135.3987  152.3105 H   0  0  0  0  0  0  0  0  0  0  0  0
  143.7886  135.6418  150.0116 H   0  0  0  0  0  0  0  0  0  0  0  0
  145.4899  135.3095  149.7102 H   0  0  0  0  0  0  0  0  0  0  0  0
  143.2965  133.2743  150.2407 H   0  0  0  0  0  0  0  0  0  0  0  0
  144.5336  133.2383  148.9729 H   0  0  0  0  0  0  0  0  0  0  0  0
  144.1039  131.1583  151.6067 H   0  0  0  0  0  0  0  0  0  0  0  0
  145.0740  130.8683  150.1705 H   0  0  0  0  0  0  0  0  0  0  0  0
  146.0986  129.8047  152.2359 H   0  0  0  0  0  0  0  0  0  0  0  0
  147.1616  130.9413  151.4474 H   0  0  0  0  0  0  0  0  0  0  0  0
  145.5340  131.4343  153.9805 H   0  0  0  0  0  0  0  0  0  0  0  0
  147.2734  131.3606  153.8583 H   0  0  0  0  0  0  0  0  0  0  0  0
  146.3968  133.7258  154.0139 H   0  0  0  0  0  0  0  0  0  0  0  0
  147.3300  133.4622  152.5522 H   0  0  0  0  0  0  0  0  0  0  0  0
  144.2896  133.2593  152.7497 H   0  0  0  0  0  0  0  0  0  0  0  0
  149.6380  139.1186  153.4232 H   0  0  0  0  0  0  0  0  0  0  0  0
  146.1582  132.9618  150.5751 H   0  0  0  0  0  0  0  0  0  0  0  0
  1  2  1  0  0  0  0
  1 21  1  0  0  0  0
  1 22  1  0  0  0  0
  1 23  1  0  0  0  0
  2  3  1  0  0  0  0
  2 24  1  0  0  0  0
  2 25  1  0  0  0  0
  3 20  1  0  0  0  0
  3  4  1  0  0  0  0
  4  5  2  0  0  0  0
  4 26  1  0  0  0  0
  5  6  1  0  0  0  0
  5 19  1  0  0  0  0
  6  7  1  0  0  0  0
  6 27  1  0  0  0  0
  7  8  2  0  0  0  0
  7  9  1  0  0  0  0
  9 10  1  0  0  0  0
  9 28  1  0  0  0  0
 10 18  1  0  0  0  0
 10 11  1  0  0  0  0
 10 29  1  0  0  0  0
 11 12  1  0  0  0  0
 11 30  1  0  0  0  0
 11 31  1  0  0  0  0
 12 13  1  0  0  0  0
 12 32  1  0  0  0  0
 12 33  1  0  0  0  0
 13 18  1  0  0  0  0
 13 14  1  0  0  0  0
 13 44  1  0  0  0  0
 14 15  1  0  0  0  0
 14 34  1  0  0  0  0
 14 35  1  0  0  0  0
 15 16  1  0  0  0  0
 15 36  1  0  0  0  0
 15 37  1  0  0  0  0
 16 17  1  0  0  0  0
 16 38  1  0  0  0  0
 16 39  1  0  0  0  0
 17 18  1  0  0  0  0
 17 40  1  0  0  0  0
 17 41  1  0  0  0  0
 18 42  1  0  0  0  0
 19 20  2  0  0  0  0
 19 43  1  0  0  0  0
M  CHG  1  13   1
M  END
> <s_m_source_file>
AV-unprocessed.smi

> <i_m_source_file_index>
1758

> <i_lp_mmshare_version>
43012

> <i_f3d_flags>
0

> <s_epik_input>
W0NIM11bQ0gyXW4xW2NIXWMoW2NIXW4xKVtOSF1DKD1PKVtOSF1bQ0BIXShbQ0gyXVtDSDJdMilbQ0BASF0oTjIzKVtDSDJdW0NIMl1bQ0gyXVtDSDJdMw==

> <s_epik_cmdline>
J2VwaWtfcHl0aG9uJywgJy1waCcsICc3LjAnLCAnLXRuJywgJzgnLCAnLW1hJywgJzIwMCcsICctbWV0YWxfYmluZGluZycsICctaW1hZScsICc8aW5maWxlLm1hZT4nLCAnLW9tYWUnLCAnPG91dGZpbGUubWFlPic=

> <r_lp_tautomer_probability>
1

> <r_epik_Ionization_Penalty>
0.00111541

> <r_epik_Ionization_Penalty_Charging>
0.000974069

> <r_epik_Ionization_Penalty_Neutral>
0.000141346

> <r_epik_State_Penalty>
0.000633842

> <r_epik_Charging_Adjusted_Penalty>
0.00160791

> <i_epik_Tot_Q>
1

> <i_epik_Tot_abs_Q>
1

> <r_epik_Metal_State_Penalty>
-0

> <b_epik_Metal_Only>
0

> <s_lp_Force_Field>
OPLS_2005

> <r_lp_Energy>
45.3498

> <b_lp_Chiralities_Consistent>
1

> <s_lp_Variant>
AV-unprocessed.smi:1758-4

> <Gold.Version>
5.8.1

> <Gold.Id.Protein>
6NUR|6NUR_protein|mol2

> <Gold.PLP.Fitness>
39.0278

> <Gold.PLP.PLP>
-30.0603

> <Gold.PLP.part.hbond>
-2.0000

> <Gold.PLP.part.metal>
0.0000

> <Gold.PLP.part.buried>
-0.2584

> <Gold.PLP.part.nonpolar>
-28.3841

> <Gold.PLP.part.repulsive>
0.7294

> <Gold.PLP.ligand.clash>
0.0000

> <Gold.PLP.ligand.torsion>
0.1674

> <Gold.PLP.Chemscore.Hbond>
1.8723

> <Gold.PLP.Chemscore.CHOScore>
1.2280

> <Gold.PLP.Chemscore.Metal>
0.0000

> <Gold.Chemscore.Hbonds>
donor molecule, donor type, donor heavy atom, donor atom, acceptor molecule, acceptor atom, score
      L1  H     6    27       P1  7948  1.00
      L1  H     9    28       P1  7948  0.86
      L1  C     4    26       P1 10175  1.00
      L1  C    19    43       P1  7957  0.23

> <Gold.PLP.Chemscore.Internal.Correction>
0.0016

> <Gold.Rescore>
     Score         DG    S(hbond)    S(metal)    S(lipo)     H(rot)  DE(clash)    DE(int)     intcor
     15.74     -17.42       1.94        0.00      72.62       1.19       0.41       1.27       ----

> <Gold.Chemscore.Fitness>
15.7448

> <Gold.Chemscore.DG>
-17.4186

> <Gold.Chemscore.ZeroCoef>
-5.4800

> <Gold.Chemscore.Hbond>
1.9415

> <Gold.Chemscore.Metal>
0.0000

> <Gold.Chemscore.Lipo>
72.6187

> <Gold.Chemscore.Internal_Hbond>
0.0000

> <Gold.Chemscore.DEClash>
0.4060

> <Gold.Chemscore.DEInternal>
1.2678

> <Gold.Chemscore.Rot>
1.1884

> <Gold.Chemscore.Internal.Correction>
   9.000000E+99

> <Gold.Chemscore.Hbonds>
donor molecule, donor type, donor heavy atom, donor atom, acceptor molecule, acceptor atom, score
      L1  H     6    27       P1  7948  0.97
      L1  H     9    28       P1  7948  0.80

> <Gold.Chemscore.Hbond.Weighted>
-6.4845

> <Gold.Chemscore.Metal.Weighted>
-0.0000

> <Gold.Chemscore.Lipo.Weighted>
-8.4964

> <Gold.Chemscore.Internal_Hbond.Weighted>
0.0000

> <Gold.Chemscore.DEClash.Weighted>
0.4060

> <Gold.Chemscore.DEInternal.Weighted>
1.2678

> <Gold.Chemscore.Rot.Weighted>
3.0423

> <Gold.Chemscore.Internal.Correction.Weighted>
   9.000000E+99

> <Gold.Protein.RotatedTorsions>
[ 6907 6896 6895 6894 ] final   51.53 input  -60.11 | X-H torsion
[ 7974 7965 7964 7962 ] final   85.47 input  175.53 | X-H torsion
[ 8008 7997 7996 7995 ] final  -20.74 input   59.86 | X-H torsion
[ 10167 10162 10161 10158 ] final  144.81 input  -65.29 | X-H torsion
[ 10718 10713 10712 10709 ] final  148.71 input   66.30 | X-H torsion
[ 10763 10752 10751 10750 ] final   63.35 input  -60.55 | X-H torsion
[ 11005 11000 10999 10996 ] final  -30.73 input  -57.11 | X-H torsion

> <Gold.Protein.ActiveResidues>
 VAL166  LYS551  ARG553  GLY616  TRP617  ASP618  TYR619  PRO620  LYS621  CYS622 
 ASP623  PHE694  ASN695  SER759  ASP760  ASP761  ALA762  ILE779  LEU786  VAL792 
 PHE793  MET794  SER795  GLU796  ALA797  LYS798  CYS799  TRP800  GLU811  SER814 

> <Gold.Protein.RotatedAtoms>
  152.3137  134.7466  160.0330 H   0  0  0  0  0  0  0  0  0  0  0  0  # atno 6907 bound_to 6896
  151.7939  133.3357  159.3515 H   0  0  0  0  0  0  0  0  0  0  0  0  # atno 6908 bound_to 6896
  150.7333  134.5748  159.5953 H   0  0  0  0  0  0  0  0  0  0  0  0  # atno 6909 bound_to 6896
  145.5851  139.2330  143.2330 H   0  0  0  0  0  0  0  0  0  0  0  0  # atno 7974 bound_to 7965
  154.4750  140.2054  155.9900 H   0  0  0  0  0  0  0  0  0  0  0  0  # atno 8008 bound_to 7997
  156.1075  140.3234  155.7996 H   0  0  0  0  0  0  0  0  0  0  0  0  # atno 8009 bound_to 7997
  155.4693  140.0530  157.2972 H   0  0  0  0  0  0  0  0  0  0  0  0  # atno 8010 bound_to 7997
  139.4939  144.5946  151.6611 H   0  0  0  0  0  0  0  0  0  0  0  0  # atno 10167 bound_to 10162
  157.3052  131.0878  151.1359 H   0  0  0  0  0  0  0  0  0  0  0  0  # atno 10718 bound_to 10713
  153.0015  135.5432  154.6338 H   0  0  0  0  0  0  0  0  0  0  0  0  # atno 10763 bound_to 10752
  154.5609  135.2834  155.0922 H   0  0  0  0  0  0  0  0  0  0  0  0  # atno 10764 bound_to 10752
  154.2125  135.6465  153.5172 H   0  0  0  0  0  0  0  0  0  0  0  0  # atno 10765 bound_to 10752
  140.9408  133.7280  156.1073 H   0  0  0  0  0  0  0  0  0  0  0  0  # atno 11005 bound_to 11000
  146.1687  140.6678  142.9243 LP  0  0  0  0  0  0  0  0  0  0  0  0  # atno 17320 bound_to 7965
  144.7376  140.4852  143.6892 LP  0  0  0  0  0  0  0  0  0  0  0  0  # atno 17321 bound_to 7965
  140.5580  144.0315  150.6156 LP  0  0  0  0  0  0  0  0  0  0  0  0  # atno 17342 bound_to 10162
  140.3392  143.3030  152.0606 LP  0  0  0  0  0  0  0  0  0  0  0  0  # atno 17343 bound_to 10162
  157.2702  130.6701  149.6016 LP  0  0  0  0  0  0  0  0  0  0  0  0  # atno 17370 bound_to 10713
  155.9674  130.4481  150.5607 LP  0  0  0  0  0  0  0  0  0  0  0  0  # atno 17371 bound_to 10713
  140.7737  134.3804  157.5502 LP  0  0  0  0  0  0  0  0  0  0  0  0  # atno 17394 bound_to 11000
  139.8820  134.9038  156.2863 LP  0  0  0  0  0  0  0  0  0  0  0  0  # atno 17395 bound_to 11000

$$$$
