AV-unprocessed.smi:2299|AV-procd|sdf|9230|dock10
  -GOLD-   2272012453D 1   1.00000     0.00000
 Structure written by MMmdl.
 42 43  0  0  0  0  0  0  0  0  1 V2000
  151.2289  138.1245  154.0880 C   0  0  0  0  0  0  0  0  0  0  0  0
  150.2324  137.6903  155.1731 C   0  0  0  0  0  0  0  0  0  0  0  0
  150.5581  138.3189  156.5361 C   0  0  0  0  0  0  0  0  0  0  0  0
  150.1325  136.1906  155.2639 C   0  0  0  0  0  0  0  0  0  0  0  0
  151.1655  135.4153  155.5856 N   0  0  0  0  0  0  0  0  0  0  0  0
  150.6711  134.1192  155.5449 C   0  0  0  0  0  0  0  0  0  0  0  0
  149.3441  134.1521  155.1971 C   0  0  0  0  0  0  0  0  0  0  0  0
  148.9982  135.4940  155.0270 N   0  0  0  0  0  0  0  0  0  0  0  0
  147.6950  136.0475  154.6515 C   0  0  0  0  0  0  0  0  0  0  0  0
  146.7012  135.0206  154.1000 C   0  0  0  0  0  0  0  0  0  0  0  0
  145.9877  134.3787  154.8705 O   0  0  0  0  0  0  0  0  0  0  0  0
  146.6686  134.8787  152.7655 N   0  0  0  0  0  0  0  0  0  0  0  0
  145.7746  133.9922  152.0200 C   0  0  2  0  0  0  0  0  0  0  0  0
  146.5698  133.2145  150.9477 C   0  0  0  0  0  0  0  0  0  0  0  0
  145.8958  131.9102  150.4920 C   0  0  0  0  0  0  0  0  0  0  0  0
  144.5346  132.0935  149.8046 C   0  0  0  0  0  0  0  0  0  0  0  0
  143.4447  132.6550  150.7336 C   0  0  0  0  0  0  0  0  0  0  0  0
  143.5499  134.0977  150.9133 N   0  0  0  0  0  0  0  0  0  0  0  0
  144.5652  134.7737  151.4725 C   0  0  0  0  0  0  0  0  0  0  0  0
  144.5332  136.0022  151.5428 O   0  0  0  0  0  0  0  0  0  0  0  0
  150.9508  137.7161  153.1159 H   0  0  0  0  0  0  0  0  0  0  0  0
  152.2395  137.7839  154.3157 H   0  0  0  0  0  0  0  0  0  0  0  0
  151.2581  139.2104  153.9936 H   0  0  0  0  0  0  0  0  0  0  0  0
  149.2656  138.0912  154.8735 H   0  0  0  0  0  0  0  0  0  0  0  0
  149.8051  138.0543  157.2792 H   0  0  0  0  0  0  0  0  0  0  0  0
  150.5880  139.4068  156.4698 H   0  0  0  0  0  0  0  0  0  0  0  0
  151.5264  137.9828  156.9086 H   0  0  0  0  0  0  0  0  0  0  0  0
  151.3027  133.2705  155.7620 H   0  0  0  0  0  0  0  0  0  0  0  0
  148.6440  133.3404  155.0650 H   0  0  0  0  0  0  0  0  0  0  0  0
  147.2521  136.5224  155.5279 H   0  0  0  0  0  0  0  0  0  0  0  0
  147.8544  136.8289  153.9070 H   0  0  0  0  0  0  0  0  0  0  0  0
  147.2876  135.4556  152.2140 H   0  0  0  0  0  0  0  0  0  0  0  0
  145.3708  133.2746  152.7368 H   0  0  0  0  0  0  0  0  0  0  0  0
  146.7641  133.8557  150.0865 H   0  0  0  0  0  0  0  0  0  0  0  0
  147.5512  132.9492  151.3434 H   0  0  0  0  0  0  0  0  0  0  0  0
  146.5663  131.3986  149.8006 H   0  0  0  0  0  0  0  0  0  0  0  0
  145.7851  131.2409  151.3460 H   0  0  0  0  0  0  0  0  0  0  0  0
  144.6377  132.7198  148.9172 H   0  0  0  0  0  0  0  0  0  0  0  0
  144.2068  131.1179  149.4442 H   0  0  0  0  0  0  0  0  0  0  0  0
  142.4666  132.4605  150.2930 H   0  0  0  0  0  0  0  0  0  0  0  0
  143.4501  132.1484  151.6998 H   0  0  0  0  0  0  0  0  0  0  0  0
  142.7738  134.6442  150.5686 H   0  0  0  0  0  0  0  0  0  0  0  0
  1  2  1  0  0  0  0
  1 21  1  0  0  0  0
  1 22  1  0  0  0  0
  1 23  1  0  0  0  0
  2  3  1  0  0  0  0
  2  4  1  0  0  0  0
  2 24  1  0  0  0  0
  3 25  1  0  0  0  0
  3 26  1  0  0  0  0
  3 27  1  0  0  0  0
  4  8  1  0  0  0  0
  4  5  2  0  0  0  0
  5  6  1  0  0  0  0
  6  7  2  0  0  0  0
  6 28  1  0  0  0  0
  7  8  1  0  0  0  0
  7 29  1  0  0  0  0
  8  9  1  0  0  0  0
  9 10  1  0  0  0  0
  9 30  1  0  0  0  0
  9 31  1  0  0  0  0
 10 11  2  0  0  0  0
 10 12  1  0  0  0  0
 12 13  1  0  0  0  0
 12 32  1  0  0  0  0
 13 19  1  0  0  0  0
 13 14  1  0  0  0  0
 13 33  1  0  0  0  0
 14 15  1  0  0  0  0
 14 34  1  0  0  0  0
 14 35  1  0  0  0  0
 15 16  1  0  0  0  0
 15 36  1  0  0  0  0
 15 37  1  0  0  0  0
 16 17  1  0  0  0  0
 16 38  1  0  0  0  0
 16 39  1  0  0  0  0
 17 18  1  0  0  0  0
 17 40  1  0  0  0  0
 17 41  1  0  0  0  0
 18 19  1  0  0  0  0
 18 42  1  0  0  0  0
 19 20  2  0  0  0  0
M  END
> <s_m_source_file>
AV-unprocessed.smi

> <i_m_source_file_index>
2299

> <i_lp_mmshare_version>
43012

> <i_f3d_flags>
0

> <s_epik_input>
W0NIM11bQ0hdKFtDSDNdKWMxbltjSF1bY0hdbjFbQ0gyXUMoPU8pW05IXVtDQEBIXTJbQ0gyXVtDSDJdW0NIMl1bQ0gyXVtOSF1DMj1P

> <s_epik_cmdline>
J2VwaWtfcHl0aG9uJywgJy1waCcsICc3LjAnLCAnLXRuJywgJzgnLCAnLW1hJywgJzIwMCcsICctbWV0YWxfYmluZGluZycsICctaW1hZScsICc8aW5maWxlLm1hZT4nLCAnLW9tYWUnLCAnPG91dGZpbGUubWFlPic=

> <r_lp_tautomer_probability>
1

> <r_epik_Ionization_Penalty>
0.557868

> <r_epik_Ionization_Penalty_Charging>
0.557868

> <r_epik_Ionization_Penalty_Neutral>
1.99744e-07

> <r_epik_State_Penalty>
0.568774

> <r_epik_Charging_Adjusted_Penalty>
1.12664

> <i_epik_Tot_Q>
0

> <i_epik_Tot_abs_Q>
0

> <r_epik_Metal_State_Penalty>
0.289303

> <b_epik_Metal_Only>
0

> <s_lp_Force_Field>
OPLS_2005

> <r_lp_Energy>
12.6328

> <b_lp_Chiralities_Consistent>
1

> <s_lp_Variant>
AV-unprocessed.smi:2299-3

> <Gold.Version>
5.8.1

> <Gold.Id.Protein>
6NUR|6NUR_protein|mol2

> <Gold.PLP.Fitness>
37.4969

> <Gold.PLP.PLP>
-30.5905

> <Gold.PLP.part.hbond>
-3.0000

> <Gold.PLP.part.metal>
0.0000

> <Gold.PLP.part.buried>
-3.6843

> <Gold.PLP.part.nonpolar>
-23.6903

> <Gold.PLP.part.repulsive>
0.3386

> <Gold.PLP.ligand.clash>
0.0000

> <Gold.PLP.ligand.torsion>
0.7990

> <Gold.PLP.Chemscore.Hbond>
2.8112

> <Gold.PLP.Chemscore.CHOScore>
0.0000

> <Gold.PLP.Chemscore.Metal>
0.0000

> <Gold.Chemscore.Hbonds>
donor molecule, donor type, donor heavy atom, donor atom, acceptor molecule, acceptor atom, score
      L1  H    12    32       P1  7948  1.00
      L1  H    18    42       P1 10186  0.81
      P1  H 10752 10765       L1     5  1.00

> <Gold.PLP.Chemscore.Internal.Correction>
0.0708

> <Gold.Rescore>
     Score         DG    S(hbond)    S(metal)    S(lipo)     H(rot)  DE(clash)    DE(int)     intcor
     15.95     -17.17       2.26        0.00      72.62       1.70       0.43       0.79       ----

> <Gold.Chemscore.Fitness>
15.9487

> <Gold.Chemscore.DG>
-17.1688

> <Gold.Chemscore.ZeroCoef>
-5.4800

> <Gold.Chemscore.Hbond>
2.2590

> <Gold.Chemscore.Metal>
0.0000

> <Gold.Chemscore.Lipo>
72.6215

> <Gold.Chemscore.Internal_Hbond>
0.0000

> <Gold.Chemscore.DEClash>
0.4330

> <Gold.Chemscore.DEInternal>
0.7871

> <Gold.Chemscore.Rot>
1.7004

> <Gold.Chemscore.Internal.Correction>
   9.000000E+99

> <Gold.Chemscore.Hbonds>
donor molecule, donor type, donor heavy atom, donor atom, acceptor molecule, acceptor atom, score
      L1  H    12    32       P1  7948  0.97
      L1  H    18    42       P1 10186  0.20
      P1  H 10752 10765       L1     5  0.75

> <Gold.Chemscore.Hbond.Weighted>
-7.5451

> <Gold.Chemscore.Metal.Weighted>
-0.0000

> <Gold.Chemscore.Lipo.Weighted>
-8.4967

> <Gold.Chemscore.Internal_Hbond.Weighted>
0.0000

> <Gold.Chemscore.DEClash.Weighted>
0.4330

> <Gold.Chemscore.DEInternal.Weighted>
0.7871

> <Gold.Chemscore.Rot.Weighted>
4.3530

> <Gold.Chemscore.Internal.Correction.Weighted>
   9.000000E+99

> <Gold.Protein.RotatedTorsions>
[ 6907 6896 6895 6894 ] final   10.68 input  -60.11 | X-H torsion
[ 7974 7965 7964 7962 ] final   87.84 input  175.53 | X-H torsion
[ 8008 7997 7996 7995 ] final   62.66 input   59.86 | X-H torsion
[ 10167 10162 10161 10158 ] final    1.12 input  -65.29 | X-H torsion
[ 10718 10713 10712 10709 ] final  126.06 input   66.30 | X-H torsion
[ 10763 10752 10751 10750 ] final -169.99 input  -60.55 | X-H torsion
[ 11005 11000 10999 10996 ] final    0.47 input  -57.11 | X-H torsion

> <Gold.Protein.ActiveResidues>
 VAL166  LYS551  ARG553  GLY616  TRP617  ASP618  TYR619  PRO620  LYS621  CYS622 
 ASP623  PHE694  ASN695  SER759  ASP760  ASP761  ALA762  ILE779  LEU786  VAL792 
 PHE793  MET794  SER795  GLU796  ALA797  LYS798  CYS799  TRP800  GLU811  SER814 

> <Gold.Protein.RotatedAtoms>
  151.7421  135.0852  160.0317 H   0  0  0  0  0  0  0  0  0  0  0  0  # atno 6907 bound_to 6896
  152.3472  133.6132  159.5927 H   0  0  0  0  0  0  0  0  0  0  0  0  # atno 6908 bound_to 6896
  150.7516  133.9546  159.3538 H   0  0  0  0  0  0  0  0  0  0  0  0  # atno 6909 bound_to 6896
  145.5536  139.2297  143.2499 H   0  0  0  0  0  0  0  0  0  0  0  0  # atno 7974 bound_to 7965
  155.6179  140.3495  155.4643 H   0  0  0  0  0  0  0  0  0  0  0  0  # atno 8008 bound_to 7997
  156.0102  140.1231  157.0485 H   0  0  0  0  0  0  0  0  0  0  0  0  # atno 8009 bound_to 7997
  154.4278  140.1083  156.5805 H   0  0  0  0  0  0  0  0  0  0  0  0  # atno 8010 bound_to 7997
  140.6697  143.7081  150.7899 H   0  0  0  0  0  0  0  0  0  0  0  0  # atno 10167 bound_to 10162
  157.5451  131.1096  150.8795 H   0  0  0  0  0  0  0  0  0  0  0  0  # atno 10718 bound_to 10713
  154.6463  135.2905  155.0042 H   0  0  0  0  0  0  0  0  0  0  0  0  # atno 10763 bound_to 10752
  154.1151  135.6556  153.4896 H   0  0  0  0  0  0  0  0  0  0  0  0  # atno 10764 bound_to 10752
  153.0352  135.5274  154.7351 H   0  0  0  0  0  0  0  0  0  0  0  0  # atno 10765 bound_to 10752
  140.6262  133.9617  155.8250 H   0  0  0  0  0  0  0  0  0  0  0  0  # atno 11005 bound_to 11000
  146.1900  140.6359  142.9150 LP  0  0  0  0  0  0  0  0  0  0  0  0  # atno 17320 bound_to 7965
  144.7517  140.5208  143.6797 LP  0  0  0  0  0  0  0  0  0  0  0  0  # atno 17321 bound_to 7965
  140.0765  143.5011  152.2553 LP  0  0  0  0  0  0  0  0  0  0  0  0  # atno 17342 bound_to 10162
  139.5961  144.7567  151.3284 LP  0  0  0  0  0  0  0  0  0  0  0  0  # atno 17343 bound_to 10162
  156.9336  130.5359  149.5279 LP  0  0  0  0  0  0  0  0  0  0  0  0  # atno 17370 bound_to 10713
  156.0529  130.5595  150.9028 LP  0  0  0  0  0  0  0  0  0  0  0  0  # atno 17371 bound_to 10713
  141.0708  134.0208  157.3529 LP  0  0  0  0  0  0  0  0  0  0  0  0  # atno 17394 bound_to 11000
  139.9134  135.0193  156.7784 LP  0  0  0  0  0  0  0  0  0  0  0  0  # atno 17395 bound_to 11000

$$$$
