AV-unprocessed.smi:36|AV-procd|sdf|302|dock8
  -GOLD-   2262016113D 1   1.00000     0.00000
 Structure written by MMmdl.
 63 66  0  0  0  0  0  0  0  0  2 V2000
  145.3131  130.8482  158.0799 C   0  0  0  0  0  0  0  0  0  0  0  0
  144.8317  131.6208  159.3190 C   0  0  0  0  0  0  0  0  0  0  0  0
  143.7255  132.6126  158.9217 C   0  0  0  0  0  0  0  0  0  0  0  0
  144.2920  130.6369  160.3700 C   0  0  0  0  0  0  0  0  0  0  0  0
  146.2953  132.5926  160.0692 Si  0  0  0  0  0  0  0  0  0  0  0  0
  145.7424  133.6211  161.5680 C   0  0  0  0  0  0  0  0  0  0  0  0
  147.7046  131.4227  160.5749 C   0  0  0  0  0  0  0  0  0  0  0  0
  146.8764  133.6512  158.8848 O   0  0  0  0  0  0  0  0  0  0  0  0
  147.3445  133.2291  157.6214 C   0  0  0  0  0  0  0  0  0  0  0  0
  148.0652  134.3952  156.9336 C   0  0  1  0  0  0  0  0  0  0  0  0
  149.2756  134.6928  157.6222 O   0  0  0  0  0  0  0  0  0  0  0  0
  150.2086  135.2399  156.7362 C   0  0  2  0  0  0  0  0  0  0  0  0
  150.4412  136.6653  157.1190 N   0  0  0  0  0  0  0  0  0  0  0  0
  149.8907  137.3664  158.1317 C   0  0  0  0  0  0  0  0  0  0  0  0
  150.2605  138.6379  158.2691 N   0  0  0  0  0  0  0  0  0  0  0  0
  151.1578  138.7836  157.2213 C   0  0  0  0  0  0  0  0  0  0  0  0
  151.9320  139.8873  156.7696 C   0  0  0  0  0  0  0  0  0  0  0  0
  151.9063  141.0844  157.3752 N   0  5  0  0  0  0  0  0  0  0  0  0
  152.4026  141.2180  158.6312 C   0  0  0  0  0  0  0  0  0  0  0  0
  152.9080  140.3464  159.3419 O   0  0  0  0  0  0  0  0  0  0  0  0
  152.2357  142.6045  159.1929 C   0  0  0  0  0  0  0  0  0  0  0  0
  152.1512  143.7101  158.3162 C   0  0  0  0  0  0  0  0  0  0  0  0
  151.9639  145.0117  158.8208 C   0  0  0  0  0  0  0  0  0  0  0  0
  151.8496  145.2210  160.2078 C   0  0  0  0  0  0  0  0  0  0  0  0
  151.9193  144.1266  161.0899 C   0  0  0  0  0  0  0  0  0  0  0  0
  152.1066  142.8246  160.5863 C   0  0  0  0  0  0  0  0  0  0  0  0
  152.7322  139.6770  155.6931 N   0  0  0  0  0  0  0  0  0  0  0  0
  152.7597  138.4804  155.0938 C   0  0  0  0  0  0  0  0  0  0  0  0
  152.0845  137.3687  155.4037 N   0  0  0  0  0  0  0  0  0  0  0  0
  151.2850  137.5657  156.4923 C   0  0  0  0  0  0  0  0  0  0  0  0
  149.6078  135.1611  155.3280 C   0  0  0  0  0  0  0  0  0  0  0  0
  148.5344  134.1062  155.5070 C   0  0  2  0  0  0  0  0  0  0  0  0
  147.5034  134.2618  154.5531 O   0  0  0  0  0  0  0  0  0  0  0  0
  144.4992  130.2810  157.6269 H   0  0  0  0  0  0  0  0  0  0  0  0
  146.1031  130.1414  158.3350 H   0  0  0  0  0  0  0  0  0  0  0  0
  145.7071  131.5220  157.3187 H   0  0  0  0  0  0  0  0  0  0  0  0
  144.0750  133.3171  158.1668 H   0  0  0  0  0  0  0  0  0  0  0  0
  143.3878  133.1930  159.7811 H   0  0  0  0  0  0  0  0  0  0  0  0
  142.8576  132.0957  158.5112 H   0  0  0  0  0  0  0  0  0  0  0  0
  143.4407  130.0736  159.9855 H   0  0  0  0  0  0  0  0  0  0  0  0
  143.9631  131.1590  161.2690 H   0  0  0  0  0  0  0  0  0  0  0  0
  145.0537  129.9160  160.6679 H   0  0  0  0  0  0  0  0  0  0  0  0
  145.3223  132.9930  162.3532 H   0  0  0  0  0  0  0  0  0  0  0  0
  144.9824  134.3523  161.2938 H   0  0  0  0  0  0  0  0  0  0  0  0
  146.5767  134.1702  162.0039 H   0  0  0  0  0  0  0  0  0  0  0  0
  147.3740  130.6930  161.3134 H   0  0  0  0  0  0  0  0  0  0  0  0
  148.5404  131.9682  161.0119 H   0  0  0  0  0  0  0  0  0  0  0  0
  148.0915  130.8684  159.7202 H   0  0  0  0  0  0  0  0  0  0  0  0
  148.0358  132.3992  157.7697 H   0  0  0  0  0  0  0  0  0  0  0  0
  146.5212  132.8610  157.0084 H   0  0  0  0  0  0  0  0  0  0  0  0
  147.4411  135.2905  156.9555 H   0  0  0  0  0  0  0  0  0  0  0  0
  151.1725  134.7404  156.8394 H   0  0  0  0  0  0  0  0  0  0  0  0
  149.1767  136.9199  158.8076 H   0  0  0  0  0  0  0  0  0  0  0  0
  152.2341  143.5662  157.2486 H   0  0  0  0  0  0  0  0  0  0  0  0
  151.9052  145.8493  158.1419 H   0  0  0  0  0  0  0  0  0  0  0  0
  151.7039  146.2185  160.5945 H   0  0  0  0  0  0  0  0  0  0  0  0
  151.8251  144.2842  162.1543 H   0  0  0  0  0  0  0  0  0  0  0  0
  152.1451  141.9969  161.2798 H   0  0  0  0  0  0  0  0  0  0  0  0
  153.4198  138.4022  154.2430 H   0  0  0  0  0  0  0  0  0  0  0  0
  149.1686  136.1231  155.0560 H   0  0  0  0  0  0  0  0  0  0  0  0
  150.3655  134.8966  154.5898 H   0  0  0  0  0  0  0  0  0  0  0  0
  148.9696  133.1085  155.4347 H   0  0  0  0  0  0  0  0  0  0  0  0
  147.4200  135.1807  154.3487 H   0  0  0  0  0  0  0  0  0  0  0  0
  1  2  1  0  0  0  0
  1 34  1  0  0  0  0
  1 35  1  0  0  0  0
  1 36  1  0  0  0  0
  2  3  1  0  0  0  0
  2  4  1  0  0  0  0
  2  5  1  0  0  0  0
  3 37  1  0  0  0  0
  3 38  1  0  0  0  0
  3 39  1  0  0  0  0
  4 40  1  0  0  0  0
  4 41  1  0  0  0  0
  4 42  1  0  0  0  0
  5  6  1  0  0  0  0
  5  7  1  0  0  0  0
  5  8  1  0  0  0  0
  6 43  1  0  0  0  0
  6 44  1  0  0  0  0
  6 45  1  0  0  0  0
  7 46  1  0  0  0  0
  7 47  1  0  0  0  0
  7 48  1  0  0  0  0
  8  9  1  0  0  0  0
  9 10  1  0  0  0  0
  9 49  1  0  0  0  0
  9 50  1  0  0  0  0
 10 32  1  0  0  0  0
 10 11  1  0  0  0  0
 10 51  1  0  0  0  0
 11 12  1  0  0  0  0
 12 13  1  0  0  0  0
 12 31  1  0  0  0  0
 12 52  1  0  0  0  0
 13 30  1  0  0  0  0
 13 14  1  0  0  0  0
 14 15  2  0  0  0  0
 14 53  1  0  0  0  0
 15 16  1  0  0  0  0
 16 30  2  0  0  0  0
 16 17  1  0  0  0  0
 17 18  1  0  0  0  0
 17 27  2  0  0  0  0
 18 19  1  0  0  0  0
 19 20  2  0  0  0  0
 19 21  1  0  0  0  0
 21 26  1  0  0  0  0
 21 22  2  0  0  0  0
 22 23  1  0  0  0  0
 22 54  1  0  0  0  0
 23 24  2  0  0  0  0
 23 55  1  0  0  0  0
 24 25  1  0  0  0  0
 24 56  1  0  0  0  0
 25 26  2  0  0  0  0
 25 57  1  0  0  0  0
 26 58  1  0  0  0  0
 27 28  1  0  0  0  0
 28 29  2  0  0  0  0
 28 59  1  0  0  0  0
 29 30  1  0  0  0  0
 31 32  1  0  0  0  0
 31 60  1  0  0  0  0
 31 61  1  0  0  0  0
 32 33  1  0  0  0  0
 32 62  1  0  0  0  0
 33 63  1  0  0  0  0
M  CHG  1  18  -1
M  END
> <s_m_source_file>
AV-unprocessed.smi

> <i_m_source_file_index>
36

> <i_lp_mmshare_version>
43012

> <i_f3d_flags>
0

> <s_epik_input>
W0NIM11DKFtDSDNdKShbQ0gzXSlbU2ldKFtDSDNdKShbQ0gzXSlPW0NIMl1bQ0BASF0xT1tDQEhdKFtDSDJdW0NASF0xW09IXSluKFtjSF1uMiljKGMyMyluW2NIXW5jM1tOSF1DKD1PKWM0W2NIXVtjSF1bY0hdW2NIXVtjSF00

> <s_epik_cmdline>
J2VwaWtfcHl0aG9uJywgJy1waCcsICc3LjAnLCAnLXRuJywgJzgnLCAnLW1hJywgJzIwMCcsICctbWV0YWxfYmluZGluZycsICctaW1hZScsICc8aW5maWxlLm1hZT4nLCAnLW9tYWUnLCAnPG91dGZpbGUubWFlPic=

> <r_lp_tautomer_probability>
1

> <r_epik_Ionization_Penalty>
4.75685

> <r_epik_Ionization_Penalty_Charging>
3.55822

> <r_epik_Ionization_Penalty_Neutral>
1.19863

> <r_epik_State_Penalty>
3.564

> <r_epik_Charging_Adjusted_Penalty>
7.12222

> <i_epik_Tot_Q>
-1

> <i_epik_Tot_abs_Q>
1

> <r_epik_Metal_State_Penalty>
0.523258

> <b_epik_Metal_Only>
1

> <s_epik_Chemistry_Notes>
This compound contains an acetal/aminal-like group ( X-CH(R)-Y where X, Y are N, S, or O) that may be acid/base labile, releasing an aldehyde.

> <s_lp_Force_Field>
OPLS_2005

> <r_lp_Energy>
39.042

> <b_lp_Chiralities_Consistent>
1

> <s_lp_Variant>
AV-unprocessed.smi:36-24

> <Gold.Version>
5.8.1

> <Gold.Id.Protein>
6NUR|6NUR_protein|mol2

> <Gold.PLP.Fitness>
55.6566

> <Gold.PLP.PLP>
-48.8567

> <Gold.PLP.part.hbond>
-3.0000

> <Gold.PLP.part.metal>
0.0000

> <Gold.PLP.part.buried>
-5.8745

> <Gold.PLP.part.nonpolar>
-40.6642

> <Gold.PLP.part.repulsive>
0.0322

> <Gold.PLP.ligand.clash>
0.0000

> <Gold.PLP.ligand.torsion>
1.0109

> <Gold.PLP.Chemscore.Hbond>
2.8247

> <Gold.PLP.Chemscore.CHOScore>
0.0000

> <Gold.PLP.Chemscore.Metal>
0.0000

> <Gold.Chemscore.Hbonds>
donor molecule, donor type, donor heavy atom, donor atom, acceptor molecule, acceptor atom, score
      P1  H  6896  6907       L1    11  0.31
      P1  H  7997  8010       L1    27  1.00
      P1  H 10752 10765       L1    29  0.69

> <Gold.PLP.Chemscore.Internal.Correction>
0.3476

> <Gold.Rescore>
     Score         DG    S(hbond)    S(metal)    S(lipo)     H(rot)  DE(clash)    DE(int)     intcor
     16.46     -17.51       1.70        0.00     112.67       2.67       0.09       0.96       ----

> <Gold.Chemscore.Fitness>
16.4606

> <Gold.Chemscore.DG>
-17.5090

> <Gold.Chemscore.ZeroCoef>
-5.4800

> <Gold.Chemscore.Hbond>
1.7012

> <Gold.Chemscore.Metal>
0.0000

> <Gold.Chemscore.Lipo>
112.6736

> <Gold.Chemscore.Internal_Hbond>
0.0000

> <Gold.Chemscore.DEClash>
0.0887

> <Gold.Chemscore.DEInternal>
0.9597

> <Gold.Chemscore.Rot>
2.6702

> <Gold.Chemscore.Internal.Correction>
   9.000000E+99

> <Gold.Chemscore.Hbonds>
donor molecule, donor type, donor heavy atom, donor atom, acceptor molecule, acceptor atom, score
      P1  H  6896  6907       L1    11  0.08
      P1  H  7997  8010       L1    27  0.31
      P1  H 10752 10765       L1    29  0.60

> <Gold.Chemscore.Hbond.Weighted>
-5.6820

> <Gold.Chemscore.Metal.Weighted>
-0.0000

> <Gold.Chemscore.Lipo.Weighted>
-13.1828

> <Gold.Chemscore.Internal_Hbond.Weighted>
0.0000

> <Gold.Chemscore.DEClash.Weighted>
0.0887

> <Gold.Chemscore.DEInternal.Weighted>
0.9597

> <Gold.Chemscore.Rot.Weighted>
6.8358

> <Gold.Chemscore.Internal.Correction.Weighted>
   9.000000E+99

> <Gold.Protein.RotatedTorsions>
[ 6907 6896 6895 6894 ] final -105.67 input  -60.11 | X-H torsion
[ 7974 7965 7964 7962 ] final  -86.46 input  175.53 | X-H torsion
[ 8008 7997 7996 7995 ] final   78.46 input   59.86 | X-H torsion
[ 10167 10162 10161 10158 ] final  -22.66 input  -65.29 | X-H torsion
[ 10718 10713 10712 10709 ] final   91.32 input   66.30 | X-H torsion
[ 10763 10752 10751 10750 ] final -170.55 input  -60.55 | X-H torsion
[ 11005 11000 10999 10996 ] final  167.85 input  -57.11 | X-H torsion

> <Gold.Protein.ActiveResidues>
 VAL166  LYS551  ARG553  GLY616  TRP617  ASP618  TYR619  PRO620  LYS621  CYS622 
 ASP623  PHE694  ASN695  SER759  ASP760  ASP761  ALA762  ILE779  LEU786  VAL792 
 PHE793  MET794  SER795  GLU796  ALA797  LYS798  CYS799  TRP800  GLU811  SER814 

> <Gold.Protein.RotatedAtoms>
  150.7349  134.0091  159.3663 H   0  0  0  0  0  0  0  0  0  0  0  0  # atno 6907 bound_to 6896
  151.8050  135.0695  160.0414 H   0  0  0  0  0  0  0  0  0  0  0  0  # atno 6908 bound_to 6896
  152.3114  133.5720  159.5719 H   0  0  0  0  0  0  0  0  0  0  0  0  # atno 6909 bound_to 6896
  145.4795  140.9557  143.1872 H   0  0  0  0  0  0  0  0  0  0  0  0  # atno 7974 bound_to 7965
  155.8561  140.3456  155.5725 H   0  0  0  0  0  0  0  0  0  0  0  0  # atno 8008 bound_to 7997
  155.7985  140.0881  157.1990 H   0  0  0  0  0  0  0  0  0  0  0  0  # atno 8009 bound_to 7997
  154.4009  140.1470  156.3233 H   0  0  0  0  0  0  0  0  0  0  0  0  # atno 8010 bound_to 7997
  140.7286  143.4514  151.0511 H   0  0  0  0  0  0  0  0  0  0  0  0  # atno 10167 bound_to 10162
  157.6960  131.0403  150.3711 H   0  0  0  0  0  0  0  0  0  0  0  0  # atno 10718 bound_to 10713
  154.6403  135.2898  155.0111 H   0  0  0  0  0  0  0  0  0  0  0  0  # atno 10763 bound_to 10752
  154.1240  135.6543  153.4912 H   0  0  0  0  0  0  0  0  0  0  0  0  # atno 10764 bound_to 10752
  153.0323  135.5294  154.7267 H   0  0  0  0  0  0  0  0  0  0  0  0  # atno 10765 bound_to 10752
  140.2811  134.7750  157.3758 H   0  0  0  0  0  0  0  0  0  0  0  0  # atno 11005 bound_to 11000
  144.7897  139.6353  143.7118 LP  0  0  0  0  0  0  0  0  0  0  0  0  # atno 17320 bound_to 7965
  146.2349  139.5886  142.9530 LP  0  0  0  0  0  0  0  0  0  0  0  0  # atno 17321 bound_to 7965
  139.8191  143.7845  152.3176 LP  0  0  0  0  0  0  0  0  0  0  0  0  # atno 17342 bound_to 10162
  139.7921  144.7406  150.9940 LP  0  0  0  0  0  0  0  0  0  0  0  0  # atno 17343 bound_to 10162
  156.4136  130.3939  149.6874 LP  0  0  0  0  0  0  0  0  0  0  0  0  # atno 17370 bound_to 10713
  156.4150  130.7740  151.2755 LP  0  0  0  0  0  0  0  0  0  0  0  0  # atno 17371 bound_to 10713
  140.1283  134.5129  155.8126 LP  0  0  0  0  0  0  0  0  0  0  0  0  # atno 17394 bound_to 11000
  141.2162  133.6780  156.6992 LP  0  0  0  0  0  0  0  0  0  0  0  0  # atno 17395 bound_to 11000

$$$$
