AV-unprocessed.smi:230|AV-procd|sdf|1764|dock8
  -GOLD-   2262020303D 1   1.00000     0.00000
 Structure written by MMmdl.
 56 59  0  0  0  0  0  0  0  0  1 V2000
  147.2335  130.6228  161.5401 C   0  0  0  0  0  0  0  0  0  0  0  0
  147.8779  131.7756  160.7578 C   0  0  0  0  0  0  0  0  0  0  0  0
  147.0784  133.1051  160.8079 C   0  0  1  0  0  0  0  0  0  0  0  0
  146.9447  133.6157  162.2607 C   0  0  0  0  0  0  0  0  0  0  0  0
  146.2604  134.8655  162.3122 O   0  0  0  0  0  0  0  0  0  0  0  0
  146.8432  135.9144  161.5364 C   0  0  0  0  0  0  0  0  0  0  0  0
  145.8548  137.0875  161.6233 C   0  0  0  0  0  0  0  0  0  0  0  0
  148.2070  136.3516  162.1128 C   0  0  0  0  0  0  0  0  0  0  0  0
  146.9580  135.4329  160.0766 C   0  0  0  0  0  0  0  0  0  0  0  0
  147.6794  134.1665  159.9913 N   0  0  0  0  0  0  0  0  0  0  0  0
  147.9684  133.8260  158.7146 C   0  0  0  0  0  0  0  0  0  0  0  0
  149.2223  134.0120  158.2235 N   0  0  0  0  0  0  0  0  0  0  0  0
  149.4913  133.7036  156.9509 C   0  0  0  0  0  0  0  0  0  0  0  0
  148.6692  133.2186  156.0170 N   0  0  0  0  0  0  0  0  0  0  0  0
  147.4099  133.0373  156.5100 C   0  0  0  0  0  0  0  0  0  0  0  0
  146.9803  133.3068  157.8385 C   0  0  0  0  0  0  0  0  0  0  0  0
  145.6327  133.0023  157.9782 N   0  0  0  0  0  0  0  0  0  0  0  0
  145.2812  132.5836  156.7928 C   0  0  0  0  0  0  0  0  0  0  0  0
  146.2828  132.5836  155.8476 N   0  0  0  0  0  0  0  0  0  0  0  0
  146.1633  132.1896  154.4524 C   0  0  0  0  0  0  0  0  0  0  0  0
  146.0053  133.3844  153.4791 C   0  0  0  0  0  0  0  0  0  0  0  0
  147.1392  134.2201  153.6379 O   0  0  0  0  0  0  0  0  0  0  0  0
  145.9266  132.9435  152.0006 C   0  0  0  0  0  0  0  0  0  0  0  0
  145.5664  134.1115  151.0652 C   0  0  0  0  0  0  0  0  0  0  0  0
  144.3578  134.7280  151.4924 O   0  0  0  0  0  0  0  0  0  0  0  0
  144.4614  135.3013  152.7901 C   0  0  0  0  0  0  0  0  0  0  0  0
  144.7461  134.2021  153.8292 C   0  0  0  0  0  0  0  0  0  0  0  0
  147.7873  129.6970  161.3830 H   0  0  0  0  0  0  0  0  0  0  0  0
  146.2071  130.4526  161.2141 H   0  0  0  0  0  0  0  0  0  0  0  0
  147.2224  130.8134  162.6129 H   0  0  0  0  0  0  0  0  0  0  0  0
  148.8931  131.9400  161.1210 H   0  0  0  0  0  0  0  0  0  0  0  0
  147.9777  131.4333  159.7277 H   0  0  0  0  0  0  0  0  0  0  0  0
  146.0767  132.9199  160.4170 H   0  0  0  0  0  0  0  0  0  0  0  0
  146.3691  132.9120  162.8605 H   0  0  0  0  0  0  0  0  0  0  0  0
  147.9210  133.6964  162.7388 H   0  0  0  0  0  0  0  0  0  0  0  0
  146.1958  137.9393  161.0339 H   0  0  0  0  0  0  0  0  0  0  0  0
  145.7318  137.4245  162.6531 H   0  0  0  0  0  0  0  0  0  0  0  0
  144.8695  136.8021  161.2529 H   0  0  0  0  0  0  0  0  0  0  0  0
  148.5921  137.2220  161.5811 H   0  0  0  0  0  0  0  0  0  0  0  0
  148.9640  135.5723  162.0317 H   0  0  0  0  0  0  0  0  0  0  0  0
  148.1209  136.6204  163.1660 H   0  0  0  0  0  0  0  0  0  0  0  0
  145.9590  135.3012  159.6575 H   0  0  0  0  0  0  0  0  0  0  0  0
  147.4589  136.1901  159.4709 H   0  0  0  0  0  0  0  0  0  0  0  0
  150.5093  133.8758  156.6338 H   0  0  0  0  0  0  0  0  0  0  0  0
  144.2711  132.2722  156.5690 H   0  0  0  0  0  0  0  0  0  0  0  0
  147.0469  131.6069  154.1892 H   0  0  0  0  0  0  0  0  0  0  0  0
  145.3145  131.5101  154.3613 H   0  0  0  0  0  0  0  0  0  0  0  0
  147.5988  134.2618  152.8131 H   0  0  0  0  0  0  0  0  0  0  0  0
  146.8657  132.4931  151.6763 H   0  0  0  0  0  0  0  0  0  0  0  0
  145.1641  132.1702  151.8974 H   0  0  0  0  0  0  0  0  0  0  0  0
  146.3705  134.8481  151.0278 H   0  0  0  0  0  0  0  0  0  0  0  0
  145.4305  133.7432  150.0481 H   0  0  0  0  0  0  0  0  0  0  0  0
  145.2386  136.0671  152.8017 H   0  0  0  0  0  0  0  0  0  0  0  0
  143.5230  135.8026  153.0275 H   0  0  0  0  0  0  0  0  0  0  0  0
  143.8836  133.5352  153.8681 H   0  0  0  0  0  0  0  0  0  0  0  0
  144.8372  134.6405  154.8238 H   0  0  0  0  0  0  0  0  0  0  0  0
  1  2  1  0  0  0  0
  1 28  1  0  0  0  0
  1 29  1  0  0  0  0
  1 30  1  0  0  0  0
  2  3  1  0  0  0  0
  2 31  1  0  0  0  0
  2 32  1  0  0  0  0
  3 10  1  0  0  0  0
  3  4  1  0  0  0  0
  3 33  1  0  0  0  0
  4  5  1  0  0  0  0
  4 34  1  0  0  0  0
  4 35  1  0  0  0  0
  5  6  1  0  0  0  0
  6  7  1  0  0  0  0
  6  8  1  0  0  0  0
  6  9  1  0  0  0  0
  7 36  1  0  0  0  0
  7 37  1  0  0  0  0
  7 38  1  0  0  0  0
  8 39  1  0  0  0  0
  8 40  1  0  0  0  0
  8 41  1  0  0  0  0
  9 10  1  0  0  0  0
  9 42  1  0  0  0  0
  9 43  1  0  0  0  0
 10 11  1  0  0  0  0
 11 16  1  0  0  0  0
 11 12  2  0  0  0  0
 12 13  1  0  0  0  0
 13 14  2  0  0  0  0
 13 44  1  0  0  0  0
 14 15  1  0  0  0  0
 15 19  1  0  0  0  0
 15 16  2  0  0  0  0
 16 17  1  0  0  0  0
 17 18  2  0  0  0  0
 18 19  1  0  0  0  0
 18 45  1  0  0  0  0
 19 20  1  0  0  0  0
 20 21  1  0  0  0  0
 20 46  1  0  0  0  0
 20 47  1  0  0  0  0
 21 27  1  0  0  0  0
 21 22  1  0  0  0  0
 21 23  1  0  0  0  0
 22 48  1  0  0  0  0
 23 24  1  0  0  0  0
 23 49  1  0  0  0  0
 23 50  1  0  0  0  0
 24 25  1  0  0  0  0
 24 51  1  0  0  0  0
 24 52  1  0  0  0  0
 25 26  1  0  0  0  0
 26 27  1  0  0  0  0
 26 53  1  0  0  0  0
 26 54  1  0  0  0  0
 27 55  1  0  0  0  0
 27 56  1  0  0  0  0
M  END
> <s_m_source_file>
AV-unprocessed.smi

> <i_m_source_file_index>
230

> <i_lp_mmshare_version>
43012

> <i_f3d_flags>
0

> <s_epik_input>
W0NIM11DMShbQ0gzXSlPW0NIMl1bQ0BASF0oW0NIMl1bQ0gzXSlOKFtDSDJdMSljKG5bY0hdbjIpYyhjMjMpbltjSF1uM1tDSDJdQzQoW09IXSlbQ0gyXVtDSDJdT1tDSDJdW0NIMl00

> <s_epik_cmdline>
J2VwaWtfcHl0aG9uJywgJy1waCcsICc3LjAnLCAnLXRuJywgJzgnLCAnLW1hJywgJzIwMCcsICctbWV0YWxfYmluZGluZycsICctaW1hZScsICc8aW5maWxlLm1hZT4nLCAnLW9tYWUnLCAnPG91dGZpbGUubWFlPic=

> <r_lp_tautomer_probability>
1

> <r_epik_Ionization_Penalty>
0.000120535

> <r_epik_Ionization_Penalty_Charging>
0

> <r_epik_Ionization_Penalty_Neutral>
0.000120535

> <r_epik_State_Penalty>
-0

> <r_epik_Charging_Adjusted_Penalty>
0

> <i_epik_Tot_Q>
0

> <i_epik_Tot_abs_Q>
0

> <r_epik_Metal_State_Penalty>
-0

> <b_epik_Metal_Only>
0

> <s_lp_Force_Field>
OPLS_2005

> <r_lp_Energy>
34.4524

> <b_lp_Chiralities_Consistent>
1

> <s_lp_Variant>
AV-unprocessed.smi:230-2

> <Gold.Version>
5.8.1

> <Gold.Id.Protein>
6NUR|6NUR_protein|mol2

> <Gold.PLP.Fitness>
38.4833

> <Gold.PLP.PLP>
-30.3985

> <Gold.PLP.part.hbond>
-2.0000

> <Gold.PLP.part.metal>
0.0000

> <Gold.PLP.part.buried>
-5.9741

> <Gold.PLP.part.nonpolar>
-22.5187

> <Gold.PLP.part.repulsive>
0.2291

> <Gold.PLP.ligand.clash>
0.0000

> <Gold.PLP.ligand.torsion>
0.5508

> <Gold.PLP.Chemscore.Hbond>
2.0000

> <Gold.PLP.Chemscore.CHOScore>
1.0000

> <Gold.PLP.Chemscore.Metal>
0.0000

> <Gold.Chemscore.Hbonds>
donor molecule, donor type, donor heavy atom, donor atom, acceptor molecule, acceptor atom, score
      P1  H  6896  6907       L1    12  1.00
      L1  C    18    45       P1 10957  1.00

> <Gold.PLP.Chemscore.Internal.Correction>
0.1865

> <Gold.Rescore>
     Score         DG    S(hbond)    S(metal)    S(lipo)     H(rot)  DE(clash)    DE(int)     intcor
     14.23     -14.63       1.88        0.00      72.93       2.21       0.01       0.39       ----

> <Gold.Chemscore.Fitness>
14.2283

> <Gold.Chemscore.DG>
-14.6324

> <Gold.Chemscore.ZeroCoef>
-5.4800

> <Gold.Chemscore.Hbond>
1.8800

> <Gold.Chemscore.Metal>
0.0000

> <Gold.Chemscore.Lipo>
72.9295

> <Gold.Chemscore.Internal_Hbond>
0.0000

> <Gold.Chemscore.DEClash>
0.0106

> <Gold.Chemscore.DEInternal>
0.3934

> <Gold.Chemscore.Rot>
2.2107

> <Gold.Chemscore.Internal.Correction>
   9.000000E+99

> <Gold.Chemscore.Hbonds>
donor molecule, donor type, donor heavy atom, donor atom, acceptor molecule, acceptor atom, score
      P1  H  6896  6907       L1    12  0.87

> <Gold.Chemscore.Hbond.Weighted>
-6.2791

> <Gold.Chemscore.Metal.Weighted>
-0.0000

> <Gold.Chemscore.Lipo.Weighted>
-8.5327

> <Gold.Chemscore.Internal_Hbond.Weighted>
0.0000

> <Gold.Chemscore.DEClash.Weighted>
0.0106

> <Gold.Chemscore.DEInternal.Weighted>
0.3934

> <Gold.Chemscore.Rot.Weighted>
5.6595

> <Gold.Chemscore.Internal.Correction.Weighted>
   9.000000E+99

> <Gold.Protein.RotatedTorsions>
[ 6907 6896 6895 6894 ] final -107.09 input  -60.11 | X-H torsion
[ 7974 7965 7964 7962 ] final  110.30 input  175.53 | X-H torsion
[ 8008 7997 7996 7995 ] final   94.30 input   59.86 | X-H torsion
[ 10167 10162 10161 10158 ] final -123.01 input  -65.29 | X-H torsion
[ 10718 10713 10712 10709 ] final  125.04 input   66.30 | X-H torsion
[ 10763 10752 10751 10750 ] final  142.92 input  -60.55 | X-H torsion
[ 11005 11000 10999 10996 ] final -127.86 input  -57.11 | X-H torsion

> <Gold.Protein.ActiveResidues>
 VAL166  LYS551  ARG553  GLY616  TRP617  ASP618  TYR619  PRO620  LYS621  CYS622 
 ASP623  PHE694  ASN695  SER759  ASP760  ASP761  ALA762  ILE779  LEU786  VAL792 
 PHE793  MET794  SER795  GLU796  ALA797  LYS798  CYS799  TRP800  GLU811  SER814 

> <Gold.Protein.RotatedAtoms>
  150.7424  133.9879  159.3597 H   0  0  0  0  0  0  0  0  0  0  0  0  # atno 6907 bound_to 6896
  151.7825  135.0756  160.0385 H   0  0  0  0  0  0  0  0  0  0  0  0  # atno 6908 bound_to 6896
  152.3264  133.5873  159.5816 H   0  0  0  0  0  0  0  0  0  0  0  0  # atno 6909 bound_to 6896
  145.2567  139.2718  143.4038 H   0  0  0  0  0  0  0  0  0  0  0  0  # atno 7974 bound_to 7965
  156.0564  140.3301  155.7410 H   0  0  0  0  0  0  0  0  0  0  0  0  # atno 8008 bound_to 7997
  155.5523  140.0611  157.2865 H   0  0  0  0  0  0  0  0  0  0  0  0  # atno 8009 bound_to 7997
  154.4460  140.1892  156.0687 H   0  0  0  0  0  0  0  0  0  0  0  0  # atno 8010 bound_to 7997
  140.0081  143.5470  152.2275 H   0  0  0  0  0  0  0  0  0  0  0  0  # atno 10167 bound_to 10162
  157.5535  131.1093  150.8661 H   0  0  0  0  0  0  0  0  0  0  0  0  # atno 10718 bound_to 10713
  153.9637  135.2957  155.3432 H   0  0  0  0  0  0  0  0  0  0  0  0  # atno 10763 bound_to 10752
  154.7360  135.5046  153.9046 H   0  0  0  0  0  0  0  0  0  0  0  0  # atno 10764 bound_to 10752
  153.0934  135.6714  153.9921 H   0  0  0  0  0  0  0  0  0  0  0  0  # atno 10765 bound_to 10752
  140.9564  134.0996  157.4012 H   0  0  0  0  0  0  0  0  0  0  0  0  # atno 11005 bound_to 11000
  146.3287  140.2973  142.8618 LP  0  0  0  0  0  0  0  0  0  0  0  0  # atno 17320 bound_to 7965
  144.9455  140.8123  143.5604 LP  0  0  0  0  0  0  0  0  0  0  0  0  # atno 17321 bound_to 7965
  139.6224  144.7631  151.2712 LP  0  0  0  0  0  0  0  0  0  0  0  0  # atno 17342 bound_to 10162
  140.7392  143.6625  150.8152 LP  0  0  0  0  0  0  0  0  0  0  0  0  # atno 17343 bound_to 10162
  156.9179  130.5304  149.5279 LP  0  0  0  0  0  0  0  0  0  0  0  0  # atno 17370 bound_to 10713
  156.0598  130.5653  150.9168 LP  0  0  0  0  0  0  0  0  0  0  0  0  # atno 17371 bound_to 10713
  139.8863  135.0080  156.6493 LP  0  0  0  0  0  0  0  0  0  0  0  0  # atno 17394 bound_to 11000
  140.7530  133.8881  155.8361 LP  0  0  0  0  0  0  0  0  0  0  0  0  # atno 17395 bound_to 11000

$$$$
