AV-unprocessed.smi:2037|AV-procd|sdf|8279|dock9
  -GOLD-   2272010543D 1   1.00000     0.00000
 Structure written by MMmdl.
 38 39  0  0  0  0  0  0  0  0  3 V2000
  143.9236  133.8112  152.0540 C   0  0  0  0  0  0  0  0  0  0  0  0
  145.1971  134.4002  151.4225 C   0  0  2  0  0  0  0  0  0  0  0  0
  146.4866  133.8587  152.0652 C   0  0  0  0  0  0  0  0  0  0  0  0
  146.7383  134.4569  153.4609 C   0  0  0  0  0  0  0  0  0  0  0  0
  146.7626  135.9419  153.4169 N   0  3  2  0  0  0  0  0  0  0  0  0
  147.1358  136.5321  154.7269 C   0  0  0  0  0  0  0  0  0  0  0  0
  146.3750  135.8877  155.9007 C   0  0  0  0  0  0  0  0  0  0  0  0
  146.6614  136.5704  157.1566 N   0  0  0  0  0  0  0  0  0  0  0  0
  147.1584  135.9979  158.2620 C   0  0  0  0  0  0  0  0  0  0  0  0
  147.4067  134.7897  158.2694 O   0  0  0  0  0  0  0  0  0  0  0  0
  147.3337  136.8600  159.2882 N   0  5  0  0  0  0  0  0  0  0  0  0
  147.3458  136.4068  160.5523 C   0  0  0  0  0  0  0  0  0  0  0  0
  147.5167  137.2066  161.6112 N   0  0  0  0  0  0  0  0  0  0  0  0
  147.4890  136.5275  162.8304 C   0  0  0  0  0  0  0  0  0  0  0  0
  147.2830  135.1800  162.6973 C   0  0  0  0  0  0  0  0  0  0  0  0
  147.1166  134.7212  161.0266 S   0  0  0  0  0  0  0  0  0  0  0  0
  145.4980  136.4932  152.8609 C   0  0  0  0  0  0  0  0  0  0  0  0
  145.2192  135.9390  151.4519 C   0  0  0  0  0  0  0  0  0  0  0  0
  143.8267  134.0720  153.1076 H   0  0  0  0  0  0  0  0  0  0  0  0
  143.9200  132.7232  151.9829 H   0  0  0  0  0  0  0  0  0  0  0  0
  143.0319  134.1731  151.5418 H   0  0  0  0  0  0  0  0  0  0  0  0
  145.1941  134.0897  150.3768 H   0  0  0  0  0  0  0  0  0  0  0  0
  146.4516  132.7703  152.1249 H   0  0  0  0  0  0  0  0  0  0  0  0
  147.3339  134.0977  151.4210 H   0  0  0  0  0  0  0  0  0  0  0  0
  145.9753  134.1232  154.1654 H   0  0  0  0  0  0  0  0  0  0  0  0
  147.6931  134.0858  153.8354 H   0  0  0  0  0  0  0  0  0  0  0  0
  148.2142  136.4567  154.8747 H   0  0  0  0  0  0  0  0  0  0  0  0
  146.9023  137.5978  154.7116 H   0  0  0  0  0  0  0  0  0  0  0  0
  145.3005  135.8891  155.7100 H   0  0  0  0  0  0  0  0  0  0  0  0
  146.6662  134.8463  156.0304 H   0  0  0  0  0  0  0  0  0  0  0  0
  146.4766  137.5624  157.1930 H   0  0  0  0  0  0  0  0  0  0  0  0
  147.6235  137.0843  163.7458 H   0  0  0  0  0  0  0  0  0  0  0  0
  147.2179  134.4336  163.4745 H   0  0  0  0  0  0  0  0  0  0  0  0
  144.6702  136.2626  153.5329 H   0  0  0  0  0  0  0  0  0  0  0  0
  145.5531  137.5790  152.7988 H   0  0  0  0  0  0  0  0  0  0  0  0
  145.9940  136.2982  150.7730 H   0  0  0  0  0  0  0  0  0  0  0  0
  144.2778  136.3377  151.0720 H   0  0  0  0  0  0  0  0  0  0  0  0
  147.5012  136.1911  152.7747 H   0  0  0  0  0  0  0  0  0  0  0  0
  1  2  1  0  0  0  0
  1 19  1  0  0  0  0
  1 20  1  0  0  0  0
  1 21  1  0  0  0  0
  2 18  1  0  0  0  0
  2  3  1  0  0  0  0
  2 22  1  0  0  0  0
  3  4  1  0  0  0  0
  3 23  1  0  0  0  0
  3 24  1  0  0  0  0
  4  5  1  0  0  0  0
  4 25  1  0  0  0  0
  4 26  1  0  0  0  0
  5  6  1  0  0  0  0
  5 17  1  0  0  0  0
  5 38  1  0  0  0  0
  6  7  1  0  0  0  0
  6 27  1  0  0  0  0
  6 28  1  0  0  0  0
  7  8  1  0  0  0  0
  7 29  1  0  0  0  0
  7 30  1  0  0  0  0
  8  9  1  0  0  0  0
  8 31  1  0  0  0  0
  9 10  2  0  0  0  0
  9 11  1  0  0  0  0
 11 12  1  0  0  0  0
 12 16  1  0  0  0  0
 12 13  2  0  0  0  0
 13 14  1  0  0  0  0
 14 15  2  0  0  0  0
 14 32  1  0  0  0  0
 15 16  1  0  0  0  0
 15 33  1  0  0  0  0
 17 18  1  0  0  0  0
 17 34  1  0  0  0  0
 17 35  1  0  0  0  0
 18 36  1  0  0  0  0
 18 37  1  0  0  0  0
M  CHG  1   5   1
M  CHG  1  11  -1
M  END
> <s_m_source_file>
AV-unprocessed.smi

> <i_m_source_file_index>
2037

> <i_lp_mmshare_version>
43012

> <i_f3d_flags>
0

> <s_epik_input>
W0NIM11bQ0hdMVtDSDJdW0NIMl1OKFtDSDJdW0NIMl0xKVtDSDJdW0NIMl1bTkhdQyg9TylbTkhdYzJuW2NIXVtjSF1zMg==

> <s_epik_cmdline>
J2VwaWtfcHl0aG9uJywgJy1waCcsICc3LjAnLCAnLXRuJywgJzgnLCAnLW1hJywgJzIwMCcsICctbWV0YWxfYmluZGluZycsICctaW1hZScsICc8aW5maWxlLm1hZT4nLCAnLW9tYWUnLCAnPG91dGZpbGUubWFlPic=

> <r_lp_tautomer_probability>
0.999

> <r_epik_Ionization_Penalty>
6.22113

> <r_epik_Ionization_Penalty_Charging>
5.39005

> <r_epik_Ionization_Penalty_Neutral>
0.831074

> <r_epik_State_Penalty>
5.38997

> <r_epik_Charging_Adjusted_Penalty>
10.78

> <i_epik_Tot_Q>
0

> <i_epik_Tot_abs_Q>
2

> <r_epik_Metal_State_Penalty>
1.41601

> <b_epik_Metal_Only>
1

> <s_lp_Force_Field>
OPLS_2005

> <r_lp_Energy>
7.28937

> <b_lp_Chiralities_Consistent>
1

> <s_lp_Variant>
AV-unprocessed.smi:2037-4

> <Gold.Version>
5.8.1

> <Gold.Id.Protein>
6NUR|6NUR_protein|mol2

> <Gold.PLP.Fitness>
38.8521

> <Gold.PLP.PLP>
-28.1334

> <Gold.PLP.part.hbond>
-3.0000

> <Gold.PLP.part.metal>
0.0000

> <Gold.PLP.part.buried>
-3.4254

> <Gold.PLP.part.nonpolar>
-21.1345

> <Gold.PLP.part.repulsive>
0.0000

> <Gold.PLP.ligand.clash>
0.0000

> <Gold.PLP.ligand.torsion>
0.2896

> <Gold.PLP.Chemscore.Hbond>
3.7520

> <Gold.PLP.Chemscore.CHOScore>
0.0000

> <Gold.PLP.Chemscore.Metal>
0.0000

> <Gold.Chemscore.Hbonds>
donor molecule, donor type, donor heavy atom, donor atom, acceptor molecule, acceptor atom, score
      L1  H     5    38       P1  7948  2.00
      P1  H  6931  6943       L1    13  0.90
      P1  H  6934  6947       L1    13  0.82

> <Gold.PLP.Chemscore.Internal.Correction>
0.0419

> <Gold.Rescore>
     Score         DG    S(hbond)    S(metal)    S(lipo)     H(rot)  DE(clash)    DE(int)     intcor
     12.80     -14.50       1.91        0.00      56.76       1.57       0.00       1.69       ----

> <Gold.Chemscore.Fitness>
12.8032

> <Gold.Chemscore.DG>
-14.5012

> <Gold.Chemscore.ZeroCoef>
-5.4800

> <Gold.Chemscore.Hbond>
1.9142

> <Gold.Chemscore.Metal>
0.0000

> <Gold.Chemscore.Lipo>
56.7594

> <Gold.Chemscore.Internal_Hbond>
0.0000

> <Gold.Chemscore.DEClash>
0.0038

> <Gold.Chemscore.DEInternal>
1.6943

> <Gold.Chemscore.Rot>
1.5676

> <Gold.Chemscore.Internal.Correction>
   9.000000E+99

> <Gold.Chemscore.Hbonds>
donor molecule, donor type, donor heavy atom, donor atom, acceptor molecule, acceptor atom, score
      L1  H     5    38       P1  7948  1.00
      P1  H  6931  6943       L1    13  0.20
      P1  H  6934  6947       L1    13  0.43

> <Gold.Chemscore.Hbond.Weighted>
-6.3934

> <Gold.Chemscore.Metal.Weighted>
-0.0000

> <Gold.Chemscore.Lipo.Weighted>
-6.6408

> <Gold.Chemscore.Internal_Hbond.Weighted>
0.0000

> <Gold.Chemscore.DEClash.Weighted>
0.0038

> <Gold.Chemscore.DEInternal.Weighted>
1.6943

> <Gold.Chemscore.Rot.Weighted>
4.0130

> <Gold.Chemscore.Internal.Correction.Weighted>
   9.000000E+99

> <Gold.Protein.RotatedTorsions>
[ 6907 6896 6895 6894 ] final  -36.36 input  -60.11 | X-H torsion
[ 7974 7965 7964 7962 ] final   25.32 input  175.53 | X-H torsion
[ 8008 7997 7996 7995 ] final  -47.65 input   59.86 | X-H torsion
[ 10167 10162 10161 10158 ] final  -46.09 input  -65.29 | X-H torsion
[ 10718 10713 10712 10709 ] final   93.63 input   66.30 | X-H torsion
[ 10763 10752 10751 10750 ] final -134.73 input  -60.55 | X-H torsion
[ 11005 11000 10999 10996 ] final   21.69 input  -57.11 | X-H torsion

> <Gold.Protein.ActiveResidues>
 VAL166  LYS551  ARG553  GLY616  TRP617  ASP618  TYR619  PRO620  LYS621  CYS622 
 ASP623  PHE694  ASN695  SER759  ASP760  ASP761  ALA762  ILE779  LEU786  VAL792 
 PHE793  MET794  SER795  GLU796  ALA797  LYS798  CYS799  TRP800  GLU811  SER814 

> <Gold.Protein.RotatedAtoms>
  151.0281  134.9519  159.8095 H   0  0  0  0  0  0  0  0  0  0  0  0  # atno 6907 bound_to 6896
  152.5340  134.2816  159.9019 H   0  0  0  0  0  0  0  0  0  0  0  0  # atno 6908 bound_to 6896
  151.2825  133.4161  159.2662 H   0  0  0  0  0  0  0  0  0  0  0  0  # atno 6909 bound_to 6896
  146.1894  139.7482  142.8843 H   0  0  0  0  0  0  0  0  0  0  0  0  # atno 7974 bound_to 7965
  154.4019  140.1341  156.4210 H   0  0  0  0  0  0  0  0  0  0  0  0  # atno 8008 bound_to 7997
  155.7643  140.3485  155.5193 H   0  0  0  0  0  0  0  0  0  0  0  0  # atno 8009 bound_to 7997
  155.8829  140.0990  157.1463 H   0  0  0  0  0  0  0  0  0  0  0  0  # atno 8010 bound_to 7997
  140.6831  143.2847  151.3733 H   0  0  0  0  0  0  0  0  0  0  0  0  # atno 10167 bound_to 10162
  157.6953  131.0485  150.4063 H   0  0  0  0  0  0  0  0  0  0  0  0  # atno 10718 bound_to 10713
  154.8714  135.3725  154.4784 H   0  0  0  0  0  0  0  0  0  0  0  0  # atno 10763 bound_to 10752
  153.5439  135.7026  153.5628 H   0  0  0  0  0  0  0  0  0  0  0  0  # atno 10764 bound_to 10752
  153.3777  135.4004  155.1799 H   0  0  0  0  0  0  0  0  0  0  0  0  # atno 10765 bound_to 10752
  140.3888  134.1841  155.7663 H   0  0  0  0  0  0  0  0  0  0  0  0  # atno 11005 bound_to 11000
  145.3839  141.0362  143.3162 LP  0  0  0  0  0  0  0  0  0  0  0  0  # atno 17320 bound_to 7965
  144.8458  139.5399  143.6879 LP  0  0  0  0  0  0  0  0  0  0  0  0  # atno 17321 bound_to 7965
  139.6169  144.0985  152.2354 LP  0  0  0  0  0  0  0  0  0  0  0  0  # atno 17342 bound_to 10162
  140.0417  144.6002  150.7406 LP  0  0  0  0  0  0  0  0  0  0  0  0  # atno 17343 bound_to 10162
  156.4452  130.4000  149.6671 LP  0  0  0  0  0  0  0  0  0  0  0  0  # atno 17370 bound_to 10713
  156.3841  130.7594  151.2589 LP  0  0  0  0  0  0  0  0  0  0  0  0  # atno 17371 bound_to 10713
  141.1898  133.8231  157.0943 LP  0  0  0  0  0  0  0  0  0  0  0  0  # atno 17394 bound_to 11000
  140.0422  134.9848  157.0983 LP  0  0  0  0  0  0  0  0  0  0  0  0  # atno 17395 bound_to 11000

$$$$
