AV-unprocessed.smi:299|AV-procd|sdf|2268|dock3
  -GOLD-   2262022163D 1   1.00000     0.00000
 Structure written by MMmdl.
 42 43  0  0  0  0  0  0  0  0  2 V2000
  145.1359  134.5825  155.0494 C   0  0  0  0  0  0  0  0  0  0  0  0
  144.9531  134.2633  153.5507 C   0  0  1  0  0  0  0  0  0  0  0  0
  145.8112  133.0253  153.2060 C   0  0  0  0  0  0  0  0  0  0  0  0
  145.6994  132.6400  151.7296 C   0  0  0  0  0  0  0  0  0  0  0  0
  144.2288  132.4245  151.3744 C   0  0  0  0  0  0  0  0  0  0  0  0
  143.4010  133.6706  151.7186 C   0  0  0  0  0  0  0  0  0  0  0  0
  143.5208  134.0455  153.1583 N   0  3  2  0  0  0  0  0  0  0  0  0
  142.6155  135.1782  153.5106 C   0  0  0  0  0  0  0  0  0  0  0  0
  143.0261  136.5166  152.8616 C   0  0  0  0  0  0  0  0  0  0  0  0
  142.2849  137.7344  153.4467 C   0  0  0  0  0  0  0  0  0  0  0  0
  140.8547  137.7220  153.1547 N   0  0  0  0  0  0  0  0  0  0  0  0
  139.9364  136.9976  153.8142 C   0  0  0  0  0  0  0  0  0  0  0  0
  140.2133  136.2301  154.7351 O   0  0  0  0  0  0  0  0  0  0  0  0
  138.4837  137.1555  153.3625 C   0  0  0  0  0  0  0  0  0  0  0  0
  138.0190  138.5173  153.5488 N   0  0  0  0  0  0  0  0  0  0  0  0
  138.4511  139.6698  153.0327 C   0  0  0  0  0  0  0  0  0  0  0  0
  137.7461  140.6993  153.4762 N   0  0  0  0  0  0  0  0  0  0  0  0
  136.8226  140.1070  154.3217 N   0  0  0  0  0  0  0  0  0  0  0  0
  136.9793  138.8126  154.3684 N   0  0  0  0  0  0  0  0  0  0  0  0
  146.1901  134.5554  155.3270 H   0  0  0  0  0  0  0  0  0  0  0  0
  144.6138  133.8602  155.6779 H   0  0  0  0  0  0  0  0  0  0  0  0
  144.7863  135.5810  155.3090 H   0  0  0  0  0  0  0  0  0  0  0  0
  145.3327  135.1106  152.9767 H   0  0  0  0  0  0  0  0  0  0  0  0
  146.8580  133.2159  153.4458 H   0  0  0  0  0  0  0  0  0  0  0  0
  145.5043  132.1805  153.8249 H   0  0  0  0  0  0  0  0  0  0  0  0
  146.1242  133.4267  151.1047 H   0  0  0  0  0  0  0  0  0  0  0  0
  146.2737  131.7348  151.5299 H   0  0  0  0  0  0  0  0  0  0  0  0
  144.1334  132.1954  150.3126 H   0  0  0  0  0  0  0  0  0  0  0  0
  143.8387  131.5607  151.9146 H   0  0  0  0  0  0  0  0  0  0  0  0
  143.7153  134.5107  151.0971 H   0  0  0  0  0  0  0  0  0  0  0  0
  142.3665  133.4580  151.4563 H   0  0  0  0  0  0  0  0  0  0  0  0
  141.6044  134.9797  153.1648 H   0  0  0  0  0  0  0  0  0  0  0  0
  142.5574  135.2731  154.5959 H   0  0  0  0  0  0  0  0  0  0  0  0
  144.0972  136.6852  152.9618 H   0  0  0  0  0  0  0  0  0  0  0  0
  142.8260  136.4719  151.7904 H   0  0  0  0  0  0  0  0  0  0  0  0
  142.4367  137.7827  154.5262 H   0  0  0  0  0  0  0  0  0  0  0  0
  142.7047  138.6541  153.0387 H   0  0  0  0  0  0  0  0  0  0  0  0
  140.5363  138.3293  152.4134 H   0  0  0  0  0  0  0  0  0  0  0  0
  138.3905  136.8897  152.3087 H   0  0  0  0  0  0  0  0  0  0  0  0
  137.8381  136.4781  153.9239 H   0  0  0  0  0  0  0  0  0  0  0  0
  139.2763  139.7540  152.3411 H   0  0  0  0  0  0  0  0  0  0  0  0
  143.2031  133.2497  153.6932 H   0  0  0  0  0  0  0  0  0  0  0  0
  1  2  1  0  0  0  0
  1 20  1  0  0  0  0
  1 21  1  0  0  0  0
  1 22  1  0  0  0  0
  2  7  1  0  0  0  0
  2  3  1  0  0  0  0
  2 23  1  0  0  0  0
  3  4  1  0  0  0  0
  3 24  1  0  0  0  0
  3 25  1  0  0  0  0
  4  5  1  0  0  0  0
  4 26  1  0  0  0  0
  4 27  1  0  0  0  0
  5  6  1  0  0  0  0
  5 28  1  0  0  0  0
  5 29  1  0  0  0  0
  6  7  1  0  0  0  0
  6 30  1  0  0  0  0
  6 31  1  0  0  0  0
  7  8  1  0  0  0  0
  7 42  1  0  0  0  0
  8  9  1  0  0  0  0
  8 32  1  0  0  0  0
  8 33  1  0  0  0  0
  9 10  1  0  0  0  0
  9 34  1  0  0  0  0
  9 35  1  0  0  0  0
 10 11  1  0  0  0  0
 10 36  1  0  0  0  0
 10 37  1  0  0  0  0
 11 12  1  0  0  0  0
 11 38  1  0  0  0  0
 12 13  2  0  0  0  0
 12 14  1  0  0  0  0
 14 15  1  0  0  0  0
 14 39  1  0  0  0  0
 14 40  1  0  0  0  0
 15 19  1  0  0  0  0
 15 16  1  0  0  0  0
 16 17  2  0  0  0  0
 16 41  1  0  0  0  0
 17 18  1  0  0  0  0
 18 19  2  0  0  0  0
M  CHG  1   7   1
M  END
> <s_m_source_file>
AV-unprocessed.smi

> <i_m_source_file_index>
299

> <i_lp_mmshare_version>
43012

> <i_f3d_flags>
0

> <s_epik_input>
W0NIM11bQ0BASF0xW0NIMl1bQ0gyXVtDSDJdW0NIMl1OMVtDSDJdW0NIMl1bQ0gyXVtOSF1DKD1PKVtDSDJdbjJbY0hdbm5uMg==

> <s_epik_cmdline>
J2VwaWtfcHl0aG9uJywgJy1waCcsICc3LjAnLCAnLXRuJywgJzgnLCAnLW1hJywgJzIwMCcsICctbWV0YWxfYmluZGluZycsICctaW1hZScsICc8aW5maWxlLm1hZT4nLCAnLW9tYWUnLCAnPG91dGZpbGUubWFlPic=

> <r_lp_tautomer_probability>
1

> <r_epik_Ionization_Penalty>
0.000544863

> <r_epik_Ionization_Penalty_Charging>
0.000543475

> <r_epik_Ionization_Penalty_Neutral>
1.38784e-06

> <r_epik_State_Penalty>
0.000340025

> <r_epik_Charging_Adjusted_Penalty>
0.0008835

> <i_epik_Tot_Q>
1

> <i_epik_Tot_abs_Q>
1

> <r_epik_Metal_State_Penalty>
-0

> <b_epik_Metal_Only>
0

> <s_lp_Force_Field>
OPLS_2005

> <r_lp_Energy>
25.9803

> <b_lp_Chiralities_Consistent>
1

> <s_lp_Variant>
AV-unprocessed.smi:299-4

> <Gold.Version>
5.8.1

> <Gold.Id.Protein>
6NUR|6NUR_protein|mol2

> <Gold.PLP.Fitness>
41.6497

> <Gold.PLP.PLP>
-30.1831

> <Gold.PLP.part.hbond>
-2.0000

> <Gold.PLP.part.metal>
0.0000

> <Gold.PLP.part.buried>
-4.7243

> <Gold.PLP.part.nonpolar>
-22.6812

> <Gold.PLP.part.repulsive>
0.1226

> <Gold.PLP.ligand.clash>
0.0000

> <Gold.PLP.ligand.torsion>
0.2087

> <Gold.PLP.Chemscore.Hbond>
2.9440

> <Gold.PLP.Chemscore.CHOScore>
1.0000

> <Gold.PLP.Chemscore.Metal>
0.0000

> <Gold.Chemscore.Hbonds>
donor molecule, donor type, donor heavy atom, donor atom, acceptor molecule, acceptor atom, score
      L1  H     7    42       P1 10957  2.00
      P1  H 11000 11005       L1    13  1.00
      L1  C    16    41       P1 10160  1.00

> <Gold.PLP.Chemscore.Internal.Correction>
0.0519

> <Gold.Rescore>
     Score         DG    S(hbond)    S(metal)    S(lipo)     H(rot)  DE(clash)    DE(int)     intcor
      8.91     -10.44       1.92        0.00      52.46       2.97       0.04       1.49       ----

> <Gold.Chemscore.Fitness>
8.9063

> <Gold.Chemscore.DG>
-10.4418

> <Gold.Chemscore.ZeroCoef>
-5.4800

> <Gold.Chemscore.Hbond>
1.9229

> <Gold.Chemscore.Metal>
0.0000

> <Gold.Chemscore.Lipo>
52.4560

> <Gold.Chemscore.Internal_Hbond>
0.0000

> <Gold.Chemscore.DEClash>
0.0417

> <Gold.Chemscore.DEInternal>
1.4937

> <Gold.Chemscore.Rot>
2.9680

> <Gold.Chemscore.Internal.Correction>
   9.000000E+99

> <Gold.Chemscore.Hbonds>
donor molecule, donor type, donor heavy atom, donor atom, acceptor molecule, acceptor atom, score
      L1  H     7    42       P1 10957  0.99
      P1  H 11000 11005       L1    13  0.94

> <Gold.Chemscore.Hbond.Weighted>
-6.4224

> <Gold.Chemscore.Metal.Weighted>
-0.0000

> <Gold.Chemscore.Lipo.Weighted>
-6.1373

> <Gold.Chemscore.Internal_Hbond.Weighted>
0.0000

> <Gold.Chemscore.DEClash.Weighted>
0.0417

> <Gold.Chemscore.DEInternal.Weighted>
1.4937

> <Gold.Chemscore.Rot.Weighted>
7.5980

> <Gold.Chemscore.Internal.Correction.Weighted>
   9.000000E+99

> <Gold.Protein.RotatedTorsions>
[ 6907 6896 6895 6894 ] final  -10.06 input  -60.11 | X-H torsion
[ 7974 7965 7964 7962 ] final   -6.80 input  175.53 | X-H torsion
[ 8008 7997 7996 7995 ] final  153.51 input   59.86 | X-H torsion
[ 10167 10162 10161 10158 ] final   40.41 input  -65.29 | X-H torsion
[ 10718 10713 10712 10709 ] final -158.23 input   66.30 | X-H torsion
[ 10763 10752 10751 10750 ] final   95.74 input  -60.55 | X-H torsion
[ 11005 11000 10999 10996 ] final   69.31 input  -57.11 | X-H torsion

> <Gold.Protein.ActiveResidues>
 VAL166  LYS551  ARG553  GLY616  TRP617  ASP618  TYR619  PRO620  LYS621  CYS622 
 ASP623  PHE694  ASN695  SER759  ASP760  ASP761  ALA762  ILE779  LEU786  VAL792 
 PHE793  MET794  SER795  GLU796  ALA797  LYS798  CYS799  TRP800  GLU811  SER814 

> <Gold.Protein.RotatedAtoms>
  151.4080  135.0981  159.9576 H   0  0  0  0  0  0  0  0  0  0  0  0  # atno 6907 bound_to 6896
  152.5029  133.8825  159.7363 H   0  0  0  0  0  0  0  0  0  0  0  0  # atno 6908 bound_to 6896
  150.9313  133.6706  159.2838 H   0  0  0  0  0  0  0  0  0  0  0  0  # atno 6909 bound_to 6896
  146.2322  140.2224  142.8338 H   0  0  0  0  0  0  0  0  0  0  0  0  # atno 7974 bound_to 7965
  156.2577  140.1991  156.6502 H   0  0  0  0  0  0  0  0  0  0  0  0  # atno 8008 bound_to 7997
  154.6542  140.0568  157.0015 H   0  0  0  0  0  0  0  0  0  0  0  0  # atno 8009 bound_to 7997
  155.1372  140.3239  155.4463 H   0  0  0  0  0  0  0  0  0  0  0  0  # atno 8010 bound_to 7997
  140.3745  144.2061  150.6132 H   0  0  0  0  0  0  0  0  0  0  0  0  # atno 10167 bound_to 10162
  156.5513  130.8606  151.2781 H   0  0  0  0  0  0  0  0  0  0  0  0  # atno 10718 bound_to 10713
  153.2567  135.4243  155.0853 H   0  0  0  0  0  0  0  0  0  0  0  0  # atno 10763 bound_to 10752
  154.8404  135.3439  154.6435 H   0  0  0  0  0  0  0  0  0  0  0  0  # atno 10764 bound_to 10752
  153.6856  135.7036  153.5162 H   0  0  0  0  0  0  0  0  0  0  0  0  # atno 10765 bound_to 10752
  139.9661  134.6978  156.0542 H   0  0  0  0  0  0  0  0  0  0  0  0  # atno 11005 bound_to 11000
  144.9621  140.8286  143.5507 LP  0  0  0  0  0  0  0  0  0  0  0  0  # atno 17320 bound_to 7965
  145.2196  139.2165  143.5100 LP  0  0  0  0  0  0  0  0  0  0  0  0  # atno 17321 bound_to 7965
  140.5000  143.2321  151.8693 LP  0  0  0  0  0  0  0  0  0  0  0  0  # atno 17342 bound_to 10162
  139.4800  144.5070  151.8984 LP  0  0  0  0  0  0  0  0  0  0  0  0  # atno 17343 bound_to 10162
  157.7387  130.9818  150.2267 LP  0  0  0  0  0  0  0  0  0  0  0  0  # atno 17370 bound_to 10713
  156.2882  130.3742  149.7867 LP  0  0  0  0  0  0  0  0  0  0  0  0  # atno 17371 bound_to 10713
  141.1341  133.6579  156.3544 LP  0  0  0  0  0  0  0  0  0  0  0  0  # atno 17394 bound_to 11000
  140.5393  134.6136  157.5375 LP  0  0  0  0  0  0  0  0  0  0  0  0  # atno 17395 bound_to 11000

$$$$
