#       Name:                AV-unprocessed.smi:3150
#       Creating user name   scv26
#       Creation time:       Fri Mar 27 17:42:27 2020


#       File generated by GOLD software.
#

@<TRIPOS>MOLECULE
AV-unprocessed.smi:3150
    37    38     1
SMALL
NO_CHARGES


@<TRIPOS>ATOM
      1 ****        -0.4454  -2.2231  -2.7152 C.3            1 S1                 0.0000
      2 ****        -0.2052  -1.6266  -1.3200 C.3            1 S1                 0.0000
      3 ****         1.1959  -1.6823  -1.0631 O.3            1 S1                 0.0000
      4 ****         1.5757  -1.4530   0.2885 C.3            1 S1                 0.0000
      5 ****         3.0738  -1.6288   0.4110 C.3            1 S1                 0.0000
      6 ****         3.8140  -1.0498   1.5956 C.3            1 S1                 0.0000
      7 ****         4.0063  -0.4530   0.2248 C.3            1 S1                 0.0000
      8 ****        -0.7082  -0.1761  -1.2315 C.2            1 S1                 0.0000
      9 ****        -0.4065   0.6305  -2.1124 O.2            1 S1                 0.0000
     10 ****        -1.4546   0.1135  -0.1497 N.am           1 S1                 0.0000
     11 ****        -2.0436   1.3534   0.2218 C.ar           1 S1                 0.0000
     12 ****        -1.9474   2.4726  -0.5395 N.ar           1 S1                 0.0000
     13 ****        -2.5343   3.6115  -0.1175 C.ar           1 S1                 0.0000
     14 ****        -3.2530   3.7082   1.0869 C.ar           1 S1                 0.0000
     15 ****        -3.3611   2.5573   1.8866 C.ar           1 S1                 0.0000
     16 ****        -2.7510   1.3632   1.4532 C.ar           1 S1                 0.0000
     17 ****        -2.8555   0.2433   2.2334 O.co2          1 S1                -1.0000
     18 ****        -1.5022  -2.1928  -2.9823 H              1 S1                 0.0000
     19 ****        -0.1277  -3.2653  -2.7487 H              1 S1                 0.0000
     20 ****         0.1115  -1.6855  -3.4837 H              1 S1                 0.0000
     21 ****        -0.7319  -2.2456  -0.5908 H              1 S1                 0.0000
     22 ****         1.3007  -0.4511   0.6204 H              1 S1                 0.0000
     23 ****         1.0825  -2.1702   0.9456 H              1 S1                 0.0000
     24 ****         3.4346  -2.5918   0.0545 H              1 S1                 0.0000
     25 ****         3.2418  -0.4709   2.3180 H              1 S1                 0.0000
     26 ****         4.6336  -1.6332   2.0099 H              1 S1                 0.0000
     27 ****         4.9533  -0.6394  -0.2777 H              1 S1                 0.0000
     28 ****         3.5610   0.5213   0.0330 H              1 S1                 0.0000
     29 ****        -1.6181  -0.6414   0.5009 H              1 S1                 0.0000
     30 ****        -2.4269   4.4721  -0.7611 H              1 S1                 0.0000
     31 ****        -3.7084   4.6394   1.3890 H              1 S1                 0.0000
     32 ****        -3.9048   2.5923   2.8196 H              1 S1                 0.0000
     33 ****         1.6419  -0.9904  -1.6309 LP             1 S1                 0.0000
     34 ****         1.5224  -2.5902  -1.3259 LP             1 S1                 0.0000
     35 ****         0.1635   0.3412  -2.8814 LP             1 S1                 0.0000
     36 ****        -0.7316   1.5747  -2.0585 LP             1 S1                 0.0000
     37 ****        -1.4464   2.4533  -1.4047 LP             1 S1                 0.0000
@<TRIPOS>BOND
    1    1    2 1     
    2    1   18 1     
    3    1   19 1     
    4    1   20 1     
    5    2    3 1     
    6    2    8 1     
    7    2   21 1     
    8    3    4 1     
    9    4    5 1     
   10    4   22 1     
   11    4   23 1     
   12    5    7 1     
   13    5    6 1     
   14    5   24 1     
   15    6    7 1     
   16    6   25 1     
   17    6   26 1     
   18    7   27 1     
   19    7   28 1     
   20    8    9 2     
   21    8   10 am    
   22   10   29 1     
   23   10   11 1     
   24   11   16 ar    
   25   11   12 ar    
   26   12   13 ar    
   27   13   30 1     
   28   13   14 ar    
   29   14   31 1     
   30   14   15 ar    
   31   15   16 ar    
   32   15   32 1     
   33   16   17 ar    
   34    3   33 1     
   35    3   34 1     
   36    9   35 1     
   37    9   36 1     
   38   12   37 1     
@<TRIPOS>SUBSTRUCTURE
      1 S1             1
@<TRIPOS>SET
LONE_PAIRS      STATIC     ATOMS    <user>   **** ""
6 33 34 35 36 37 17
DONOR_HYDROGENS      STATIC     ATOMS    <user>   **** ""
1 29
ATOM$BLUE        STATIC     ATOMS    COLORGROUP SYSTEM
6 33 34 35 36 37 17
ATOM$RED        STATIC     ATOMS    COLORGROUP SYSTEM
1 29
