AV-unprocessed.smi:2673|AV-procd|sdf|10356|dock7
  -GOLD-   2272014383D 1   1.00000     0.00000
 Structure written by MMmdl.
 32 33  0  0  0  0  0  0  0  0  1 V2000
  144.8459  135.5180  152.7476 O   0  0  0  0  0  0  0  0  0  0  0  0
  144.2999  134.5156  153.2063 C   0  0  0  0  0  0  0  0  0  0  0  0
  143.0656  134.4862  153.7389 N   0  0  0  0  0  0  0  0  0  0  0  0
  142.1354  135.5515  153.8688 C   0  0  0  0  0  0  0  0  0  0  0  0
  140.8680  135.3890  154.2801 N   0  0  0  0  0  0  0  0  0  0  0  0
  140.1767  136.5929  154.3211 N   0  0  0  0  0  0  0  0  0  0  0  0
  140.9484  137.6144  153.9393 C   0  0  0  0  0  0  0  0  0  0  0  0
  142.5953  137.2056  153.4911 S   0  0  0  0  0  0  0  0  0  0  0  0
  144.8634  133.2966  153.2451 N   0  0  0  0  0  0  0  0  0  0  0  0
  146.1836  132.8579  152.7595 C   0  0  0  0  0  0  0  0  0  0  0  0
  147.2803  133.2233  153.8016 C   0  0  0  0  0  0  0  0  0  0  0  0
  147.0752  132.5672  154.9446 F   0  0  0  0  0  0  0  0  0  0  0  0
  148.4866  132.8872  153.3409 F   0  0  0  0  0  0  0  0  0  0  0  0
  147.2880  134.5261  154.0813 F   0  0  0  0  0  0  0  0  0  0  0  0
  146.2140  131.3366  152.4326 C   0  0  0  0  0  0  0  0  0  0  0  0
  145.2348  130.9398  151.3127 C   0  0  0  0  0  0  0  0  0  0  0  0
  145.5080  131.7404  150.0315 C   0  0  0  0  0  0  0  0  0  0  0  0
  145.4786  133.2507  150.3052 C   0  0  0  0  0  0  0  0  0  0  0  0
  146.4488  133.6333  151.4403 C   0  0  0  0  0  0  0  0  0  0  0  0
  142.7480  133.5922  154.0833 H   0  0  0  0  0  0  0  0  0  0  0  0
  140.5449  138.6159  153.9218 H   0  0  0  0  0  0  0  0  0  0  0  0
  144.3018  132.5631  153.6513 H   0  0  0  0  0  0  0  0  0  0  0  0
  147.2213  131.0594  152.1198 H   0  0  0  0  0  0  0  0  0  0  0  0
  146.0184  130.7356  153.3197 H   0  0  0  0  0  0  0  0  0  0  0  0
  145.3245  129.8730  151.1057 H   0  0  0  0  0  0  0  0  0  0  0  0
  144.2068  131.1017  151.6386 H   0  0  0  0  0  0  0  0  0  0  0  0
  146.4830  131.4623  149.6295 H   0  0  0  0  0  0  0  0  0  0  0  0
  144.7738  131.4844  149.2671 H   0  0  0  0  0  0  0  0  0  0  0  0
  145.7428  133.7933  149.3972 H   0  0  0  0  0  0  0  0  0  0  0  0
  144.4634  133.5584  150.5583 H   0  0  0  0  0  0  0  0  0  0  0  0
  146.3926  134.7083  151.6160 H   0  0  0  0  0  0  0  0  0  0  0  0
  147.4663  133.4415  151.0979 H   0  0  0  0  0  0  0  0  0  0  0  0
  1  2  2  0  0  0  0
  2  3  1  0  0  0  0
  2  9  1  0  0  0  0
  3  4  1  0  0  0  0
  3 20  1  0  0  0  0
  4  8  1  0  0  0  0
  4  5  2  0  0  0  0
  5  6  1  0  0  0  0
  6  7  2  0  0  0  0
  7  8  1  0  0  0  0
  7 21  1  0  0  0  0
  9 10  1  0  0  0  0
  9 22  1  0  0  0  0
 10 19  1  0  0  0  0
 10 11  1  0  0  0  0
 10 15  1  0  0  0  0
 11 12  1  0  0  0  0
 11 13  1  0  0  0  0
 11 14  1  0  0  0  0
 15 16  1  0  0  0  0
 15 23  1  0  0  0  0
 15 24  1  0  0  0  0
 16 17  1  0  0  0  0
 16 25  1  0  0  0  0
 16 26  1  0  0  0  0
 17 18  1  0  0  0  0
 17 27  1  0  0  0  0
 17 28  1  0  0  0  0
 18 19  1  0  0  0  0
 18 29  1  0  0  0  0
 18 30  1  0  0  0  0
 19 31  1  0  0  0  0
 19 32  1  0  0  0  0
M  END
> <s_m_source_file>
AV-unprocessed.smi

> <i_m_source_file_index>
2673

> <i_lp_mmshare_version>
43012

> <i_f3d_flags>
0

> <s_epik_input>
czFbY0hdbm5jMVtOSF1DKD1PKVtOSF1DMihDKEYpKEYpRilbQ0gyXVtDSDJdW0NIMl1bQ0gyXVtDSDJdMg==

> <s_epik_cmdline>
J2VwaWtfcHl0aG9uJywgJy1waCcsICc3LjAnLCAnLXRuJywgJzgnLCAnLW1hJywgJzIwMCcsICctbWV0YWxfYmluZGluZycsICctaW1hZScsICc8aW5maWxlLm1hZT4nLCAnLW9tYWUnLCAnPG91dGZpbGUubWFlPic=

> <r_lp_tautomer_probability>
1

> <r_epik_Ionization_Penalty>
1.40881

> <r_epik_Ionization_Penalty_Charging>
0

> <r_epik_Ionization_Penalty_Neutral>
1.40881

> <r_epik_State_Penalty>
1.51827

> <r_epik_Charging_Adjusted_Penalty>
1.51827

> <i_epik_Tot_Q>
0

> <i_epik_Tot_abs_Q>
0

> <r_epik_Metal_State_Penalty>
1.5692

> <b_epik_Metal_Only>
0

> <s_lp_Force_Field>
OPLS_2005

> <r_lp_Energy>
12.8136

> <b_lp_Chiralities_Consistent>
1

> <s_lp_Variant>
AV-unprocessed.smi:2673-2

> <Gold.Version>
5.8.1

> <Gold.Id.Protein>
6NUR|6NUR_protein|mol2

> <Gold.PLP.Fitness>
40.1552

> <Gold.PLP.PLP>
-32.3131

> <Gold.PLP.part.hbond>
-3.8480

> <Gold.PLP.part.metal>
0.0000

> <Gold.PLP.part.buried>
-6.6213

> <Gold.PLP.part.nonpolar>
-22.4923

> <Gold.PLP.part.repulsive>
0.4032

> <Gold.PLP.ligand.clash>
0.0000

> <Gold.PLP.ligand.torsion>
0.5069

> <Gold.PLP.Chemscore.Hbond>
2.9425

> <Gold.PLP.Chemscore.CHOScore>
0.0000

> <Gold.PLP.Chemscore.Metal>
0.0000

> <Gold.Chemscore.Hbonds>
donor molecule, donor type, donor heavy atom, donor atom, acceptor molecule, acceptor atom, score
      L1  H     3    20       P1 10957  1.00
      L1  H     9    22       P1 10957  0.75
      P1  H 11000 11005       L1     5  0.96

> <Gold.PLP.Chemscore.Internal.Correction>
0.0284

> <Gold.Rescore>
     Score         DG    S(hbond)    S(metal)    S(lipo)     H(rot)  DE(clash)    DE(int)     intcor
     15.20     -18.66       2.81        0.00      54.33       1.00       0.07       3.38       ----

> <Gold.Chemscore.Fitness>
15.2037

> <Gold.Chemscore.DG>
-18.6589

> <Gold.Chemscore.ZeroCoef>
-5.4800

> <Gold.Chemscore.Hbond>
2.8090

> <Gold.Chemscore.Metal>
0.0000

> <Gold.Chemscore.Lipo>
54.3320

> <Gold.Chemscore.Internal_Hbond>
0.0000

> <Gold.Chemscore.DEClash>
0.0727

> <Gold.Chemscore.DEInternal>
3.3825

> <Gold.Chemscore.Rot>
1.0000

> <Gold.Chemscore.Internal.Correction>
   9.000000E+99

> <Gold.Chemscore.Hbonds>
donor molecule, donor type, donor heavy atom, donor atom, acceptor molecule, acceptor atom, score
      L1  H     3    20       P1 10957  0.99
      L1  H     9    22       P1 10957  0.29
      P1  H 11000 11005       L1     5  0.37

> <Gold.Chemscore.Hbond.Weighted>
-9.3821

> <Gold.Chemscore.Metal.Weighted>
-0.0000

> <Gold.Chemscore.Lipo.Weighted>
-6.3568

> <Gold.Chemscore.Internal_Hbond.Weighted>
0.0000

> <Gold.Chemscore.DEClash.Weighted>
0.0727

> <Gold.Chemscore.DEInternal.Weighted>
3.3825

> <Gold.Chemscore.Rot.Weighted>
2.5600

> <Gold.Chemscore.Internal.Correction.Weighted>
   9.000000E+99

> <Gold.Protein.RotatedTorsions>
[ 6907 6896 6895 6894 ] final  -24.24 input  -60.11 | X-H torsion
[ 7974 7965 7964 7962 ] final   86.93 input  175.53 | X-H torsion
[ 8008 7997 7996 7995 ] final  -15.19 input   59.86 | X-H torsion
[ 10167 10162 10161 10158 ] final -100.94 input  -65.29 | X-H torsion
[ 10718 10713 10712 10709 ] final  176.85 input   66.30 | X-H torsion
[ 10763 10752 10751 10750 ] final    9.68 input  -60.55 | X-H torsion
[ 11005 11000 10999 10996 ] final   42.46 input  -57.11 | X-H torsion

> <Gold.Protein.ActiveResidues>
 VAL166  LYS551  ARG553  GLY616  TRP617  ASP618  TYR619  PRO620  LYS621  CYS622 
 ASP623  PHE694  ASN695  SER759  ASP760  ASP761  ALA762  ILE779  LEU786  VAL792 
 PHE793  MET794  SER795  GLU796  ALA797  LYS798  CYS799  TRP800  GLU811  SER814 

> <Gold.Protein.RotatedAtoms>
  151.1923  135.0408  159.8837 H   0  0  0  0  0  0  0  0  0  0  0  0  # atno 6907 bound_to 6896
  152.5438  134.0942  159.8300 H   0  0  0  0  0  0  0  0  0  0  0  0  # atno 6908 bound_to 6896
  151.1072  133.5152  159.2639 H   0  0  0  0  0  0  0  0  0  0  0  0  # atno 6909 bound_to 6896
  145.5658  139.2308  143.2434 H   0  0  0  0  0  0  0  0  0  0  0  0  # atno 7974 bound_to 7965
  154.5149  140.2203  155.9084 H   0  0  0  0  0  0  0  0  0  0  0  0  # atno 8008 bound_to 7997
  156.1596  140.3145  155.8751 H   0  0  0  0  0  0  0  0  0  0  0  0  # atno 8009 bound_to 7997
  155.3777  140.0470  157.3035 H   0  0  0  0  0  0  0  0  0  0  0  0  # atno 8010 bound_to 7997
  140.2466  143.3502  152.0753 H   0  0  0  0  0  0  0  0  0  0  0  0  # atno 10167 bound_to 10162
  156.9141  130.9919  151.3016 H   0  0  0  0  0  0  0  0  0  0  0  0  # atno 10718 bound_to 10713
  153.2114  135.6869  153.8110 H   0  0  0  0  0  0  0  0  0  0  0  0  # atno 10763 bound_to 10752
  153.7341  135.3248  155.3292 H   0  0  0  0  0  0  0  0  0  0  0  0  # atno 10764 bound_to 10752
  154.8224  135.4642  154.0923 H   0  0  0  0  0  0  0  0  0  0  0  0  # atno 10765 bound_to 10752
  140.1736  134.4191  155.8242 H   0  0  0  0  0  0  0  0  0  0  0  0  # atno 11005 bound_to 11000
  146.1819  140.6483  142.9185 LP  0  0  0  0  0  0  0  0  0  0  0  0  # atno 17320 bound_to 7965
  144.7461  140.5072  143.6834 LP  0  0  0  0  0  0  0  0  0  0  0  0  # atno 17321 bound_to 7965
  139.5060  144.6805  151.6020 LP  0  0  0  0  0  0  0  0  0  0  0  0  # atno 17342 bound_to 10162
  140.6073  143.9501  150.6428 LP  0  0  0  0  0  0  0  0  0  0  0  0  # atno 17343 bound_to 10162
  157.5949  130.8470  149.8714 LP  0  0  0  0  0  0  0  0  0  0  0  0  # atno 17370 bound_to 10713
  156.0522  130.3715  150.1175 LP  0  0  0  0  0  0  0  0  0  0  0  0  # atno 17371 bound_to 10713
  141.2219  133.6967  156.7808 LP  0  0  0  0  0  0  0  0  0  0  0  0  # atno 17394 bound_to 11000
  140.2348  134.8658  157.3514 LP  0  0  0  0  0  0  0  0  0  0  0  0  # atno 17395 bound_to 11000

$$$$
