AV-unprocessed.smi:3028|AV-procd|sdf|11520|dock1
  -GOLD-   2272016453D 1   1.00000     0.00000
 Structure written by MMmdl.
 48 49  0  0  0  0  0  0  0  0  2 V2000
  151.9287  141.1060  158.5355 C   0  0  0  0  0  0  0  0  0  0  0  0
  151.2572  140.9402  157.2027 C   0  0  0  0  0  0  0  0  0  0  0  0
  150.6229  141.9406  156.4129 C   0  0  0  0  0  0  0  0  0  0  0  0
  150.1267  141.4646  155.2829 N   0  0  0  0  0  0  0  0  0  0  0  0
  150.4252  140.1466  155.3083 N   0  0  0  0  0  0  0  0  0  0  0  0
  150.0228  139.2810  154.2068 C   0  0  1  0  0  0  0  0  0  0  0  0
  150.6516  137.8844  154.3790 C   0  0  0  0  0  0  0  0  0  0  0  0
  148.4813  139.2203  154.0353 C   0  0  1  0  0  0  0  0  0  0  0  0
  147.8187  140.6139  154.0426 C   0  0  0  0  0  0  0  0  0  0  0  0
  148.1476  138.5083  152.7810 N   0  3  0  0  0  0  0  0  0  0  0  0
  146.7647  138.6972  152.2915 C   0  0  0  0  0  0  0  0  0  0  0  0
  145.9277  137.4165  152.4173 C   0  0  0  0  0  0  0  0  0  0  0  0
  144.8033  137.4624  152.9142 O   0  0  0  0  0  0  0  0  0  0  0  0
  146.4370  136.2530  151.9789 N   0  0  0  0  0  0  0  0  0  0  0  0
  145.8086  134.9336  152.0067 C   0  0  0  0  0  0  0  0  0  0  0  0
  146.7675  133.8950  151.4050 C   0  0  0  0  0  0  0  0  0  0  0  0
  146.0797  132.5256  151.2811 C   0  0  0  0  0  0  0  0  0  0  0  0
  144.8961  132.6463  150.4998 O   0  0  0  0  0  0  0  0  0  0  0  0
  143.9292  133.5107  151.0863 C   0  0  0  0  0  0  0  0  0  0  0  0
  144.4970  134.9350  151.2024 C   0  0  0  0  0  0  0  0  0  0  0  0
  151.1059  139.8046  156.4586 C   0  0  0  0  0  0  0  0  0  0  0  0
  151.6209  142.0262  159.0325 H   0  0  0  0  0  0  0  0  0  0  0  0
  153.0137  141.1417  158.4365 H   0  0  0  0  0  0  0  0  0  0  0  0
  151.6938  140.2834  159.2111 H   0  0  0  0  0  0  0  0  0  0  0  0
  150.5093  142.9931  156.6273 H   0  0  0  0  0  0  0  0  0  0  0  0
  150.4425  139.7203  153.3002 H   0  0  0  0  0  0  0  0  0  0  0  0
  150.4748  137.2534  153.5079 H   0  0  0  0  0  0  0  0  0  0  0  0
  150.2474  137.3665  155.2496 H   0  0  0  0  0  0  0  0  0  0  0  0
  151.7316  137.9569  154.5104 H   0  0  0  0  0  0  0  0  0  0  0  0
  148.0754  138.6466  154.8705 H   0  0  0  0  0  0  0  0  0  0  0  0
  147.9858  141.1380  154.9834 H   0  0  0  0  0  0  0  0  0  0  0  0
  146.7387  140.5487  153.9129 H   0  0  0  0  0  0  0  0  0  0  0  0
  148.2104  141.2408  153.2408 H   0  0  0  0  0  0  0  0  0  0  0  0
  148.7979  138.7856  152.0598 H   0  0  0  0  0  0  0  0  0  0  0  0
  146.2936  139.4907  152.8727 H   0  0  0  0  0  0  0  0  0  0  0  0
  146.7824  139.0122  151.2489 H   0  0  0  0  0  0  0  0  0  0  0  0
  147.3647  136.2872  151.5805 H   0  0  0  0  0  0  0  0  0  0  0  0
  145.5976  134.6338  153.0338 H   0  0  0  0  0  0  0  0  0  0  0  0
  147.0947  134.2193  150.4159 H   0  0  0  0  0  0  0  0  0  0  0  0
  147.6654  133.8073  152.0178 H   0  0  0  0  0  0  0  0  0  0  0  0
  146.7490  131.8132  150.7987 H   0  0  0  0  0  0  0  0  0  0  0  0
  145.8399  132.1200  152.2652 H   0  0  0  0  0  0  0  0  0  0  0  0
  143.0359  133.5140  150.4615 H   0  0  0  0  0  0  0  0  0  0  0  0
  143.6315  133.1296  152.0644 H   0  0  0  0  0  0  0  0  0  0  0  0
  143.7595  135.5899  151.6662 H   0  0  0  0  0  0  0  0  0  0  0  0
  144.6764  135.3297  150.2011 H   0  0  0  0  0  0  0  0  0  0  0  0
  151.4244  138.7908  156.6520 H   0  0  0  0  0  0  0  0  0  0  0  0
  148.2649  137.5190  152.9479 H   0  0  0  0  0  0  0  0  0  0  0  0
  1  2  1  0  0  0  0
  1 22  1  0  0  0  0
  1 23  1  0  0  0  0
  1 24  1  0  0  0  0
  2 21  2  0  0  0  0
  2  3  1  0  0  0  0
  3  4  2  0  0  0  0
  3 25  1  0  0  0  0
  4  5  1  0  0  0  0
  5  6  1  0  0  0  0
  5 21  1  0  0  0  0
  6  7  1  0  0  0  0
  6  8  1  0  0  0  0
  6 26  1  0  0  0  0
  7 27  1  0  0  0  0
  7 28  1  0  0  0  0
  7 29  1  0  0  0  0
  8  9  1  0  0  0  0
  8 10  1  0  0  0  0
  8 30  1  0  0  0  0
  9 31  1  0  0  0  0
  9 32  1  0  0  0  0
  9 33  1  0  0  0  0
 10 11  1  0  0  0  0
 10 34  1  0  0  0  0
 10 48  1  0  0  0  0
 11 12  1  0  0  0  0
 11 35  1  0  0  0  0
 11 36  1  0  0  0  0
 12 13  2  0  0  0  0
 12 14  1  0  0  0  0
 14 15  1  0  0  0  0
 14 37  1  0  0  0  0
 15 20  1  0  0  0  0
 15 16  1  0  0  0  0
 15 38  1  0  0  0  0
 16 17  1  0  0  0  0
 16 39  1  0  0  0  0
 16 40  1  0  0  0  0
 17 18  1  0  0  0  0
 17 41  1  0  0  0  0
 17 42  1  0  0  0  0
 18 19  1  0  0  0  0
 19 20  1  0  0  0  0
 19 43  1  0  0  0  0
 19 44  1  0  0  0  0
 20 45  1  0  0  0  0
 20 46  1  0  0  0  0
 21 47  1  0  0  0  0
M  CHG  1  10   1
M  END
> <s_m_source_file>
AV-unprocessed.smi

> <i_m_source_file_index>
3028

> <i_lp_mmshare_version>
43012

> <i_f3d_flags>
0

> <s_epik_input>
W0NIM11jMVtjSF1ubihbY0hdMSlbQ0BIXShbQ0gzXSlbQ0BIXShbQ0gzXSlbTkhdW0NIMl1DKD1PKVtOSF1bQ0hdMltDSDJdW0NIMl1PW0NIMl1bQ0gyXTI=

> <s_epik_cmdline>
J2VwaWtfcHl0aG9uJywgJy1waCcsICc3LjAnLCAnLXRuJywgJzgnLCAnLW1hJywgJzIwMCcsICctbWV0YWxfYmluZGluZycsICctaW1hZScsICc8aW5maWxlLm1hZT4nLCAnLW9tYWUnLCAnPG91dGZpbGUubWFlPic=

> <r_lp_tautomer_probability>
1

> <r_epik_Ionization_Penalty>
0.151514

> <r_epik_Ionization_Penalty_Charging>
0.151494

> <r_epik_Ionization_Penalty_Neutral>
1.95502e-05

> <r_epik_State_Penalty>
0.141395

> <r_epik_Charging_Adjusted_Penalty>
0.292889

> <i_epik_Tot_Q>
1

> <i_epik_Tot_abs_Q>
1

> <r_epik_Metal_State_Penalty>
0.141632

> <b_epik_Metal_Only>
0

> <s_lp_Force_Field>
OPLS_2005

> <r_lp_Energy>
16.118

> <b_lp_Chiralities_Consistent>
1

> <s_lp_Variant>
AV-unprocessed.smi:3028-4

> <Gold.Version>
5.8.1

> <Gold.Id.Protein>
6NUR|6NUR_protein|mol2

> <Gold.PLP.Fitness>
51.6935

> <Gold.PLP.PLP>
-40.5979

> <Gold.PLP.part.hbond>
-3.7072

> <Gold.PLP.part.metal>
0.0000

> <Gold.PLP.part.buried>
-2.7791

> <Gold.PLP.part.nonpolar>
-34.4411

> <Gold.PLP.part.repulsive>
0.5787

> <Gold.PLP.ligand.clash>
0.0000

> <Gold.PLP.ligand.torsion>
0.7949

> <Gold.PLP.Chemscore.Hbond>
3.1120

> <Gold.PLP.Chemscore.CHOScore>
1.0000

> <Gold.PLP.Chemscore.Metal>
0.0000

> <Gold.Chemscore.Hbonds>
donor molecule, donor type, donor heavy atom, donor atom, acceptor molecule, acceptor atom, score
      L1  H    10    34       P1  7957  1.00
      L1  H    10    48       P1  7948  1.15
      L1  H    14    37       P1  7948  0.98
      L1  C     3    25       P1  8028  0.94

> <Gold.PLP.Chemscore.Internal.Correction>
0.3495

> <Gold.Rescore>
     Score         DG    S(hbond)    S(metal)    S(lipo)     H(rot)  DE(clash)    DE(int)     intcor
     16.90     -19.14       2.47        0.00      89.94       1.99       0.05       2.19       ----

> <Gold.Chemscore.Fitness>
16.8982

> <Gold.Chemscore.DG>
-19.1449

> <Gold.Chemscore.ZeroCoef>
-5.4800

> <Gold.Chemscore.Hbond>
2.4657

> <Gold.Chemscore.Metal>
0.0000

> <Gold.Chemscore.Lipo>
89.9419

> <Gold.Chemscore.Internal_Hbond>
0.0000

> <Gold.Chemscore.DEClash>
0.0525

> <Gold.Chemscore.DEInternal>
2.1943

> <Gold.Chemscore.Rot>
1.9897

> <Gold.Chemscore.Internal.Correction>
   9.000000E+99

> <Gold.Chemscore.Hbonds>
donor molecule, donor type, donor heavy atom, donor atom, acceptor molecule, acceptor atom, score
      L1  H    10    34       P1  7957  0.78
      L1  H    10    48       P1  7948  0.58
      L1  H    14    37       P1  7948  0.90

> <Gold.Chemscore.Hbond.Weighted>
-8.2353

> <Gold.Chemscore.Metal.Weighted>
-0.0000

> <Gold.Chemscore.Lipo.Weighted>
-10.5232

> <Gold.Chemscore.Internal_Hbond.Weighted>
0.0000

> <Gold.Chemscore.DEClash.Weighted>
0.0525

> <Gold.Chemscore.DEInternal.Weighted>
2.1943

> <Gold.Chemscore.Rot.Weighted>
5.0936

> <Gold.Chemscore.Internal.Correction.Weighted>
   9.000000E+99

> <Gold.Protein.RotatedTorsions>
[ 6907 6896 6895 6894 ] final  -28.98 input  -60.11 | X-H torsion
[ 7974 7965 7964 7962 ] final -159.41 input  175.53 | X-H torsion
[ 8008 7997 7996 7995 ] final   -7.07 input   59.86 | X-H torsion
[ 10167 10162 10161 10158 ] final  157.79 input  -65.29 | X-H torsion
[ 10718 10713 10712 10709 ] final  -88.64 input   66.30 | X-H torsion
[ 10763 10752 10751 10750 ] final  129.20 input  -60.55 | X-H torsion
[ 11005 11000 10999 10996 ] final   92.21 input  -57.11 | X-H torsion

> <Gold.Protein.ActiveResidues>
 VAL166  LYS551  ARG553  GLY616  TRP617  ASP618  TYR619  PRO620  LYS621  CYS622 
 ASP623  PHE694  ASN695  SER759  ASP760  ASP761  ALA762  ILE779  LEU786  VAL792 
 PHE793  MET794  SER795  GLU796  ALA797  LYS798  CYS799  TRP800  GLU811  SER814 

> <Gold.Protein.RotatedAtoms>
  151.1255  135.0102  159.8557 H   0  0  0  0  0  0  0  0  0  0  0  0  # atno 6907 bound_to 6896
  152.5449  134.1672  159.8592 H   0  0  0  0  0  0  0  0  0  0  0  0  # atno 6908 bound_to 6896
  151.1734  133.4725  159.2627 H   0  0  0  0  0  0  0  0  0  0  0  0  # atno 6909 bound_to 6896
  144.7466  140.3689  143.6080 H   0  0  0  0  0  0  0  0  0  0  0  0  # atno 7974 bound_to 7965
  154.5874  140.2416  155.7967 H   0  0  0  0  0  0  0  0  0  0  0  0  # atno 8008 bound_to 7997
  156.2223  140.2993  155.9938 H   0  0  0  0  0  0  0  0  0  0  0  0  # atno 8009 bound_to 7997
  155.2433  140.0408  157.2968 H   0  0  0  0  0  0  0  0  0  0  0  0  # atno 8010 bound_to 7997
  139.4824  144.4885  151.8342 H   0  0  0  0  0  0  0  0  0  0  0  0  # atno 10167 bound_to 10162
  155.9983  130.4843  150.5050 H   0  0  0  0  0  0  0  0  0  0  0  0  # atno 10718 bound_to 10713
  153.7379  135.3228  155.3298 H   0  0  0  0  0  0  0  0  0  0  0  0  # atno 10763 bound_to 10752
  154.8304  135.4537  154.1056 H   0  0  0  0  0  0  0  0  0  0  0  0  # atno 10764 bound_to 10752
  153.2222  135.6949  153.8068 H   0  0  0  0  0  0  0  0  0  0  0  0  # atno 10765 bound_to 10752
  139.8827  134.8719  156.3540 H   0  0  0  0  0  0  0  0  0  0  0  0  # atno 11005 bound_to 11000
  145.7099  139.1682  143.2545 LP  0  0  0  0  0  0  0  0  0  0  0  0  # atno 17320 bound_to 7965
  146.1354  140.7129  142.9392 LP  0  0  0  0  0  0  0  0  0  0  0  0  # atno 17321 bound_to 7965
  140.4367  144.2042  150.5889 LP  0  0  0  0  0  0  0  0  0  0  0  0  # atno 17342 bound_to 10162
  140.4725  143.2408  151.9070 LP  0  0  0  0  0  0  0  0  0  0  0  0  # atno 17343 bound_to 10162
  157.3030  131.0649  151.2055 LP  0  0  0  0  0  0  0  0  0  0  0  0  # atno 17370 bound_to 10713
  157.3027  130.6851  149.6173 LP  0  0  0  0  0  0  0  0  0  0  0  0  # atno 17371 bound_to 10713
  140.9575  133.7410  156.0355 LP  0  0  0  0  0  0  0  0  0  0  0  0  # atno 17394 bound_to 11000
  140.8030  134.3486  157.5434 LP  0  0  0  0  0  0  0  0  0  0  0  0  # atno 17395 bound_to 11000

$$$$
