AV-unprocessed.smi:1403|AV-procd|sdf|5697|dock5
  -GOLD-   22720 5323D 1   1.00000     0.00000
 Structure written by MMmdl.
 36 37  0  0  0  0  0  0  0  0  1 V2000
  151.2385  144.8164  158.5912 C   0  0  0  0  0  0  0  0  0  0  0  0
  152.2016  143.6173  158.6163 C   0  0  2  0  0  0  0  0  0  0  0  0
  151.9351  142.7555  157.4678 N   0  0  0  0  0  0  0  0  0  0  0  0
  150.7874  142.1013  157.2330 C   0  0  0  0  0  0  0  0  0  0  0  0
  149.8230  142.1309  157.9985 O   0  0  0  0  0  0  0  0  0  0  0  0
  150.7350  141.2645  155.9476 C   0  0  0  0  0  0  0  0  0  0  0  0
  151.2158  139.8903  156.1487 N   0  0  0  0  0  0  0  0  0  0  0  0
  150.5731  139.0444  157.0415 C   0  0  0  0  0  0  0  0  0  0  0  0
  150.9572  137.7652  157.2647 C   0  0  0  0  0  0  0  0  0  0  0  0
  152.1004  137.2023  156.5540 C   0  0  0  0  0  0  0  0  0  0  0  0
  152.5261  136.0574  156.6893 O   0  0  0  0  0  0  0  0  0  0  0  0
  152.7189  138.0835  155.6632 N   0  0  0  0  0  0  0  0  0  0  0  0
  152.3266  139.4019  155.4266 C   0  0  0  0  0  0  0  0  0  0  0  0
  152.9404  140.0932  154.6146 O   0  0  0  0  0  0  0  0  0  0  0  0
  152.0774  142.7884  159.9096 C   0  0  2  0  0  0  0  0  0  0  0  0
  152.2301  143.5956  161.2014 C   0  0  0  0  0  0  0  0  0  0  0  0
  152.7365  142.5489  162.1662 C   0  0  0  0  0  0  0  0  0  0  0  0
  153.6757  141.7455  161.2747 C   0  0  0  0  0  0  0  0  0  0  0  0
  153.1106  141.8042  159.9684 O   0  0  0  0  0  0  0  0  0  0  0  0
  153.5139  137.7376  155.1461 H   0  0  0  0  0  0  0  0  0  0  0  0
  151.4397  145.5053  159.4115 H   0  0  0  0  0  0  0  0  0  0  0  0
  150.2002  144.4936  158.6744 H   0  0  0  0  0  0  0  0  0  0  0  0
  151.3380  145.3818  157.6640 H   0  0  0  0  0  0  0  0  0  0  0  0
  153.2248  143.9926  158.5545 H   0  0  0  0  0  0  0  0  0  0  0  0
  152.6740  142.6708  156.7849 H   0  0  0  0  0  0  0  0  0  0  0  0
  149.7198  141.2521  155.5450 H   0  0  0  0  0  0  0  0  0  0  0  0
  151.3371  141.7711  155.1919 H   0  0  0  0  0  0  0  0  0  0  0  0
  149.7182  139.4174  157.5874 H   0  0  0  0  0  0  0  0  0  0  0  0
  150.4147  137.1546  157.9721 H   0  0  0  0  0  0  0  0  0  0  0  0
  151.1222  142.2611  159.9313 H   0  0  0  0  0  0  0  0  0  0  0  0
  152.9783  144.3806  161.0809 H   0  0  0  0  0  0  0  0  0  0  0  0
  151.2981  144.0589  161.5268 H   0  0  0  0  0  0  0  0  0  0  0  0
  153.2341  142.9718  163.0393 H   0  0  0  0  0  0  0  0  0  0  0  0
  151.9116  141.9228  162.5088 H   0  0  0  0  0  0  0  0  0  0  0  0
  154.6621  142.2098  161.2454 H   0  0  0  0  0  0  0  0  0  0  0  0
  153.7955  140.7161  161.6131 H   0  0  0  0  0  0  0  0  0  0  0  0
  1  2  1  0  0  0  0
  1 21  1  0  0  0  0
  1 22  1  0  0  0  0
  1 23  1  0  0  0  0
  2  3  1  0  0  0  0
  2 15  1  0  0  0  0
  2 24  1  0  0  0  0
  3  4  1  0  0  0  0
  3 25  1  0  0  0  0
  4  5  2  0  0  0  0
  4  6  1  0  0  0  0
  6  7  1  0  0  0  0
  6 26  1  0  0  0  0
  6 27  1  0  0  0  0
  7 13  1  0  0  0  0
  7  8  1  0  0  0  0
  8  9  2  0  0  0  0
  8 28  1  0  0  0  0
  9 10  1  0  0  0  0
  9 29  1  0  0  0  0
 10 11  2  0  0  0  0
 10 12  1  0  0  0  0
 12 20  1  0  0  0  0
 12 13  1  0  0  0  0
 13 14  2  0  0  0  0
 15 19  1  0  0  0  0
 15 16  1  0  0  0  0
 15 30  1  0  0  0  0
 16 17  1  0  0  0  0
 16 31  1  0  0  0  0
 16 32  1  0  0  0  0
 17 18  1  0  0  0  0
 17 33  1  0  0  0  0
 17 34  1  0  0  0  0
 18 19  1  0  0  0  0
 18 35  1  0  0  0  0
 18 36  1  0  0  0  0
M  END
> <s_m_source_file>
AV-unprocessed.smi

> <i_m_source_file_index>
1403

> <i_lp_mmshare_version>
43012

> <i_f3d_flags>
0

> <s_epik_input>
TzFbQ0gyXVtDSDJdW0NIMl1bQ0BIXTFbQ0BIXShbQ0gzXSlbTkhdQyg9TylbQ0gyXW4yW2NIXVtjSF1jKD1PKVtuSF1jMj1P

> <s_epik_cmdline>
J2VwaWtfcHl0aG9uJywgJy1waCcsICc3LjAnLCAnLXRuJywgJzgnLCAnLW1hJywgJzIwMCcsICctbWV0YWxfYmluZGluZycsICctaW1hZScsICc8aW5maWxlLm1hZT4nLCAnLW9tYWUnLCAnPG91dGZpbGUubWFlPic=

> <r_lp_tautomer_probability>
0.999537

> <r_epik_Ionization_Penalty>
0.00331407

> <r_epik_Ionization_Penalty_Charging>
0.00331405

> <r_epik_Ionization_Penalty_Neutral>
2.30132e-08

> <r_epik_State_Penalty>
0.00234266

> <r_epik_Charging_Adjusted_Penalty>
0.00565671

> <i_epik_Tot_Q>
0

> <i_epik_Tot_abs_Q>
0

> <r_epik_Metal_State_Penalty>
0.365604

> <b_epik_Metal_Only>
0

> <s_lp_Force_Field>
OPLS_2005

> <r_lp_Energy>
18.7727

> <b_lp_Chiralities_Consistent>
1

> <s_lp_Variant>
AV-unprocessed.smi:1403-1

> <Gold.Version>
5.8.1

> <Gold.Id.Protein>
6NUR|6NUR_protein|mol2

> <Gold.PLP.Fitness>
43.4478

> <Gold.PLP.PLP>
-37.0229

> <Gold.PLP.part.hbond>
-2.9781

> <Gold.PLP.part.metal>
0.0000

> <Gold.PLP.part.buried>
-1.8889

> <Gold.PLP.part.nonpolar>
-32.3863

> <Gold.PLP.part.repulsive>
0.3610

> <Gold.PLP.ligand.clash>
0.0000

> <Gold.PLP.ligand.torsion>
0.4183

> <Gold.PLP.Chemscore.Hbond>
2.4160

> <Gold.PLP.Chemscore.CHOScore>
0.0000

> <Gold.PLP.Chemscore.Metal>
0.0000

> <Gold.Chemscore.Hbonds>
donor molecule, donor type, donor heavy atom, donor atom, acceptor molecule, acceptor atom, score
      P1  H  7989  7998       L1    14  0.26
      P1  H  7997  8009       L1    14  0.70
      P1  H 10752 10765       L1    11  1.00

> <Gold.PLP.Chemscore.Internal.Correction>
0.0135

> <Gold.Rescore>
     Score         DG    S(hbond)    S(metal)    S(lipo)     H(rot)  DE(clash)    DE(int)     intcor
     13.58     -15.16       1.64        0.00      80.69       2.04       0.13       1.45       ----

> <Gold.Chemscore.Fitness>
13.5819

> <Gold.Chemscore.DG>
-15.1613

> <Gold.Chemscore.ZeroCoef>
-5.4800

> <Gold.Chemscore.Hbond>
1.6354

> <Gold.Chemscore.Metal>
0.0000

> <Gold.Chemscore.Lipo>
80.6863

> <Gold.Chemscore.Internal_Hbond>
0.0000

> <Gold.Chemscore.DEClash>
0.1308

> <Gold.Chemscore.DEInternal>
1.4487

> <Gold.Chemscore.Rot>
2.0395

> <Gold.Chemscore.Internal.Correction>
   9.000000E+99

> <Gold.Chemscore.Hbonds>
donor molecule, donor type, donor heavy atom, donor atom, acceptor molecule, acceptor atom, score
      P1  H  7989  7998       L1    14  0.17
      P1  H  7997  8009       L1    14  0.07
      P1  H 10752 10765       L1    11  0.91

> <Gold.Chemscore.Hbond.Weighted>
-5.4621

> <Gold.Chemscore.Metal.Weighted>
-0.0000

> <Gold.Chemscore.Lipo.Weighted>
-9.4403

> <Gold.Chemscore.Internal_Hbond.Weighted>
0.0000

> <Gold.Chemscore.DEClash.Weighted>
0.1308

> <Gold.Chemscore.DEInternal.Weighted>
1.4487

> <Gold.Chemscore.Rot.Weighted>
5.2211

> <Gold.Chemscore.Internal.Correction.Weighted>
   9.000000E+99

> <Gold.Protein.RotatedTorsions>
[ 6907 6896 6895 6894 ] final  -33.05 input  -60.11 | X-H torsion
[ 7974 7965 7964 7962 ] final  152.58 input  175.53 | X-H torsion
[ 8008 7997 7996 7995 ] final -125.40 input   59.86 | X-H torsion
[ 10167 10162 10161 10158 ] final  -34.71 input  -65.29 | X-H torsion
[ 10718 10713 10712 10709 ] final -160.81 input   66.30 | X-H torsion
[ 10763 10752 10751 10750 ] final -130.35 input  -60.55 | X-H torsion
[ 11005 11000 10999 10996 ] final  -34.12 input  -57.11 | X-H torsion

> <Gold.Protein.ActiveResidues>
 VAL166  LYS551  ARG553  GLY616  TRP617  ASP618  TYR619  PRO620  LYS621  CYS622 
 ASP623  PHE694  ASN695  SER759  ASP760  ASP761  ALA762  ILE779  LEU786  VAL792 
 PHE793  MET794  SER795  GLU796  ALA797  LYS798  CYS799  TRP800  GLU811  SER814 

> <Gold.Protein.RotatedAtoms>
  151.0707  134.9797  159.8306 H   0  0  0  0  0  0  0  0  0  0  0  0  # atno 6907 bound_to 6896
  152.5408  134.2302  159.8832 H   0  0  0  0  0  0  0  0  0  0  0  0  # atno 6908 bound_to 6896
  151.2327  133.4398  159.2638 H   0  0  0  0  0  0  0  0  0  0  0  0  # atno 6909 bound_to 6896
  144.8213  139.6687  143.6099 H   0  0  0  0  0  0  0  0  0  0  0  0  # atno 7974 bound_to 7965
  155.2126  140.0419  157.2936 H   0  0  0  0  0  0  0  0  0  0  0  0  # atno 8008 bound_to 7997
  154.6001  140.2450  155.7775 H   0  0  0  0  0  0  0  0  0  0  0  0  # atno 8009 bound_to 7997
  156.2316  140.2936  156.0211 H   0  0  0  0  0  0  0  0  0  0  0  0  # atno 8010 bound_to 7997
  140.7180  143.3528  151.2120 H   0  0  0  0  0  0  0  0  0  0  0  0  # atno 10167 bound_to 10162
  156.5873  130.8755  151.2880 H   0  0  0  0  0  0  0  0  0  0  0  0  # atno 10718 bound_to 10713
  154.8755  135.3865  154.4069 H   0  0  0  0  0  0  0  0  0  0  0  0  # atno 10763 bound_to 10752
  153.4787  135.7030  153.5956 H   0  0  0  0  0  0  0  0  0  0  0  0  # atno 10764 bound_to 10752
  153.4381  135.3862  155.2179 H   0  0  0  0  0  0  0  0  0  0  0  0  # atno 10765 bound_to 10752
  140.9691  133.7120  156.1493 H   0  0  0  0  0  0  0  0  0  0  0  0  # atno 11005 bound_to 11000
  146.2518  139.6216  142.9422 LP  0  0  0  0  0  0  0  0  0  0  0  0  # atno 17320 bound_to 7965
  145.5099  141.0435  143.2493 LP  0  0  0  0  0  0  0  0  0  0  0  0  # atno 17321 bound_to 7965
  139.7063  143.9450  152.2928 LP  0  0  0  0  0  0  0  0  0  0  0  0  # atno 17342 bound_to 10162
  139.9160  144.6828  150.8512 LP  0  0  0  0  0  0  0  0  0  0  0  0  # atno 17343 bound_to 10162
  157.7312  130.9697  150.1869 LP  0  0  0  0  0  0  0  0  0  0  0  0  # atno 17370 bound_to 10713
  156.2580  130.3707  149.8161 LP  0  0  0  0  0  0  0  0  0  0  0  0  # atno 17371 bound_to 10713
  140.7356  134.4206  157.5561 LP  0  0  0  0  0  0  0  0  0  0  0  0  # atno 17394 bound_to 11000
  139.8905  134.8802  156.2365 LP  0  0  0  0  0  0  0  0  0  0  0  0  # atno 17395 bound_to 11000

$$$$
