AV-unprocessed.smi:3329|AV-procd|sdf|12800|dock5
  -GOLD-   2272019163D 1   1.00000     0.00000
 Structure written by MMmdl.
 41 42  0  0  0  0  0  0  0  0  3 V2000
  143.6345  132.4814  150.2426 C   0  0  0  0  0  0  0  0  0  0  0  0
  144.1563  133.6030  151.0935 C   0  0  0  0  0  0  0  0  0  0  0  0
  144.2430  133.6521  152.5138 C   0  0  0  0  0  0  0  0  0  0  0  0
  144.7523  134.7891  152.9593 N   0  0  0  0  0  0  0  0  0  0  0  0
  145.0096  135.5033  151.8437 N   0  0  0  0  0  0  0  0  0  0  0  0
  145.5989  136.8260  151.9548 C   0  0  0  0  0  0  0  0  0  0  0  0
  145.9724  137.1717  153.4055 C   0  0  0  0  0  0  0  0  0  0  0  0
  147.1707  136.4262  153.8339 N   0  3  0  0  0  0  0  0  0  0  0  0
  147.7195  136.8307  155.1428 C   0  0  0  0  0  0  0  0  0  0  0  0
  148.0872  138.3146  155.0922 C   0  0  0  0  0  0  0  0  0  0  0  0
  147.1963  139.1519  154.9598 O   0  0  0  0  0  0  0  0  0  0  0  0
  149.4276  138.5008  155.1963 N   0  5  0  0  0  0  0  0  0  0  0  0
  150.0536  139.8194  155.2908 C   0  0  2  0  0  0  0  0  0  0  0  0
  149.8865  140.3789  156.7173 C   0  0  0  0  0  0  0  0  0  0  0  0
  149.4676  140.7560  154.3065 C   0  0  0  0  0  0  0  0  0  0  0  0
  149.0093  141.4894  153.5365 N   0  0  0  0  0  0  0  0  0  0  0  0
  151.5400  139.6185  155.0000 C   0  0  0  0  0  0  0  0  0  0  0  0
  152.0526  138.4447  154.1945 C   0  0  0  0  0  0  0  0  0  0  0  0
  152.3651  138.5416  155.6703 C   0  0  0  0  0  0  0  0  0  0  0  0
  144.6575  134.8124  150.7031 C   0  0  0  0  0  0  0  0  0  0  0  0
  142.5488  132.4053  150.3006 H   0  0  0  0  0  0  0  0  0  0  0  0
  144.0414  131.5188  150.5529 H   0  0  0  0  0  0  0  0  0  0  0  0
  143.8921  132.6145  149.1917 H   0  0  0  0  0  0  0  0  0  0  0  0
  143.9527  132.8977  153.2304 H   0  0  0  0  0  0  0  0  0  0  0  0
  146.4794  136.8736  151.3124 H   0  0  0  0  0  0  0  0  0  0  0  0
  144.8867  137.5549  151.5659 H   0  0  0  0  0  0  0  0  0  0  0  0
  146.1676  138.2406  153.4975 H   0  0  0  0  0  0  0  0  0  0  0  0
  145.1398  136.9399  154.0713 H   0  0  0  0  0  0  0  0  0  0  0  0
  146.9264  135.4484  153.9116 H   0  0  0  0  0  0  0  0  0  0  0  0
  146.9814  136.6480  155.9250 H   0  0  0  0  0  0  0  0  0  0  0  0
  148.6072  136.2426  155.3816 H   0  0  0  0  0  0  0  0  0  0  0  0
  150.4142  141.3270  156.8260 H   0  0  0  0  0  0  0  0  0  0  0  0
  150.2867  139.6941  157.4661 H   0  0  0  0  0  0  0  0  0  0  0  0
  148.8406  140.5648  156.9627 H   0  0  0  0  0  0  0  0  0  0  0  0
  152.0664  140.5555  154.8221 H   0  0  0  0  0  0  0  0  0  0  0  0
  151.3407  137.6841  153.8804 H   0  0  0  0  0  0  0  0  0  0  0  0
  152.8654  138.6343  153.4964 H   0  0  0  0  0  0  0  0  0  0  0  0
  153.3838  138.7992  155.9509 H   0  0  0  0  0  0  0  0  0  0  0  0
  151.8616  137.8494  156.3417 H   0  0  0  0  0  0  0  0  0  0  0  0
  144.7952  135.2311  149.7170 H   0  0  0  0  0  0  0  0  0  0  0  0
  147.8949  136.5189  153.1366 H   0  0  0  0  0  0  0  0  0  0  0  0
  1  2  1  0  0  0  0
  1 21  1  0  0  0  0
  1 22  1  0  0  0  0
  1 23  1  0  0  0  0
  2 20  2  0  0  0  0
  2  3  1  0  0  0  0
  3  4  2  0  0  0  0
  3 24  1  0  0  0  0
  4  5  1  0  0  0  0
  5  6  1  0  0  0  0
  5 20  1  0  0  0  0
  6  7  1  0  0  0  0
  6 25  1  0  0  0  0
  6 26  1  0  0  0  0
  7  8  1  0  0  0  0
  7 27  1  0  0  0  0
  7 28  1  0  0  0  0
  8  9  1  0  0  0  0
  8 29  1  0  0  0  0
  8 41  1  0  0  0  0
  9 10  1  0  0  0  0
  9 30  1  0  0  0  0
  9 31  1  0  0  0  0
 10 11  2  0  0  0  0
 10 12  1  0  0  0  0
 12 13  1  0  0  0  0
 13 14  1  0  0  0  0
 13 15  1  0  0  0  0
 13 17  1  0  0  0  0
 14 32  1  0  0  0  0
 14 33  1  0  0  0  0
 14 34  1  0  0  0  0
 15 16  3  0  0  0  0
 17 19  1  0  0  0  0
 17 18  1  0  0  0  0
 17 35  1  0  0  0  0
 18 19  1  0  0  0  0
 18 36  1  0  0  0  0
 18 37  1  0  0  0  0
 19 38  1  0  0  0  0
 19 39  1  0  0  0  0
 20 40  1  0  0  0  0
M  CHG  1   8   1
M  CHG  1  12  -1
M  END
> <s_m_source_file>
AV-unprocessed.smi

> <i_m_source_file_index>
3329

> <i_lp_mmshare_version>
43012

> <i_f3d_flags>
0

> <s_epik_input>
W0NIM11jMVtjSF1ubihbY0hdMSlbQ0gyXVtDSDJdW05IXVtDSDJdQyg9TylbTkhdW0NAQF0oW0NIM10pKEMjTilbQ0hdMltDSDJdW0NIMl0y

> <s_epik_cmdline>
J2VwaWtfcHl0aG9uJywgJy1waCcsICc3LjAnLCAnLXRuJywgJzgnLCAnLW1hJywgJzIwMCcsICctbWV0YWxfYmluZGluZycsICctaW1hZScsICc8aW5maWxlLm1hZT4nLCAnLW9tYWUnLCAnPG91dGZpbGUubWFlPic=

> <r_lp_tautomer_probability>
1

> <r_epik_Ionization_Penalty>
5.61187

> <r_epik_Ionization_Penalty_Charging>
5.61186

> <r_epik_Ionization_Penalty_Neutral>
4.91277e-06

> <r_epik_State_Penalty>
5.94522

> <r_epik_Charging_Adjusted_Penalty>
11.5571

> <i_epik_Tot_Q>
0

> <i_epik_Tot_abs_Q>
2

> <r_epik_Metal_State_Penalty>
1.9215

> <b_epik_Metal_Only>
1

> <s_lp_Force_Field>
OPLS_2005

> <r_lp_Energy>
5.18635

> <b_lp_Chiralities_Consistent>
1

> <s_lp_Variant>
AV-unprocessed.smi:3329-6

> <Gold.Version>
5.8.1

> <Gold.Id.Protein>
6NUR|6NUR_protein|mol2

> <Gold.PLP.Fitness>
45.2345

> <Gold.PLP.PLP>
-31.8100

> <Gold.PLP.part.hbond>
-2.6282

> <Gold.PLP.part.metal>
0.0000

> <Gold.PLP.part.buried>
-3.4849

> <Gold.PLP.part.nonpolar>
-26.7788

> <Gold.PLP.part.repulsive>
0.9312

> <Gold.PLP.ligand.clash>
0.0000

> <Gold.PLP.ligand.torsion>
1.2883

> <Gold.PLP.Chemscore.Hbond>
2.7680

> <Gold.PLP.Chemscore.CHOScore>
1.9953

> <Gold.PLP.Chemscore.Metal>
0.0000

> <Gold.Chemscore.Hbonds>
donor molecule, donor type, donor heavy atom, donor atom, acceptor molecule, acceptor atom, score
      L1  H     8    41       P1  7948  2.00
      P1  H  8011  8017       L1    16  0.82
      L1  C     3    24       P1 10957  1.00
      L1  C    20    40       P1  7921  1.00

> <Gold.PLP.Chemscore.Internal.Correction>
1.7113

> <Gold.Rescore>
     Score         DG    S(hbond)    S(metal)    S(lipo)     H(rot)  DE(clash)    DE(int)     intcor
      9.38     -13.95       1.84        0.00      70.59       2.31       0.64       3.94       ----

> <Gold.Chemscore.Fitness>
9.3757

> <Gold.Chemscore.DG>
-13.9525

> <Gold.Chemscore.ZeroCoef>
-5.4800

> <Gold.Chemscore.Hbond>
1.8377

> <Gold.Chemscore.Metal>
0.0000

> <Gold.Chemscore.Lipo>
70.5857

> <Gold.Chemscore.Internal_Hbond>
0.0000

> <Gold.Chemscore.DEClash>
0.6369

> <Gold.Chemscore.DEInternal>
3.9399

> <Gold.Chemscore.Rot>
2.3140

> <Gold.Chemscore.Internal.Correction>
   9.000000E+99

> <Gold.Chemscore.Hbonds>
donor molecule, donor type, donor heavy atom, donor atom, acceptor molecule, acceptor atom, score
      L1  H     8    41       P1  7948  1.00
      P1  H  8011  8017       L1    16  0.81

> <Gold.Chemscore.Hbond.Weighted>
-6.1378

> <Gold.Chemscore.Metal.Weighted>
-0.0000

> <Gold.Chemscore.Lipo.Weighted>
-8.2585

> <Gold.Chemscore.Internal_Hbond.Weighted>
0.0000

> <Gold.Chemscore.DEClash.Weighted>
0.6369

> <Gold.Chemscore.DEInternal.Weighted>
3.9399

> <Gold.Chemscore.Rot.Weighted>
5.9238

> <Gold.Chemscore.Internal.Correction.Weighted>
   9.000000E+99

> <Gold.Protein.RotatedTorsions>
[ 6907 6896 6895 6894 ] final  144.14 input  -60.11 | X-H torsion
[ 7974 7965 7964 7962 ] final   32.26 input  175.53 | X-H torsion
[ 8008 7997 7996 7995 ] final -150.68 input   59.86 | X-H torsion
[ 10167 10162 10161 10158 ] final -109.57 input  -65.29 | X-H torsion
[ 10718 10713 10712 10709 ] final   13.89 input   66.30 | X-H torsion
[ 10763 10752 10751 10750 ] final -121.36 input  -60.55 | X-H torsion
[ 11005 11000 10999 10996 ] final  -69.23 input  -57.11 | X-H torsion

> <Gold.Protein.ActiveResidues>
 VAL166  LYS551  ARG553  GLY616  TRP617  ASP618  TYR619  PRO620  LYS621  CYS622 
 ASP623  PHE694  ASN695  SER759  ASP760  ASP761  ALA762  ILE779  LEU786  VAL792 
 PHE793  MET794  SER795  GLU796  ALA797  LYS798  CYS799  TRP800  GLU811  SER814 

> <Gold.Protein.RotatedAtoms>
  152.1974  133.4816  159.5040 H   0  0  0  0  0  0  0  0  0  0  0  0  # atno 6907 bound_to 6896
  150.6963  134.1634  159.4194 H   0  0  0  0  0  0  0  0  0  0  0  0  # atno 6908 bound_to 6896
  151.9550  135.0150  160.0595 H   0  0  0  0  0  0  0  0  0  0  0  0  # atno 6909 bound_to 6896
  146.1498  139.6550  142.9106 H   0  0  0  0  0  0  0  0  0  0  0  0  # atno 7974 bound_to 7965
  155.6274  140.0688  157.2659 H   0  0  0  0  0  0  0  0  0  0  0  0  # atno 8008 bound_to 7997
  154.4214  140.1773  156.1485 H   0  0  0  0  0  0  0  0  0  0  0  0  # atno 8009 bound_to 7997
  155.9960  140.3340  155.6802 H   0  0  0  0  0  0  0  0  0  0  0  0  # atno 8010 bound_to 7997
  140.1539  143.4176  152.1475 H   0  0  0  0  0  0  0  0  0  0  0  0  # atno 10167 bound_to 10162
  157.0311  130.6193  149.5735 H   0  0  0  0  0  0  0  0  0  0  0  0  # atno 10718 bound_to 10713
  154.8666  135.4170  154.2608 H   0  0  0  0  0  0  0  0  0  0  0  0  # atno 10763 bound_to 10752
  153.3537  135.7000  153.6774 H   0  0  0  0  0  0  0  0  0  0  0  0  # atno 10764 bound_to 10752
  153.5703  135.3592  155.2807 H   0  0  0  0  0  0  0  0  0  0  0  0  # atno 10765 bound_to 10752
  141.1549  133.6759  156.6567 H   0  0  0  0  0  0  0  0  0  0  0  0  # atno 11005 bound_to 11000
  145.4851  141.0438  143.2624 LP  0  0  0  0  0  0  0  0  0  0  0  0  # atno 17320 bound_to 7965
  144.7890  139.6367  143.7121 LP  0  0  0  0  0  0  0  0  0  0  0  0  # atno 17321 bound_to 7965
  139.5413  144.7259  151.4725 LP  0  0  0  0  0  0  0  0  0  0  0  0  # atno 17342 bound_to 10162
  140.6685  143.8344  150.6971 LP  0  0  0  0  0  0  0  0  0  0  0  0  # atno 17343 bound_to 10162
  156.0069  130.5157  150.7860 LP  0  0  0  0  0  0  0  0  0  0  0  0  # atno 17370 bound_to 10713
  157.5176  131.0929  151.0119 LP  0  0  0  0  0  0  0  0  0  0  0  0  # atno 17371 bound_to 10713
  140.3279  134.7953  157.4303 LP  0  0  0  0  0  0  0  0  0  0  0  0  # atno 17394 bound_to 11000
  140.1041  134.5432  155.8325 LP  0  0  0  0  0  0  0  0  0  0  0  0  # atno 17395 bound_to 11000

$$$$
