#       Name:                AV-unprocessed.smi:3348
#       Creating user name   scv26
#       Creation time:       Fri Mar 27 19:33:30 2020


#       File generated by GOLD software.
#

@<TRIPOS>MOLECULE
AV-unprocessed.smi:3348
    50    51     1
SMALL
NO_CHARGES


@<TRIPOS>ATOM
      1 ****        -3.1219   1.8758  -0.7563 C.3            1 S1                 0.0000
      2 ****        -1.6483   2.3047  -0.7387 C.3            1 S1                 0.0000
      3 ****        -1.3741   3.3229  -1.8691 C.3            1 S1                 0.0000
      4 ****        -0.0596   3.9352  -1.8005 N.pl3          1 S1                 0.0000
      5 ****         0.9645   3.8696  -2.7222 C.2            1 S1                 0.0000
      6 ****         1.9991   4.6147  -2.2335 C.2            1 S1                 0.0000
      7 ****         1.5028   5.1127  -0.9963 C.2            1 S1                 0.0000
      8 ****         0.2684   4.7085  -0.7426 N.2            1 S1                 0.0000
      9 ****        -0.7945   1.1000  -0.8622 N.4            1 S1                 1.0000
     10 ****         0.4713   1.1321  -0.0984 C.3            1 S1                 0.0000
     11 ****         1.2181  -0.1989  -0.2191 C.3            1 S1                 0.0000
     12 ****         0.4572  -1.2005   0.4378 O.3            1 S1                 0.0000
     13 ****         1.0617  -2.4895   0.4569 C.3            1 S1                 0.0000
     14 ****         2.0540  -2.5986   1.6347 C.3            1 S1                 0.0000
     15 ****         1.3382  -2.4930   2.9913 C.3            1 S1                 0.0000
     16 ****         0.2236  -3.5427   3.1150 C.3            1 S1                 0.0000
     17 ****        -0.7699  -3.4452   1.9460 C.3            1 S1                 0.0000
     18 ****        -0.0546  -3.5503   0.5837 C.3            1 S1                 0.0000
     19 ****        -1.0451  -3.4883  -0.5897 C.3            1 S1                 0.0000
     20 ****        -3.7818   2.7328  -0.6180 H              1 S1                 0.0000
     21 ****        -3.3355   1.1668   0.0445 H              1 S1                 0.0000
     22 ****        -3.3876   1.4012  -1.7016 H              1 S1                 0.0000
     23 ****        -1.4668   2.7732   0.2299 H              1 S1                 0.0000
     24 ****        -1.4887   2.8481  -2.8445 H              1 S1                 0.0000
     25 ****        -2.1098   4.1276  -1.8315 H              1 S1                 0.0000
     26 ****         0.8748   3.3031  -3.6375 H              1 S1                 0.0000
     27 ****         2.9620   4.7829  -2.6927 H              1 S1                 0.0000
     28 ****         1.9986   5.7528  -0.2813 H              1 S1                 0.0000
     29 ****        -1.3247   0.3191  -0.5019 H              1 S1                 0.0000
     30 ****         1.1079   1.9323  -0.4717 H              1 S1                 0.0000
     31 ****         0.2674   1.3476   0.9512 H              1 S1                 0.0000
     32 ****         1.3716  -0.4585  -1.2677 H              1 S1                 0.0000
     33 ****         2.2011  -0.1034   0.2421 H              1 S1                 0.0000
     34 ****         1.5925  -2.6622  -0.4812 H              1 S1                 0.0000
     35 ****         2.5712  -3.5572   1.5786 H              1 S1                 0.0000
     36 ****         2.8305  -1.8375   1.5642 H              1 S1                 0.0000
     37 ****         2.0569  -2.6183   3.8017 H              1 S1                 0.0000
     38 ****         0.9152  -1.4943   3.1070 H              1 S1                 0.0000
     39 ****         0.6634  -4.5406   3.1383 H              1 S1                 0.0000
     40 ****        -0.3021  -3.4153   4.0617 H              1 S1                 0.0000
     41 ****        -1.5156  -4.2357   2.0377 H              1 S1                 0.0000
     42 ****        -1.3142  -2.5019   2.0083 H              1 S1                 0.0000
     43 ****         0.4227  -4.5307   0.5417 H              1 S1                 0.0000
     44 ****        -1.5896  -2.5437  -0.6050 H              1 S1                 0.0000
     45 ****        -1.7792  -4.2920  -0.5244 H              1 S1                 0.0000
     46 ****        -0.5293  -3.5913  -1.5448 H              1 S1                 0.0000
     47 ****        -0.6012   0.9276  -1.8383 H              1 S1                 0.0000
     48 ****        -0.2954   4.9267   0.0540 LP             1 S1                 0.0000
     49 ****        -0.4248  -1.2769  -0.0272 LP             1 S1                 0.0000
     50 ****         0.3113  -0.9108   1.3837 LP             1 S1                 0.0000
@<TRIPOS>BOND
    1    1    2 1     
    2    1   20 1     
    3    1   21 1     
    4    1   22 1     
    5    2    3 1     
    6    2    9 1     
    7    2   23 1     
    8    3    4 1     
    9    3   24 1     
   10    3   25 1     
   11    4    8 1     
   12    4    5 1     
   13    5    6 2     
   14    5   26 1     
   15    6    7 1     
   16    6   27 1     
   17    7    8 2     
   18    7   28 1     
   19    9   10 1     
   20    9   29 1     
   21    9   47 1     
   22   10   11 1     
   23   10   30 1     
   24   10   31 1     
   25   11   12 1     
   26   11   32 1     
   27   11   33 1     
   28   12   13 1     
   29   13   18 1     
   30   13   14 1     
   31   13   34 1     
   32   14   15 1     
   33   14   35 1     
   34   14   36 1     
   35   15   16 1     
   36   15   37 1     
   37   15   38 1     
   38   16   17 1     
   39   16   39 1     
   40   16   40 1     
   41   17   18 1     
   42   17   41 1     
   43   17   42 1     
   44   18   19 1     
   45   18   43 1     
   46   19   44 1     
   47   19   45 1     
   48   19   46 1     
   49    8   48 1     
   50   12   49 1     
   51   12   50 1     
@<TRIPOS>SUBSTRUCTURE
      1 S1             1
@<TRIPOS>SET
LONE_PAIRS      STATIC     ATOMS    <user>   **** ""
3 48 49 50
DONOR_HYDROGENS      STATIC     ATOMS    <user>   **** ""
2 29 47
ATOM$BLUE        STATIC     ATOMS    COLORGROUP SYSTEM
3 48 49 50
ATOM$RED        STATIC     ATOMS    COLORGROUP SYSTEM
2 29 47
