AV-unprocessed.smi:307|AV-procd|sdf|2284|dock4
  -GOLD-   2262022183D 1   1.00000     0.00000
 Structure written by MMmdl.
 38 39  0  0  0  0  0  0  0  0  1 V2000
  146.2282  138.9902  154.0620 O   0  0  0  0  0  0  0  0  0  0  0  0
  147.0947  138.3514  153.4693 C   0  0  0  0  0  0  0  0  0  0  0  0
  148.4214  138.5075  153.6477 N   0  0  0  0  0  0  0  0  0  0  0  0
  149.1085  139.4306  154.4818 C   0  0  0  0  0  0  0  0  0  0  0  0
  148.4763  140.4137  155.2800 C   0  0  0  0  0  0  0  0  0  0  0  0
  149.2744  141.2793  156.0525 C   0  0  0  0  0  0  0  0  0  0  0  0
  150.6757  141.1445  155.9995 C   0  0  0  0  0  0  0  0  0  0  0  0
  151.4496  141.9941  156.7625 O   0  0  0  0  0  0  0  0  0  0  0  0
  150.8167  142.7519  157.7903 C   0  0  0  0  0  0  0  0  0  0  0  0
  151.8392  143.7091  158.4135 C   0  0  0  0  0  0  0  0  0  0  0  0
  151.2589  144.3933  159.3988 F   0  0  0  0  0  0  0  0  0  0  0  0
  152.8657  143.0235  158.9158 F   0  0  0  0  0  0  0  0  0  0  0  0
  152.2816  144.5707  157.4979 F   0  0  0  0  0  0  0  0  0  0  0  0
  151.2888  140.2152  155.2258 N   0  0  0  0  0  0  0  0  0  0  0  0
  150.5180  139.3884  154.4882 C   0  0  0  0  0  0  0  0  0  0  0  0
  146.7662  137.3968  152.5796 N   0  0  0  0  0  0  0  0  0  0  0  0
  145.4315  136.9708  152.1518 C   0  0  0  0  0  0  0  0  0  0  0  0
  144.5550  136.5971  153.3609 C   0  0  0  0  0  0  0  0  0  0  0  0
  143.2185  135.9946  152.8984 C   0  0  0  0  0  0  0  0  0  0  0  0
  143.4546  134.8665  152.0628 O   0  0  0  0  0  0  0  0  0  0  0  0
  144.1599  135.1977  150.8715 C   0  0  0  0  0  0  0  0  0  0  0  0
  145.5501  135.7546  151.2206 C   0  0  0  0  0  0  0  0  0  0  0  0
  149.0102  137.8544  153.1518 H   0  0  0  0  0  0  0  0  0  0  0  0
  147.4047  140.5324  155.3079 H   0  0  0  0  0  0  0  0  0  0  0  0
  148.8183  142.0363  156.6733 H   0  0  0  0  0  0  0  0  0  0  0  0
  149.9829  143.3243  157.3801 H   0  0  0  0  0  0  0  0  0  0  0  0
  150.4195  142.0872  158.5596 H   0  0  0  0  0  0  0  0  0  0  0  0
  151.0473  138.6651  153.8852 H   0  0  0  0  0  0  0  0  0  0  0  0
  147.5369  136.8997  152.1566 H   0  0  0  0  0  0  0  0  0  0  0  0
  144.9494  137.7737  151.5911 H   0  0  0  0  0  0  0  0  0  0  0  0
  145.0774  135.8716  153.9863 H   0  0  0  0  0  0  0  0  0  0  0  0
  144.3691  137.4703  153.9868 H   0  0  0  0  0  0  0  0  0  0  0  0
  142.6329  135.6773  153.7614 H   0  0  0  0  0  0  0  0  0  0  0  0
  142.6222  136.7366  152.3652 H   0  0  0  0  0  0  0  0  0  0  0  0
  144.2586  134.3006  150.2602 H   0  0  0  0  0  0  0  0  0  0  0  0
  143.5875  135.9193  150.2867 H   0  0  0  0  0  0  0  0  0  0  0  0
  146.0829  136.0256  150.3085 H   0  0  0  0  0  0  0  0  0  0  0  0
  146.1365  134.9718  151.7041 H   0  0  0  0  0  0  0  0  0  0  0  0
  1  2  2  0  0  0  0
  2  3  1  0  0  0  0
  2 16  1  0  0  0  0
  3  4  1  0  0  0  0
  3 23  1  0  0  0  0
  4 15  1  0  0  0  0
  4  5  2  0  0  0  0
  5  6  1  0  0  0  0
  5 24  1  0  0  0  0
  6  7  2  0  0  0  0
  6 25  1  0  0  0  0
  7  8  1  0  0  0  0
  7 14  1  0  0  0  0
  8  9  1  0  0  0  0
  9 10  1  0  0  0  0
  9 26  1  0  0  0  0
  9 27  1  0  0  0  0
 10 11  1  0  0  0  0
 10 12  1  0  0  0  0
 10 13  1  0  0  0  0
 14 15  2  0  0  0  0
 15 28  1  0  0  0  0
 16 17  1  0  0  0  0
 16 29  1  0  0  0  0
 17 22  1  0  0  0  0
 17 18  1  0  0  0  0
 17 30  1  0  0  0  0
 18 19  1  0  0  0  0
 18 31  1  0  0  0  0
 18 32  1  0  0  0  0
 19 20  1  0  0  0  0
 19 33  1  0  0  0  0
 19 34  1  0  0  0  0
 20 21  1  0  0  0  0
 21 22  1  0  0  0  0
 21 35  1  0  0  0  0
 21 36  1  0  0  0  0
 22 37  1  0  0  0  0
 22 38  1  0  0  0  0
M  END
> <s_m_source_file>
AV-unprocessed.smi

> <i_m_source_file_index>
307

> <i_lp_mmshare_version>
43012

> <i_f3d_flags>
0

> <s_epik_input>
W0NIMl0xW0NIMl1PW0NIMl1bQ0gyXVtDSF0xW05IXUMoPU8pW05IXWMyW2NIXVtjSF1jKG5bY0hdMilPW0NIMl1DKEYpKEYpRg==

> <s_epik_cmdline>
J2VwaWtfcHl0aG9uJywgJy1waCcsICc3LjAnLCAnLXRuJywgJzgnLCAnLW1hJywgJzIwMCcsICctbWV0YWxfYmluZGluZycsICctaW1hZScsICc8aW5maWxlLm1hZT4nLCAnLW9tYWUnLCAnPG91dGZpbGUubWFlPic=

> <r_lp_tautomer_probability>
1

> <r_epik_Ionization_Penalty>
3.97058e-05

> <r_epik_Ionization_Penalty_Charging>
0

> <r_epik_Ionization_Penalty_Neutral>
3.97058e-05

> <r_epik_State_Penalty>
-0

> <r_epik_Charging_Adjusted_Penalty>
0

> <i_epik_Tot_Q>
0

> <i_epik_Tot_abs_Q>
0

> <r_epik_Metal_State_Penalty>
-0

> <b_epik_Metal_Only>
0

> <s_lp_Force_Field>
OPLS_2005

> <r_lp_Energy>
20.0098

> <b_lp_Chiralities_Consistent>
1

> <s_lp_Variant>
AV-unprocessed.smi:307-1

> <Gold.Version>
5.8.1

> <Gold.Id.Protein>
6NUR|6NUR_protein|mol2

> <Gold.PLP.Fitness>
46.9152

> <Gold.PLP.PLP>
-41.7705

> <Gold.PLP.part.hbond>
-3.9630

> <Gold.PLP.part.metal>
0.0000

> <Gold.PLP.part.buried>
-2.6763

> <Gold.PLP.part.nonpolar>
-36.4305

> <Gold.PLP.part.repulsive>
0.5465

> <Gold.PLP.ligand.clash>
0.0000

> <Gold.PLP.ligand.torsion>
0.2136

> <Gold.PLP.Chemscore.Hbond>
1.8406

> <Gold.PLP.Chemscore.CHOScore>
0.0000

> <Gold.PLP.Chemscore.Metal>
0.0000

> <Gold.Chemscore.Hbonds>
donor molecule, donor type, donor heavy atom, donor atom, acceptor molecule, acceptor atom, score
      L1  H     3    23       P1  7948  0.84
      L1  H    16    29       P1  7948  1.00

> <Gold.PLP.Chemscore.Internal.Correction>
0.0501

> <Gold.Rescore>
     Score         DG    S(hbond)    S(metal)    S(lipo)     H(rot)  DE(clash)    DE(int)     intcor
     11.44     -14.93       1.84        0.00      65.64       1.71       0.27       3.21       ----

> <Gold.Chemscore.Fitness>
11.4433

> <Gold.Chemscore.DG>
-14.9276

> <Gold.Chemscore.ZeroCoef>
-5.4800

> <Gold.Chemscore.Hbond>
1.8423

> <Gold.Chemscore.Metal>
0.0000

> <Gold.Chemscore.Lipo>
65.6419

> <Gold.Chemscore.Internal_Hbond>
0.0000

> <Gold.Chemscore.DEClash>
0.2706

> <Gold.Chemscore.DEInternal>
3.2137

> <Gold.Chemscore.Rot>
1.7132

> <Gold.Chemscore.Internal.Correction>
   9.000000E+99

> <Gold.Chemscore.Hbonds>
donor molecule, donor type, donor heavy atom, donor atom, acceptor molecule, acceptor atom, score
      L1  H     3    23       P1  7948  0.78
      L1  H    16    29       P1  7948  0.97

> <Gold.Chemscore.Hbond.Weighted>
-6.1532

> <Gold.Chemscore.Metal.Weighted>
-0.0000

> <Gold.Chemscore.Lipo.Weighted>
-7.6801

> <Gold.Chemscore.Internal_Hbond.Weighted>
0.0000

> <Gold.Chemscore.DEClash.Weighted>
0.2706

> <Gold.Chemscore.DEInternal.Weighted>
3.2137

> <Gold.Chemscore.Rot.Weighted>
4.3858

> <Gold.Chemscore.Internal.Correction.Weighted>
   9.000000E+99

> <Gold.Protein.RotatedTorsions>
[ 6907 6896 6895 6894 ] final -150.66 input  -60.11 | X-H torsion
[ 7974 7965 7964 7962 ] final   20.91 input  175.53 | X-H torsion
[ 8008 7997 7996 7995 ] final   64.76 input   59.86 | X-H torsion
[ 10167 10162 10161 10158 ] final  168.97 input  -65.29 | X-H torsion
[ 10718 10713 10712 10709 ] final   25.88 input   66.30 | X-H torsion
[ 10763 10752 10751 10750 ] final  174.64 input  -60.55 | X-H torsion
[ 11005 11000 10999 10996 ] final  -78.01 input  -57.11 | X-H torsion

> <Gold.Protein.ActiveResidues>
 VAL166  LYS551  ARG553  GLY616  TRP617  ASP618  TYR619  PRO620  LYS621  CYS622 
 ASP623  PHE694  ASN695  SER759  ASP760  ASP761  ALA762  ILE779  LEU786  VAL792 
 PHE793  MET794  SER795  GLU796  ALA797  LYS798  CYS799  TRP800  GLU811  SER814 

> <Gold.Protein.RotatedAtoms>
  151.2018  133.4607  159.2596 H   0  0  0  0  0  0  0  0  0  0  0  0  # atno 6907 bound_to 6896
  151.1062  135.0001  159.8482 H   0  0  0  0  0  0  0  0  0  0  0  0  # atno 6908 bound_to 6896
  152.5447  134.1940  159.8738 H   0  0  0  0  0  0  0  0  0  0  0  0  # atno 6909 bound_to 6896
  146.2093  139.8102  142.8702 H   0  0  0  0  0  0  0  0  0  0  0  0  # atno 7974 bound_to 7965
  155.6510  140.3497  155.4748 H   0  0  0  0  0  0  0  0  0  0  0  0  # atno 8008 bound_to 7997
  155.9847  140.1181  157.0717 H   0  0  0  0  0  0  0  0  0  0  0  0  # atno 8009 bound_to 7997
  154.4201  140.1131  156.5470 H   0  0  0  0  0  0  0  0  0  0  0  0  # atno 8010 bound_to 7997
  139.4981  144.3757  151.9677 H   0  0  0  0  0  0  0  0  0  0  0  0  # atno 10167 bound_to 10162
  157.1993  130.6882  149.6182 H   0  0  0  0  0  0  0  0  0  0  0  0  # atno 10718 bound_to 10713
  154.4567  135.2766  155.1743 H   0  0  0  0  0  0  0  0  0  0  0  0  # atno 10763 bound_to 10752
  154.3547  135.6142  153.5664 H   0  0  0  0  0  0  0  0  0  0  0  0  # atno 10764 bound_to 10752
  152.9851  135.5820  154.4921 H   0  0  0  0  0  0  0  0  0  0  0  0  # atno 10765 bound_to 10752
  141.1663  133.7046  156.7908 H   0  0  0  0  0  0  0  0  0  0  0  0  # atno 11005 bound_to 11000
  145.3204  141.0242  143.3504 LP  0  0  0  0  0  0  0  0  0  0  0  0  # atno 17320 bound_to 7965
  144.8871  139.4824  143.6695 LP  0  0  0  0  0  0  0  0  0  0  0  0  # atno 17321 bound_to 7965
  140.3193  144.3447  150.6013 LP  0  0  0  0  0  0  0  0  0  0  0  0  # atno 17342 bound_to 10162
  140.5736  143.2178  151.7556 LP  0  0  0  0  0  0  0  0  0  0  0  0  # atno 17343 bound_to 10162
  155.9702  130.4588  150.6013 LP  0  0  0  0  0  0  0  0  0  0  0  0  # atno 17370 bound_to 10713
  157.3783  131.0777  151.1499 LP  0  0  0  0  0  0  0  0  0  0  0  0  # atno 17371 bound_to 10713
  140.2327  134.8674  157.3493 LP  0  0  0  0  0  0  0  0  0  0  0  0  # atno 17394 bound_to 11000
  140.1875  134.4413  155.7735 LP  0  0  0  0  0  0  0  0  0  0  0  0  # atno 17395 bound_to 11000

$$$$
