AV-unprocessed.smi:3287|AV-procd|sdf|12603|dock2
  -GOLD-   2272018533D 1   1.00000     0.00000
 Structure written by MMmdl.
 43 44  0  0  0  0  0  0  0  0  2 V2000
  150.8000  138.6814  154.6189 C   0  0  0  0  0  0  0  0  0  0  0  0
  149.2862  138.5929  154.8818 C   0  0  1  0  0  0  0  0  0  0  0  0
  148.5189  139.3351  153.7687 C   0  0  0  0  0  0  0  0  0  0  0  0
  146.9972  139.2871  153.9788 C   0  0  0  0  0  0  0  0  0  0  0  0
  146.4781  137.8451  154.1062 C   0  0  1  0  0  0  0  0  0  0  0  0
  146.5556  137.1506  152.7997 N   0  3  0  0  0  0  0  0  0  0  0  0
  145.8406  135.8586  152.7176 C   0  0  0  0  0  0  0  0  0  0  0  0
  145.0491  135.7403  151.4037 C   0  0  1  0  0  0  0  0  0  0  0  0
  145.7003  136.5077  150.4095 O   0  0  0  0  0  0  0  0  0  0  0  0
  144.8958  134.2862  150.9857 C   0  0  0  0  0  0  0  0  0  0  0  0
  146.0203  133.4915  150.6726 C   0  0  0  0  0  0  0  0  0  0  0  0
  145.8134  132.1485  150.2992 C   0  0  0  0  0  0  0  0  0  0  0  0
  144.5914  131.5788  150.2283 N   0  0  0  0  0  0  0  0  0  0  0  0
  143.5199  132.3421  150.5312 C   0  0  0  0  0  0  0  0  0  0  0  0
  143.6169  133.6948  150.9150 C   0  0  0  0  0  0  0  0  0  0  0  0
  147.2486  137.1018  155.2174 C   0  0  0  0  0  0  0  0  0  0  0  0
  148.7799  137.1322  155.0178 C   0  0  2  0  0  0  0  0  0  0  0  0
  149.4678  136.3646  156.1609 C   0  0  0  0  0  0  0  0  0  0  0  0
  151.0822  138.1203  153.7275 H   0  0  0  0  0  0  0  0  0  0  0  0
  151.3805  138.2958  155.4566 H   0  0  0  0  0  0  0  0  0  0  0  0
  151.1112  139.7160  154.4708 H   0  0  0  0  0  0  0  0  0  0  0  0
  149.0868  139.1102  155.8217 H   0  0  0  0  0  0  0  0  0  0  0  0
  148.8412  140.3763  153.7279 H   0  0  0  0  0  0  0  0  0  0  0  0
  148.7688  138.9032  152.7986 H   0  0  0  0  0  0  0  0  0  0  0  0
  146.7475  139.8396  154.8858 H   0  0  0  0  0  0  0  0  0  0  0  0
  146.4899  139.8023  153.1623 H   0  0  0  0  0  0  0  0  0  0  0  0
  145.4244  137.8971  154.3839 H   0  0  0  0  0  0  0  0  0  0  0  0
  146.1523  137.7612  152.1037 H   0  0  0  0  0  0  0  0  0  0  0  0
  146.5433  135.0299  152.8036 H   0  0  0  0  0  0  0  0  0  0  0  0
  145.1554  135.7865  153.5635 H   0  0  0  0  0  0  0  0  0  0  0  0
  144.0538  136.1651  151.5422 H   0  0  0  0  0  0  0  0  0  0  0  0
  145.1785  137.2768  150.2347 H   0  0  0  0  0  0  0  0  0  0  0  0
  147.0210  133.8962  150.7168 H   0  0  0  0  0  0  0  0  0  0  0  0
  146.6527  131.5149  150.0530 H   0  0  0  0  0  0  0  0  0  0  0  0
  142.5553  131.8603  150.4673 H   0  0  0  0  0  0  0  0  0  0  0  0
  142.7264  134.2597  151.1490 H   0  0  0  0  0  0  0  0  0  0  0  0
  147.0105  137.5688  156.1743 H   0  0  0  0  0  0  0  0  0  0  0  0
  146.9005  136.0730  155.3049 H   0  0  0  0  0  0  0  0  0  0  0  0
  149.0080  136.6047  154.0905 H   0  0  0  0  0  0  0  0  0  0  0  0
  149.3454  136.8785  157.1148 H   0  0  0  0  0  0  0  0  0  0  0  0
  150.5352  136.2395  155.9813 H   0  0  0  0  0  0  0  0  0  0  0  0
  149.0476  135.3642  156.2686 H   0  0  0  0  0  0  0  0  0  0  0  0
  147.5272  137.0013  152.5665 H   0  0  0  0  0  0  0  0  0  0  0  0
  1  2  1  0  0  0  0
  1 19  1  0  0  0  0
  1 20  1  0  0  0  0
  1 21  1  0  0  0  0
  2 17  1  0  0  0  0
  2  3  1  0  0  0  0
  2 22  1  0  0  0  0
  3  4  1  0  0  0  0
  3 23  1  0  0  0  0
  3 24  1  0  0  0  0
  4  5  1  0  0  0  0
  4 25  1  0  0  0  0
  4 26  1  0  0  0  0
  5  6  1  0  0  0  0
  5 16  1  0  0  0  0
  5 27  1  0  0  0  0
  6  7  1  0  0  0  0
  6 28  1  0  0  0  0
  6 43  1  0  0  0  0
  7  8  1  0  0  0  0
  7 29  1  0  0  0  0
  7 30  1  0  0  0  0
  8  9  1  0  0  0  0
  8 10  1  0  0  0  0
  8 31  1  0  0  0  0
  9 32  1  0  0  0  0
 10 15  1  0  0  0  0
 10 11  2  0  0  0  0
 11 12  1  0  0  0  0
 11 33  1  0  0  0  0
 12 13  2  0  0  0  0
 12 34  1  0  0  0  0
 13 14  1  0  0  0  0
 14 15  2  0  0  0  0
 14 35  1  0  0  0  0
 15 36  1  0  0  0  0
 16 17  1  0  0  0  0
 16 37  1  0  0  0  0
 16 38  1  0  0  0  0
 17 18  1  0  0  0  0
 17 39  1  0  0  0  0
 18 40  1  0  0  0  0
 18 41  1  0  0  0  0
 18 42  1  0  0  0  0
M  CHG  1   6   1
M  END
> <s_m_source_file>
AV-unprocessed.smi

> <i_m_source_file_index>
3287

> <i_lp_mmshare_version>
43012

> <i_f3d_flags>
0

> <s_epik_input>
W0NIM11bQ0BASF0xW0NIMl1bQ0gyXVtDQEhdKFtDSDJdW0NASF0xW0NIM10pW05IXVtDSDJdW0NASF0oW09IXSljMltjSF1bY0hdbltjSF1bY0hdMg==

> <s_epik_cmdline>
J2VwaWtfcHl0aG9uJywgJy1waCcsICc3LjAnLCAnLXRuJywgJzgnLCAnLW1hJywgJzIwMCcsICctbWV0YWxfYmluZGluZycsICctaW1hZScsICc8aW5maWxlLm1hZT4nLCAnLW9tYWUnLCAnPG91dGZpbGUubWFlPic=

> <r_lp_tautomer_probability>
1

> <r_epik_Ionization_Penalty>
0.00537262

> <r_epik_Ionization_Penalty_Charging>
0.00321624

> <r_epik_Ionization_Penalty_Neutral>
0.00215638

> <r_epik_State_Penalty>
-0

> <r_epik_Charging_Adjusted_Penalty>
0.00321624

> <i_epik_Tot_Q>
1

> <i_epik_Tot_abs_Q>
1

> <r_epik_Metal_State_Penalty>
-0

> <b_epik_Metal_Only>
0

> <s_lp_Force_Field>
OPLS_2005

> <r_lp_Energy>
19.4184

> <b_lp_Chiralities_Consistent>
1

> <s_lp_Variant>
AV-unprocessed.smi:3287-14

> <Gold.Version>
5.8.1

> <Gold.Id.Protein>
6NUR|6NUR_protein|mol2

> <Gold.PLP.Fitness>
41.3385

> <Gold.PLP.PLP>
-27.8433

> <Gold.PLP.part.hbond>
-2.4559

> <Gold.PLP.part.metal>
0.0000

> <Gold.PLP.part.buried>
-2.9199

> <Gold.PLP.part.nonpolar>
-23.1057

> <Gold.PLP.part.repulsive>
0.1417

> <Gold.PLP.ligand.clash>
0.0000

> <Gold.PLP.ligand.torsion>
0.7470

> <Gold.PLP.Chemscore.Hbond>
3.0000

> <Gold.PLP.Chemscore.CHOScore>
1.9913

> <Gold.PLP.Chemscore.Metal>
0.0000

> <Gold.Chemscore.Hbonds>
donor molecule, donor type, donor heavy atom, donor atom, acceptor molecule, acceptor atom, score
      L1  H     6    43       P1  7948  2.00
      L1  H     9    32       P1 10171  1.00
      L1  C    12    34       P1 10747  1.00
      L1  C    14    35       P1 10952  1.00

> <Gold.PLP.Chemscore.Internal.Correction>
0.0152

> <Gold.Rescore>
     Score         DG    S(hbond)    S(metal)    S(lipo)     H(rot)  DE(clash)    DE(int)     intcor
     15.59     -16.43       1.99        0.00      78.46       1.90       0.07       0.76       ----

> <Gold.Chemscore.Fitness>
15.5888

> <Gold.Chemscore.DG>
-16.4269

> <Gold.Chemscore.ZeroCoef>
-5.4800

> <Gold.Chemscore.Hbond>
1.9881

> <Gold.Chemscore.Metal>
0.0000

> <Gold.Chemscore.Lipo>
78.4584

> <Gold.Chemscore.Internal_Hbond>
0.0000

> <Gold.Chemscore.DEClash>
0.0731

> <Gold.Chemscore.DEInternal>
0.7649

> <Gold.Chemscore.Rot>
1.9035

> <Gold.Chemscore.Internal.Correction>
   9.000000E+99

> <Gold.Chemscore.Hbonds>
donor molecule, donor type, donor heavy atom, donor atom, acceptor molecule, acceptor atom, score
      L1  H     6    43       P1  7948  0.99
      L1  H     9    32       P1 10171  1.00

> <Gold.Chemscore.Hbond.Weighted>
-6.6401

> <Gold.Chemscore.Metal.Weighted>
-0.0000

> <Gold.Chemscore.Lipo.Weighted>
-9.1796

> <Gold.Chemscore.Internal_Hbond.Weighted>
0.0000

> <Gold.Chemscore.DEClash.Weighted>
0.0731

> <Gold.Chemscore.DEInternal.Weighted>
0.7649

> <Gold.Chemscore.Rot.Weighted>
4.8729

> <Gold.Chemscore.Internal.Correction.Weighted>
   9.000000E+99

> <Gold.Protein.RotatedTorsions>
[ 6907 6896 6895 6894 ] final  -43.85 input  -60.11 | X-H torsion
[ 7974 7965 7964 7962 ] final   -6.62 input  175.53 | X-H torsion
[ 8008 7997 7996 7995 ] final  -37.46 input   59.86 | X-H torsion
[ 10167 10162 10161 10158 ] final  -26.76 input  -65.29 | X-H torsion
[ 10718 10713 10712 10709 ] final  -95.96 input   66.30 | X-H torsion
[ 10763 10752 10751 10750 ] final  130.88 input  -60.55 | X-H torsion
[ 11005 11000 10999 10996 ] final  110.77 input  -57.11 | X-H torsion

> <Gold.Protein.ActiveResidues>
 VAL166  LYS551  ARG553  GLY616  TRP617  ASP618  TYR619  PRO620  LYS621  CYS622 
 ASP623  PHE694  ASN695  SER759  ASP760  ASP761  ALA762  ILE779  LEU786  VAL792 
 PHE793  MET794  SER795  GLU796  ALA797  LYS798  CYS799  TRP800  GLU811  SER814 

> <Gold.Protein.RotatedAtoms>
  150.9394  134.8804  159.7601 H   0  0  0  0  0  0  0  0  0  0  0  0  # atno 6907 bound_to 6896
  152.5073  134.3964  159.9411 H   0  0  0  0  0  0  0  0  0  0  0  0  # atno 6908 bound_to 6896
  151.3986  133.3725  159.2764 H   0  0  0  0  0  0  0  0  0  0  0  0  # atno 6909 bound_to 6896
  146.2327  140.2197  142.8337 H   0  0  0  0  0  0  0  0  0  0  0  0  # atno 7974 bound_to 7965
  154.4053  140.1603  156.2540 H   0  0  0  0  0  0  0  0  0  0  0  0  # atno 8008 bound_to 7997
  155.9094  140.3428  155.6064 H   0  0  0  0  0  0  0  0  0  0  0  0  # atno 8009 bound_to 7997
  155.7354  140.0785  157.2261 H   0  0  0  0  0  0  0  0  0  0  0  0  # atno 8010 bound_to 7997
  140.7281  143.4151  151.1042 H   0  0  0  0  0  0  0  0  0  0  0  0  # atno 10167 bound_to 10162
  156.0053  130.5131  150.6155 H   0  0  0  0  0  0  0  0  0  0  0  0  # atno 10718 bound_to 10713
  153.7652  135.3190  155.3343 H   0  0  0  0  0  0  0  0  0  0  0  0  # atno 10763 bound_to 10752
  154.8216  135.4599  154.0798 H   0  0  0  0  0  0  0  0  0  0  0  0  # atno 10764 bound_to 10752
  153.2041  135.6926  153.8278 H   0  0  0  0  0  0  0  0  0  0  0  0  # atno 10765 bound_to 10752
  139.8889  134.9492  156.6330 H   0  0  0  0  0  0  0  0  0  0  0  0  # atno 11005 bound_to 11000
  144.9642  140.8305  143.5495 LP  0  0  0  0  0  0  0  0  0  0  0  0  # atno 17320 bound_to 7965
  145.2171  139.2177  143.5112 LP  0  0  0  0  0  0  0  0  0  0  0  0  # atno 17321 bound_to 7965
  139.7789  143.8384  152.3134 LP  0  0  0  0  0  0  0  0  0  0  0  0  # atno 17342 bound_to 10162
  139.8328  144.7246  150.9428 LP  0  0  0  0  0  0  0  0  0  0  0  0  # atno 17343 bound_to 10162
  157.3980  131.0805  151.1334 LP  0  0  0  0  0  0  0  0  0  0  0  0  # atno 17370 bound_to 10713
  157.2005  130.6392  149.5737 LP  0  0  0  0  0  0  0  0  0  0  0  0  # atno 17371 bound_to 10713
  140.7652  133.8784  155.8449 LP  0  0  0  0  0  0  0  0  0  0  0  0  # atno 17394 bound_to 11000
  140.9888  134.1306  157.4427 LP  0  0  0  0  0  0  0  0  0  0  0  0  # atno 17395 bound_to 11000

$$$$
