#       Name:                AV-unprocessed.smi:2438
#       Creating user name   scv26
#       Creation time:       Fri Mar 27 13:23:25 2020


#       File generated by GOLD software.
#

@<TRIPOS>MOLECULE
AV-unprocessed.smi:2438
    48    49     1
SMALL
NO_CHARGES


@<TRIPOS>ATOM
      1 ****        -1.7440  -0.4621  -3.5637 C.3            1 S1                 0.0000
      2 ****        -1.1107   0.8322  -3.7758 N.3            1 S1                 0.0000
      3 ****        -1.7893   1.7374  -4.6952 C.3            1 S1                 0.0000
      4 ****         0.2926   0.7606  -3.8844 C.ar           1 S1                 0.0000
      5 ****         0.8400   0.8681  -5.1170 N.ar           1 S1                 0.0000
      6 ****         2.1659   0.7890  -5.2650 C.ar           1 S1                 0.0000
      7 ****         3.0022   0.6079  -4.2351 N.pl3          1 S1                 1.0000
      8 ****         2.5061   0.4973  -2.9798 C.ar           1 S1                 0.0000
      9 ****         1.1113   0.5646  -2.7455 C.ar           1 S1                 0.0000
     10 ****         0.5179   0.4951  -1.4511 N.am           1 S1                 0.0000
     11 ****         1.0669   0.1161  -0.2848 C.2            1 S1                 0.0000
     12 ****         2.2284  -0.2609  -0.1356 O.2            1 S1                 0.0000
     13 ****         0.1738   0.1912   0.7123 N.am           1 S1                 0.0000
     14 ****         0.4241  -0.1350   2.1141 C.3            1 S1                 0.0000
     15 ****         0.2732   1.1306   2.9771 C.3            1 S1                 0.0000
     16 ****         0.4481   0.8108   4.4690 C.3            1 S1                 0.0000
     17 ****        -0.5265  -0.2876   4.9219 C.3            1 S1                 0.0000
     18 ****        -0.3770  -1.5681   4.0731 C.3            1 S1                 0.0000
     19 ****        -1.3394  -2.6824   4.5333 C.3            1 S1                 0.0000
     20 ****        -2.6093  -2.3006   4.3941 F              1 S1                 0.0000
     21 ****        -1.1396  -3.7855   3.8120 F              1 S1                 0.0000
     22 ****        -1.1167  -2.9780   5.8139 F              1 S1                 0.0000
     23 ****        -0.5509  -1.2349   2.5753 C.3            1 S1                 0.0000
     24 ****        -1.2744  -1.0160  -2.7507 H              1 S1                 0.0000
     25 ****        -1.6833  -1.0682  -4.4683 H              1 S1                 0.0000
     26 ****        -2.7970  -0.3319  -3.3125 H              1 S1                 0.0000
     27 ****        -1.2792   2.7006  -4.7412 H              1 S1                 0.0000
     28 ****        -2.8115   1.9169  -4.3614 H              1 S1                 0.0000
     29 ****        -1.8294   1.3163  -5.7007 H              1 S1                 0.0000
     30 ****         2.6113   0.8754  -6.2452 H              1 S1                 0.0000
     31 ****         3.2606   0.3753  -2.2187 H              1 S1                 0.0000
     32 ****        -0.4638   0.7309  -1.4194 H              1 S1                 0.0000
     33 ****        -0.7579   0.5079   0.4865 H              1 S1                 0.0000
     34 ****         1.4405  -0.5125   2.2404 H              1 S1                 0.0000
     35 ****         1.0047   1.8807   2.6739 H              1 S1                 0.0000
     36 ****        -0.7103   1.5748   2.8161 H              1 S1                 0.0000
     37 ****         1.4737   0.4905   4.6567 H              1 S1                 0.0000
     38 ****         0.2928   1.7125   5.0622 H              1 S1                 0.0000
     39 ****        -0.3519  -0.5122   5.9744 H              1 S1                 0.0000
     40 ****        -1.5494   0.0847   4.8529 H              1 S1                 0.0000
     41 ****         0.6394  -1.9401   4.2125 H              1 S1                 0.0000
     42 ****        -1.5780  -0.9172   2.3892 H              1 S1                 0.0000
     43 ****        -0.3937  -2.1325   1.9761 H              1 S1                 0.0000
     44 ****         4.0104   0.5586  -4.3846 H              1 S1                 0.0000
     45 ****        -1.2568   1.3199  -2.9151 LP             1 S1                 0.0000
     46 ****         0.2539   1.0064  -5.9154 LP             1 S1                 0.0000
     47 ****         2.8454  -0.3026  -0.9215 LP             1 S1                 0.0000
     48 ****         2.5555  -0.5256   0.7715 LP             1 S1                 0.0000
@<TRIPOS>BOND
    1    1    2 1     
    2    1   24 1     
    3    1   25 1     
    4    1   26 1     
    5    2    3 1     
    6    2    4 1     
    7    3   27 1     
    8    3   28 1     
    9    3   29 1     
   10    4    9 ar    
   11    4    5 ar    
   12    5    6 ar    
   13    6    7 ar    
   14    6   30 1     
   15    7    8 ar    
   16    7   44 1     
   17    8    9 ar    
   18    8   31 1     
   19    9   10 1     
   20   10   11 am    
   21   10   32 1     
   22   11   12 2     
   23   11   13 am    
   24   13   14 1     
   25   13   33 1     
   26   14   23 1     
   27   14   15 1     
   28   14   34 1     
   29   15   16 1     
   30   15   35 1     
   31   15   36 1     
   32   16   17 1     
   33   16   37 1     
   34   16   38 1     
   35   17   18 1     
   36   17   39 1     
   37   17   40 1     
   38   18   19 1     
   39   18   23 1     
   40   18   41 1     
   41   19   20 1     
   42   19   21 1     
   43   19   22 1     
   44   23   42 1     
   45   23   43 1     
   46    2   45 1     
   47    5   46 1     
   48   12   47 1     
   49   12   48 1     
@<TRIPOS>SUBSTRUCTURE
      1 S1             1
@<TRIPOS>SET
LONE_PAIRS      STATIC     ATOMS    <user>   **** ""
4 45 46 47 48
DONOR_HYDROGENS      STATIC     ATOMS    <user>   **** ""
3 44 32 33
ATOM$BLUE        STATIC     ATOMS    COLORGROUP SYSTEM
4 45 46 47 48
ATOM$RED        STATIC     ATOMS    COLORGROUP SYSTEM
3 44 32 33
