AV-unprocessed.smi:186|AV-procd|sdf|1466|dock10
  -GOLD-   2262019283D 1   1.00000     0.00000
 Structure written by MMmdl.
 48 51  0  0  0  0  0  0  0  0  1 V2000
  145.2875  144.1853  154.0163 C   0  0  0  0  0  0  0  0  0  0  0  0
  146.0985  143.2380  154.6886 O   0  0  0  0  0  0  0  0  0  0  0  0
  146.9102  142.4880  153.7976 C   0  0  0  0  0  0  0  0  0  0  0  0
  147.6259  141.3747  154.5646 C   0  0  0  0  0  0  0  0  0  0  0  0
  147.4242  140.1903  154.2938 O   0  0  0  0  0  0  0  0  0  0  0  0
  148.4658  141.7732  155.5304 N   0  0  0  0  0  0  0  0  0  0  0  0
  149.2404  140.8692  156.3703 C   0  0  0  0  0  0  0  0  0  0  0  0
  150.0662  141.5773  157.4466 C   0  0  0  0  0  0  0  0  0  0  0  0
  151.1797  140.7119  157.0601 N   0  0  0  0  0  0  0  0  0  0  0  0
  151.3556  139.6118  157.9548 C   0  0  0  0  0  0  0  0  0  0  0  0
  150.2723  138.8056  158.0992 N   0  0  0  0  0  0  0  0  0  0  0  0
  150.2951  137.7401  158.9030 C   0  0  0  0  0  0  0  0  0  0  0  0
  151.2947  137.2910  159.6593 N   0  0  0  0  0  0  0  0  0  0  0  0
  152.3952  138.0836  159.5331 C   0  0  0  0  0  0  0  0  0  0  0  0
  152.5129  139.2467  158.7145 C   0  0  0  0  0  0  0  0  0  0  0  0
  153.7947  139.7708  158.8515 N   0  0  0  0  0  0  0  0  0  0  0  0
  154.3908  138.9750  159.6951 C   0  0  0  0  0  0  0  0  0  0  0  0
  153.6201  137.9367  160.1606 N   0  0  0  0  0  0  0  0  0  0  0  0
  154.0277  136.9063  161.1036 C   0  0  0  0  0  0  0  0  0  0  0  0
  154.9075  135.8049  160.4675 C   0  0  1  0  0  0  0  0  0  0  0  0
  156.2542  136.2468  160.4466 O   0  0  0  0  0  0  0  0  0  0  0  0
  154.8486  134.4624  161.1908 C   0  0  0  0  0  0  0  0  0  0  0  0
  155.0506  133.4606  160.0628 C   0  0  0  0  0  0  0  0  0  0  0  0
  154.3018  134.0331  159.0042 O   0  0  0  0  0  0  0  0  0  0  0  0
  154.4914  135.4447  159.0272 C   0  0  0  0  0  0  0  0  0  0  0  0
  150.5776  140.4644  155.7498 C   0  0  0  0  0  0  0  0  0  0  0  0
  144.6893  144.7356  154.7422 H   0  0  0  0  0  0  0  0  0  0  0  0
  144.6054  143.6959  153.3197 H   0  0  0  0  0  0  0  0  0  0  0  0
  145.8948  144.9047  153.4655 H   0  0  0  0  0  0  0  0  0  0  0  0
  146.2981  142.0478  153.0087 H   0  0  0  0  0  0  0  0  0  0  0  0
  147.6537  143.1336  153.3278 H   0  0  0  0  0  0  0  0  0  0  0  0
  148.5756  142.7635  155.6940 H   0  0  0  0  0  0  0  0  0  0  0  0
  148.6714  140.0223  156.7583 H   0  0  0  0  0  0  0  0  0  0  0  0
  150.2757  142.6249  157.2245 H   0  0  0  0  0  0  0  0  0  0  0  0
  149.6980  141.4390  158.4643 H   0  0  0  0  0  0  0  0  0  0  0  0
  149.3811  137.1663  158.9454 H   0  0  0  0  0  0  0  0  0  0  0  0
  155.4142  139.1262  160.0064 H   0  0  0  0  0  0  0  0  0  0  0  0
  154.5630  137.3868  161.9236 H   0  0  0  0  0  0  0  0  0  0  0  0
  153.1304  136.4678  161.5422 H   0  0  0  0  0  0  0  0  0  0  0  0
  156.3927  136.7468  159.6566 H   0  0  0  0  0  0  0  0  0  0  0  0
  155.5780  134.3611  161.9958 H   0  0  0  0  0  0  0  0  0  0  0  0
  153.8578  134.3075  161.6188 H   0  0  0  0  0  0  0  0  0  0  0  0
  156.1020  133.3936  159.7782 H   0  0  0  0  0  0  0  0  0  0  0  0
  154.6946  132.4615  160.3151 H   0  0  0  0  0  0  0  0  0  0  0  0
  153.5630  135.9324  158.7290 H   0  0  0  0  0  0  0  0  0  0  0  0
  155.2535  135.7229  158.2972 H   0  0  0  0  0  0  0  0  0  0  0  0
  150.6434  139.4473  155.3681 H   0  0  0  0  0  0  0  0  0  0  0  0
  150.9451  141.1813  155.0139 H   0  0  0  0  0  0  0  0  0  0  0  0
  1  2  1  0  0  0  0
  1 27  1  0  0  0  0
  1 28  1  0  0  0  0
  1 29  1  0  0  0  0
  2  3  1  0  0  0  0
  3  4  1  0  0  0  0
  3 30  1  0  0  0  0
  3 31  1  0  0  0  0
  4  5  2  0  0  0  0
  4  6  1  0  0  0  0
  6  7  1  0  0  0  0
  6 32  1  0  0  0  0
  7 26  1  0  0  0  0
  7  8  1  0  0  0  0
  7 33  1  0  0  0  0
  8  9  1  0  0  0  0
  8 34  1  0  0  0  0
  8 35  1  0  0  0  0
  9 10  1  0  0  0  0
  9 26  1  0  0  0  0
 10 15  1  0  0  0  0
 10 11  2  0  0  0  0
 11 12  1  0  0  0  0
 12 13  2  0  0  0  0
 12 36  1  0  0  0  0
 13 14  1  0  0  0  0
 14 18  1  0  0  0  0
 14 15  2  0  0  0  0
 15 16  1  0  0  0  0
 16 17  2  0  0  0  0
 17 18  1  0  0  0  0
 17 37  1  0  0  0  0
 18 19  1  0  0  0  0
 19 20  1  0  0  0  0
 19 38  1  0  0  0  0
 19 39  1  0  0  0  0
 20 25  1  0  0  0  0
 20 21  1  0  0  0  0
 20 22  1  0  0  0  0
 21 40  1  0  0  0  0
 22 23  1  0  0  0  0
 22 41  1  0  0  0  0
 22 42  1  0  0  0  0
 23 24  1  0  0  0  0
 23 43  1  0  0  0  0
 23 44  1  0  0  0  0
 24 25  1  0  0  0  0
 25 45  1  0  0  0  0
 25 46  1  0  0  0  0
 26 47  1  0  0  0  0
 26 48  1  0  0  0  0
M  END
> <s_m_source_file>
AV-unprocessed.smi

> <i_m_source_file_index>
186

> <i_lp_mmshare_version>
43012

> <i_f3d_flags>
0

> <s_epik_input>
W0NIM11PW0NIMl1DKD1PKVtOSF1bQ0hdMVtDSDJdTihbQ0gyXTEpYyhuW2NIXW4yKWMoYzIzKW5bY0hdbjNbQ0gyXVtDQEBdNChbT0hdKVtDSDJdW0NIMl1PW0NIMl00

> <s_epik_cmdline>
J2VwaWtfcHl0aG9uJywgJy1waCcsICc3LjAnLCAnLXRuJywgJzgnLCAnLW1hJywgJzIwMCcsICctbWV0YWxfYmluZGluZycsICctaW1hZScsICc8aW5maWxlLm1hZT4nLCAnLW9tYWUnLCAnPG91dGZpbGUubWFlPic=

> <r_lp_tautomer_probability>
1

> <r_epik_Ionization_Penalty>
0.00138671

> <r_epik_Ionization_Penalty_Charging>
0

> <r_epik_Ionization_Penalty_Neutral>
0.00138671

> <r_epik_State_Penalty>
0.000746021

> <r_epik_Charging_Adjusted_Penalty>
0.000746021

> <i_epik_Tot_Q>
0

> <i_epik_Tot_abs_Q>
0

> <r_epik_Metal_State_Penalty>
-0

> <b_epik_Metal_Only>
0

> <s_lp_Force_Field>
OPLS_2005

> <r_lp_Energy>
46.8047

> <b_lp_Chiralities_Consistent>
1

> <s_lp_Variant>
AV-unprocessed.smi:186-1

> <Gold.Version>
5.8.1

> <Gold.Id.Protein>
6NUR|6NUR_protein|mol2

> <Gold.PLP.Fitness>
43.0338

> <Gold.PLP.PLP>
-33.2314

> <Gold.PLP.part.hbond>
-3.6601

> <Gold.PLP.part.metal>
0.0000

> <Gold.PLP.part.buried>
-8.0680

> <Gold.PLP.part.nonpolar>
-22.6365

> <Gold.PLP.part.repulsive>
0.4433

> <Gold.PLP.ligand.clash>
0.0000

> <Gold.PLP.ligand.torsion>
0.9854

> <Gold.PLP.Chemscore.Hbond>
3.7313

> <Gold.PLP.Chemscore.CHOScore>
0.0000

> <Gold.PLP.Chemscore.Metal>
0.0000

> <Gold.Chemscore.Hbonds>
donor molecule, donor type, donor heavy atom, donor atom, acceptor molecule, acceptor atom, score
      L1  H     6    32       P1  8028  1.00
      P1  H  6896  6908       L1    13  0.70
      P1  H  6896  6909       L1    24  1.00
      P1  H  7997  8010       L1    16  1.00

> <Gold.PLP.Chemscore.Internal.Correction>
0.5794

> <Gold.Rescore>
     Score         DG    S(hbond)    S(metal)    S(lipo)     H(rot)  DE(clash)    DE(int)     intcor
      8.38     -11.74       2.65        0.00      51.49       3.36       1.20       2.16       ----

> <Gold.Chemscore.Fitness>
8.3762

> <Gold.Chemscore.DG>
-11.7378

> <Gold.Chemscore.ZeroCoef>
-5.4800

> <Gold.Chemscore.Hbond>
2.6467

> <Gold.Chemscore.Metal>
0.0000

> <Gold.Chemscore.Lipo>
51.4912

> <Gold.Chemscore.Internal_Hbond>
0.0000

> <Gold.Chemscore.DEClash>
1.1997

> <Gold.Chemscore.DEInternal>
2.1619

> <Gold.Chemscore.Rot>
3.3620

> <Gold.Chemscore.Internal.Correction>
   9.000000E+99

> <Gold.Chemscore.Hbonds>
donor molecule, donor type, donor heavy atom, donor atom, acceptor molecule, acceptor atom, score
      L1  H     6    32       P1  8028  0.98
      P1  H  6896  6908       L1    13  0.62
      P1  H  6896  6909       L1    24  0.07
      P1  H  7997  8010       L1    16  0.77

> <Gold.Chemscore.Hbond.Weighted>
-8.8401

> <Gold.Chemscore.Metal.Weighted>
-0.0000

> <Gold.Chemscore.Lipo.Weighted>
-6.0245

> <Gold.Chemscore.Internal_Hbond.Weighted>
0.0000

> <Gold.Chemscore.DEClash.Weighted>
1.1997

> <Gold.Chemscore.DEInternal.Weighted>
2.1619

> <Gold.Chemscore.Rot.Weighted>
8.6067

> <Gold.Chemscore.Internal.Correction.Weighted>
   9.000000E+99

> <Gold.Protein.RotatedTorsions>
[ 6907 6896 6895 6894 ] final -133.74 input  -60.11 | X-H torsion
[ 7974 7965 7964 7962 ] final   56.11 input  175.53 | X-H torsion
[ 8008 7997 7996 7995 ] final   16.22 input   59.86 | X-H torsion
[ 10167 10162 10161 10158 ] final   54.43 input  -65.29 | X-H torsion
[ 10718 10713 10712 10709 ] final  120.11 input   66.30 | X-H torsion
[ 10763 10752 10751 10750 ] final   65.97 input  -60.55 | X-H torsion
[ 11005 11000 10999 10996 ] final -127.92 input  -57.11 | X-H torsion

> <Gold.Protein.ActiveResidues>
 VAL166  LYS551  ARG553  GLY616  TRP617  ASP618  TYR619  PRO620  LYS621  CYS622 
 ASP623  PHE694  ASN695  SER759  ASP760  ASP761  ALA762  ILE779  LEU786  VAL792 
 PHE793  MET794  SER795  GLU796  ALA797  LYS798  CYS799  TRP800  GLU811  SER814 

> <Gold.Protein.RotatedAtoms>
  150.9776  133.6278  159.2727 H   0  0  0  0  0  0  0  0  0  0  0  0  # atno 6907 bound_to 6896
  151.3545  135.0890  159.9423 H   0  0  0  0  0  0  0  0  0  0  0  0  # atno 6908 bound_to 6896
  152.5205  133.9362  159.7659 H   0  0  0  0  0  0  0  0  0  0  0  0  # atno 6909 bound_to 6896
  145.9432  139.3907  143.0351 H   0  0  0  0  0  0  0  0  0  0  0  0  # atno 7974 bound_to 7965
  154.8738  140.2962  155.5465 H   0  0  0  0  0  0  0  0  0  0  0  0  # atno 8008 bound_to 7997
  156.3022  140.2455  156.3664 H   0  0  0  0  0  0  0  0  0  0  0  0  # atno 8009 bound_to 7997
  154.8789  140.0398  157.1759 H   0  0  0  0  0  0  0  0  0  0  0  0  # atno 8010 bound_to 7997
  140.2302  144.3694  150.6417 H   0  0  0  0  0  0  0  0  0  0  0  0  # atno 10167 bound_to 10162
  157.5914  131.1064  150.7990 H   0  0  0  0  0  0  0  0  0  0  0  0  # atno 10718 bound_to 10713
  153.0119  135.5337  154.6750 H   0  0  0  0  0  0  0  0  0  0  0  0  # atno 10763 bound_to 10752
  154.5925  135.2860  155.0623 H   0  0  0  0  0  0  0  0  0  0  0  0  # atno 10764 bound_to 10752
  154.1711  135.6532  153.5062 H   0  0  0  0  0  0  0  0  0  0  0  0  # atno 10765 bound_to 10752
  140.9559  134.1002  157.4017 H   0  0  0  0  0  0  0  0  0  0  0  0  # atno 11005 bound_to 11000
  145.8271  140.9650  143.0868 LP  0  0  0  0  0  0  0  0  0  0  0  0  # atno 17320 bound_to 7965
  144.6782  140.0115  143.7484 LP  0  0  0  0  0  0  0  0  0  0  0  0  # atno 17321 bound_to 7965
  140.6190  143.2174  151.6732 LP  0  0  0  0  0  0  0  0  0  0  0  0  # atno 17342 bound_to 10162
  139.5112  144.3515  152.0647 LP  0  0  0  0  0  0  0  0  0  0  0  0  # atno 17343 bound_to 10162
  156.8411  130.5048  149.5321 LP  0  0  0  0  0  0  0  0  0  0  0  0  # atno 17370 bound_to 10713
  156.0969  130.5939  150.9829 LP  0  0  0  0  0  0  0  0  0  0  0  0  # atno 17371 bound_to 10713
  139.8862  135.0079  156.6483 LP  0  0  0  0  0  0  0  0  0  0  0  0  # atno 17394 bound_to 11000
  140.7537  133.8876  155.8366 LP  0  0  0  0  0  0  0  0  0  0  0  0  # atno 17395 bound_to 11000

$$$$
