AV-unprocessed.smi:1988|AV-procd|sdf|8058|dock10
  -GOLD-   2272010263D 1   1.00000     0.00000
 Structure written by MMmdl.
 37 38  0  0  0  0  0  0  0  0  1 V2000
  152.6358  138.5048  154.3514 C   0  0  0  0  0  0  0  0  0  0  0  0
  151.3770  137.7138  154.5640 C   0  0  0  0  0  0  0  0  0  0  0  0
  151.4038  136.4002  154.4151 N   0  0  0  0  0  0  0  0  0  0  0  0
  150.0995  135.9596  154.6580 O   0  0  0  0  0  0  0  0  0  0  0  0
  149.3285  137.0393  154.9444 C   0  0  0  0  0  0  0  0  0  0  0  0
  147.8861  136.7810  155.2211 C   0  0  0  0  0  0  0  0  0  0  0  0
  150.0755  138.1841  154.9049 C   0  0  0  0  0  0  0  0  0  0  0  0
  149.6267  139.6030  155.1432 C   0  0  0  0  0  0  0  0  0  0  0  0
  150.5738  140.2607  156.1444 C   0  0  0  0  0  0  0  0  0  0  0  0
  151.2585  141.2242  155.8014 O   0  0  0  0  0  0  0  0  0  0  0  0
  150.6289  139.7043  157.3645 N   0  0  0  0  0  0  0  0  0  0  0  0
  151.5622  140.0743  158.4229 C   0  0  0  0  0  0  0  0  0  0  0  0
  151.7354  141.6031  158.5059 C   0  0  2  0  0  0  0  0  0  0  0  0
  152.6597  142.0283  159.6632 C   0  0  0  0  0  0  0  0  0  0  0  0
  152.5706  143.5490  159.8278 C   0  0  0  0  0  0  0  0  0  0  0  0
  150.8451  143.9918  159.4027 S   0  0  0  0  0  0  0  0  0  0  0  0
  150.0664  144.1748  160.6369 O   0  0  0  0  0  0  0  0  0  0  0  0
  150.8608  145.0249  158.3562 O   0  0  0  0  0  0  0  0  0  0  0  0
  150.4118  142.3738  158.6602 C   0  0  0  0  0  0  0  0  0  0  0  0
  152.6544  139.3948  154.9798 H   0  0  0  0  0  0  0  0  0  0  0  0
  152.7192  138.8291  153.3139 H   0  0  0  0  0  0  0  0  0  0  0  0
  153.5228  137.9169  154.5888 H   0  0  0  0  0  0  0  0  0  0  0  0
  147.2610  137.2319  154.4503 H   0  0  0  0  0  0  0  0  0  0  0  0
  147.5957  137.2050  156.1822 H   0  0  0  0  0  0  0  0  0  0  0  0
  147.6742  135.7117  155.2457 H   0  0  0  0  0  0  0  0  0  0  0  0
  149.6313  140.1834  154.2198 H   0  0  0  0  0  0  0  0  0  0  0  0
  148.6042  139.6444  155.5208 H   0  0  0  0  0  0  0  0  0  0  0  0
  150.0209  138.9198  157.5509 H   0  0  0  0  0  0  0  0  0  0  0  0
  151.2457  139.6720  159.3868 H   0  0  0  0  0  0  0  0  0  0  0  0
  152.5223  139.6085  158.1996 H   0  0  0  0  0  0  0  0  0  0  0  0
  152.2028  141.9450  157.5809 H   0  0  0  0  0  0  0  0  0  0  0  0
  152.3208  141.5542  160.5854 H   0  0  0  0  0  0  0  0  0  0  0  0
  153.6886  141.7062  159.4994 H   0  0  0  0  0  0  0  0  0  0  0  0
  152.8107  143.8859  160.8364 H   0  0  0  0  0  0  0  0  0  0  0  0
  153.2316  144.0542  159.1232 H   0  0  0  0  0  0  0  0  0  0  0  0
  149.8903  142.5237  157.7147 H   0  0  0  0  0  0  0  0  0  0  0  0
  149.7382  141.8625  159.3486 H   0  0  0  0  0  0  0  0  0  0  0  0
  1  2  1  0  0  0  0
  1 20  1  0  0  0  0
  1 21  1  0  0  0  0
  1 22  1  0  0  0  0
  2  7  1  0  0  0  0
  2  3  2  0  0  0  0
  3  4  1  0  0  0  0
  4  5  1  0  0  0  0
  5  6  1  0  0  0  0
  5  7  2  0  0  0  0
  6 23  1  0  0  0  0
  6 24  1  0  0  0  0
  6 25  1  0  0  0  0
  7  8  1  0  0  0  0
  8  9  1  0  0  0  0
  8 26  1  0  0  0  0
  8 27  1  0  0  0  0
  9 10  2  0  0  0  0
  9 11  1  0  0  0  0
 11 12  1  0  0  0  0
 11 28  1  0  0  0  0
 12 13  1  0  0  0  0
 12 29  1  0  0  0  0
 12 30  1  0  0  0  0
 13 19  1  0  0  0  0
 13 14  1  0  0  0  0
 13 31  1  0  0  0  0
 14 15  1  0  0  0  0
 14 32  1  0  0  0  0
 14 33  1  0  0  0  0
 15 16  1  0  0  0  0
 15 34  1  0  0  0  0
 15 35  1  0  0  0  0
 16 17  2  0  0  0  0
 16 18  2  0  0  0  0
 16 19  1  0  0  0  0
 19 36  1  0  0  0  0
 19 37  1  0  0  0  0
M  END
> <s_m_source_file>
AV-unprocessed.smi

> <i_m_source_file_index>
1988

> <i_lp_mmshare_version>
43012

> <i_f3d_flags>
0

> <s_epik_input>
W0NIM11jMW5vYyhbQ0gzXSljMVtDSDJdQyg9TylbTkhdW0NIMl1bQ0BASF0oW0NIMl0yKVtDSDJdW0NIMl1TMig9Tyk9Tw==

> <s_epik_cmdline>
J2VwaWtfcHl0aG9uJywgJy1waCcsICc3LjAnLCAnLXRuJywgJzgnLCAnLW1hJywgJzIwMCcsICctbWV0YWxfYmluZGluZycsICctaW1hZScsICc8aW5maWxlLm1hZT4nLCAnLW9tYWUnLCAnPG91dGZpbGUubWFlPic=

> <r_lp_tautomer_probability>
1

> <r_epik_Ionization_Penalty>
2.7503e-08

> <r_epik_Ionization_Penalty_Charging>
0

> <r_epik_Ionization_Penalty_Neutral>
2.7503e-08

> <r_epik_State_Penalty>
-0

> <r_epik_Charging_Adjusted_Penalty>
0

> <i_epik_Tot_Q>
0

> <i_epik_Tot_abs_Q>
0

> <r_epik_Metal_State_Penalty>
-0

> <b_epik_Metal_Only>
0

> <s_lp_Force_Field>
OPLS_2005

> <r_lp_Energy>
-3.10021

> <b_lp_Chiralities_Consistent>
1

> <s_lp_Variant>
AV-unprocessed.smi:1988-1

> <Gold.Version>
5.8.1

> <Gold.Id.Protein>
6NUR|6NUR_protein|mol2

> <Gold.PLP.Fitness>
32.3365

> <Gold.PLP.PLP>
-29.2249

> <Gold.PLP.part.hbond>
-2.6864

> <Gold.PLP.part.metal>
0.0000

> <Gold.PLP.part.buried>
-3.6849

> <Gold.PLP.part.nonpolar>
-23.9670

> <Gold.PLP.part.repulsive>
1.8296

> <Gold.PLP.ligand.clash>
0.0000

> <Gold.PLP.ligand.torsion>
0.2356

> <Gold.PLP.Chemscore.Hbond>
1.1911

> <Gold.PLP.Chemscore.CHOScore>
0.0000

> <Gold.PLP.Chemscore.Metal>
0.0000

> <Gold.Chemscore.Hbonds>
donor molecule, donor type, donor heavy atom, donor atom, acceptor molecule, acceptor atom, score
      P1  H  7989  7998       L1    10  0.12
      P1  H 10752 10765       L1     3  1.00

> <Gold.PLP.Chemscore.Internal.Correction>
0.0095

> <Gold.Rescore>
     Score         DG    S(hbond)    S(metal)    S(lipo)     H(rot)  DE(clash)    DE(int)     intcor
     11.83     -13.84       1.19        0.00      74.60       1.70       0.45       1.55       ----

> <Gold.Chemscore.Fitness>
11.8289

> <Gold.Chemscore.DG>
-13.8356

> <Gold.Chemscore.ZeroCoef>
-5.4800

> <Gold.Chemscore.Hbond>
1.1884

> <Gold.Chemscore.Metal>
0.0000

> <Gold.Chemscore.Lipo>
74.5960

> <Gold.Chemscore.Internal_Hbond>
0.0000

> <Gold.Chemscore.DEClash>
0.4517

> <Gold.Chemscore.DEInternal>
1.5550

> <Gold.Chemscore.Rot>
1.6958

> <Gold.Chemscore.Internal.Correction>
   9.000000E+99

> <Gold.Chemscore.Hbonds>
donor molecule, donor type, donor heavy atom, donor atom, acceptor molecule, acceptor atom, score
      P1  H  7989  7998       L1    10  0.06
      P1  H 10752 10765       L1     3  0.90

> <Gold.Chemscore.Hbond.Weighted>
-3.9692

> <Gold.Chemscore.Metal.Weighted>
-0.0000

> <Gold.Chemscore.Lipo.Weighted>
-8.7277

> <Gold.Chemscore.Internal_Hbond.Weighted>
0.0000

> <Gold.Chemscore.DEClash.Weighted>
0.4517

> <Gold.Chemscore.DEInternal.Weighted>
1.5550

> <Gold.Chemscore.Rot.Weighted>
4.3413

> <Gold.Chemscore.Internal.Correction.Weighted>
   9.000000E+99

> <Gold.Protein.RotatedTorsions>
[ 6907 6896 6895 6894 ] final -132.33 input  -60.11 | X-H torsion
[ 7974 7965 7964 7962 ] final -114.64 input  175.53 | X-H torsion
[ 8008 7997 7996 7995 ] final -171.87 input   59.86 | X-H torsion
[ 10167 10162 10161 10158 ] final   79.98 input  -65.29 | X-H torsion
[ 10718 10713 10712 10709 ] final   -5.62 input   66.30 | X-H torsion
[ 10763 10752 10751 10750 ] final -172.45 input  -60.55 | X-H torsion
[ 11005 11000 10999 10996 ] final  -27.82 input  -57.11 | X-H torsion

> <Gold.Protein.ActiveResidues>
 VAL166  LYS551  ARG553  GLY616  TRP617  ASP618  TYR619  PRO620  LYS621  CYS622 
 ASP623  PHE694  ASN695  SER759  ASP760  ASP761  ALA762  ILE779  LEU786  VAL792 
 PHE793  MET794  SER795  GLU796  ALA797  LYS798  CYS799  TRP800  GLU811  SER814 

> <Gold.Protein.RotatedAtoms>
  150.9612  133.6443  159.2753 H   0  0  0  0  0  0  0  0  0  0  0  0  # atno 6907 bound_to 6896
  151.3765  135.0931  159.9492 H   0  0  0  0  0  0  0  0  0  0  0  0  # atno 6908 bound_to 6896
  152.5148  133.9155  159.7563 H   0  0  0  0  0  0  0  0  0  0  0  0  # atno 6909 bound_to 6896
  145.1178  140.8651  143.3832 H   0  0  0  0  0  0  0  0  0  0  0  0  # atno 7974 bound_to 7965
  155.9372  140.1102  157.1085 H   0  0  0  0  0  0  0  0  0  0  0  0  # atno 8008 bound_to 7997
  154.4082  140.1226  156.4945 H   0  0  0  0  0  0  0  0  0  0  0  0  # atno 8009 bound_to 7997
  155.7007  140.3472  155.4934 H   0  0  0  0  0  0  0  0  0  0  0  0  # atno 8010 bound_to 7997
  139.9546  144.6003  150.8129 H   0  0  0  0  0  0  0  0  0  0  0  0  # atno 10167 bound_to 10162
  156.7438  130.5218  149.5818 H   0  0  0  0  0  0  0  0  0  0  0  0  # atno 10718 bound_to 10713
  154.6191  135.2873  155.0346 H   0  0  0  0  0  0  0  0  0  0  0  0  # atno 10763 bound_to 10752
  154.1547  135.6497  153.4975 H   0  0  0  0  0  0  0  0  0  0  0  0  # atno 10764 bound_to 10752
  153.0228  135.5364  154.6974 H   0  0  0  0  0  0  0  0  0  0  0  0  # atno 10765 bound_to 10752
  140.9153  133.7434  156.0726 H   0  0  0  0  0  0  0  0  0  0  0  0  # atno 11005 bound_to 11000
  145.0774  139.2985  143.5801 LP  0  0  0  0  0  0  0  0  0  0  0  0  # atno 17320 bound_to 7965
  146.3523  140.0269  142.8654 LP  0  0  0  0  0  0  0  0  0  0  0  0  # atno 17321 bound_to 7965
  140.7572  143.3082  151.2910 LP  0  0  0  0  0  0  0  0  0  0  0  0  # atno 17342 bound_to 10162
  139.6602  144.0204  152.2687 LP  0  0  0  0  0  0  0  0  0  0  0  0  # atno 17343 bound_to 10162
  156.1446  130.6268  151.0514 LP  0  0  0  0  0  0  0  0  0  0  0  0  # atno 17370 bound_to 10713
  157.6807  131.0839  150.7378 LP  0  0  0  0  0  0  0  0  0  0  0  0  # atno 17371 bound_to 10713
  140.8058  134.3457  157.5426 LP  0  0  0  0  0  0  0  0  0  0  0  0  # atno 17394 bound_to 11000
  139.8765  134.9224  156.3300 LP  0  0  0  0  0  0  0  0  0  0  0  0  # atno 17395 bound_to 11000

$$$$
