AV-unprocessed.smi:2607|AV-procd|sdf|10202|dock2
  -GOLD-   2272014213D 1   1.00000     0.00000
 Structure written by MMmdl.
 21 22  0  0  0  0  0  0  0  0  2 V2000
  152.1627  139.6922  159.1856 C   0  0  0  0  0  0  0  0  0  0  0  0
  151.7185  140.5659  157.9944 C   0  0  1  0  0  0  0  0  0  0  0  0
  151.8351  142.0642  158.3399 C   0  0  0  0  0  0  0  0  0  0  0  0
  152.3258  142.5299  159.5882 C   0  0  0  0  0  0  0  0  0  0  0  0
  152.4128  143.8466  159.8832 N   0  0  0  0  0  0  0  0  0  0  0  0
  152.0046  144.7096  158.9287 C   0  0  0  0  0  0  0  0  0  0  0  0
  151.5095  144.2608  157.6879 C   0  0  0  0  0  0  0  0  0  0  0  0
  151.4216  142.9459  157.3935 N   0  0  0  0  0  0  0  0  0  0  0  0
  152.4846  140.1784  156.8146 N   0  5  0  0  0  0  0  0  0  0  0  0
  151.6356  139.7509  155.8515 C   0  0  0  0  0  0  0  0  0  0  0  0
  151.9146  139.3701  154.7169 O   0  0  0  0  0  0  0  0  0  0  0  0
  150.3751  139.7805  156.2903 N   0  0  0  0  0  0  0  0  0  0  0  0
  150.3010  140.2117  157.5454 C   0  0  0  0  0  0  0  0  0  0  0  0
  149.2846  140.2954  158.2351 O   0  0  0  0  0  0  0  0  0  0  0  0
  151.5660  139.8946  160.0756 H   0  0  0  0  0  0  0  0  0  0  0  0
  153.2055  139.8815  159.4424 H   0  0  0  0  0  0  0  0  0  0  0  0
  152.0662  138.6277  158.9660 H   0  0  0  0  0  0  0  0  0  0  0  0
  152.6515  141.8569  160.3670 H   0  0  0  0  0  0  0  0  0  0  0  0
  152.0707  145.7631  159.1562 H   0  0  0  0  0  0  0  0  0  0  0  0
  151.1825  144.9577  156.9306 H   0  0  0  0  0  0  0  0  0  0  0  0
  149.5796  139.4872  155.7433 H   0  0  0  0  0  0  0  0  0  0  0  0
  1  2  1  0  0  0  0
  1 15  1  0  0  0  0
  1 16  1  0  0  0  0
  1 17  1  0  0  0  0
  2 13  1  0  0  0  0
  2  3  1  0  0  0  0
  2  9  1  0  0  0  0
  3  8  1  0  0  0  0
  3  4  2  0  0  0  0
  4  5  1  0  0  0  0
  4 18  1  0  0  0  0
  5  6  2  0  0  0  0
  6  7  1  0  0  0  0
  6 19  1  0  0  0  0
  7  8  2  0  0  0  0
  7 20  1  0  0  0  0
  9 10  1  0  0  0  0
 10 11  2  0  0  0  0
 10 12  1  0  0  0  0
 12 13  1  0  0  0  0
 12 21  1  0  0  0  0
 13 14  2  0  0  0  0
M  CHG  1   9  -1
M  END
> <s_m_source_file>
AV-unprocessed.smi

> <i_m_source_file_index>
2607

> <i_lp_mmshare_version>
43012

> <i_f3d_flags>
0

> <s_epik_input>
Tz1DMVtOSF1DKD1PKVtOSF1bQ0BAXTEoW0NIM10pYzJbY0hdbltjSF1bY0hdbjI=

> <s_epik_cmdline>
J2VwaWtfcHl0aG9uJywgJy1waCcsICc3LjAnLCAnLXRuJywgJzgnLCAnLW1hJywgJzIwMCcsICctbWV0YWxfYmluZGluZycsICctaW1hZScsICc8aW5maWxlLm1hZT4nLCAnLW9tYWUnLCAnPG91dGZpbGUubWFlPic=

> <r_lp_tautomer_probability>
1

> <r_epik_Ionization_Penalty>
4.70687

> <r_epik_Ionization_Penalty_Charging>
4.70687

> <r_epik_Ionization_Penalty_Neutral>
2.29475e-06

> <r_epik_State_Penalty>
4.73416

> <r_epik_Charging_Adjusted_Penalty>
9.44103

> <i_epik_Tot_Q>
-1

> <i_epik_Tot_abs_Q>
1

> <r_epik_Metal_State_Penalty>
1.2389

> <b_epik_Metal_Only>
1

> <s_lp_Force_Field>
OPLS_2005

> <r_lp_Energy>
21.97

> <b_lp_Chiralities_Consistent>
1

> <s_lp_Variant>
AV-unprocessed.smi:2607-5

> <Gold.Version>
5.8.1

> <Gold.Id.Protein>
6NUR|6NUR_protein|mol2

> <Gold.PLP.Fitness>
37.0378

> <Gold.PLP.PLP>
-25.2811

> <Gold.PLP.part.hbond>
-2.2755

> <Gold.PLP.part.metal>
0.0000

> <Gold.PLP.part.buried>
-2.1077

> <Gold.PLP.part.nonpolar>
-20.4605

> <Gold.PLP.part.repulsive>
0.2116

> <Gold.PLP.ligand.clash>
0.0000

> <Gold.PLP.ligand.torsion>
0.0462

> <Gold.PLP.Chemscore.Hbond>
3.0000

> <Gold.PLP.Chemscore.CHOScore>
0.9317

> <Gold.PLP.Chemscore.Metal>
0.0000

> <Gold.Chemscore.Hbonds>
donor molecule, donor type, donor heavy atom, donor atom, acceptor molecule, acceptor atom, score
      P1  H  7989  7998       L1    11  0.98
      P1  H  7997  8009       L1     9  2.00
      L1  C     7    20       P1  8028  0.75

> <Gold.PLP.Chemscore.Internal.Correction>
0.0541

> <Gold.Rescore>
     Score         DG    S(hbond)    S(metal)    S(lipo)     H(rot)  DE(clash)    DE(int)     intcor
     15.86     -16.07       1.97        0.00      56.23       1.00       0.18       0.03       ----

> <Gold.Chemscore.Fitness>
15.8590

> <Gold.Chemscore.DG>
-16.0705

> <Gold.Chemscore.ZeroCoef>
-5.4800

> <Gold.Chemscore.Hbond>
1.9676

> <Gold.Chemscore.Metal>
0.0000

> <Gold.Chemscore.Lipo>
56.2287

> <Gold.Chemscore.Internal_Hbond>
0.0000

> <Gold.Chemscore.DEClash>
0.1842

> <Gold.Chemscore.DEInternal>
0.0273

> <Gold.Chemscore.Rot>
1.0000

> <Gold.Chemscore.Internal.Correction>
   9.000000E+99

> <Gold.Chemscore.Hbonds>
donor molecule, donor type, donor heavy atom, donor atom, acceptor molecule, acceptor atom, score
      P1  H  7989  7998       L1    11  0.64
      P1  H  7997  8009       L1     9  0.96

> <Gold.Chemscore.Hbond.Weighted>
-6.5718

> <Gold.Chemscore.Metal.Weighted>
-0.0000

> <Gold.Chemscore.Lipo.Weighted>
-6.5788

> <Gold.Chemscore.Internal_Hbond.Weighted>
0.0000

> <Gold.Chemscore.DEClash.Weighted>
0.1842

> <Gold.Chemscore.DEInternal.Weighted>
0.0273

> <Gold.Chemscore.Rot.Weighted>
2.5600

> <Gold.Chemscore.Internal.Correction.Weighted>
   9.000000E+99

> <Gold.Protein.RotatedTorsions>
[ 6907 6896 6895 6894 ] final   90.46 input  -60.11 | X-H torsion
[ 7974 7965 7964 7962 ] final   38.40 input  175.53 | X-H torsion
[ 8008 7997 7996 7995 ] final -174.52 input   59.86 | X-H torsion
[ 10167 10162 10161 10158 ] final  128.51 input  -65.29 | X-H torsion
[ 10718 10713 10712 10709 ] final   65.98 input   66.30 | X-H torsion
[ 10763 10752 10751 10750 ] final   -5.74 input  -60.55 | X-H torsion
[ 11005 11000 10999 10996 ] final  -60.35 input  -57.11 | X-H torsion

> <Gold.Protein.ActiveResidues>
 VAL166  LYS551  ARG553  GLY616  TRP617  ASP618  TYR619  PRO620  LYS621  CYS622 
 ASP623  PHE694  ASN695  SER759  ASP760  ASP761  ALA762  ILE779  LEU786  VAL792 
 PHE793  MET794  SER795  GLU796  ALA797  LYS798  CYS799  TRP800  GLU811  SER814 

> <Gold.Protein.RotatedAtoms>
  152.5444  134.1808  159.8634 H   0  0  0  0  0  0  0  0  0  0  0  0  # atno 6907 bound_to 6896
  151.1811  133.4717  159.2601 H   0  0  0  0  0  0  0  0  0  0  0  0  # atno 6908 bound_to 6896
  151.1178  135.0074  159.8579 H   0  0  0  0  0  0  0  0  0  0  0  0  # atno 6909 bound_to 6896
  146.1064  139.5776  142.9380 H   0  0  0  0  0  0  0  0  0  0  0  0  # atno 7974 bound_to 7965
  155.9712  140.1163  157.0811 H   0  0  0  0  0  0  0  0  0  0  0  0  # atno 8008 bound_to 7997
  154.4157  140.1163  156.5376 H   0  0  0  0  0  0  0  0  0  0  0  0  # atno 8009 bound_to 7997
  155.6594  140.3473  155.4779 H   0  0  0  0  0  0  0  0  0  0  0  0  # atno 8010 bound_to 7997
  139.5523  144.6823  151.4285 H   0  0  0  0  0  0  0  0  0  0  0  0  # atno 10167 bound_to 10162
  157.6140  130.9243  150.0048 H   0  0  0  0  0  0  0  0  0  0  0  0  # atno 10718 bound_to 10713
  153.4027  135.7005  153.6415 H   0  0  0  0  0  0  0  0  0  0  0  0  # atno 10763 bound_to 10752
  153.4942  135.3666  155.2507 H   0  0  0  0  0  0  0  0  0  0  0  0  # atno 10764 bound_to 10752
  154.8711  135.4096  154.3364 H   0  0  0  0  0  0  0  0  0  0  0  0  # atno 10765 bound_to 10752
  141.1284  133.6622  156.5211 H   0  0  0  0  0  0  0  0  0  0  0  0  # atno 11005 bound_to 11000
  145.5751  141.0389  143.2152 LP  0  0  0  0  0  0  0  0  0  0  0  0  # atno 17320 bound_to 7965
  144.7475  139.7282  143.7286 LP  0  0  0  0  0  0  0  0  0  0  0  0  # atno 17321 bound_to 7965
  140.6789  143.8127  150.7095 LP  0  0  0  0  0  0  0  0  0  0  0  0  # atno 17342 bound_to 10162
  140.1574  143.4305  152.2090 LP  0  0  0  0  0  0  0  0  0  0  0  0  # atno 17343 bound_to 10162
  156.1254  130.3644  149.9818 LP  0  0  0  0  0  0  0  0  0  0  0  0  # atno 17370 bound_to 10713
  156.7890  130.9249  151.3646 LP  0  0  0  0  0  0  0  0  0  0  0  0  # atno 17371 bound_to 10713
  140.4292  134.7117  157.4932 LP  0  0  0  0  0  0  0  0  0  0  0  0  # atno 17394 bound_to 11000
  140.0306  134.6412  155.9112 LP  0  0  0  0  0  0  0  0  0  0  0  0  # atno 17395 bound_to 11000

$$$$
