AV-unprocessed.smi:546|AV-procd|sdf|2887|dock3
  -GOLD-   2262023383D 1   1.00000     0.00000
 Structure written by MMmdl.
 51 53  0  0  0  0  0  0  0  0  2 V2000
  153.9744  138.6429  160.1466 C   0  0  0  0  0  0  0  0  0  0  0  0
  153.6093  137.8142  158.9134 C   0  0  0  0  0  0  0  0  0  0  0  0
  153.5422  138.6796  157.7948 O   0  0  0  0  0  0  0  0  0  0  0  0
  152.2898  139.3301  157.6675 C   0  0  0  0  0  0  0  0  0  0  0  0
  152.2335  140.1199  156.3512 C   0  0  0  0  0  0  0  0  0  0  0  0
  150.9118  140.6937  156.1202 N   0  0  0  0  0  0  0  0  0  0  0  0
  150.3757  141.7887  156.7160 C   0  0  0  0  0  0  0  0  0  0  0  0
  151.0660  142.4887  157.7019 N   0  0  0  0  0  0  0  0  0  0  0  0
  151.3842  141.8685  158.9859 C   0  0  0  0  0  0  0  0  0  0  0  0
  152.7187  142.3638  159.5704 C   0  0  2  0  0  0  0  0  0  0  0  0
  153.0404  141.6647  160.8982 C   0  0  0  0  0  0  0  0  0  0  0  0
  152.6723  143.8909  159.7366 C   0  0  0  0  0  0  0  0  0  0  0  0
  152.2811  144.5782  158.4178 C   0  0  1  0  0  0  0  0  0  0  0  0
  153.4433  144.6259  157.4127 C   0  0  0  0  0  0  0  0  0  0  0  0
  150.9977  143.9447  157.8330 C   0  0  0  0  0  0  0  0  0  0  0  0
  149.1477  142.1095  156.3057 N   0  0  0  0  0  0  0  0  0  0  0  0
  148.8765  141.1258  155.3660 C   0  0  0  0  0  0  0  0  0  0  0  0
  149.9165  140.2587  155.2389 C   0  0  0  0  0  0  0  0  0  0  0  0
  149.9121  139.1015  154.3169 C   0  0  0  0  0  0  0  0  0  0  0  0
  150.8713  138.3354  154.2510 O   0  0  0  0  0  0  0  0  0  0  0  0
  148.7482  139.0198  153.5977 N   0  5  0  0  0  0  0  0  0  0  0  0
  147.6724  139.8768  153.6926 C   0  0  0  0  0  0  0  0  0  0  0  0
  146.6649  139.7239  153.0016 O   0  0  0  0  0  0  0  0  0  0  0  0
  147.7150  140.9273  154.5739 N   0  0  0  0  0  0  0  0  0  0  0  0
  146.6115  141.8784  154.7391 C   0  0  0  0  0  0  0  0  0  0  0  0
  154.0339  138.0153  161.0356 H   0  0  0  0  0  0  0  0  0  0  0  0
  153.2287  139.4167  160.3311 H   0  0  0  0  0  0  0  0  0  0  0  0
  154.9392  139.1332  160.0157 H   0  0  0  0  0  0  0  0  0  0  0  0
  154.3585  137.0392  158.7458 H   0  0  0  0  0  0  0  0  0  0  0  0
  152.6486  137.3211  159.0685 H   0  0  0  0  0  0  0  0  0  0  0  0
  151.4817  138.5982  157.6989 H   0  0  0  0  0  0  0  0  0  0  0  0
  152.1528  140.0084  158.5088 H   0  0  0  0  0  0  0  0  0  0  0  0
  152.9808  140.9114  156.3438 H   0  0  0  0  0  0  0  0  0  0  0  0
  152.4930  139.4720  155.5141 H   0  0  0  0  0  0  0  0  0  0  0  0
  150.5684  142.0631  159.6834 H   0  0  0  0  0  0  0  0  0  0  0  0
  151.4239  140.7867  158.8513 H   0  0  0  0  0  0  0  0  0  0  0  0
  153.5140  142.1107  158.8684 H   0  0  0  0  0  0  0  0  0  0  0  0
  152.2779  141.8704  161.6503 H   0  0  0  0  0  0  0  0  0  0  0  0
  153.9992  141.9987  161.2955 H   0  0  0  0  0  0  0  0  0  0  0  0
  153.0966  140.5836  160.7677 H   0  0  0  0  0  0  0  0  0  0  0  0
  151.9377  144.1467  160.5017 H   0  0  0  0  0  0  0  0  0  0  0  0
  153.6303  144.2691  160.0953 H   0  0  0  0  0  0  0  0  0  0  0  0
  152.0473  145.6172  158.6533 H   0  0  0  0  0  0  0  0  0  0  0  0
  153.7410  143.6307  157.0858 H   0  0  0  0  0  0  0  0  0  0  0  0
  154.3195  145.1034  157.8518 H   0  0  0  0  0  0  0  0  0  0  0  0
  153.1707  145.2019  156.5284 H   0  0  0  0  0  0  0  0  0  0  0  0
  150.7772  144.3836  156.8592 H   0  0  0  0  0  0  0  0  0  0  0  0
  150.1480  144.1851  158.4734 H   0  0  0  0  0  0  0  0  0  0  0  0
  145.7239  141.6463  154.1499 H   0  0  0  0  0  0  0  0  0  0  0  0
  146.9402  142.8786  154.4557 H   0  0  0  0  0  0  0  0  0  0  0  0
  146.3037  141.9114  155.7845 H   0  0  0  0  0  0  0  0  0  0  0  0
  1  2  1  0  0  0  0
  1 26  1  0  0  0  0
  1 27  1  0  0  0  0
  1 28  1  0  0  0  0
  2  3  1  0  0  0  0
  2 29  1  0  0  0  0
  2 30  1  0  0  0  0
  3  4  1  0  0  0  0
  4  5  1  0  0  0  0
  4 31  1  0  0  0  0
  4 32  1  0  0  0  0
  5  6  1  0  0  0  0
  5 33  1  0  0  0  0
  5 34  1  0  0  0  0
  6 18  1  0  0  0  0
  6  7  1  0  0  0  0
  7  8  1  0  0  0  0
  7 16  2  0  0  0  0
  8 15  1  0  0  0  0
  8  9  1  0  0  0  0
  9 10  1  0  0  0  0
  9 35  1  0  0  0  0
  9 36  1  0  0  0  0
 10 11  1  0  0  0  0
 10 12  1  0  0  0  0
 10 37  1  0  0  0  0
 11 38  1  0  0  0  0
 11 39  1  0  0  0  0
 11 40  1  0  0  0  0
 12 13  1  0  0  0  0
 12 41  1  0  0  0  0
 12 42  1  0  0  0  0
 13 14  1  0  0  0  0
 13 15  1  0  0  0  0
 13 43  1  0  0  0  0
 14 44  1  0  0  0  0
 14 45  1  0  0  0  0
 14 46  1  0  0  0  0
 15 47  1  0  0  0  0
 15 48  1  0  0  0  0
 16 17  1  0  0  0  0
 17 24  1  0  0  0  0
 17 18  2  0  0  0  0
 18 19  1  0  0  0  0
 19 20  2  0  0  0  0
 19 21  1  0  0  0  0
 21 22  1  0  0  0  0
 22 23  2  0  0  0  0
 22 24  1  0  0  0  0
 24 25  1  0  0  0  0
 25 49  1  0  0  0  0
 25 50  1  0  0  0  0
 25 51  1  0  0  0  0
M  CHG  1  21  -1
M  END
> <s_m_source_file>
AV-unprocessed.smi

> <i_m_source_file_index>
546

> <i_lp_mmshare_version>
43012

> <i_f3d_flags>
0

> <s_epik_input>
W0NIM11uMWMoPU8pW25IXWMoPU8pYyhjMTIpbihbQ0gyXVtDSDJdT1tDSDJdW0NIM10pYyhuMilOM1tDSDJdW0NAQEhdKFtDSDNdKVtDSDJdW0NAQEhdKFtDSDNdKVtDSDJdMw==

> <s_epik_cmdline>
J2VwaWtfcHl0aG9uJywgJy1waCcsICc3LjAnLCAnLXRuJywgJzgnLCAnLW1hJywgJzIwMCcsICctbWV0YWxfYmluZGluZycsICctaW1hZScsICc8aW5maWxlLm1hZT4nLCAnLW9tYWUnLCAnPG91dGZpbGUubWFlPic=

> <r_lp_tautomer_probability>
1

> <r_epik_Ionization_Penalty>
5.12825

> <r_epik_Ionization_Penalty_Charging>
0.0743105

> <r_epik_Ionization_Penalty_Neutral>
5.05394

> <r_epik_State_Penalty>
5.04406

> <r_epik_Charging_Adjusted_Penalty>
5.11837

> <i_epik_Tot_Q>
-1

> <i_epik_Tot_abs_Q>
1

> <r_epik_Metal_State_Penalty>
1.15122

> <b_epik_Metal_Only>
1

> <s_lp_Force_Field>
OPLS_2005

> <r_lp_Energy>
46.3243

> <b_lp_Chiralities_Consistent>
1

> <s_lp_Variant>
AV-unprocessed.smi:546-5

> <Gold.Version>
5.8.1

> <Gold.Id.Protein>
6NUR|6NUR_protein|mol2

> <Gold.PLP.Fitness>
43.3302

> <Gold.PLP.PLP>
-41.8663

> <Gold.PLP.part.hbond>
-1.0000

> <Gold.PLP.part.metal>
0.0000

> <Gold.PLP.part.buried>
-5.0781

> <Gold.PLP.part.nonpolar>
-40.5583

> <Gold.PLP.part.repulsive>
4.8824

> <Gold.PLP.ligand.clash>
0.0000

> <Gold.PLP.ligand.torsion>
1.2576

> <Gold.PLP.Chemscore.Hbond>
1.0000

> <Gold.PLP.Chemscore.CHOScore>
0.0000

> <Gold.PLP.Chemscore.Metal>
0.0000

> <Gold.Chemscore.Hbonds>
donor molecule, donor type, donor heavy atom, donor atom, acceptor molecule, acceptor atom, score
      P1  H  7997  8008       L1     3  1.00

> <Gold.PLP.Chemscore.Internal.Correction>
0.9791

> <Gold.Rescore>
     Score         DG    S(hbond)    S(metal)    S(lipo)     H(rot)  DE(clash)    DE(int)     intcor
     11.39     -17.53       0.64        0.00     118.03       1.52       3.65       2.48       ----

> <Gold.Chemscore.Fitness>
11.3921

> <Gold.Chemscore.DG>
-17.5296

> <Gold.Chemscore.ZeroCoef>
-5.4800

> <Gold.Chemscore.Hbond>
0.6385

> <Gold.Chemscore.Metal>
0.0000

> <Gold.Chemscore.Lipo>
118.0326

> <Gold.Chemscore.Internal_Hbond>
0.0000

> <Gold.Chemscore.DEClash>
3.6540

> <Gold.Chemscore.DEInternal>
2.4834

> <Gold.Chemscore.Rot>
1.5206

> <Gold.Chemscore.Internal.Correction>
   9.000000E+99

> <Gold.Chemscore.Hbonds>
donor molecule, donor type, donor heavy atom, donor atom, acceptor molecule, acceptor atom, score
      P1  H  7997  8008       L1     3  0.34

> <Gold.Chemscore.Hbond.Weighted>
-2.1324

> <Gold.Chemscore.Metal.Weighted>
-0.0000

> <Gold.Chemscore.Lipo.Weighted>
-13.8098

> <Gold.Chemscore.Internal_Hbond.Weighted>
0.0000

> <Gold.Chemscore.DEClash.Weighted>
3.6540

> <Gold.Chemscore.DEInternal.Weighted>
2.4834

> <Gold.Chemscore.Rot.Weighted>
3.8926

> <Gold.Chemscore.Internal.Correction.Weighted>
   9.000000E+99

> <Gold.Protein.RotatedTorsions>
[ 6907 6896 6895 6894 ] final  -70.49 input  -60.11 | X-H torsion
[ 7974 7965 7964 7962 ] final   47.25 input  175.53 | X-H torsion
[ 8008 7997 7996 7995 ] final  -96.21 input   59.86 | X-H torsion
[ 10167 10162 10161 10158 ] final   72.46 input  -65.29 | X-H torsion
[ 10718 10713 10712 10709 ] final   80.55 input   66.30 | X-H torsion
[ 10763 10752 10751 10750 ] final -127.52 input  -60.55 | X-H torsion
[ 11005 11000 10999 10996 ] final   -5.20 input  -57.11 | X-H torsion

> <Gold.Protein.ActiveResidues>
 VAL166  LYS551  ARG553  GLY616  TRP617  ASP618  TYR619  PRO620  LYS621  CYS622 
 ASP623  PHE694  ASN695  SER759  ASP760  ASP761  ALA762  ILE779  LEU786  VAL792 
 PHE793  MET794  SER795  GLU796  ALA797  LYS798  CYS799  TRP800  GLU811  SER814 

> <Gold.Protein.RotatedAtoms>
  150.7255  134.5445  159.5763 H   0  0  0  0  0  0  0  0  0  0  0  0  # atno 6907 bound_to 6896
  152.2948  134.7677  160.0379 H   0  0  0  0  0  0  0  0  0  0  0  0  # atno 6908 bound_to 6896
  151.8278  133.3368  159.3641 H   0  0  0  0  0  0  0  0  0  0  0  0  # atno 6909 bound_to 6896
  146.0315  139.4769  142.9835 H   0  0  0  0  0  0  0  0  0  0  0  0  # atno 7974 bound_to 7965
  154.7715  140.0473  157.1055 H   0  0  0  0  0  0  0  0  0  0  0  0  # atno 8008 bound_to 7997
  154.9815  140.3102  155.4925 H   0  0  0  0  0  0  0  0  0  0  0  0  # atno 8009 bound_to 7997
  156.2922  140.2235  156.4914 H   0  0  0  0  0  0  0  0  0  0  0  0  # atno 8010 bound_to 7997
  140.0350  144.5435  150.7477 H   0  0  0  0  0  0  0  0  0  0  0  0  # atno 10167 bound_to 10162
  157.6809  130.9964  150.2096 H   0  0  0  0  0  0  0  0  0  0  0  0  # atno 10718 bound_to 10713
  154.8752  135.3959  154.3607 H   0  0  0  0  0  0  0  0  0  0  0  0  # atno 10763 bound_to 10752
  153.4380  135.7026  153.6193 H   0  0  0  0  0  0  0  0  0  0  0  0  # atno 10764 bound_to 10752
  153.4786  135.3774  155.2399 H   0  0  0  0  0  0  0  0  0  0  0  0  # atno 10765 bound_to 10752
  140.6885  133.9091  155.8602 H   0  0  0  0  0  0  0  0  0  0  0  0  # atno 11005 bound_to 11000
  145.7033  141.0129  143.1493 LP  0  0  0  0  0  0  0  0  0  0  0  0  # atno 17320 bound_to 7965
  144.7032  139.8670  143.7438 LP  0  0  0  0  0  0  0  0  0  0  0  0  # atno 17321 bound_to 7965
  140.7285  143.2663  151.4035 LP  0  0  0  0  0  0  0  0  0  0  0  0  # atno 17342 bound_to 10162
  139.6051  144.1215  152.2240 LP  0  0  0  0  0  0  0  0  0  0  0  0  # atno 17343 bound_to 10162
  156.2770  130.3728  149.7973 LP  0  0  0  0  0  0  0  0  0  0  0  0  # atno 17370 bound_to 10713
  156.5673  130.8409  151.3346 LP  0  0  0  0  0  0  0  0  0  0  0  0  # atno 17371 bound_to 10713
  141.0260  134.0823  157.4068 LP  0  0  0  0  0  0  0  0  0  0  0  0  # atno 17394 bound_to 11000
  139.8930  135.0128  156.6877 LP  0  0  0  0  0  0  0  0  0  0  0  0  # atno 17395 bound_to 11000

$$$$
