AV-unprocessed.smi:3340|AV-procd|sdf|12882|dock10
  -GOLD-   2272019283D 1   1.00000     0.00000
 Structure written by MMmdl.
 41 42  0  0  0  0  0  0  0  0  1 V2000
  149.8379  141.6886  156.5100 C   0  0  0  0  0  0  0  0  0  0  0  0
  150.1151  140.5227  155.5583 C   0  0  0  0  0  0  0  0  0  0  0  0
  151.2248  140.4629  155.0279 O   0  0  0  0  0  0  0  0  0  0  0  0
  149.1443  139.6049  155.3316 N   0  0  0  0  0  0  0  0  0  0  0  0
  149.3130  138.4827  154.3956 C   0  0  0  0  0  0  0  0  0  0  0  0
  148.2971  138.6300  153.2452 C   0  0  0  0  0  0  0  0  0  0  0  0
  146.9350  138.6576  153.8124 N   0  0  0  0  0  0  0  0  0  0  0  0
  145.9751  137.7107  153.6573 C   0  0  0  0  0  0  0  0  0  0  0  0
  144.9030  137.7363  154.2623 O   0  0  0  0  0  0  0  0  0  0  0  0
  146.2777  136.7468  152.7678 N   0  0  0  0  0  0  0  0  0  0  0  0
  145.4479  135.6101  152.3575 C   0  0  1  0  0  0  0  0  0  0  0  0
  143.9545  135.9794  152.3347 C   0  0  0  0  0  0  0  0  0  0  0  0
  145.9165  134.9759  151.0283 C   0  0  0  0  0  0  0  0  0  0  0  0
  145.3144  133.6767  150.7919 N   0  0  0  0  0  0  0  0  0  0  0  0
  143.9652  133.3976  150.6168 C   0  0  0  0  0  0  0  0  0  0  0  0
  143.8673  132.0388  150.4201 C   0  0  0  0  0  0  0  0  0  0  0  0
  145.1357  131.4650  150.4720 N   0  0  0  0  0  0  0  0  0  0  0  0
  145.9402  132.4956  150.6981 C   0  0  0  0  0  0  0  0  0  0  0  0
  146.7724  139.7920  154.7347 C   0  0  0  0  0  0  0  0  0  0  0  0
  147.7832  139.6466  155.8900 C   0  0  0  0  0  0  0  0  0  0  0  0
  149.0052  142.2930  156.1492 H   0  0  0  0  0  0  0  0  0  0  0  0
  150.7104  142.3382  156.5866 H   0  0  0  0  0  0  0  0  0  0  0  0
  149.6063  141.3239  157.5112 H   0  0  0  0  0  0  0  0  0  0  0  0
  150.3211  138.4230  153.9836 H   0  0  0  0  0  0  0  0  0  0  0  0
  149.1497  137.5436  154.9265 H   0  0  0  0  0  0  0  0  0  0  0  0
  148.4761  139.5614  152.7060 H   0  0  0  0  0  0  0  0  0  0  0  0
  148.4614  137.8374  152.5158 H   0  0  0  0  0  0  0  0  0  0  0  0
  147.1785  136.8157  152.3173 H   0  0  0  0  0  0  0  0  0  0  0  0
  145.5747  134.8621  153.1410 H   0  0  0  0  0  0  0  0  0  0  0  0
  143.3387  135.0967  152.1610 H   0  0  0  0  0  0  0  0  0  0  0  0
  143.7249  136.6971  151.5470 H   0  0  0  0  0  0  0  0  0  0  0  0
  143.6419  136.4143  153.2846 H   0  0  0  0  0  0  0  0  0  0  0  0
  145.6502  135.6250  150.1933 H   0  0  0  0  0  0  0  0  0  0  0  0
  147.0014  134.8712  150.9975 H   0  0  0  0  0  0  0  0  0  0  0  0
  143.2089  134.1685  150.6423 H   0  0  0  0  0  0  0  0  0  0  0  0
  142.9888  131.4349  150.2461 H   0  0  0  0  0  0  0  0  0  0  0  0
  147.0108  132.3898  150.7932 H   0  0  0  0  0  0  0  0  0  0  0  0
  146.9456  140.7239  154.1945 H   0  0  0  0  0  0  0  0  0  0  0  0
  145.7626  139.8675  155.1402 H   0  0  0  0  0  0  0  0  0  0  0  0
  147.5954  138.7224  156.4388 H   0  0  0  0  0  0  0  0  0  0  0  0
  147.6280  140.4507  156.6074 H   0  0  0  0  0  0  0  0  0  0  0  0
  1  2  1  0  0  0  0
  1 21  1  0  0  0  0
  1 22  1  0  0  0  0
  1 23  1  0  0  0  0
  2  3  2  0  0  0  0
  2  4  1  0  0  0  0
  4 20  1  0  0  0  0
  4  5  1  0  0  0  0
  5  6  1  0  0  0  0
  5 24  1  0  0  0  0
  5 25  1  0  0  0  0
  6  7  1  0  0  0  0
  6 26  1  0  0  0  0
  6 27  1  0  0  0  0
  7  8  1  0  0  0  0
  7 19  1  0  0  0  0
  8  9  2  0  0  0  0
  8 10  1  0  0  0  0
 10 11  1  0  0  0  0
 10 28  1  0  0  0  0
 11 12  1  0  0  0  0
 11 13  1  0  0  0  0
 11 29  1  0  0  0  0
 12 30  1  0  0  0  0
 12 31  1  0  0  0  0
 12 32  1  0  0  0  0
 13 14  1  0  0  0  0
 13 33  1  0  0  0  0
 13 34  1  0  0  0  0
 14 18  1  0  0  0  0
 14 15  1  0  0  0  0
 15 16  2  0  0  0  0
 15 35  1  0  0  0  0
 16 17  1  0  0  0  0
 16 36  1  0  0  0  0
 17 18  2  0  0  0  0
 18 37  1  0  0  0  0
 19 20  1  0  0  0  0
 19 38  1  0  0  0  0
 19 39  1  0  0  0  0
 20 40  1  0  0  0  0
 20 41  1  0  0  0  0
M  END
> <s_m_source_file>
AV-unprocessed.smi

> <i_m_source_file_index>
3340

> <i_lp_mmshare_version>
43012

> <i_f3d_flags>
0

> <s_epik_input>
W0NIM11DKD1PKU4xW0NIMl1bQ0gyXU4oW0NIMl1bQ0gyXTEpQyg9TylbTkhdW0NASF0oW0NIM10pW0NIMl1uMltjSF1bY0hdbltjSF0y

> <s_epik_cmdline>
J2VwaWtfcHl0aG9uJywgJy1waCcsICc3LjAnLCAnLXRuJywgJzgnLCAnLW1hJywgJzIwMCcsICctbWV0YWxfYmluZGluZycsICctaW1hZScsICc8aW5maWxlLm1hZT4nLCAnLW9tYWUnLCAnPG91dGZpbGUubWFlPic=

> <r_lp_tautomer_probability>
1

> <r_epik_Ionization_Penalty>
0.622948

> <r_epik_Ionization_Penalty_Charging>
0.622904

> <r_epik_Ionization_Penalty_Neutral>
4.39259e-05

> <r_epik_State_Penalty>
0.639086

> <r_epik_Charging_Adjusted_Penalty>
1.26199

> <i_epik_Tot_Q>
0

> <i_epik_Tot_abs_Q>
0

> <r_epik_Metal_State_Penalty>
0.307185

> <b_epik_Metal_Only>
0

> <s_lp_Force_Field>
OPLS_2005

> <r_lp_Energy>
50.7734

> <b_lp_Chiralities_Consistent>
1

> <s_lp_Variant>
AV-unprocessed.smi:3340-4

> <Gold.Version>
5.8.1

> <Gold.Id.Protein>
6NUR|6NUR_protein|mol2

> <Gold.PLP.Fitness>
39.2025

> <Gold.PLP.PLP>
-24.9601

> <Gold.PLP.part.hbond>
-2.0000

> <Gold.PLP.part.metal>
0.0000

> <Gold.PLP.part.buried>
-0.2315

> <Gold.PLP.part.nonpolar>
-23.6066

> <Gold.PLP.part.repulsive>
0.2669

> <Gold.PLP.ligand.clash>
0.0000

> <Gold.PLP.ligand.torsion>
0.3863

> <Gold.PLP.Chemscore.Hbond>
1.9920

> <Gold.PLP.Chemscore.CHOScore>
2.9884

> <Gold.PLP.Chemscore.Metal>
0.0000

> <Gold.Chemscore.Hbonds>
donor molecule, donor type, donor heavy atom, donor atom, acceptor molecule, acceptor atom, score
      L1  H    10    28       P1  7948  1.00
      P1  H  7989  7998       L1     3  0.99
      L1  C    15    35       P1 10186  1.00
      L1  C    16    36       P1 10952  1.00
      L1  C    18    37       P1 10747  0.97

> <Gold.PLP.Chemscore.Internal.Correction>
0.0736

> <Gold.Rescore>
     Score         DG    S(hbond)    S(metal)    S(lipo)     H(rot)  DE(clash)    DE(int)     intcor
     10.46     -13.37       1.79        0.00      52.35       1.65       0.88       2.03       ----

> <Gold.Chemscore.Fitness>
10.4583

> <Gold.Chemscore.DG>
-13.3688

> <Gold.Chemscore.ZeroCoef>
-5.4800

> <Gold.Chemscore.Hbond>
1.7906

> <Gold.Chemscore.Metal>
0.0000

> <Gold.Chemscore.Lipo>
52.3492

> <Gold.Chemscore.Internal_Hbond>
0.0000

> <Gold.Chemscore.DEClash>
0.8830

> <Gold.Chemscore.DEInternal>
2.0274

> <Gold.Chemscore.Rot>
1.6471

> <Gold.Chemscore.Internal.Correction>
   9.000000E+99

> <Gold.Chemscore.Hbonds>
donor molecule, donor type, donor heavy atom, donor atom, acceptor molecule, acceptor atom, score
      L1  H    10    28       P1  7948  0.98
      P1  H  7989  7998       L1     3  0.94

> <Gold.Chemscore.Hbond.Weighted>
-5.9806

> <Gold.Chemscore.Metal.Weighted>
-0.0000

> <Gold.Chemscore.Lipo.Weighted>
-6.1249

> <Gold.Chemscore.Internal_Hbond.Weighted>
0.0000

> <Gold.Chemscore.DEClash.Weighted>
0.8830

> <Gold.Chemscore.DEInternal.Weighted>
2.0274

> <Gold.Chemscore.Rot.Weighted>
4.2166

> <Gold.Chemscore.Internal.Correction.Weighted>
   9.000000E+99

> <Gold.Protein.RotatedTorsions>
[ 6907 6896 6895 6894 ] final  127.72 input  -60.11 | X-H torsion
[ 7974 7965 7964 7962 ] final  -80.53 input  175.53 | X-H torsion
[ 8008 7997 7996 7995 ] final   94.60 input   59.86 | X-H torsion
[ 10167 10162 10161 10158 ] final  113.57 input  -65.29 | X-H torsion
[ 10718 10713 10712 10709 ] final -140.21 input   66.30 | X-H torsion
[ 10763 10752 10751 10750 ] final   95.50 input  -60.55 | X-H torsion
[ 11005 11000 10999 10996 ] final  -17.01 input  -57.11 | X-H torsion

> <Gold.Protein.ActiveResidues>
 VAL166  LYS551  ARG553  GLY616  TRP617  ASP618  TYR619  PRO620  LYS621  CYS622 
 ASP623  PHE694  ASN695  SER759  ASP760  ASP761  ALA762  ILE779  LEU786  VAL792 
 PHE793  MET794  SER795  GLU796  ALA797  LYS798  CYS799  TRP800  GLU811  SER814 

> <Gold.Protein.RotatedAtoms>
  152.3786  133.6515  159.6143 H   0  0  0  0  0  0  0  0  0  0  0  0  # atno 6907 bound_to 6896
  150.7723  133.9151  159.3390 H   0  0  0  0  0  0  0  0  0  0  0  0  # atno 6908 bound_to 6896
  151.6961  135.0939  160.0294 H   0  0  0  0  0  0  0  0  0  0  0  0  # atno 6909 bound_to 6896
  145.5587  140.9485  143.1459 H   0  0  0  0  0  0  0  0  0  0  0  0  # atno 7974 bound_to 7965
  156.0598  140.3297  155.7448 H   0  0  0  0  0  0  0  0  0  0  0  0  # atno 8008 bound_to 7997
  155.5473  140.0607  157.2875 H   0  0  0  0  0  0  0  0  0  0  0  0  # atno 8009 bound_to 7997
  154.4475  140.1900  156.0639 H   0  0  0  0  0  0  0  0  0  0  0  0  # atno 8010 bound_to 7997
  139.6452  144.7126  151.2157 H   0  0  0  0  0  0  0  0  0  0  0  0  # atno 10167 bound_to 10162
  156.3197  130.7527  151.1622 H   0  0  0  0  0  0  0  0  0  0  0  0  # atno 10718 bound_to 10713
  153.2540  135.4251  155.0826 H   0  0  0  0  0  0  0  0  0  0  0  0  # atno 10763 bound_to 10752
  154.8393  135.3433  154.6472 H   0  0  0  0  0  0  0  0  0  0  0  0  # atno 10764 bound_to 10752
  153.6893  135.7034  153.5151 H   0  0  0  0  0  0  0  0  0  0  0  0  # atno 10765 bound_to 10752
  140.8125  133.8130  155.9577 H   0  0  0  0  0  0  0  0  0  0  0  0  # atno 11005 bound_to 11000
  144.7493  139.7235  143.7279 LP  0  0  0  0  0  0  0  0  0  0  0  0  # atno 17320 bound_to 7965
  146.1866  139.5085  142.9832 LP  0  0  0  0  0  0  0  0  0  0  0  0  # atno 17321 bound_to 7965
  140.7511  143.6243  150.8483 LP  0  0  0  0  0  0  0  0  0  0  0  0  # atno 17342 bound_to 10162
  139.9885  143.5872  152.2918 LP  0  0  0  0  0  0  0  0  0  0  0  0  # atno 17343 bound_to 10162
  157.7409  131.0511  150.5134 LP  0  0  0  0  0  0  0  0  0  0  0  0  # atno 17370 bound_to 10713
  156.5284  130.4179  149.6214 LP  0  0  0  0  0  0  0  0  0  0  0  0  # atno 17371 bound_to 10713
  140.9183  134.2174  157.4943 LP  0  0  0  0  0  0  0  0  0  0  0  0  # atno 17394 bound_to 11000
  139.8713  134.9781  156.4984 LP  0  0  0  0  0  0  0  0  0  0  0  0  # atno 17395 bound_to 11000

$$$$
