AV-unprocessed.smi:1209|AV-procd|sdf|5076|dock2
  -GOLD-   22720 4123D 1   1.00000     0.00000
 Structure written by MMmdl.
 49 51  0  0  0  0  0  0  0  0  2 V2000
  149.8666  130.4020  154.2678 C   0  0  0  0  0  0  0  0  0  0  0  0
  149.3377  131.7925  154.3544 C   0  0  0  0  0  0  0  0  0  0  0  0
  149.4624  132.7810  155.2887 C   0  0  0  0  0  0  0  0  0  0  0  0
  148.7006  133.8528  154.7471 C   0  0  0  0  0  0  0  0  0  0  0  0
  148.4689  135.2228  155.3231 C   0  0  0  0  0  0  0  0  0  0  0  0
  149.3188  136.2517  154.6704 N   0  3  2  0  0  0  0  0  0  0  0  0
  150.7668  135.9363  154.7586 C   0  0  0  0  0  0  0  0  0  0  0  0
  149.0010  137.6236  155.1451 C   0  0  0  0  0  0  0  0  0  0  0  0
  149.7279  138.7196  154.3337 C   0  0  1  0  0  0  0  0  0  0  0  0
  149.0479  138.9065  153.1090 O   0  0  0  0  0  0  0  0  0  0  0  0
  149.7848  140.0833  155.0502 C   0  0  0  0  0  0  0  0  0  0  0  0
  150.8729  140.1634  156.0072 N   0  0  0  0  0  0  0  0  0  0  0  0
  151.9406  139.3465  156.0902 C   0  0  0  0  0  0  0  0  0  0  0  0
  152.8184  139.5899  157.0590 N   0  0  0  0  0  0  0  0  0  0  0  0
  152.2589  140.6977  157.6725 C   0  0  0  0  0  0  0  0  0  0  0  0
  152.6979  141.4523  158.7822 C   0  0  0  0  0  0  0  0  0  0  0  0
  151.9505  142.5573  159.2488 C   0  0  0  0  0  0  0  0  0  0  0  0
  152.4603  143.3419  160.4450 C   0  0  0  0  0  0  0  0  0  0  0  0
  150.7427  142.9222  158.6020 C   0  0  0  0  0  0  0  0  0  0  0  0
  149.9200  144.1023  159.0881 C   0  0  0  0  0  0  0  0  0  0  0  0
  150.2915  142.1814  157.4902 C   0  0  0  0  0  0  0  0  0  0  0  0
  151.0432  141.0835  157.0362 C   0  0  0  0  0  0  0  0  0  0  0  0
  148.1671  133.5350  153.5792 N   0  0  0  0  0  0  0  0  0  0  0  0
  148.5677  132.2194  153.3208 O   0  0  0  0  0  0  0  0  0  0  0  0
  150.4689  130.1583  155.1433 H   0  0  0  0  0  0  0  0  0  0  0  0
  150.4916  130.2801  153.3829 H   0  0  0  0  0  0  0  0  0  0  0  0
  149.0509  129.6814  154.2084 H   0  0  0  0  0  0  0  0  0  0  0  0
  150.0133  132.7426  156.2168 H   0  0  0  0  0  0  0  0  0  0  0  0
  147.4161  135.4793  155.1954 H   0  0  0  0  0  0  0  0  0  0  0  0
  148.6542  135.2249  156.3982 H   0  0  0  0  0  0  0  0  0  0  0  0
  151.0990  135.9183  155.7975 H   0  0  0  0  0  0  0  0  0  0  0  0
  151.3703  136.6687  154.2249 H   0  0  0  0  0  0  0  0  0  0  0  0
  150.9893  134.9654  154.3159 H   0  0  0  0  0  0  0  0  0  0  0  0
  147.9282  137.8090  155.0769 H   0  0  0  0  0  0  0  0  0  0  0  0
  149.2501  137.6844  156.2049 H   0  0  0  0  0  0  0  0  0  0  0  0
  150.7479  138.4115  154.1068 H   0  0  0  0  0  0  0  0  0  0  0  0
  148.9047  138.0624  152.7079 H   0  0  0  0  0  0  0  0  0  0  0  0
  149.9096  140.8876  154.3237 H   0  0  0  0  0  0  0  0  0  0  0  0
  148.8484  140.2810  155.5736 H   0  0  0  0  0  0  0  0  0  0  0  0
  152.0773  138.5226  155.4048 H   0  0  0  0  0  0  0  0  0  0  0  0
  153.6176  141.1738  159.2754 H   0  0  0  0  0  0  0  0  0  0  0  0
  152.6721  144.3730  160.1614 H   0  0  0  0  0  0  0  0  0  0  0  0
  153.3782  142.9092  160.8442 H   0  0  0  0  0  0  0  0  0  0  0  0
  151.7193  143.3474  161.2445 H   0  0  0  0  0  0  0  0  0  0  0  0
  149.0280  144.2438  158.4772 H   0  0  0  0  0  0  0  0  0  0  0  0
  150.5054  145.0209  159.0434 H   0  0  0  0  0  0  0  0  0  0  0  0
  149.5980  143.9453  160.1176 H   0  0  0  0  0  0  0  0  0  0  0  0
  149.3734  142.4497  156.9892 H   0  0  0  0  0  0  0  0  0  0  0  0
  149.0694  136.2320  153.6913 H   0  0  0  0  0  0  0  0  0  0  0  0
  1  2  1  0  0  0  0
  1 25  1  0  0  0  0
  1 26  1  0  0  0  0
  1 27  1  0  0  0  0
  2 24  1  0  0  0  0
  2  3  2  0  0  0  0
  3  4  1  0  0  0  0
  3 28  1  0  0  0  0
  4  5  1  0  0  0  0
  4 23  2  0  0  0  0
  5  6  1  0  0  0  0
  5 29  1  0  0  0  0
  5 30  1  0  0  0  0
  6  7  1  0  0  0  0
  6  8  1  0  0  0  0
  6 49  1  0  0  0  0
  7 31  1  0  0  0  0
  7 32  1  0  0  0  0
  7 33  1  0  0  0  0
  8  9  1  0  0  0  0
  8 34  1  0  0  0  0
  8 35  1  0  0  0  0
  9 10  1  0  0  0  0
  9 11  1  0  0  0  0
  9 36  1  0  0  0  0
 10 37  1  0  0  0  0
 11 12  1  0  0  0  0
 11 38  1  0  0  0  0
 11 39  1  0  0  0  0
 12 22  1  0  0  0  0
 12 13  1  0  0  0  0
 13 14  2  0  0  0  0
 13 40  1  0  0  0  0
 14 15  1  0  0  0  0
 15 22  2  0  0  0  0
 15 16  1  0  0  0  0
 16 17  2  0  0  0  0
 16 41  1  0  0  0  0
 17 18  1  0  0  0  0
 17 19  1  0  0  0  0
 18 42  1  0  0  0  0
 18 43  1  0  0  0  0
 18 44  1  0  0  0  0
 19 20  1  0  0  0  0
 19 21  2  0  0  0  0
 20 45  1  0  0  0  0
 20 46  1  0  0  0  0
 20 47  1  0  0  0  0
 21 22  1  0  0  0  0
 21 48  1  0  0  0  0
 23 24  1  0  0  0  0
M  CHG  1   6   1
M  END
> <s_m_source_file>
AV-unprocessed.smi

> <i_m_source_file_index>
1209

> <i_lp_mmshare_version>
43012

> <i_f3d_flags>
0

> <s_epik_input>
W0NIM11jMVtjSF1jKG5vMSlbQ0gyXU4oW0NIM10pW0NIMl1bQ0BIXShbT0hdKVtDSDJdbihbY0hdbjIpYyhjMjMpW2NIXWMoW0NIM10pYyhbY0hdMylbQ0gzXQ==

> <s_epik_cmdline>
J2VwaWtfcHl0aG9uJywgJy1waCcsICc3LjAnLCAnLXRuJywgJzgnLCAnLW1hJywgJzIwMCcsICctbWV0YWxfYmluZGluZycsICctaW1hZScsICc8aW5maWxlLm1hZT4nLCAnLW9tYWUnLCAnPG91dGZpbGUubWFlPic=

> <r_epik_Ionization_Penalty>
2.05249

> <r_epik_Ionization_Penalty_Charging>
1.96618

> <r_epik_Ionization_Penalty_Neutral>
0.0863156

> <r_epik_State_Penalty>
2.19215

> <r_epik_Charging_Adjusted_Penalty>
4.15833

> <i_epik_Tot_Q>
1

> <i_epik_Tot_abs_Q>
1

> <r_epik_Metal_State_Penalty>
2.17654

> <b_epik_Metal_Only>
0

> <s_lp_Force_Field>
OPLS_2005

> <r_lp_Energy>
8.03996

> <b_lp_Chiralities_Consistent>
1

> <s_lp_Variant>
AV-unprocessed.smi:1209-8

> <Gold.Version>
5.8.1

> <Gold.Id.Protein>
6NUR|6NUR_protein|mol2

> <Gold.PLP.Fitness>
53.0636

> <Gold.PLP.PLP>
-42.4340

> <Gold.PLP.part.hbond>
-3.0984

> <Gold.PLP.part.metal>
0.0000

> <Gold.PLP.part.buried>
-5.0448

> <Gold.PLP.part.nonpolar>
-34.4166

> <Gold.PLP.part.repulsive>
0.3280

> <Gold.PLP.ligand.clash>
0.0000

> <Gold.PLP.ligand.torsion>
0.8792

> <Gold.PLP.Chemscore.Hbond>
3.9913

> <Gold.PLP.Chemscore.CHOScore>
0.0000

> <Gold.PLP.Chemscore.Metal>
0.0000

> <Gold.Chemscore.Hbonds>
donor molecule, donor type, donor heavy atom, donor atom, acceptor molecule, acceptor atom, score
      L1  H     6    49       P1  7948  2.00
      L1  H    10    37       P1  7948  1.00
      P1  H  7997  8010       L1    14  1.00

> <Gold.PLP.Chemscore.Internal.Correction>
0.4142

> <Gold.Rescore>
     Score         DG    S(hbond)    S(metal)    S(lipo)     H(rot)  DE(clash)    DE(int)     intcor
     19.88     -21.10       2.87        0.00     106.98       2.53       0.17       1.05       ----

> <Gold.Chemscore.Fitness>
19.8794

> <Gold.Chemscore.DG>
-21.0992

> <Gold.Chemscore.ZeroCoef>
-5.4800

> <Gold.Chemscore.Hbond>
2.8706

> <Gold.Chemscore.Metal>
0.0000

> <Gold.Chemscore.Lipo>
106.9785

> <Gold.Chemscore.Internal_Hbond>
0.0000

> <Gold.Chemscore.DEClash>
0.1684

> <Gold.Chemscore.DEInternal>
1.0514

> <Gold.Chemscore.Rot>
2.5332

> <Gold.Chemscore.Internal.Correction>
   9.000000E+99

> <Gold.Chemscore.Hbonds>
donor molecule, donor type, donor heavy atom, donor atom, acceptor molecule, acceptor atom, score
      L1  H     6    49       P1  7948  0.97
      L1  H    10    37       P1  7948  0.97
      P1  H  7997  8010       L1    14  0.44

> <Gold.Chemscore.Hbond.Weighted>
-9.5878

> <Gold.Chemscore.Metal.Weighted>
-0.0000

> <Gold.Chemscore.Lipo.Weighted>
-12.5165

> <Gold.Chemscore.Internal_Hbond.Weighted>
0.0000

> <Gold.Chemscore.DEClash.Weighted>
0.1684

> <Gold.Chemscore.DEInternal.Weighted>
1.0514

> <Gold.Chemscore.Rot.Weighted>
6.4851

> <Gold.Chemscore.Internal.Correction.Weighted>
   9.000000E+99

> <Gold.Protein.RotatedTorsions>
[ 6907 6896 6895 6894 ] final   76.99 input  -60.11 | X-H torsion
[ 7974 7965 7964 7962 ] final  -15.20 input  175.53 | X-H torsion
[ 8008 7997 7996 7995 ] final   68.56 input   59.86 | X-H torsion
[ 10167 10162 10161 10158 ] final  -48.51 input  -65.29 | X-H torsion
[ 10718 10713 10712 10709 ] final  -13.46 input   66.30 | X-H torsion
[ 10763 10752 10751 10750 ] final -149.25 input  -60.55 | X-H torsion
[ 11005 11000 10999 10996 ] final  147.53 input  -57.11 | X-H torsion

> <Gold.Protein.ActiveResidues>
 VAL166  LYS551  ARG553  GLY616  TRP617  ASP618  TYR619  PRO620  LYS621  CYS622 
 ASP623  PHE694  ASN695  SER759  ASP760  ASP761  ALA762  ILE779  LEU786  VAL792 
 PHE793  MET794  SER795  GLU796  ALA797  LYS798  CYS799  TRP800  GLU811  SER814 

> <Gold.Protein.RotatedAtoms>
  152.5098  134.3885  159.9375 H   0  0  0  0  0  0  0  0  0  0  0  0  # atno 6907 bound_to 6896
  151.3844  133.3804  159.2721 H   0  0  0  0  0  0  0  0  0  0  0  0  # atno 6908 bound_to 6896
  150.9480  134.8903  159.7713 H   0  0  0  0  0  0  0  0  0  0  0  0  # atno 6909 bound_to 6896
  146.2042  140.3458  142.8413 H   0  0  0  0  0  0  0  0  0  0  0  0  # atno 7974 bound_to 7965
  155.7102  140.3494  155.4970 H   0  0  0  0  0  0  0  0  0  0  0  0  # atno 8008 bound_to 7997
  155.9363  140.1093  157.1114 H   0  0  0  0  0  0  0  0  0  0  0  0  # atno 8009 bound_to 7997
  154.4094  140.1221  156.4854 H   0  0  0  0  0  0  0  0  0  0  0  0  # atno 8010 bound_to 7997
  140.6727  143.2737  151.4081 H   0  0  0  0  0  0  0  0  0  0  0  0  # atno 10167 bound_to 10162
  156.6299  130.4898  149.6133 H   0  0  0  0  0  0  0  0  0  0  0  0  # atno 10718 bound_to 10713
  154.8188  135.3314  154.7100 H   0  0  0  0  0  0  0  0  0  0  0  0  # atno 10763 bound_to 10752
  153.7736  135.6924  153.4906 H   0  0  0  0  0  0  0  0  0  0  0  0  # atno 10764 bound_to 10752
  153.2028  135.4510  155.0235 H   0  0  0  0  0  0  0  0  0  0  0  0  # atno 10765 bound_to 10752
  140.0883  134.9056  157.1611 H   0  0  0  0  0  0  0  0  0  0  0  0  # atno 11005 bound_to 11000
  144.8753  140.7328  143.6021 LP  0  0  0  0  0  0  0  0  0  0  0  0  # atno 17320 bound_to 7965
  145.3378  139.1741  143.4502 LP  0  0  0  0  0  0  0  0  0  0  0  0  # atno 17321 bound_to 7965
  139.6004  144.1308  152.2191 LP  0  0  0  0  0  0  0  0  0  0  0  0  # atno 17342 bound_to 10162
  140.0690  144.5795  150.7206 LP  0  0  0  0  0  0  0  0  0  0  0  0  # atno 17343 bound_to 10162
  156.2243  130.6756  151.1400 LP  0  0  0  0  0  0  0  0  0  0  0  0  # atno 17370 bound_to 10713
  157.7203  131.0685  150.6163 LP  0  0  0  0  0  0  0  0  0  0  0  0  # atno 17371 bound_to 10713
  140.3388  134.2727  155.7215 LP  0  0  0  0  0  0  0  0  0  0  0  0  # atno 17394 bound_to 11000
  141.2070  133.7818  157.0146 LP  0  0  0  0  0  0  0  0  0  0  0  0  # atno 17395 bound_to 11000

$$$$
