#       Name:                AV-unprocessed.smi:507
#       Creating user name   scv26
#       Creation time:       Thu Mar 26 23:22:08 2020


#       File generated by GOLD software.
#

@<TRIPOS>MOLECULE
AV-unprocessed.smi:507
    37    38     1
SMALL
NO_CHARGES


@<TRIPOS>ATOM
      1 ****        -1.9341   3.7335  -2.3082 C.3            1 S1                 0.0000
      2 ****        -1.5680   2.5850  -1.3846 C.ar           1 S1                 0.0000
      3 ****        -1.7467   2.7399   0.0087 C.ar           1 S1                 0.0000
      4 ****        -1.4181   1.6964   0.9012 C.ar           1 S1                 0.0000
      5 ****        -1.5116   1.6296   2.2809 N.2            1 S1                 0.0000
      6 ****        -1.0521   0.4053   2.5222 C.2            1 S1                 0.0000
      7 ****        -0.6676  -0.3292   1.4602 N.pl3          1 S1                 0.0000
      8 ****        -0.1286  -1.6772   1.4706 C.3            1 S1                 0.0000
      9 ****         1.4025  -1.6958   1.2966 C.3            1 S1                 0.0000
     10 ****         2.0052  -1.0062   2.3754 O.3            1 S1                 0.0000
     11 ****         1.9632  -3.1265   1.2465 C.3            1 S1                 0.0000
     12 ****         3.3870  -3.1346   0.8669 N.4            1 S1                 1.0000
     13 ****        -0.8986   0.4855   0.3574 C.ar           1 S1                 0.0000
     14 ****        -0.7182   0.3182  -1.0270 C.ar           1 S1                 0.0000
     15 ****        -1.0539   1.3700  -1.9048 C.ar           1 S1                 0.0000
     16 ****        -0.8578   1.1803  -3.3986 C.3            1 S1                 0.0000
     17 ****        -2.3168   4.5877  -1.7491 H              1 S1                 0.0000
     18 ****        -2.7043   3.4247  -3.0152 H              1 S1                 0.0000
     19 ****        -1.0605   4.0657  -2.8693 H              1 S1                 0.0000
     20 ****        -2.1392   3.6648   0.4052 H              1 S1                 0.0000
     21 ****        -0.9859   0.0221   3.5301 H              1 S1                 0.0000
     22 ****        -0.4168  -2.1643   2.4035 H              1 S1                 0.0000
     23 ****        -0.6066  -2.2372   0.6658 H              1 S1                 0.0000
     24 ****         1.6606  -1.1764   0.3723 H              1 S1                 0.0000
     25 ****         1.7213  -1.4014   3.1860 H              1 S1                 0.0000
     26 ****         1.8394  -3.6275   2.2075 H              1 S1                 0.0000
     27 ****         1.4192  -3.7158   0.5074 H              1 S1                 0.0000
     28 ****         3.7298  -4.0844   0.8511 H              1 S1                 0.0000
     29 ****         3.9142  -2.5964   1.5399 H              1 S1                 0.0000
     30 ****        -0.3257  -0.6120  -1.4100 H              1 S1                 0.0000
     31 ****        -0.4544   0.1930  -3.6252 H              1 S1                 0.0000
     32 ****        -0.1630   1.9233  -3.7904 H              1 S1                 0.0000
     33 ****        -1.8074   1.2819  -3.9244 H              1 S1                 0.0000
     34 ****         3.4942  -2.7214  -0.0483 H              1 S1                 0.0000
     35 ****        -1.8386   2.3201   2.9261 LP             1 S1                 0.0000
     36 ****         1.7301  -0.0450   2.3556 LP             1 S1                 0.0000
     37 ****         3.0004  -1.0697   2.3009 LP             1 S1                 0.0000
@<TRIPOS>BOND
    1    1    2 1     
    2    1   17 1     
    3    1   18 1     
    4    1   19 1     
    5    2   15 ar    
    6    2    3 ar    
    7    3    4 ar    
    8    3   20 1     
    9    4   13 ar    
   10    4    5 1     
   11    5    6 2     
   12    6    7 1     
   13    6   21 1     
   14    7    8 1     
   15    7   13 1     
   16    8    9 1     
   17    8   22 1     
   18    8   23 1     
   19    9   10 1     
   20    9   11 1     
   21    9   24 1     
   22   10   25 1     
   23   11   12 1     
   24   11   26 1     
   25   11   27 1     
   26   12   28 1     
   27   12   29 1     
   28   12   34 1     
   29   13   14 ar    
   30   14   15 ar    
   31   14   30 1     
   32   15   16 1     
   33   16   31 1     
   34   16   32 1     
   35   16   33 1     
   36    5   35 1     
   37   10   36 1     
   38   10   37 1     
@<TRIPOS>SUBSTRUCTURE
      1 S1             1
@<TRIPOS>SET
LONE_PAIRS      STATIC     ATOMS    <user>   **** ""
3 35 36 37
DONOR_HYDROGENS      STATIC     ATOMS    <user>   **** ""
4 25 28 29 34
ATOM$BLUE        STATIC     ATOMS    COLORGROUP SYSTEM
3 35 36 37
ATOM$RED        STATIC     ATOMS    COLORGROUP SYSTEM
4 25 28 29 34
