AV-unprocessed.smi:99|AV-procd|sdf|877|dock4
  -GOLD-   2262017343D 1   1.00000     0.00000
 Structure written by MMmdl.
 53 56  0  0  0  0  0  0  0  0  1 V2000
  150.8430  135.7317  155.4726 O   0  0  0  0  0  0  0  0  0  0  0  0
  149.7804  136.2707  155.1556 C   0  0  0  0  0  0  0  0  0  0  0  0
  148.6325  135.5955  154.9544 O   0  0  0  0  0  0  0  0  0  0  0  0
  148.6312  134.1781  154.9647 C   0  0  0  0  0  0  0  0  0  0  0  0
  148.2850  133.6695  153.5551 C   0  0  2  0  0  0  0  0  0  0  0  0
  147.0348  134.2375  153.1632 O   0  0  0  0  0  0  0  0  0  0  0  0
  145.9875  133.3169  153.3023 C   0  0  1  0  0  0  0  0  0  0  0  0
  145.3561  133.0772  151.9483 N   0  0  0  0  0  0  0  0  0  0  0  0
  146.0140  132.3678  150.9512 C   0  0  0  0  0  0  0  0  0  0  0  0
  145.4670  132.1198  149.7377 C   0  0  0  0  0  0  0  0  0  0  0  0
  144.1250  132.5953  149.4191 C   0  0  0  0  0  0  0  0  0  0  0  0
  143.5476  132.4229  148.3479 O   0  0  0  0  0  0  0  0  0  0  0  0
  143.4952  133.2914  150.4545 N   0  0  0  0  0  0  0  0  0  0  0  0
  144.0461  133.5486  151.7108 C   0  0  0  0  0  0  0  0  0  0  0  0
  143.3912  134.1548  152.5578 O   0  0  0  0  0  0  0  0  0  0  0  0
  146.5712  132.0053  153.8468 C   0  0  2  0  0  0  0  0  0  0  0  0
  146.3713  131.9121  155.2450 O   0  0  0  0  0  0  0  0  0  0  0  0
  148.0361  132.1632  153.4665 C   0  0  2  0  0  0  0  0  0  0  0  0
  148.9252  131.3584  154.2334 O   0  0  0  0  0  0  0  0  0  0  0  0
  148.7857  130.0162  154.2721 C   0  0  0  0  0  0  0  0  0  0  0  0
  147.7562  129.4261  153.9384 O   0  0  0  0  0  0  0  0  0  0  0  0
  150.0078  129.3221  154.7699 C   0  0  0  0  0  0  0  0  0  0  0  0
  149.9839  127.9192  154.9485 C   0  0  0  0  0  0  0  0  0  0  0  0
  151.1217  127.2367  155.4212 C   0  0  0  0  0  0  0  0  0  0  0  0
  152.2971  127.9493  155.7212 C   0  0  0  0  0  0  0  0  0  0  0  0
  152.3338  129.3451  155.5476 C   0  0  0  0  0  0  0  0  0  0  0  0
  151.1972  130.0294  155.0747 C   0  0  0  0  0  0  0  0  0  0  0  0
  149.6311  137.7404  154.9509 C   0  0  0  0  0  0  0  0  0  0  0  0
  150.7113  138.5975  155.2657 C   0  0  0  0  0  0  0  0  0  0  0  0
  150.5987  139.9895  155.0827 C   0  0  0  0  0  0  0  0  0  0  0  0
  149.4043  140.5414  154.5844 C   0  0  0  0  0  0  0  0  0  0  0  0
  148.3221  139.6996  154.2688 C   0  0  0  0  0  0  0  0  0  0  0  0
  148.4330  138.3072  154.4500 C   0  0  0  0  0  0  0  0  0  0  0  0
  142.5604  133.6315  150.2809 H   0  0  0  0  0  0  0  0  0  0  0  0
  149.6230  133.8285  155.2545 H   0  0  0  0  0  0  0  0  0  0  0  0
  147.9212  133.8088  155.7050 H   0  0  0  0  0  0  0  0  0  0  0  0
  149.0704  133.9616  152.8573 H   0  0  0  0  0  0  0  0  0  0  0  0
  145.2104  133.7590  153.9292 H   0  0  0  0  0  0  0  0  0  0  0  0
  147.0066  131.9833  151.1331 H   0  0  0  0  0  0  0  0  0  0  0  0
  146.0254  131.5637  148.9985 H   0  0  0  0  0  0  0  0  0  0  0  0
  146.1126  131.1372  153.3714 H   0  0  0  0  0  0  0  0  0  0  0  0
  147.1396  131.5215  155.6327 H   0  0  0  0  0  0  0  0  0  0  0  0
  148.1385  131.8974  152.4130 H   0  0  0  0  0  0  0  0  0  0  0  0
  149.0923  127.3508  154.7254 H   0  0  0  0  0  0  0  0  0  0  0  0
  151.0915  126.1653  155.5545 H   0  0  0  0  0  0  0  0  0  0  0  0
  153.1692  127.4261  156.0849 H   0  0  0  0  0  0  0  0  0  0  0  0
  153.2356  129.8930  155.7781 H   0  0  0  0  0  0  0  0  0  0  0  0
  151.2595  131.1012  154.9543 H   0  0  0  0  0  0  0  0  0  0  0  0
  151.6387  138.1970  155.6491 H   0  0  0  0  0  0  0  0  0  0  0  0
  151.4306  140.6342  155.3246 H   0  0  0  0  0  0  0  0  0  0  0  0
  149.3183  141.6089  154.4443 H   0  0  0  0  0  0  0  0  0  0  0  0
  147.4045  140.1219  153.8869 H   0  0  0  0  0  0  0  0  0  0  0  0
  147.5825  137.6902  154.1995 H   0  0  0  0  0  0  0  0  0  0  0  0
  1  2  2  0  0  0  0
  2  3  1  0  0  0  0
  2 28  1  0  0  0  0
  3  4  1  0  0  0  0
  4  5  1  0  0  0  0
  4 35  1  0  0  0  0
  4 36  1  0  0  0  0
  5 18  1  0  0  0  0
  5  6  1  0  0  0  0
  5 37  1  0  0  0  0
  6  7  1  0  0  0  0
  7  8  1  0  0  0  0
  7 16  1  0  0  0  0
  7 38  1  0  0  0  0
  8 14  1  0  0  0  0
  8  9  1  0  0  0  0
  9 10  2  0  0  0  0
  9 39  1  0  0  0  0
 10 11  1  0  0  0  0
 10 40  1  0  0  0  0
 11 12  2  0  0  0  0
 11 13  1  0  0  0  0
 13 34  1  0  0  0  0
 13 14  1  0  0  0  0
 14 15  2  0  0  0  0
 16 17  1  0  0  0  0
 16 18  1  0  0  0  0
 16 41  1  0  0  0  0
 17 42  1  0  0  0  0
 18 19  1  0  0  0  0
 18 43  1  0  0  0  0
 19 20  1  0  0  0  0
 20 21  2  0  0  0  0
 20 22  1  0  0  0  0
 22 27  1  0  0  0  0
 22 23  2  0  0  0  0
 23 24  1  0  0  0  0
 23 44  1  0  0  0  0
 24 25  2  0  0  0  0
 24 45  1  0  0  0  0
 25 26  1  0  0  0  0
 25 46  1  0  0  0  0
 26 27  2  0  0  0  0
 26 47  1  0  0  0  0
 27 48  1  0  0  0  0
 28 33  1  0  0  0  0
 28 29  2  0  0  0  0
 29 30  1  0  0  0  0
 29 49  1  0  0  0  0
 30 31  2  0  0  0  0
 30 50  1  0  0  0  0
 31 32  1  0  0  0  0
 31 51  1  0  0  0  0
 32 33  2  0  0  0  0
 32 52  1  0  0  0  0
 33 53  1  0  0  0  0
M  END
> <s_m_source_file>
AV-unprocessed.smi

> <i_m_source_file_index>
99

> <i_lp_mmshare_version>
43012

> <i_f3d_flags>
0

> <s_epik_input>
W2NIXTFbY0hdW2NIXVtjSF1bY0hdYzFDKD1PKU9bQ0gyXVtDQEBIXTJPW0NAQEhdKG4zW2NIXVtjSF1jKD1PKVtuSF1jMz1PKVtDQEBIXShbT0hdKVtDQEhdMk9DKD1PKWM0W2NIXVtjSF1bY0hdW2NIXVtjSF00

> <s_epik_cmdline>
J2VwaWtfcHl0aG9uJywgJy1waCcsICc3LjAnLCAnLXRuJywgJzgnLCAnLW1hJywgJzIwMCcsICctbWV0YWxfYmluZGluZycsICctaW1hZScsICc8aW5maWxlLm1hZT4nLCAnLW9tYWUnLCAnPG91dGZpbGUubWFlPic=

> <r_lp_tautomer_probability>
1

> <r_epik_Ionization_Penalty>
0.00454555

> <r_epik_Ionization_Penalty_Charging>
0.0045191

> <r_epik_Ionization_Penalty_Neutral>
2.64449e-05

> <r_epik_State_Penalty>
-0

> <r_epik_Charging_Adjusted_Penalty>
0.0045191

> <i_epik_Tot_Q>
0

> <i_epik_Tot_abs_Q>
0

> <r_epik_Metal_State_Penalty>
1.27877

> <b_epik_Metal_Only>
0

> <s_epik_Chemistry_Notes>
This compound has an ester and may undergo hydrolysis at high or low pH. This compound contains an acetal/aminal-like group ( X-CH(R)-Y where X, Y are N, S, or O) that may be acid/base labile, releasing an aldehyde.

> <s_lp_Force_Field>
OPLS_2005

> <r_lp_Energy>
39.429

> <b_lp_Chiralities_Consistent>
1

> <s_lp_Variant>
AV-unprocessed.smi:99-13

> <Gold.Version>
5.8.1

> <Gold.Id.Protein>
6NUR|6NUR_protein|mol2

> <Gold.PLP.Fitness>
56.7803

> <Gold.PLP.PLP>
-48.9680

> <Gold.PLP.part.hbond>
-2.8131

> <Gold.PLP.part.metal>
0.0000

> <Gold.PLP.part.buried>
-5.4630

> <Gold.PLP.part.nonpolar>
-43.6058

> <Gold.PLP.part.repulsive>
2.7455

> <Gold.PLP.ligand.clash>
0.0000

> <Gold.PLP.ligand.torsion>
0.9097

> <Gold.PLP.Chemscore.Hbond>
2.1761

> <Gold.PLP.Chemscore.CHOScore>
1.0000

> <Gold.PLP.Chemscore.Metal>
0.0000

> <Gold.Chemscore.Hbonds>
donor molecule, donor type, donor heavy atom, donor atom, acceptor molecule, acceptor atom, score
      L1  H    13    34       P1 10186  1.00
      P1  H 10752 10764       L1     1  0.46
      P1  H 10785 10796       L1    12  0.12
      L1  C     9    39       P1 10747  1.00

> <Gold.PLP.Chemscore.Internal.Correction>
0.1035

> <Gold.Rescore>
     Score         DG    S(hbond)    S(metal)    S(lipo)     H(rot)  DE(clash)    DE(int)     intcor
     11.52     -15.19       1.88        0.00      99.12       3.19       1.28       2.38       ----

> <Gold.Chemscore.Fitness>
11.5221

> <Gold.Chemscore.DG>
-15.1866

> <Gold.Chemscore.ZeroCoef>
-5.4800

> <Gold.Chemscore.Hbond>
1.8793

> <Gold.Chemscore.Metal>
0.0000

> <Gold.Chemscore.Lipo>
99.1168

> <Gold.Chemscore.Internal_Hbond>
0.0000

> <Gold.Chemscore.DEClash>
1.2838

> <Gold.Chemscore.DEInternal>
2.3806

> <Gold.Chemscore.Rot>
3.1903

> <Gold.Chemscore.Internal.Correction>
   9.000000E+99

> <Gold.Chemscore.Hbonds>
donor molecule, donor type, donor heavy atom, donor atom, acceptor molecule, acceptor atom, score
      L1  H    13    34       P1 10186  1.00
      P1  H 10752 10764       L1     1  0.46
      P1  H 10785 10796       L1    12  0.01

> <Gold.Chemscore.Hbond.Weighted>
-6.2770

> <Gold.Chemscore.Metal.Weighted>
-0.0000

> <Gold.Chemscore.Lipo.Weighted>
-11.5967

> <Gold.Chemscore.Internal_Hbond.Weighted>
0.0000

> <Gold.Chemscore.DEClash.Weighted>
1.2838

> <Gold.Chemscore.DEInternal.Weighted>
2.3806

> <Gold.Chemscore.Rot.Weighted>
8.1671

> <Gold.Chemscore.Internal.Correction.Weighted>
   9.000000E+99

> <Gold.Protein.RotatedTorsions>
[ 6907 6896 6895 6894 ] final   22.92 input  -60.11 | X-H torsion
[ 7974 7965 7964 7962 ] final  -34.13 input  175.53 | X-H torsion
[ 8008 7997 7996 7995 ] final  -35.10 input   59.86 | X-H torsion
[ 10167 10162 10161 10158 ] final  -34.73 input  -65.29 | X-H torsion
[ 10718 10713 10712 10709 ] final  164.06 input   66.30 | X-H torsion
[ 10763 10752 10751 10750 ] final  -49.84 input  -60.55 | X-H torsion
[ 11005 11000 10999 10996 ] final  -75.98 input  -57.11 | X-H torsion

> <Gold.Protein.ActiveResidues>
 VAL166  LYS551  ARG553  GLY616  TRP617  ASP618  TYR619  PRO620  LYS621  CYS622 
 ASP623  PHE694  ASN695  SER759  ASP760  ASP761  ALA762  ILE779  LEU786  VAL792 
 PHE793  MET794  SER795  GLU796  ALA797  LYS798  CYS799  TRP800  GLU811  SER814 

> <Gold.Protein.RotatedAtoms>
  151.9344  135.0242  160.0531 H   0  0  0  0  0  0  0  0  0  0  0  0  # atno 6907 bound_to 6896
  152.2090  133.4892  159.5108 H   0  0  0  0  0  0  0  0  0  0  0  0  # atno 6908 bound_to 6896
  150.6972  134.1408  159.4147 H   0  0  0  0  0  0  0  0  0  0  0  0  # atno 6909 bound_to 6896
  146.0855  140.6000  142.8888 H   0  0  0  0  0  0  0  0  0  0  0  0  # atno 7974 bound_to 7965
  154.4104  140.1666  156.2157 H   0  0  0  0  0  0  0  0  0  0  0  0  # atno 8008 bound_to 7997
  155.9406  140.3408  155.6301 H   0  0  0  0  0  0  0  0  0  0  0  0  # atno 8009 bound_to 7997
  155.6994  140.0743  157.2407 H   0  0  0  0  0  0  0  0  0  0  0  0  # atno 8010 bound_to 7997
  140.7180  143.3527  151.2123 H   0  0  0  0  0  0  0  0  0  0  0  0  # atno 10167 bound_to 10162
  157.0996  131.0439  151.2503 H   0  0  0  0  0  0  0  0  0  0  0  0  # atno 10718 bound_to 10713
  154.1006  135.6564  153.4867 H   0  0  0  0  0  0  0  0  0  0  0  0  # atno 10763 bound_to 10752
  153.0290  135.5224  154.7290 H   0  0  0  0  0  0  0  0  0  0  0  0  # atno 10764 bound_to 10752
  154.6441  135.2992  155.0037 H   0  0  0  0  0  0  0  0  0  0  0  0  # atno 10765 bound_to 10752
  141.1650  133.6967  156.7600 H   0  0  0  0  0  0  0  0  0  0  0  0  # atno 11005 bound_to 11000
  144.7322  140.4706  143.6929 LP  0  0  0  0  0  0  0  0  0  0  0  0  # atno 17320 bound_to 7965
  145.6138  139.1516  143.3061 LP  0  0  0  0  0  0  0  0  0  0  0  0  # atno 17321 bound_to 7965
  139.7061  143.9453  152.2927 LP  0  0  0  0  0  0  0  0  0  0  0  0  # atno 17342 bound_to 10162
  139.9162  144.6827  150.8510 LP  0  0  0  0  0  0  0  0  0  0  0  0  # atno 17343 bound_to 10162
  157.4652  130.7676  149.7272 LP  0  0  0  0  0  0  0  0  0  0  0  0  # atno 17370 bound_to 10713
  155.9877  130.3965  150.3153 LP  0  0  0  0  0  0  0  0  0  0  0  0  # atno 17371 bound_to 10713
  140.2541  134.8518  157.3696 LP  0  0  0  0  0  0  0  0  0  0  0  0  # atno 17394 bound_to 11000
  140.1674  134.4651  155.7854 LP  0  0  0  0  0  0  0  0  0  0  0  0  # atno 17395 bound_to 11000

$$$$
