AV-unprocessed.smi:1488|AV-procd|sdf|6024|dock4
  -GOLD-   22720 6123D 1   1.00000     0.00000
 Structure written by MMmdl.
 36 37  0  0  0  0  0  0  0  0  1 V2000
  150.6970  141.7318  156.1290 C   0  0  0  0  0  0  0  0  0  0  0  0
  150.3319  140.5056  155.3647 C   0  0  0  0  0  0  0  0  0  0  0  0
  149.1392  139.8880  155.1124 C   0  0  0  0  0  0  0  0  0  0  0  0
  149.5192  138.7692  154.3245 C   0  0  0  0  0  0  0  0  0  0  0  0
  148.5485  137.8517  153.8483 N   0  0  0  0  0  0  0  0  0  0  0  0
  147.2894  137.6899  154.2885 C   0  0  0  0  0  0  0  0  0  0  0  0
  146.7692  138.3289  155.2036 O   0  0  0  0  0  0  0  0  0  0  0  0
  146.6559  136.7278  153.6028 N   0  0  0  0  0  0  0  0  0  0  0  0
  145.2800  136.2888  153.8308 C   0  0  2  0  0  0  0  0  0  0  0  0
  145.2286  134.8276  154.3239 C   0  0  0  0  0  0  0  0  0  0  0  0
  145.6386  133.8288  153.2275 C   0  0  0  0  0  0  0  0  0  0  0  0
  144.7852  133.9952  151.9521 C   0  0  2  0  0  0  0  0  0  0  0  0
  145.1864  132.9896  150.8531 C   0  0  0  0  0  0  0  0  0  0  0  0
  144.4039  133.1213  149.7814 F   0  0  0  0  0  0  0  0  0  0  0  0
  146.4529  133.1908  150.4894 F   0  0  0  0  0  0  0  0  0  0  0  0
  145.0792  131.7433  151.3139 F   0  0  0  0  0  0  0  0  0  0  0  0
  144.8554  135.4538  151.4518 C   0  0  0  0  0  0  0  0  0  0  0  0
  144.4480  136.4572  152.5458 C   0  0  0  0  0  0  0  0  0  0  0  0
  150.8252  138.7095  154.1141 N   0  0  0  0  0  0  0  0  0  0  0  0
  151.3530  139.8218  154.7803 O   0  0  0  0  0  0  0  0  0  0  0  0
  149.8279  142.3741  156.2719 H   0  0  0  0  0  0  0  0  0  0  0  0
  151.4578  142.3066  155.6006 H   0  0  0  0  0  0  0  0  0  0  0  0
  151.0909  141.4707  157.1112 H   0  0  0  0  0  0  0  0  0  0  0  0
  148.1559  140.1903  155.4407 H   0  0  0  0  0  0  0  0  0  0  0  0
  148.8450  137.2545  153.0907 H   0  0  0  0  0  0  0  0  0  0  0  0
  147.1638  136.2569  152.8684 H   0  0  0  0  0  0  0  0  0  0  0  0
  144.8432  136.9313  154.5976 H   0  0  0  0  0  0  0  0  0  0  0  0
  145.8619  134.6976  155.2023 H   0  0  0  0  0  0  0  0  0  0  0  0
  144.2138  134.5977  154.6508 H   0  0  0  0  0  0  0  0  0  0  0  0
  146.6942  133.9618  152.9881 H   0  0  0  0  0  0  0  0  0  0  0  0
  145.5397  132.8137  153.6133 H   0  0  0  0  0  0  0  0  0  0  0  0
  143.7481  133.7878  152.2202 H   0  0  0  0  0  0  0  0  0  0  0  0
  145.8654  135.6782  151.1077 H   0  0  0  0  0  0  0  0  0  0  0  0
  144.2042  135.5833  150.5872 H   0  0  0  0  0  0  0  0  0  0  0  0
  143.3927  136.3147  152.7825 H   0  0  0  0  0  0  0  0  0  0  0  0
  144.5373  137.4770  152.1690 H   0  0  0  0  0  0  0  0  0  0  0  0
  1  2  1  0  0  0  0
  1 21  1  0  0  0  0
  1 22  1  0  0  0  0
  1 23  1  0  0  0  0
  2 20  1  0  0  0  0
  2  3  2  0  0  0  0
  3  4  1  0  0  0  0
  3 24  1  0  0  0  0
  4  5  1  0  0  0  0
  4 19  2  0  0  0  0
  5  6  1  0  0  0  0
  5 25  1  0  0  0  0
  6  7  2  0  0  0  0
  6  8  1  0  0  0  0
  8  9  1  0  0  0  0
  8 26  1  0  0  0  0
  9 18  1  0  0  0  0
  9 10  1  0  0  0  0
  9 27  1  0  0  0  0
 10 11  1  0  0  0  0
 10 28  1  0  0  0  0
 10 29  1  0  0  0  0
 11 12  1  0  0  0  0
 11 30  1  0  0  0  0
 11 31  1  0  0  0  0
 12 13  1  0  0  0  0
 12 17  1  0  0  0  0
 12 32  1  0  0  0  0
 13 14  1  0  0  0  0
 13 15  1  0  0  0  0
 13 16  1  0  0  0  0
 17 18  1  0  0  0  0
 17 33  1  0  0  0  0
 17 34  1  0  0  0  0
 18 35  1  0  0  0  0
 18 36  1  0  0  0  0
 19 20  1  0  0  0  0
M  END
> <s_m_source_file>
AV-unprocessed.smi

> <i_m_source_file_index>
1488

> <i_lp_mmshare_version>
43012

> <i_f3d_flags>
0

> <s_epik_input>
W0NIM11jMVtjSF1jKG5vMSlbTkhdQyg9TylbTkhdW0NAQEhdMltDSDJdW0NIMl1bQ0BASF0oQyhGKShGKUYpW0NIMl1bQ0gyXTI=

> <s_epik_cmdline>
J2VwaWtfcHl0aG9uJywgJy1waCcsICc3LjAnLCAnLXRuJywgJzgnLCAnLW1hJywgJzIwMCcsICctbWV0YWxfYmluZGluZycsICctaW1hZScsICc8aW5maWxlLm1hZT4nLCAnLW9tYWUnLCAnPG91dGZpbGUubWFlPic=

> <r_lp_tautomer_probability>
1

> <r_epik_Ionization_Penalty>
2.30349e-05

> <r_epik_Ionization_Penalty_Charging>
0

> <r_epik_Ionization_Penalty_Neutral>
2.30349e-05

> <r_epik_State_Penalty>
-0

> <r_epik_Charging_Adjusted_Penalty>
0

> <i_epik_Tot_Q>
0

> <i_epik_Tot_abs_Q>
0

> <r_epik_Metal_State_Penalty>
-0

> <b_epik_Metal_Only>
0

> <s_lp_Force_Field>
OPLS_2005

> <r_lp_Energy>
6.9589

> <b_lp_Chiralities_Consistent>
1

> <s_lp_Variant>
AV-unprocessed.smi:1488-2

> <Gold.Version>
5.8.1

> <Gold.Id.Protein>
6NUR|6NUR_protein|mol2

> <Gold.PLP.Fitness>
39.4475

> <Gold.PLP.PLP>
-30.9611

> <Gold.PLP.part.hbond>
-3.1089

> <Gold.PLP.part.metal>
0.0000

> <Gold.PLP.part.buried>
-5.0100

> <Gold.PLP.part.nonpolar>
-22.8289

> <Gold.PLP.part.repulsive>
0.3253

> <Gold.PLP.ligand.clash>
0.0000

> <Gold.PLP.ligand.torsion>
0.0871

> <Gold.PLP.Chemscore.Hbond>
2.8800

> <Gold.PLP.Chemscore.CHOScore>
0.0000

> <Gold.PLP.Chemscore.Metal>
0.0000

> <Gold.Chemscore.Hbonds>
donor molecule, donor type, donor heavy atom, donor atom, acceptor molecule, acceptor atom, score
      L1  H     5    25       P1  7948  1.00
      L1  H     8    26       P1  7948  0.84
      P1  H  7989  7998       L1    20  0.95

> <Gold.PLP.Chemscore.Internal.Correction>
0.0205

> <Gold.Rescore>
     Score         DG    S(hbond)    S(metal)    S(lipo)     H(rot)  DE(clash)    DE(int)     intcor
     13.49     -14.95       2.00        0.00      45.69       1.00       0.04       1.41       ----

> <Gold.Chemscore.Fitness>
13.4921

> <Gold.Chemscore.DG>
-14.9453

> <Gold.Chemscore.ZeroCoef>
-5.4800

> <Gold.Chemscore.Hbond>
1.9998

> <Gold.Chemscore.Metal>
0.0000

> <Gold.Chemscore.Lipo>
45.6931

> <Gold.Chemscore.Internal_Hbond>
0.0000

> <Gold.Chemscore.DEClash>
0.0388

> <Gold.Chemscore.DEInternal>
1.4144

> <Gold.Chemscore.Rot>
1.0000

> <Gold.Chemscore.Internal.Correction>
   9.000000E+99

> <Gold.Chemscore.Hbonds>
donor molecule, donor type, donor heavy atom, donor atom, acceptor molecule, acceptor atom, score
      L1  H     5    25       P1  7948  0.98
      L1  H     8    26       P1  7948  0.79
      P1  H  7989  7998       L1    20  0.06

> <Gold.Chemscore.Hbond.Weighted>
-6.6792

> <Gold.Chemscore.Metal.Weighted>
-0.0000

> <Gold.Chemscore.Lipo.Weighted>
-5.3461

> <Gold.Chemscore.Internal_Hbond.Weighted>
0.0000

> <Gold.Chemscore.DEClash.Weighted>
0.0388

> <Gold.Chemscore.DEInternal.Weighted>
1.4144

> <Gold.Chemscore.Rot.Weighted>
2.5600

> <Gold.Chemscore.Internal.Correction.Weighted>
   9.000000E+99

> <Gold.Protein.RotatedTorsions>
[ 6907 6896 6895 6894 ] final  100.83 input  -60.11 | X-H torsion
[ 7974 7965 7964 7962 ] final   14.96 input  175.53 | X-H torsion
[ 8008 7997 7996 7995 ] final   21.24 input   59.86 | X-H torsion
[ 10167 10162 10161 10158 ] final   15.79 input  -65.29 | X-H torsion
[ 10718 10713 10712 10709 ] final -128.49 input   66.30 | X-H torsion
[ 10763 10752 10751 10750 ] final -104.59 input  -60.55 | X-H torsion
[ 11005 11000 10999 10996 ] final   31.91 input  -57.11 | X-H torsion

> <Gold.Protein.ActiveResidues>
 VAL166  LYS551  ARG553  GLY616  TRP617  ASP618  TYR619  PRO620  LYS621  CYS622 
 ASP623  PHE694  ASN695  SER759  ASP760  ASP761  ALA762  ILE779  LEU786  VAL792 
 PHE793  MET794  SER795  GLU796  ALA797  LYS798  CYS799  TRP800  GLU811  SER814 

> <Gold.Protein.RotatedAtoms>
  152.5363  134.0218  159.7984 H   0  0  0  0  0  0  0  0  0  0  0  0  # atno 6907 bound_to 6896
  151.0403  133.5704  159.2659 H   0  0  0  0  0  0  0  0  0  0  0  0  # atno 6908 bound_to 6896
  151.2676  135.0681  159.9175 H   0  0  0  0  0  0  0  0  0  0  0  0  # atno 6909 bound_to 6896
  146.2291  139.8964  142.8546 H   0  0  0  0  0  0  0  0  0  0  0  0  # atno 7974 bound_to 7965
  154.9477  140.3061  155.5090 H   0  0  0  0  0  0  0  0  0  0  0  0  # atno 8008 bound_to 7997
  156.2990  140.2324  156.4489 H   0  0  0  0  0  0  0  0  0  0  0  0  # atno 8009 bound_to 7997
  154.8085  140.0430  157.1314 H   0  0  0  0  0  0  0  0  0  0  0  0  # atno 8010 bound_to 7997
  140.5842  143.8921  150.6816 H   0  0  0  0  0  0  0  0  0  0  0  0  # atno 10167 bound_to 10162
  156.1956  130.6824  151.0477 H   0  0  0  0  0  0  0  0  0  0  0  0  # atno 10718 bound_to 10713
  154.7889  135.4780  154.0007 H   0  0  0  0  0  0  0  0  0  0  0  0  # atno 10763 bound_to 10752
  153.1601  135.6807  153.8763 H   0  0  0  0  0  0  0  0  0  0  0  0  # atno 10764 bound_to 10752
  153.8379  135.3183  155.3402 H   0  0  0  0  0  0  0  0  0  0  0  0  # atno 10765 bound_to 10752
  140.2790  134.2995  155.7806 H   0  0  0  0  0  0  0  0  0  0  0  0  # atno 11005 bound_to 11000
  145.2366  140.9993  143.3960 LP  0  0  0  0  0  0  0  0  0  0  0  0  # atno 17320 bound_to 7965
  144.9486  139.4108  143.6414 LP  0  0  0  0  0  0  0  0  0  0  0  0  # atno 17321 bound_to 7965
  140.2428  143.3651  152.1472 LP  0  0  0  0  0  0  0  0  0  0  0  0  # atno 17342 bound_to 10162
  139.5188  144.7010  151.5492 LP  0  0  0  0  0  0  0  0  0  0  0  0  # atno 17343 bound_to 10162
  157.6955  131.0795  150.6981 LP  0  0  0  0  0  0  0  0  0  0  0  0  # atno 17370 bound_to 10713
  156.7037  130.4631  149.5566 LP  0  0  0  0  0  0  0  0  0  0  0  0  # atno 17371 bound_to 10713
  141.2166  133.7513  156.9451 LP  0  0  0  0  0  0  0  0  0  0  0  0  # atno 17394 bound_to 11000
  140.1301  134.9361  157.2325 LP  0  0  0  0  0  0  0  0  0  0  0  0  # atno 17395 bound_to 11000

$$$$
