AV-unprocessed.smi:1|AV-procd|sdf|16|dock6
  -GOLD-   2262015113D 1   1.00000     0.00000
 Structure written by MMmdl.
 57 62  0  0  0  0  0  0  0  0  1 V2000
  153.7137  140.8452  160.5587 O   0  0  0  0  0  0  0  0  0  0  0  0
  153.0507  141.3905  159.6719 C   0  0  0  0  0  0  0  0  0  0  0  0
  152.5908  140.8553  158.4757 N   0  0  0  0  0  0  0  0  0  0  0  0
  152.2605  139.6012  158.4068 C   0  0  0  0  0  0  0  0  0  0  0  0
  152.2503  138.5709  159.3562 N   0  0  0  0  0  0  0  0  0  0  0  0
  151.8397  137.2475  159.1311 C   0  0  0  0  0  0  0  0  0  0  0  0
  151.4085  136.7830  157.9887 N   0  0  0  0  0  0  0  0  0  0  0  0
  151.4104  137.7650  157.0082 C   0  0  0  0  0  0  0  0  0  0  0  0
  151.7855  139.0874  157.1041 C   0  0  0  0  0  0  0  0  0  0  0  0
  151.6417  139.7313  155.8801 N   0  0  0  0  0  0  0  0  0  0  0  0
  151.1849  138.7610  155.0925 C   0  0  0  0  0  0  0  0  0  0  0  0
  151.0253  137.5616  155.6867 N   0  0  0  0  0  0  0  0  0  0  0  0
  150.5332  136.2806  155.0805 C   0  0  1  0  0  0  0  0  0  0  0  0
  151.4646  135.2730  155.3450 O   0  0  0  0  0  0  0  0  0  0  0  0
  151.0022  134.4699  156.4222 C   0  0  2  0  0  0  0  0  0  0  0  0
  151.7133  133.1103  156.4485 C   0  0  0  0  0  0  0  0  0  0  0  0
  151.1454  132.2745  157.4447 O   0  0  0  0  0  0  0  0  0  0  0  0
  151.7193  131.0942  157.7453 C   0  0  0  0  0  0  0  0  0  0  0  0
  152.6251  130.5868  157.0807 O   0  0  0  0  0  0  0  0  0  0  0  0
  151.1460  130.4672  158.9709 C   0  0  0  0  0  0  0  0  0  0  0  0
  149.8190  130.7755  159.3513 C   0  0  0  0  0  0  0  0  0  0  0  0
  149.2492  130.1960  160.5016 C   0  0  0  0  0  0  0  0  0  0  0  0
  150.0002  129.3018  161.2865 C   0  0  0  0  0  0  0  0  0  0  0  0
  151.3218  128.9879  160.9197 C   0  0  0  0  0  0  0  0  0  0  0  0
  151.8931  129.5658  159.7692 C   0  0  0  0  0  0  0  0  0  0  0  0
  149.4873  134.4221  156.2144 C   0  0  1  0  0  0  0  0  0  0  0  0
  148.7888  134.2087  157.4284 O   0  0  0  0  0  0  0  0  0  0  0  0
  148.3609  135.6884  158.0745 S   0  0  0  0  0  0  0  0  0  0  0  0
  146.8958  135.7311  158.1974 O   0  0  0  0  0  0  0  0  0  0  0  0
  149.2597  135.9772  159.2023 O   0  0  0  0  0  0  0  0  0  0  0  0
  148.8080  136.6595  156.7932 O   0  0  0  0  0  0  0  0  0  0  0  0
  149.1878  135.8376  155.6988 C   0  0  1  0  0  0  0  0  0  0  0  0
  152.6185  142.8040  159.8904 C   0  0  0  0  0  0  0  0  0  0  0  0
  152.4189  143.2873  161.2012 C   0  0  0  0  0  0  0  0  0  0  0  0
  152.0045  144.6177  161.4082 C   0  0  0  0  0  0  0  0  0  0  0  0
  151.7867  145.4677  160.3066 C   0  0  0  0  0  0  0  0  0  0  0  0
  151.9815  144.9870  158.9970 C   0  0  0  0  0  0  0  0  0  0  0  0
  152.3964  143.6570  158.7883 C   0  0  0  0  0  0  0  0  0  0  0  0
  151.9068  136.6070  160.0117 H   0  0  0  0  0  0  0  0  0  0  0  0
  150.9612  138.9345  154.0504 H   0  0  0  0  0  0  0  0  0  0  0  0
  150.4832  136.4848  154.0104 H   0  0  0  0  0  0  0  0  0  0  0  0
  151.2254  135.0010  157.3484 H   0  0  0  0  0  0  0  0  0  0  0  0
  151.6356  132.6277  155.4735 H   0  0  0  0  0  0  0  0  0  0  0  0
  152.7740  133.2574  156.6570 H   0  0  0  0  0  0  0  0  0  0  0  0
  149.2228  131.4592  158.7641 H   0  0  0  0  0  0  0  0  0  0  0  0
  148.2345  130.4380  160.7813 H   0  0  0  0  0  0  0  0  0  0  0  0
  149.5634  128.8574  162.1687 H   0  0  0  0  0  0  0  0  0  0  0  0
  151.8995  128.3019  161.5216 H   0  0  0  0  0  0  0  0  0  0  0  0
  152.9100  129.3031  159.5166 H   0  0  0  0  0  0  0  0  0  0  0  0
  149.2041  133.6824  155.4651 H   0  0  0  0  0  0  0  0  0  0  0  0
  148.4022  135.8431  154.9427 H   0  0  0  0  0  0  0  0  0  0  0  0
  152.5815  142.6406  162.0513 H   0  0  0  0  0  0  0  0  0  0  0  0
  151.8523  144.9857  162.4123 H   0  0  0  0  0  0  0  0  0  0  0  0
  151.4683  146.4873  160.4662 H   0  0  0  0  0  0  0  0  0  0  0  0
  151.8120  145.6381  158.1521 H   0  0  0  0  0  0  0  0  0  0  0  0
  152.5418  143.2952  157.7805 H   0  0  0  0  0  0  0  0  0  0  0  0
  152.5612  138.8044  160.2883 H   0  0  0  0  0  0  0  0  0  0  0  0
  1  2  2  0  0  0  0
  2  3  1  0  0  0  0
  2 33  1  0  0  0  0
  3  4  2  0  0  0  0
  4  9  1  0  0  0  0
  4  5  1  0  0  0  0
  5  6  1  0  0  0  0
  5 57  1  0  0  0  0
  6  7  2  0  0  0  0
  6 39  1  0  0  0  0
  7  8  1  0  0  0  0
  8 12  1  0  0  0  0
  8  9  2  0  0  0  0
  9 10  1  0  0  0  0
 10 11  2  0  0  0  0
 11 12  1  0  0  0  0
 11 40  1  0  0  0  0
 12 13  1  0  0  0  0
 13 32  1  0  0  0  0
 13 14  1  0  0  0  0
 13 41  1  0  0  0  0
 14 15  1  0  0  0  0
 15 16  1  0  0  0  0
 15 26  1  0  0  0  0
 15 42  1  0  0  0  0
 16 17  1  0  0  0  0
 16 43  1  0  0  0  0
 16 44  1  0  0  0  0
 17 18  1  0  0  0  0
 18 19  2  0  0  0  0
 18 20  1  0  0  0  0
 20 25  1  0  0  0  0
 20 21  2  0  0  0  0
 21 22  1  0  0  0  0
 21 45  1  0  0  0  0
 22 23  2  0  0  0  0
 22 46  1  0  0  0  0
 23 24  1  0  0  0  0
 23 47  1  0  0  0  0
 24 25  2  0  0  0  0
 24 48  1  0  0  0  0
 25 49  1  0  0  0  0
 26 32  1  0  0  0  0
 26 27  1  0  0  0  0
 26 50  1  0  0  0  0
 27 28  1  0  0  0  0
 28 29  2  0  0  0  0
 28 30  2  0  0  0  0
 28 31  1  0  0  0  0
 31 32  1  0  0  0  0
 32 51  1  0  0  0  0
 33 38  1  0  0  0  0
 33 34  2  0  0  0  0
 34 35  1  0  0  0  0
 34 52  1  0  0  0  0
 35 36  2  0  0  0  0
 35 53  1  0  0  0  0
 36 37  1  0  0  0  0
 36 54  1  0  0  0  0
 37 38  2  0  0  0  0
 37 55  1  0  0  0  0
 38 56  1  0  0  0  0
M  END
> <s_m_source_file>
AV-unprocessed.smi

> <i_m_source_file_index>
1

> <i_lp_mmshare_version>
43012

> <i_f3d_flags>
0

> <s_epik_input>
W2NIXTFbY0hdW2NIXVtjSF1bY0hdYzFDKD1PKVtOSF1jKG5bY0hdbjIpYyhjMjMpbltjSF1uM1tDQEBIXShbQ0BIXShbQ0BIXTQ1KU9TKE81KSg9Tyk9TylPW0NASF00W0NIMl1PQyg9TyljNltjSF1bY0hdW2NIXVtjSF1bY0hdNg==

> <s_epik_cmdline>
J2VwaWtfcHl0aG9uJywgJy1waCcsICc3LjAnLCAnLXRuJywgJzgnLCAnLW1hJywgJzIwMCcsICctbWV0YWxfYmluZGluZycsICctaW1hZScsICc8aW5maWxlLm1hZT4nLCAnLW9tYWUnLCAnPG91dGZpbGUubWFlPic=

> <r_epik_Ionization_Penalty>
0.122545

> <r_epik_Ionization_Penalty_Charging>
0.122545

> <r_epik_Ionization_Penalty_Neutral>
7.8935e-16

> <r_epik_State_Penalty>
2.69178

> <r_epik_Charging_Adjusted_Penalty>
2.81433

> <i_epik_Tot_Q>
0

> <i_epik_Tot_abs_Q>
0

> <r_epik_Metal_State_Penalty>
3.02665

> <b_epik_Metal_Only>
0

> <s_epik_Chemistry_Notes>
This compound has an ester and may undergo hydrolysis at high or low pH. This compound contains an acetal/aminal-like group ( X-CH(R)-Y where X, Y are N, S, or O) that may be acid/base labile, releasing an aldehyde.

> <s_lp_Force_Field>
OPLS_2005

> <r_lp_Energy>
59.1261

> <b_lp_Chiralities_Consistent>
1

> <s_lp_Variant>
AV-unprocessed.smi:1-16

> <Gold.Version>
5.8.1

> <Gold.Id.Protein>
6NUR|6NUR_protein|mol2

> <Gold.PLP.Fitness>
54.1917

> <Gold.PLP.PLP>
-49.9366

> <Gold.PLP.part.hbond>
-2.9983

> <Gold.PLP.part.metal>
0.0000

> <Gold.PLP.part.buried>
-6.9837

> <Gold.PLP.part.nonpolar>
-40.4943

> <Gold.PLP.part.repulsive>
0.1952

> <Gold.PLP.ligand.clash>
0.0000

> <Gold.PLP.ligand.torsion>
1.0723

> <Gold.PLP.Chemscore.Hbond>
2.0000

> <Gold.PLP.Chemscore.CHOScore>
0.0000

> <Gold.PLP.Chemscore.Metal>
0.0000

> <Gold.Chemscore.Hbonds>
donor molecule, donor type, donor heavy atom, donor atom, acceptor molecule, acceptor atom, score
      P1  H  6896  6908       L1    30  1.00
      P1  H 10752 10764       L1    14  1.00

> <Gold.PLP.Chemscore.Internal.Correction>
0.3996

> <Gold.Rescore>
     Score         DG    S(hbond)    S(metal)    S(lipo)     H(rot)  DE(clash)    DE(int)     intcor
     10.93     -18.95       1.89        0.00     107.83       2.13       0.07       7.95       ----

> <Gold.Chemscore.Fitness>
10.9273

> <Gold.Chemscore.DG>
-18.9487

> <Gold.Chemscore.ZeroCoef>
-5.4800

> <Gold.Chemscore.Hbond>
1.8904

> <Gold.Chemscore.Metal>
0.0000

> <Gold.Chemscore.Lipo>
107.8312

> <Gold.Chemscore.Internal_Hbond>
0.0000

> <Gold.Chemscore.DEClash>
0.0679

> <Gold.Chemscore.DEInternal>
7.9536

> <Gold.Chemscore.Rot>
2.1333

> <Gold.Chemscore.Internal.Correction>
   9.000000E+99

> <Gold.Chemscore.Hbonds>
donor molecule, donor type, donor heavy atom, donor atom, acceptor molecule, acceptor atom, score
      P1  H  6896  6908       L1    30  0.96
      P1  H 10752 10764       L1    14  0.90

> <Gold.Chemscore.Hbond.Weighted>
-6.3139

> <Gold.Chemscore.Metal.Weighted>
-0.0000

> <Gold.Chemscore.Lipo.Weighted>
-12.6163

> <Gold.Chemscore.Internal_Hbond.Weighted>
0.0000

> <Gold.Chemscore.DEClash.Weighted>
0.0679

> <Gold.Chemscore.DEInternal.Weighted>
7.9536

> <Gold.Chemscore.Rot.Weighted>
5.4614

> <Gold.Chemscore.Internal.Correction.Weighted>
   9.000000E+99

> <Gold.Protein.RotatedTorsions>
[ 6907 6896 6895 6894 ] final -179.58 input  -60.11 | X-H torsion
[ 7974 7965 7964 7962 ] final  177.48 input  175.53 | X-H torsion
[ 8008 7997 7996 7995 ] final  -96.31 input   59.86 | X-H torsion
[ 10167 10162 10161 10158 ] final  -78.52 input  -65.29 | X-H torsion
[ 10718 10713 10712 10709 ] final   46.75 input   66.30 | X-H torsion
[ 10763 10752 10751 10750 ] final  -43.23 input  -60.55 | X-H torsion
[ 11005 11000 10999 10996 ] final -137.83 input  -57.11 | X-H torsion

> <Gold.Protein.ActiveResidues>
 VAL166  LYS551  ARG553  GLY616  TRP617  ASP618  TYR619  PRO620  LYS621  CYS622 
 ASP623  PHE694  ASN695  SER759  ASP760  ASP761  ALA762  ILE779  LEU786  VAL792 
 PHE793  MET794  SER795  GLU796  ALA797  LYS798  CYS799  TRP800  GLU811  SER814 

> <Gold.Protein.RotatedAtoms>
  151.6558  133.3319  159.3162 H   0  0  0  0  0  0  0  0  0  0  0  0  # atno 6907 bound_to 6896
  150.7938  134.6986  159.6546 H   0  0  0  0  0  0  0  0  0  0  0  0  # atno 6908 bound_to 6896
  152.4022  134.6272  160.0117 H   0  0  0  0  0  0  0  0  0  0  0  0  # atno 6909 bound_to 6896
  144.7168  140.0253  143.6439 H   0  0  0  0  0  0  0  0  0  0  0  0  # atno 7974 bound_to 7965
  154.7727  140.0472  157.1064 H   0  0  0  0  0  0  0  0  0  0  0  0  # atno 8008 bound_to 7997
  154.9800  140.3100  155.4931 H   0  0  0  0  0  0  0  0  0  0  0  0  # atno 8009 bound_to 7997
  156.2924  140.2237  156.4899 H   0  0  0  0  0  0  0  0  0  0  0  0  # atno 8010 bound_to 7997
  140.4675  143.2436  151.8256 H   0  0  0  0  0  0  0  0  0  0  0  0  # atno 10167 bound_to 10162
  157.4513  130.8140  149.7791 H   0  0  0  0  0  0  0  0  0  0  0  0  # atno 10718 bound_to 10713
  153.9921  135.6704  153.4754 H   0  0  0  0  0  0  0  0  0  0  0  0  # atno 10763 bound_to 10752
  153.0700  135.4979  154.8281 H   0  0  0  0  0  0  0  0  0  0  0  0  # atno 10764 bound_to 10752
  154.7103  135.3096  154.9170 H   0  0  0  0  0  0  0  0  0  0  0  0  # atno 10765 bound_to 10752
  140.8673  134.2094  157.4672 H   0  0  0  0  0  0  0  0  0  0  0  0  # atno 11005 bound_to 11000
  146.0147  139.3199  143.0849 LP  0  0  0  0  0  0  0  0  0  0  0  0  # atno 17320 bound_to 7965
  145.8640  140.9459  143.0685 LP  0  0  0  0  0  0  0  0  0  0  0  0  # atno 17321 bound_to 7965
  139.4814  144.4933  151.9157 LP  0  0  0  0  0  0  0  0  0  0  0  0  # atno 17342 bound_to 10162
  140.4018  144.2483  150.5892 LP  0  0  0  0  0  0  0  0  0  0  0  0  # atno 17343 bound_to 10162
  155.9988  130.3892  150.2687 LP  0  0  0  0  0  0  0  0  0  0  0  0  # atno 17370 bound_to 10713
  157.0859  131.0156  151.3140 LP  0  0  0  0  0  0  0  0  0  0  0  0  # atno 17371 bound_to 10713
  139.8710  134.9758  156.4896 LP  0  0  0  0  0  0  0  0  0  0  0  0  # atno 17394 bound_to 11000
  140.8614  133.8057  155.9269 LP  0  0  0  0  0  0  0  0  0  0  0  0  # atno 17395 bound_to 11000

$$$$
