AV-unprocessed.smi:2153|AV-procd|sdf|8768|dock9
  -GOLD-   2272011553D 1   1.00000     0.00000
 Structure written by MMmdl.
 48 49  0  0  0  0  0  0  0  0  1 V2000
  153.4699  140.6660  160.0908 C   0  0  0  0  0  0  0  0  0  0  0  0
  153.2166  142.1779  160.1950 C   0  0  2  0  0  0  0  0  0  0  0  0
  152.4363  142.5403  161.4762 C   0  0  0  0  0  0  0  0  0  0  0  0
  152.2182  144.0566  161.5953 C   0  0  0  0  0  0  0  0  0  0  0  0
  151.5320  144.6203  160.3430 C   0  0  0  0  0  0  0  0  0  0  0  0
  152.3126  144.2631  159.0687 C   0  0  0  0  0  0  0  0  0  0  0  0
  152.5128  142.7374  158.9377 C   0  0  2  0  0  0  0  0  0  0  0  0
  151.2634  142.0702  158.8074 O   0  0  0  0  0  0  0  0  0  0  0  0
  150.3656  142.6183  157.8543 C   0  0  0  0  0  0  0  0  0  0  0  0
  150.8990  142.3237  156.4432 C   0  0  0  0  0  0  0  0  0  0  0  0
  149.8236  142.2893  155.4562 N   0  0  0  0  0  0  0  0  0  0  0  0
  149.5429  141.2481  154.6569 C   0  0  0  0  0  0  0  0  0  0  0  0
  150.2113  140.2148  154.6360 O   0  0  0  0  0  0  0  0  0  0  0  0
  148.3351  141.4029  153.7247 C   0  0  0  0  0  0  0  0  0  0  0  0
  147.2164  142.0833  154.3900 N   0  0  0  0  0  0  0  0  0  0  0  0
  146.5437  143.0881  153.7180 C   0  0  0  0  0  0  0  0  0  0  0  0
  145.5214  143.7900  154.2536 C   0  0  0  0  0  0  0  0  0  0  0  0
  145.0649  143.5262  155.6121 C   0  0  0  0  0  0  0  0  0  0  0  0
  144.1331  144.1340  156.1402 O   0  0  0  0  0  0  0  0  0  0  0  0
  145.7745  142.5023  156.2820 N   0  0  0  0  0  0  0  0  0  0  0  0
  145.3693  142.1849  157.6358 C   0  0  0  0  0  0  0  0  0  0  0  0
  146.8220  141.7484  155.7047 C   0  0  0  0  0  0  0  0  0  0  0  0
  147.3781  140.8298  156.3105 O   0  0  0  0  0  0  0  0  0  0  0  0
  152.5350  140.1063  160.0452 H   0  0  0  0  0  0  0  0  0  0  0  0
  154.0303  140.3030  160.9525 H   0  0  0  0  0  0  0  0  0  0  0  0
  154.0467  140.4255  159.1975 H   0  0  0  0  0  0  0  0  0  0  0  0
  154.1941  142.6576  160.2619 H   0  0  0  0  0  0  0  0  0  0  0  0
  151.4703  142.0334  161.4806 H   0  0  0  0  0  0  0  0  0  0  0  0
  152.9736  142.1812  162.3544 H   0  0  0  0  0  0  0  0  0  0  0  0
  151.6194  144.2770  162.4792 H   0  0  0  0  0  0  0  0  0  0  0  0
  153.1780  144.5535  161.7403 H   0  0  0  0  0  0  0  0  0  0  0  0
  150.5222  144.2176  160.2711 H   0  0  0  0  0  0  0  0  0  0  0  0
  151.4302  145.7023  160.4293 H   0  0  0  0  0  0  0  0  0  0  0  0
  151.8058  144.6709  158.1950 H   0  0  0  0  0  0  0  0  0  0  0  0
  153.2879  144.7505  159.0988 H   0  0  0  0  0  0  0  0  0  0  0  0
  153.1316  142.5233  158.0644 H   0  0  0  0  0  0  0  0  0  0  0  0
  149.3622  142.2081  157.9650 H   0  0  0  0  0  0  0  0  0  0  0  0
  150.2960  143.6965  158.0038 H   0  0  0  0  0  0  0  0  0  0  0  0
  151.5919  143.1113  156.1475 H   0  0  0  0  0  0  0  0  0  0  0  0
  151.4675  141.3921  156.4323 H   0  0  0  0  0  0  0  0  0  0  0  0
  149.2321  143.1053  155.3979 H   0  0  0  0  0  0  0  0  0  0  0  0
  148.6250  141.9510  152.8266 H   0  0  0  0  0  0  0  0  0  0  0  0
  148.0286  140.4154  153.3755 H   0  0  0  0  0  0  0  0  0  0  0  0
  146.8525  143.3300  152.7114 H   0  0  0  0  0  0  0  0  0  0  0  0
  145.0398  144.5623  153.6721 H   0  0  0  0  0  0  0  0  0  0  0  0
  146.2090  141.7596  158.1866 H   0  0  0  0  0  0  0  0  0  0  0  0
  144.5422  141.4779  157.5616 H   0  0  0  0  0  0  0  0  0  0  0  0
  145.0680  143.1027  158.1434 H   0  0  0  0  0  0  0  0  0  0  0  0
  1  2  1  0  0  0  0
  1 24  1  0  0  0  0
  1 25  1  0  0  0  0
  1 26  1  0  0  0  0
  2  7  1  0  0  0  0
  2  3  1  0  0  0  0
  2 27  1  0  0  0  0
  3  4  1  0  0  0  0
  3 28  1  0  0  0  0
  3 29  1  0  0  0  0
  4  5  1  0  0  0  0
  4 30  1  0  0  0  0
  4 31  1  0  0  0  0
  5  6  1  0  0  0  0
  5 32  1  0  0  0  0
  5 33  1  0  0  0  0
  6  7  1  0  0  0  0
  6 34  1  0  0  0  0
  6 35  1  0  0  0  0
  7  8  1  0  0  0  0
  7 36  1  0  0  0  0
  8  9  1  0  0  0  0
  9 10  1  0  0  0  0
  9 37  1  0  0  0  0
  9 38  1  0  0  0  0
 10 11  1  0  0  0  0
 10 39  1  0  0  0  0
 10 40  1  0  0  0  0
 11 12  1  0  0  0  0
 11 41  1  0  0  0  0
 12 13  2  0  0  0  0
 12 14  1  0  0  0  0
 14 15  1  0  0  0  0
 14 42  1  0  0  0  0
 14 43  1  0  0  0  0
 15 22  1  0  0  0  0
 15 16  1  0  0  0  0
 16 17  2  0  0  0  0
 16 44  1  0  0  0  0
 17 18  1  0  0  0  0
 17 45  1  0  0  0  0
 18 19  2  0  0  0  0
 18 20  1  0  0  0  0
 20 21  1  0  0  0  0
 20 22  1  0  0  0  0
 21 46  1  0  0  0  0
 21 47  1  0  0  0  0
 21 48  1  0  0  0  0
 22 23  2  0  0  0  0
M  END
> <s_m_source_file>
AV-unprocessed.smi

> <i_m_source_file_index>
2153

> <i_lp_mmshare_version>
43012

> <i_f3d_flags>
0

> <s_epik_input>
W0NIM11bQ0BASF0xW0NIMl1bQ0gyXVtDSDJdW0NIMl1bQ0BIXTFPW0NIMl1bQ0gyXVtOSF1DKD1PKVtDSDJdbjJbY0hdW2NIXWMoPU8pbihbQ0gzXSljMj1P

> <s_epik_cmdline>
J2VwaWtfcHl0aG9uJywgJy1waCcsICc3LjAnLCAnLXRuJywgJzgnLCAnLW1hJywgJzIwMCcsICctbWV0YWxfYmluZGluZycsICctaW1hZScsICc8aW5maWxlLm1hZT4nLCAnLW9tYWUnLCAnPG91dGZpbGUubWFlPic=

> <r_lp_tautomer_probability>
1

> <r_epik_Ionization_Penalty>
4.02205e-08

> <r_epik_Ionization_Penalty_Charging>
1.23606e-08

> <r_epik_Ionization_Penalty_Neutral>
2.78599e-08

> <r_epik_State_Penalty>
-0

> <r_epik_Charging_Adjusted_Penalty>
1.23606e-08

> <i_epik_Tot_Q>
0

> <i_epik_Tot_abs_Q>
0

> <r_epik_Metal_State_Penalty>
-0

> <b_epik_Metal_Only>
0

> <s_lp_Force_Field>
OPLS_2005

> <r_lp_Energy>
17.534

> <b_lp_Chiralities_Consistent>
1

> <s_lp_Variant>
AV-unprocessed.smi:2153-3

> <Gold.Version>
5.8.1

> <Gold.Id.Protein>
6NUR|6NUR_protein|mol2

> <Gold.PLP.Fitness>
59.1876

> <Gold.PLP.PLP>
-54.6387

> <Gold.PLP.part.hbond>
-2.0000

> <Gold.PLP.part.metal>
0.0000

> <Gold.PLP.part.buried>
-5.4842

> <Gold.PLP.part.nonpolar>
-46.2887

> <Gold.PLP.part.repulsive>
0.3543

> <Gold.PLP.ligand.clash>
0.0000

> <Gold.PLP.ligand.torsion>
0.7295

> <Gold.PLP.Chemscore.Hbond>
1.9760

> <Gold.PLP.Chemscore.CHOScore>
0.0000

> <Gold.PLP.Chemscore.Metal>
0.0000

> <Gold.Chemscore.Hbonds>
donor molecule, donor type, donor heavy atom, donor atom, acceptor molecule, acceptor atom, score
      L1  H    11    41       P1  8028  1.00
      P1  H  7989  7998       L1    13  0.85

> <Gold.PLP.Chemscore.Internal.Correction>
0.0798

> <Gold.Rescore>
     Score         DG    S(hbond)    S(metal)    S(lipo)     H(rot)  DE(clash)    DE(int)     intcor
     17.71     -18.49       1.50        0.00     116.51       2.20       0.23       0.55       ----

> <Gold.Chemscore.Fitness>
17.7131

> <Gold.Chemscore.DG>
-18.4858

> <Gold.Chemscore.ZeroCoef>
-5.4800

> <Gold.Chemscore.Hbond>
1.4962

> <Gold.Chemscore.Metal>
0.0000

> <Gold.Chemscore.Lipo>
116.5136

> <Gold.Chemscore.Internal_Hbond>
0.0000

> <Gold.Chemscore.DEClash>
0.2255

> <Gold.Chemscore.DEInternal>
0.5472

> <Gold.Chemscore.Rot>
2.1968

> <Gold.Chemscore.Internal.Correction>
   9.000000E+99

> <Gold.Chemscore.Hbonds>
donor molecule, donor type, donor heavy atom, donor atom, acceptor molecule, acceptor atom, score
      L1  H    11    41       P1  8028  0.97
      P1  H  7989  7998       L1    13  0.14

> <Gold.Chemscore.Hbond.Weighted>
-4.9975

> <Gold.Chemscore.Metal.Weighted>
-0.0000

> <Gold.Chemscore.Lipo.Weighted>
-13.6321

> <Gold.Chemscore.Internal_Hbond.Weighted>
0.0000

> <Gold.Chemscore.DEClash.Weighted>
0.2255

> <Gold.Chemscore.DEInternal.Weighted>
0.5472

> <Gold.Chemscore.Rot.Weighted>
5.6238

> <Gold.Chemscore.Internal.Correction.Weighted>
   9.000000E+99

> <Gold.Protein.RotatedTorsions>
[ 6907 6896 6895 6894 ] final  163.33 input  -60.11 | X-H torsion
[ 7974 7965 7964 7962 ] final  -56.26 input  175.53 | X-H torsion
[ 8008 7997 7996 7995 ] final   27.13 input   59.86 | X-H torsion
[ 10167 10162 10161 10158 ] final  131.69 input  -65.29 | X-H torsion
[ 10718 10713 10712 10709 ] final -120.28 input   66.30 | X-H torsion
[ 10763 10752 10751 10750 ] final  171.82 input  -60.55 | X-H torsion
[ 11005 11000 10999 10996 ] final -112.16 input  -57.11 | X-H torsion

> <Gold.Protein.ActiveResidues>
 VAL166  LYS551  ARG553  GLY616  TRP617  ASP618  TYR619  PRO620  LYS621  CYS622 
 ASP623  PHE694  ASN695  SER759  ASP760  ASP761  ALA762  ILE779  LEU786  VAL792 
 PHE793  MET794  SER795  GLU796  ALA797  LYS798  CYS799  TRP800  GLU811  SER814 

> <Gold.Protein.RotatedAtoms>
  151.9268  133.3600  159.3916 H   0  0  0  0  0  0  0  0  0  0  0  0  # atno 6907 bound_to 6896
  150.7025  134.4579  159.5376 H   0  0  0  0  0  0  0  0  0  0  0  0  # atno 6908 bound_to 6896
  152.2212  134.8411  160.0536 H   0  0  0  0  0  0  0  0  0  0  0  0  # atno 6909 bound_to 6896
  145.8647  140.8260  142.9919 H   0  0  0  0  0  0  0  0  0  0  0  0  # atno 7974 bound_to 7965
  155.0382  140.3166  155.4734 H   0  0  0  0  0  0  0  0  0  0  0  0  # atno 8008 bound_to 7997
  156.2860  140.2168  156.5448 H   0  0  0  0  0  0  0  0  0  0  0  0  # atno 8009 bound_to 7997
  154.7313  140.0481  157.0716 H   0  0  0  0  0  0  0  0  0  0  0  0  # atno 8010 bound_to 7997
  139.5373  144.6695  151.4743 H   0  0  0  0  0  0  0  0  0  0  0  0  # atno 10167 bound_to 10162
  156.1246  130.6349  150.9521 H   0  0  0  0  0  0  0  0  0  0  0  0  # atno 10718 bound_to 10713
  154.4174  135.2757  155.1998 H   0  0  0  0  0  0  0  0  0  0  0  0  # atno 10763 bound_to 10752
  154.3958  135.6056  153.5872 H   0  0  0  0  0  0  0  0  0  0  0  0  # atno 10764 bound_to 10752
  152.9832  135.5914  154.4464 H   0  0  0  0  0  0  0  0  0  0  0  0  # atno 10765 bound_to 10752
  141.0692  133.9409  157.2519 H   0  0  0  0  0  0  0  0  0  0  0  0  # atno 11005 bound_to 11000
  144.6726  140.1149  143.7453 LP  0  0  0  0  0  0  0  0  0  0  0  0  # atno 17320 bound_to 7965
  145.9207  139.2544  143.1383 LP  0  0  0  0  0  0  0  0  0  0  0  0  # atno 17321 bound_to 7965
  140.6586  143.8547  150.6862 LP  0  0  0  0  0  0  0  0  0  0  0  0  # atno 17342 bound_to 10162
  140.1935  143.4017  152.1846 LP  0  0  0  0  0  0  0  0  0  0  0  0  # atno 17343 bound_to 10162
  157.6428  131.0908  150.8216 LP  0  0  0  0  0  0  0  0  0  0  0  0  # atno 17370 bound_to 10713
  156.8308  130.5015  149.5332 LP  0  0  0  0  0  0  0  0  0  0  0  0  # atno 17371 bound_to 10713
  139.9506  135.0176  156.8982 LP  0  0  0  0  0  0  0  0  0  0  0  0  # atno 17394 bound_to 11000
  140.5710  134.0443  155.7430 LP  0  0  0  0  0  0  0  0  0  0  0  0  # atno 17395 bound_to 11000

$$$$
