AV-unprocessed.smi:3347|AV-procd|sdf|12912|dock1
  -GOLD-   2272019323D 1   1.00000     0.00000
 Structure written by MMmdl.
 40 42  0  0  0  0  0  0  0  0  2 V2000
  145.9067  138.8430  153.9251 O   0  0  0  0  0  0  0  0  0  0  0  0
  146.7247  138.1842  153.2842 C   0  0  0  0  0  0  0  0  0  0  0  0
  146.3770  137.2491  152.3887 N   0  0  0  0  0  0  0  0  0  0  0  0
  145.0064  136.9088  152.0192 C   0  0  0  0  0  0  0  0  0  0  0  0
  144.7997  135.3906  151.8517 C   0  0  1  0  0  0  0  0  0  0  0  0
  143.5555  134.8534  152.5528 C   0  0  0  0  0  0  0  0  0  0  0  0
  143.3373  133.5126  151.8569 C   0  0  0  0  0  0  0  0  0  0  0  0
  143.7330  133.7285  150.4481 N   0  3  2  0  0  0  0  0  0  0  0  0
  144.3030  132.5294  149.7978 C   0  0  0  0  0  0  0  0  0  0  0  0
  144.9720  131.5800  150.7628 C   0  0  0  0  0  0  0  0  0  0  0  0
  145.8100  132.4647  149.8654 C   0  0  0  0  0  0  0  0  0  0  0  0
  144.6148  134.9191  150.4018 C   0  0  0  0  0  0  0  0  0  0  0  0
  148.0613  138.2810  153.3906 N   0  0  0  0  0  0  0  0  0  0  0  0
  148.8305  139.1574  154.2042 C   0  0  0  0  0  0  0  0  0  0  0  0
  148.2845  140.1508  155.0539 C   0  0  0  0  0  0  0  0  0  0  0  0
  149.1600  140.9676  155.7950 C   0  0  0  0  0  0  0  0  0  0  0  0
  150.5470  140.7681  155.6559 C   0  0  0  0  0  0  0  0  0  0  0  0
  151.0818  139.8338  154.8419 N   0  0  0  0  0  0  0  0  0  0  0  0
  150.2363  139.0550  154.1341 C   0  0  0  0  0  0  0  0  0  0  0  0
  147.1146  136.7546  151.9080 H   0  0  0  0  0  0  0  0  0  0  0  0
  144.3164  137.3029  152.7674 H   0  0  0  0  0  0  0  0  0  0  0  0
  144.7735  137.4231  151.0865 H   0  0  0  0  0  0  0  0  0  0  0  0
  145.6602  134.8641  152.2689 H   0  0  0  0  0  0  0  0  0  0  0  0
  143.6855  134.7535  153.6309 H   0  0  0  0  0  0  0  0  0  0  0  0
  142.7026  135.5100  152.3737 H   0  0  0  0  0  0  0  0  0  0  0  0
  143.9825  132.7595  152.3126 H   0  0  0  0  0  0  0  0  0  0  0  0
  142.3077  133.1618  151.9334 H   0  0  0  0  0  0  0  0  0  0  0  0
  143.7700  132.1487  148.9280 H   0  0  0  0  0  0  0  0  0  0  0  0
  144.9462  131.8208  151.8242 H   0  0  0  0  0  0  0  0  0  0  0  0
  144.9399  130.5185  150.5263 H   0  0  0  0  0  0  0  0  0  0  0  0
  146.3293  131.9857  149.0377 H   0  0  0  0  0  0  0  0  0  0  0  0
  146.3413  133.2932  150.3304 H   0  0  0  0  0  0  0  0  0  0  0  0
  144.1125  135.6820  149.8059 H   0  0  0  0  0  0  0  0  0  0  0  0
  145.5751  134.7124  149.9260 H   0  0  0  0  0  0  0  0  0  0  0  0
  148.5976  137.6202  152.8475 H   0  0  0  0  0  0  0  0  0  0  0  0
  147.2221  140.3142  155.1437 H   0  0  0  0  0  0  0  0  0  0  0  0
  148.7760  141.7337  156.4521 H   0  0  0  0  0  0  0  0  0  0  0  0
  151.2454  141.3784  156.2090 H   0  0  0  0  0  0  0  0  0  0  0  0
  150.7005  138.3211  153.4910 H   0  0  0  0  0  0  0  0  0  0  0  0
  142.8942  133.9764  149.9426 H   0  0  0  0  0  0  0  0  0  0  0  0
  1  2  2  0  0  0  0
  2  3  1  0  0  0  0
  2 13  1  0  0  0  0
  3  4  1  0  0  0  0
  3 20  1  0  0  0  0
  4  5  1  0  0  0  0
  4 21  1  0  0  0  0
  4 22  1  0  0  0  0
  5 12  1  0  0  0  0
  5  6  1  0  0  0  0
  5 23  1  0  0  0  0
  6  7  1  0  0  0  0
  6 24  1  0  0  0  0
  6 25  1  0  0  0  0
  7  8  1  0  0  0  0
  7 26  1  0  0  0  0
  7 27  1  0  0  0  0
  8  9  1  0  0  0  0
  8 12  1  0  0  0  0
  8 40  1  0  0  0  0
  9 11  1  0  0  0  0
  9 10  1  0  0  0  0
  9 28  1  0  0  0  0
 10 11  1  0  0  0  0
 10 29  1  0  0  0  0
 10 30  1  0  0  0  0
 11 31  1  0  0  0  0
 11 32  1  0  0  0  0
 12 33  1  0  0  0  0
 12 34  1  0  0  0  0
 13 14  1  0  0  0  0
 13 35  1  0  0  0  0
 14 19  1  0  0  0  0
 14 15  2  0  0  0  0
 15 16  1  0  0  0  0
 15 36  1  0  0  0  0
 16 17  2  0  0  0  0
 16 37  1  0  0  0  0
 17 18  1  0  0  0  0
 17 38  1  0  0  0  0
 18 19  2  0  0  0  0
 19 39  1  0  0  0  0
M  CHG  1   8   1
M  END
> <s_m_source_file>
AV-unprocessed.smi

> <i_m_source_file_index>
3347

> <i_lp_mmshare_version>
43012

> <i_f3d_flags>
0

> <s_epik_input>
W2NIXTFuW2NIXVtjSF1bY0hdYzFbTkhdQyg9TylbTkhdW0NIMl1bQ0BASF0yW0NIMl1bQ0gyXU4oW0NIMl0yKVtDSF0zW0NIMl1bQ0gyXTM=

> <s_epik_cmdline>
J2VwaWtfcHl0aG9uJywgJy1waCcsICc3LjAnLCAnLXRuJywgJzgnLCAnLW1hJywgJzIwMCcsICctbWV0YWxfYmluZGluZycsICctaW1hZScsICc8aW5maWxlLm1hZT4nLCAnLW9tYWUnLCAnPG91dGZpbGUubWFlPic=

> <r_epik_Ionization_Penalty>
0.00442629

> <r_epik_Ionization_Penalty_Charging>
0.000203384

> <r_epik_Ionization_Penalty_Neutral>
0.00422291

> <r_epik_State_Penalty>
0.00301008

> <r_epik_Charging_Adjusted_Penalty>
0.00321347

> <i_epik_Tot_Q>
1

> <i_epik_Tot_abs_Q>
1

> <r_epik_Metal_State_Penalty>
-0

> <b_epik_Metal_Only>
0

> <s_lp_Force_Field>
OPLS_2005

> <r_lp_Energy>
41.3797

> <b_lp_Chiralities_Consistent>
1

> <s_lp_Variant>
AV-unprocessed.smi:3347-2

> <Gold.Version>
5.8.1

> <Gold.Id.Protein>
6NUR|6NUR_protein|mol2

> <Gold.PLP.Fitness>
47.8337

> <Gold.PLP.PLP>
-35.1066

> <Gold.PLP.part.hbond>
-4.4692

> <Gold.PLP.part.metal>
0.0000

> <Gold.PLP.part.buried>
-2.3221

> <Gold.PLP.part.nonpolar>
-28.5657

> <Gold.PLP.part.repulsive>
0.6280

> <Gold.PLP.ligand.clash>
0.0000

> <Gold.PLP.ligand.torsion>
1.6822

> <Gold.PLP.Chemscore.Hbond>
4.9420

> <Gold.PLP.Chemscore.CHOScore>
0.0000

> <Gold.PLP.Chemscore.Metal>
0.0000

> <Gold.Chemscore.Hbonds>
donor molecule, donor type, donor heavy atom, donor atom, acceptor molecule, acceptor atom, score
      L1  H     3    20       P1  7948  0.99
      L1  H     8    40       P1 10186  2.00
      L1  H    13    35       P1  7948  1.00
      P1  H  7989  7998       L1    18  0.90

> <Gold.PLP.Chemscore.Internal.Correction>
1.2654

> <Gold.Rescore>
     Score         DG    S(hbond)    S(metal)    S(lipo)     H(rot)  DE(clash)    DE(int)     intcor
     18.81     -21.99       2.94        0.00      88.22       1.42       0.29       2.89       ----

> <Gold.Chemscore.Fitness>
18.8148

> <Gold.Chemscore.DG>
-21.9942

> <Gold.Chemscore.ZeroCoef>
-5.4800

> <Gold.Chemscore.Hbond>
2.9438

> <Gold.Chemscore.Metal>
0.0000

> <Gold.Chemscore.Lipo>
88.2226

> <Gold.Chemscore.Internal_Hbond>
0.0000

> <Gold.Chemscore.DEClash>
0.2883

> <Gold.Chemscore.DEInternal>
2.8910

> <Gold.Chemscore.Rot>
1.4219

> <Gold.Chemscore.Internal.Correction>
   9.000000E+99

> <Gold.Chemscore.Hbonds>
donor molecule, donor type, donor heavy atom, donor atom, acceptor molecule, acceptor atom, score
      L1  H     3    20       P1  7948  0.93
      L1  H     8    40       P1 10186  0.97
      L1  H    13    35       P1  7948  1.00
      P1  H  7989  7998       L1    18  0.05

> <Gold.Chemscore.Hbond.Weighted>
-9.8323

> <Gold.Chemscore.Metal.Weighted>
-0.0000

> <Gold.Chemscore.Lipo.Weighted>
-10.3220

> <Gold.Chemscore.Internal_Hbond.Weighted>
0.0000

> <Gold.Chemscore.DEClash.Weighted>
0.2883

> <Gold.Chemscore.DEInternal.Weighted>
2.8910

> <Gold.Chemscore.Rot.Weighted>
3.6401

> <Gold.Chemscore.Internal.Correction.Weighted>
   9.000000E+99

> <Gold.Protein.RotatedTorsions>
[ 6907 6896 6895 6894 ] final  138.69 input  -60.11 | X-H torsion
[ 7974 7965 7964 7962 ] final  -92.39 input  175.53 | X-H torsion
[ 8008 7997 7996 7995 ] final  141.57 input   59.86 | X-H torsion
[ 10167 10162 10161 10158 ] final  -28.56 input  -65.29 | X-H torsion
[ 10718 10713 10712 10709 ] final  -57.88 input   66.30 | X-H torsion
[ 10763 10752 10751 10750 ] final  175.22 input  -60.55 | X-H torsion
[ 11005 11000 10999 10996 ] final  137.72 input  -57.11 | X-H torsion

> <Gold.Protein.ActiveResidues>
 VAL166  LYS551  ARG553  GLY616  TRP617  ASP618  TYR619  PRO620  LYS621  CYS622 
 ASP623  PHE694  ASN695  SER759  ASP760  ASP761  ALA762  ILE779  LEU786  VAL792 
 PHE793  MET794  SER795  GLU796  ALA797  LYS798  CYS799  TRP800  GLU811  SER814 

> <Gold.Protein.RotatedAtoms>
  152.2636  133.5319  159.5396 H   0  0  0  0  0  0  0  0  0  0  0  0  # atno 6907 bound_to 6896
  150.7134  134.0795  159.3902 H   0  0  0  0  0  0  0  0  0  0  0  0  # atno 6908 bound_to 6896
  151.8712  135.0489  160.0530 H   0  0  0  0  0  0  0  0  0  0  0  0  # atno 6909 bound_to 6896
  145.4005  140.9537  143.2290 H   0  0  0  0  0  0  0  0  0  0  0  0  # atno 7974 bound_to 7965
  156.2963  140.2311  156.4586 H   0  0  0  0  0  0  0  0  0  0  0  0  # atno 8008 bound_to 7997
  154.8038  140.0447  157.1313 H   0  0  0  0  0  0  0  0  0  0  0  0  # atno 8009 bound_to 7997
  154.9502  140.3041  155.5082 H   0  0  0  0  0  0  0  0  0  0  0  0  # atno 8010 bound_to 7997
  140.7269  143.4000  151.1281 H   0  0  0  0  0  0  0  0  0  0  0  0  # atno 10167 bound_to 10162
  156.1177  130.4169  150.0501 H   0  0  0  0  0  0  0  0  0  0  0  0  # atno 10718 bound_to 10713
  154.4646  135.2769  155.1687 H   0  0  0  0  0  0  0  0  0  0  0  0  # atno 10763 bound_to 10752
  154.3461  135.6160  153.5623 H   0  0  0  0  0  0  0  0  0  0  0  0  # atno 10764 bound_to 10752
  152.9858  135.5800  154.5016 H   0  0  0  0  0  0  0  0  0  0  0  0  # atno 10765 bound_to 10752
  140.0133  134.9429  157.0324 H   0  0  0  0  0  0  0  0  0  0  0  0  # atno 11005 bound_to 11000
  144.8377  139.5523  143.6914 LP  0  0  0  0  0  0  0  0  0  0  0  0  # atno 17320 bound_to 7965
  146.2754  139.6739  142.9267 LP  0  0  0  0  0  0  0  0  0  0  0  0  # atno 17321 bound_to 7965
  139.7618  143.8624  152.3102 LP  0  0  0  0  0  0  0  0  0  0  0  0  # atno 17342 bound_to 10162
  139.8512  144.7163  150.9211 LP  0  0  0  0  0  0  0  0  0  0  0  0  # atno 17343 bound_to 10162
  156.8447  130.9438  151.3629 LP  0  0  0  0  0  0  0  0  0  0  0  0  # atno 17370 bound_to 10713
  157.6361  130.8767  149.9361 LP  0  0  0  0  0  0  0  0  0  0  0  0  # atno 17371 bound_to 10713
  140.4515  134.1577  155.7182 LP  0  0  0  0  0  0  0  0  0  0  0  0  # atno 17394 bound_to 11000
  141.1726  133.8578  157.1523 LP  0  0  0  0  0  0  0  0  0  0  0  0  # atno 17395 bound_to 11000

$$$$
