AV-unprocessed.smi:3148|AV-procd|sdf|11994|dock3
  -GOLD-   2272017403D 1   1.00000     0.00000
 Structure written by MMmdl.
 34 36  0  0  0  0  0  0  0  0  1 V2000
  153.9173  141.1675  161.0508 C   0  0  0  0  0  0  0  0  0  0  0  0
  153.2166  140.9641  159.8286 O   0  0  0  0  0  0  0  0  0  0  0  0
  152.4908  142.0181  159.3137 C   0  0  0  0  0  0  0  0  0  0  0  0
  152.6155  143.2963  159.8950 C   0  0  0  0  0  0  0  0  0  0  0  0
  151.8447  144.3265  159.3170 C   0  0  0  0  0  0  0  0  0  0  0  0
  151.8853  145.7419  159.8531 C   0  0  0  0  0  0  0  0  0  0  0  0
  151.0300  144.1012  158.2626 N   0  0  0  0  0  0  0  0  0  0  0  0
  150.9828  142.8539  157.7891 C   0  0  0  0  0  0  0  0  0  0  0  0
  150.1326  142.6553  156.7169 N   0  0  0  0  0  0  0  0  0  0  0  0
  149.6407  141.3520  156.2873 C   0  0  1  0  0  0  0  0  0  0  0  0
  148.1758  141.3853  155.8338 C   0  0  0  0  0  0  0  0  0  0  0  0
  148.2717  140.8160  154.4128 C   0  0  2  0  0  0  0  0  0  0  0  0
  148.6309  139.3239  154.4068 C   0  0  0  0  0  0  0  0  0  0  0  0
  150.1077  139.3569  154.7997 C   0  0  0  0  0  0  0  0  0  0  0  0
  150.3454  140.8584  155.0127 C   0  0  1  0  0  0  0  0  0  0  0  0
  149.5020  141.3841  154.0005 O   0  0  0  0  0  0  0  0  0  0  0  0
  151.6685  141.8047  158.2567 N   0  0  0  0  0  0  0  0  0  0  0  0
  154.4334  140.2488  161.3284 H   0  0  0  0  0  0  0  0  0  0  0  0
  153.2363  141.4234  161.8638 H   0  0  0  0  0  0  0  0  0  0  0  0
  154.6684  141.9529  160.9531 H   0  0  0  0  0  0  0  0  0  0  0  0
  153.2667  143.4722  160.7384 H   0  0  0  0  0  0  0  0  0  0  0  0
  152.6486  145.8491  160.6243 H   0  0  0  0  0  0  0  0  0  0  0  0
  150.9214  146.0088  160.2870 H   0  0  0  0  0  0  0  0  0  0  0  0
  152.1095  146.4470  159.0521 H   0  0  0  0  0  0  0  0  0  0  0  0
  149.7131  143.4767  156.3060 H   0  0  0  0  0  0  0  0  0  0  0  0
  149.7910  140.6355  157.0959 H   0  0  0  0  0  0  0  0  0  0  0  0
  147.5235  140.7947  156.4778 H   0  0  0  0  0  0  0  0  0  0  0  0
  147.7862  142.4041  155.8043 H   0  0  0  0  0  0  0  0  0  0  0  0
  147.4238  141.0712  153.7768 H   0  0  0  0  0  0  0  0  0  0  0  0
  148.0190  138.7489  155.1027 H   0  0  0  0  0  0  0  0  0  0  0  0
  148.5098  138.8977  153.4102 H   0  0  0  0  0  0  0  0  0  0  0  0
  150.3224  138.7687  155.6924 H   0  0  0  0  0  0  0  0  0  0  0  0
  150.7277  138.9801  153.9853 H   0  0  0  0  0  0  0  0  0  0  0  0
  151.3931  141.1498  154.9306 H   0  0  0  0  0  0  0  0  0  0  0  0
  1  2  1  0  0  0  0
  1 18  1  0  0  0  0
  1 19  1  0  0  0  0
  1 20  1  0  0  0  0
  2  3  1  0  0  0  0
  3 17  1  0  0  0  0
  3  4  2  0  0  0  0
  4  5  1  0  0  0  0
  4 21  1  0  0  0  0
  5  6  1  0  0  0  0
  5  7  2  0  0  0  0
  6 22  1  0  0  0  0
  6 23  1  0  0  0  0
  6 24  1  0  0  0  0
  7  8  1  0  0  0  0
  8  9  1  0  0  0  0
  8 17  2  0  0  0  0
  9 10  1  0  0  0  0
  9 25  1  0  0  0  0
 10 15  1  0  0  0  0
 10 11  1  0  0  0  0
 10 26  1  0  0  0  0
 11 12  1  0  0  0  0
 11 27  1  0  0  0  0
 11 28  1  0  0  0  0
 12 16  1  0  0  0  0
 12 13  1  0  0  0  0
 12 29  1  0  0  0  0
 13 14  1  0  0  0  0
 13 30  1  0  0  0  0
 13 31  1  0  0  0  0
 14 15  1  0  0  0  0
 14 32  1  0  0  0  0
 14 33  1  0  0  0  0
 15 16  1  0  0  0  0
 15 34  1  0  0  0  0
M  END
> <s_m_source_file>
AV-unprocessed.smi

> <i_m_source_file_index>
3148

> <i_lp_mmshare_version>
43012

> <i_f3d_flags>
0

> <s_epik_input>
W0NIM11PYzFbY0hdYyhbQ0gzXSluYyhuMSlbTkhdW0NASF0oW0NIMl1bQ0BASF0yMylbQ0BASF0oTzMpW0NIMl1bQ0gyXTI=

> <s_epik_cmdline>
J2VwaWtfcHl0aG9uJywgJy1waCcsICc3LjAnLCAnLXRuJywgJzgnLCAnLW1hJywgJzIwMCcsICctbWV0YWxfYmluZGluZycsICctaW1hZScsICc8aW5maWxlLm1hZT4nLCAnLW9tYWUnLCAnPG91dGZpbGUubWFlPic=

> <r_lp_tautomer_probability>
1

> <r_epik_Ionization_Penalty>
0.101645

> <r_epik_Ionization_Penalty_Charging>
0

> <r_epik_Ionization_Penalty_Neutral>
0.101645

> <r_epik_State_Penalty>
0.0916212

> <r_epik_Charging_Adjusted_Penalty>
0.0916212

> <i_epik_Tot_Q>
0

> <i_epik_Tot_abs_Q>
0

> <r_epik_Metal_State_Penalty>
0.0781

> <b_epik_Metal_Only>
0

> <s_lp_Force_Field>
OPLS_2005

> <r_lp_Energy>
31.271

> <b_lp_Chiralities_Consistent>
1

> <s_lp_Variant>
AV-unprocessed.smi:3148-4

> <Gold.Version>
5.8.1

> <Gold.Id.Protein>
6NUR|6NUR_protein|mol2

> <Gold.PLP.Fitness>
40.2114

> <Gold.PLP.PLP>
-35.7701

> <Gold.PLP.part.hbond>
-3.0000

> <Gold.PLP.part.metal>
0.0000

> <Gold.PLP.part.buried>
-2.6570

> <Gold.PLP.part.nonpolar>
-30.3432

> <Gold.PLP.part.repulsive>
0.4007

> <Gold.PLP.ligand.clash>
0.0016

> <Gold.PLP.ligand.torsion>
0.3940

> <Gold.PLP.Chemscore.Hbond>
1.7360

> <Gold.PLP.Chemscore.CHOScore>
0.0000

> <Gold.PLP.Chemscore.Metal>
0.0000

> <Gold.Chemscore.Hbonds>
donor molecule, donor type, donor heavy atom, donor atom, acceptor molecule, acceptor atom, score
      L1  H     9    25       P1  8028  1.00
      P1  H  8011  8017       L1    16  0.74

> <Gold.PLP.Chemscore.Internal.Correction>
0.0228

> <Gold.Rescore>
     Score         DG    S(hbond)    S(metal)    S(lipo)     H(rot)  DE(clash)    DE(int)     intcor
     16.55     -17.37       1.66        0.00      81.06       1.22       0.40       0.41       ----

> <Gold.Chemscore.Fitness>
16.5502

> <Gold.Chemscore.DG>
-17.3672

> <Gold.Chemscore.ZeroCoef>
-5.4800

> <Gold.Chemscore.Hbond>
1.6570

> <Gold.Chemscore.Metal>
0.0000

> <Gold.Chemscore.Lipo>
81.0632

> <Gold.Chemscore.Internal_Hbond>
0.0000

> <Gold.Chemscore.DEClash>
0.4028

> <Gold.Chemscore.DEInternal>
0.4142

> <Gold.Chemscore.Rot>
1.2232

> <Gold.Chemscore.Internal.Correction>
   9.000000E+99

> <Gold.Chemscore.Hbonds>
donor molecule, donor type, donor heavy atom, donor atom, acceptor molecule, acceptor atom, score
      L1  H     9    25       P1  8028  0.99
      P1  H  8011  8017       L1    16  0.70

> <Gold.Chemscore.Hbond.Weighted>
-5.5342

> <Gold.Chemscore.Metal.Weighted>
-0.0000

> <Gold.Chemscore.Lipo.Weighted>
-9.4844

> <Gold.Chemscore.Internal_Hbond.Weighted>
0.0000

> <Gold.Chemscore.DEClash.Weighted>
0.4028

> <Gold.Chemscore.DEInternal.Weighted>
0.4142

> <Gold.Chemscore.Rot.Weighted>
3.1314

> <Gold.Chemscore.Internal.Correction.Weighted>
   9.000000E+99

> <Gold.Protein.RotatedTorsions>
[ 6907 6896 6895 6894 ] final   46.31 input  -60.11 | X-H torsion
[ 7974 7965 7964 7962 ] final  161.13 input  175.53 | X-H torsion
[ 8008 7997 7996 7995 ] final   50.87 input   59.86 | X-H torsion
[ 10167 10162 10161 10158 ] final  145.01 input  -65.29 | X-H torsion
[ 10718 10713 10712 10709 ] final   -8.13 input   66.30 | X-H torsion
[ 10763 10752 10751 10750 ] final   77.15 input  -60.55 | X-H torsion
[ 11005 11000 10999 10996 ] final  -78.35 input  -57.11 | X-H torsion

> <Gold.Protein.ActiveResidues>
 VAL166  LYS551  ARG553  GLY616  TRP617  ASP618  TYR619  PRO620  LYS621  CYS622 
 ASP623  PHE694  ASN695  SER759  ASP760  ASP761  ALA762  ILE779  LEU786  VAL792 
 PHE793  MET794  SER795  GLU796  ALA797  LYS798  CYS799  TRP800  GLU811  SER814 

> <Gold.Protein.RotatedAtoms>
  152.2548  134.8095  160.0439 H   0  0  0  0  0  0  0  0  0  0  0  0  # atno 6907 bound_to 6896
  151.8762  133.3480  159.3759 H   0  0  0  0  0  0  0  0  0  0  0  0  # atno 6908 bound_to 6896
  150.7096  134.4990  159.5596 H   0  0  0  0  0  0  0  0  0  0  0  0  # atno 6909 bound_to 6896
  144.7701  139.7855  143.6300 H   0  0  0  0  0  0  0  0  0  0  0  0  # atno 7974 bound_to 7965
  155.4258  140.3448  155.4275 H   0  0  0  0  0  0  0  0  0  0  0  0  # atno 8008 bound_to 7997
  156.1366  140.1529  156.9016 H   0  0  0  0  0  0  0  0  0  0  0  0  # atno 8009 bound_to 7997
  154.4936  140.0834  156.7629 H   0  0  0  0  0  0  0  0  0  0  0  0  # atno 8010 bound_to 7997
  139.4935  144.5932  151.6637 H   0  0  0  0  0  0  0  0  0  0  0  0  # atno 10167 bound_to 10162
  156.7070  130.5110  149.5902 H   0  0  0  0  0  0  0  0  0  0  0  0  # atno 10718 bound_to 10713
  153.0777  135.4925  154.8439 H   0  0  0  0  0  0  0  0  0  0  0  0  # atno 10763 bound_to 10752
  154.7110  135.3020  154.9200 H   0  0  0  0  0  0  0  0  0  0  0  0  # atno 10764 bound_to 10752
  153.9894  135.6780  153.4806 H   0  0  0  0  0  0  0  0  0  0  0  0  # atno 10765 bound_to 10752
  141.1664  133.7060  156.7959 H   0  0  0  0  0  0  0  0  0  0  0  0  # atno 11005 bound_to 11000
  146.1841  139.5047  142.9848 LP  0  0  0  0  0  0  0  0  0  0  0  0  # atno 17320 bound_to 7965
  145.6350  141.0296  143.1843 LP  0  0  0  0  0  0  0  0  0  0  0  0  # atno 17321 bound_to 7965
  140.5564  144.0341  150.6149 LP  0  0  0  0  0  0  0  0  0  0  0  0  # atno 17342 bound_to 10162
  140.3413  143.3018  152.0585 LP  0  0  0  0  0  0  0  0  0  0  0  0  # atno 17343 bound_to 10162
  156.1688  130.6423  151.0811 LP  0  0  0  0  0  0  0  0  0  0  0  0  # atno 17370 bound_to 10713
  157.6951  131.0797  150.6994 LP  0  0  0  0  0  0  0  0  0  0  0  0  # atno 17371 bound_to 10713
  140.2291  134.8699  157.3458 LP  0  0  0  0  0  0  0  0  0  0  0  0  # atno 17394 bound_to 11000
  140.1909  134.4373  155.7716 LP  0  0  0  0  0  0  0  0  0  0  0  0  # atno 17395 bound_to 11000

$$$$
