#       Name:                AV-unprocessed.smi:2549
#       Creating user name   scv26
#       Creation time:       Fri Mar 27 14:05:41 2020


#       File generated by GOLD software.
#

@<TRIPOS>MOLECULE
AV-unprocessed.smi:2549
    20    21     1
SMALL
NO_CHARGES


@<TRIPOS>ATOM
      1 ****        -2.8758  -0.4308   0.6212 C.2            1 S1                 0.0000
      2 ****        -1.6222  -0.9713   0.5805 C.2            1 S1                 0.0000
      3 ****        -0.8068   0.1283   0.4128 N.pl3          1 S1                 0.0000
      4 ****         0.6256   0.1586   0.3754 C.3            1 S1                 0.0000
      5 ****         1.3763   1.2382  -0.4088 C.3            1 S1                 0.0000
      6 ****         2.3592   0.2147  -0.7212 N.3            1 S1                 0.0000
      7 ****         1.3989  -0.8481  -0.4780 C.3            1 S1                 0.0000
      8 ****        -1.5190   1.2798   0.4020 N.2            1 S1                 0.0000
      9 ****        -2.7696   0.9544   0.5055 N.2            1 S1                 0.0000
     10 ****        -3.8342  -0.9161   0.7335 H              1 S1                 0.0000
     11 ****        -1.2584  -1.9858   0.6515 H              1 S1                 0.0000
     12 ****         0.9584   0.1282   1.4153 H              1 S1                 0.0000
     13 ****         0.8577   1.5944  -1.3002 H              1 S1                 0.0000
     14 ****         1.7620   2.0523   0.2054 H              1 S1                 0.0000
     15 ****         2.6590   0.2504  -1.6852 H              1 S1                 0.0000
     16 ****         1.8028  -1.6929   0.0804 H              1 S1                 0.0000
     17 ****         0.8855  -1.1550  -1.3906 H              1 S1                 0.0000
     18 ****         3.2356   0.2078  -0.2396 LP             1 S1                 0.0000
     19 ****        -1.1500   2.2063   0.3282 LP             1 S1                 0.0000
     20 ****        -3.5368   1.5957   0.5028 LP             1 S1                 0.0000
@<TRIPOS>BOND
    1    1    9 1     
    2    1    2 2     
    3    1   10 1     
    4    2    3 1     
    5    2   11 1     
    6    3    4 1     
    7    3    8 1     
    8    4    7 1     
    9    4    5 1     
   10    4   12 1     
   11    5    6 1     
   12    5   13 1     
   13    5   14 1     
   14    6    7 1     
   15    6   15 1     
   16    7   16 1     
   17    7   17 1     
   18    8    9 2     
   19    6   18 1     
   20    8   19 1     
   21    9   20 1     
@<TRIPOS>SUBSTRUCTURE
      1 S1             1
@<TRIPOS>SET
LONE_PAIRS      STATIC     ATOMS    <user>   **** ""
3 18 19 20
DONOR_HYDROGENS      STATIC     ATOMS    <user>   **** ""
1 15
ATOM$BLUE        STATIC     ATOMS    COLORGROUP SYSTEM
3 18 19 20
ATOM$RED        STATIC     ATOMS    COLORGROUP SYSTEM
1 15
