AV-unprocessed.smi:3322|AV-procd|sdf|12776|dock9
  -GOLD-   2272019123D 1   1.00000     0.00000
 Structure written by MMmdl.
 38 39  0  0  0  0  0  0  0  0  1 V2000
  148.5623  141.4490  155.6203 C   0  0  0  0  0  0  0  0  0  0  0  0
  149.9804  141.5085  156.2117 C   0  0  1  0  0  0  0  0  0  0  0  0
  150.1178  142.7438  157.0061 N   0  0  0  0  0  0  0  0  0  0  0  0
  151.4870  143.0192  157.4321 C   0  0  0  0  0  0  0  0  0  0  0  0
  151.4835  143.8516  158.7253 C   0  0  0  0  0  0  0  0  0  0  0  0
  152.1698  143.1816  159.8166 N   0  0  0  0  0  0  0  0  0  0  0  0
  153.2938  142.3848  159.7587 C   0  0  0  0  0  0  0  0  0  0  0  0
  153.5760  141.9864  161.0340 C   0  0  0  0  0  0  0  0  0  0  0  0
  152.5547  142.5989  161.8130 C   0  0  0  0  0  0  0  0  0  0  0  0
  151.7148  143.3136  161.0818 N   0  0  0  0  0  0  0  0  0  0  0  0
  150.2767  140.2164  157.0109 C   0  0  0  0  0  0  0  0  0  0  0  0
  149.5886  139.9777  158.0052 O   0  0  0  0  0  0  0  0  0  0  0  0
  151.2650  139.3757  156.6121 N   0  0  0  0  0  0  0  0  0  0  0  0
  151.6065  138.1514  157.3456 C   0  0  0  0  0  0  0  0  0  0  0  0
  151.2985  136.9387  156.4506 C   0  0  0  0  0  0  0  0  0  0  0  0
  152.0443  137.0411  155.2411 O   0  0  0  0  0  0  0  0  0  0  0  0
  151.7575  138.2307  154.5116 C   0  0  0  0  0  0  0  0  0  0  0  0
  152.0592  139.4658  155.3806 C   0  0  0  0  0  0  0  0  0  0  0  0
  148.4298  140.5826  154.9720 H   0  0  0  0  0  0  0  0  0  0  0  0
  148.3513  142.3355  155.0212 H   0  0  0  0  0  0  0  0  0  0  0  0
  147.8058  141.3929  156.4043 H   0  0  0  0  0  0  0  0  0  0  0  0
  150.6902  141.6008  155.3913 H   0  0  0  0  0  0  0  0  0  0  0  0
  149.7649  143.5456  156.5026 H   0  0  0  0  0  0  0  0  0  0  0  0
  152.0234  142.0872  157.6095 H   0  0  0  0  0  0  0  0  0  0  0  0
  152.0248  143.5557  156.6492 H   0  0  0  0  0  0  0  0  0  0  0  0
  151.9351  144.8314  158.5595 H   0  0  0  0  0  0  0  0  0  0  0  0
  150.4555  144.0344  159.0394 H   0  0  0  0  0  0  0  0  0  0  0  0
  153.7940  142.1714  158.8256 H   0  0  0  0  0  0  0  0  0  0  0  0
  154.3881  141.3543  161.3610 H   0  0  0  0  0  0  0  0  0  0  0  0
  152.3997  142.5464  162.8807 H   0  0  0  0  0  0  0  0  0  0  0  0
  152.6665  138.1685  157.6025 H   0  0  0  0  0  0  0  0  0  0  0  0
  151.0719  138.0535  158.2913 H   0  0  0  0  0  0  0  0  0  0  0  0
  151.5741  136.0144  156.9582 H   0  0  0  0  0  0  0  0  0  0  0  0
  150.2316  136.8778  156.2299 H   0  0  0  0  0  0  0  0  0  0  0  0
  152.3693  138.2460  153.6096 H   0  0  0  0  0  0  0  0  0  0  0  0
  150.7147  138.2270  154.1903 H   0  0  0  0  0  0  0  0  0  0  0  0
  151.8728  140.3575  154.7879 H   0  0  0  0  0  0  0  0  0  0  0  0
  153.1190  139.4936  155.6381 H   0  0  0  0  0  0  0  0  0  0  0  0
  1  2  1  0  0  0  0
  1 19  1  0  0  0  0
  1 20  1  0  0  0  0
  1 21  1  0  0  0  0
  2  3  1  0  0  0  0
  2 11  1  0  0  0  0
  2 22  1  0  0  0  0
  3  4  1  0  0  0  0
  3 23  1  0  0  0  0
  4  5  1  0  0  0  0
  4 24  1  0  0  0  0
  4 25  1  0  0  0  0
  5  6  1  0  0  0  0
  5 26  1  0  0  0  0
  5 27  1  0  0  0  0
  6 10  1  0  0  0  0
  6  7  1  0  0  0  0
  7  8  2  0  0  0  0
  7 28  1  0  0  0  0
  8  9  1  0  0  0  0
  8 29  1  0  0  0  0
  9 10  2  0  0  0  0
  9 30  1  0  0  0  0
 11 12  2  0  0  0  0
 11 13  1  0  0  0  0
 13 18  1  0  0  0  0
 13 14  1  0  0  0  0
 14 15  1  0  0  0  0
 14 31  1  0  0  0  0
 14 32  1  0  0  0  0
 15 16  1  0  0  0  0
 15 33  1  0  0  0  0
 15 34  1  0  0  0  0
 16 17  1  0  0  0  0
 17 18  1  0  0  0  0
 17 35  1  0  0  0  0
 17 36  1  0  0  0  0
 18 37  1  0  0  0  0
 18 38  1  0  0  0  0
M  END
> <s_m_source_file>
AV-unprocessed.smi

> <i_m_source_file_index>
3322

> <i_lp_mmshare_version>
43012

> <i_f3d_flags>
0

> <s_epik_input>
W0NIMl0xW0NIMl1PW0NIMl1bQ0gyXU4xQyg9TylbQ0BIXShbQ0gzXSlbTkhdW0NIMl1bQ0gyXW4yW2NIXVtjSF1bY0hdbjI=

> <s_epik_cmdline>
J2VwaWtfcHl0aG9uJywgJy1waCcsICc3LjAnLCAnLXRuJywgJzgnLCAnLW1hJywgJzIwMCcsICctbWV0YWxfYmluZGluZycsICctaW1hZScsICc8aW5maWxlLm1hZT4nLCAnLW9tYWUnLCAnPG91dGZpbGUubWFlPic=

> <r_lp_tautomer_probability>
1

> <r_epik_Ionization_Penalty>
0.511228

> <r_epik_Ionization_Penalty_Charging>
0

> <r_epik_Ionization_Penalty_Neutral>
0.511228

> <r_epik_State_Penalty>
0.51753

> <r_epik_Charging_Adjusted_Penalty>
0.51753

> <i_epik_Tot_Q>
0

> <i_epik_Tot_abs_Q>
0

> <r_epik_Metal_State_Penalty>
0.517012

> <b_epik_Metal_Only>
0

> <s_lp_Force_Field>
OPLS_2005

> <r_lp_Energy>
27.6931

> <b_lp_Chiralities_Consistent>
1

> <s_lp_Variant>
AV-unprocessed.smi:3322-4

> <Gold.Version>
5.8.1

> <Gold.Id.Protein>
6NUR|6NUR_protein|mol2

> <Gold.PLP.Fitness>
42.8694

> <Gold.PLP.PLP>
-39.2355

> <Gold.PLP.part.hbond>
-2.5000

> <Gold.PLP.part.metal>
0.0000

> <Gold.PLP.part.buried>
-5.7954

> <Gold.PLP.part.nonpolar>
-31.6245

> <Gold.PLP.part.repulsive>
0.1829

> <Gold.PLP.ligand.clash>
0.0000

> <Gold.PLP.ligand.torsion>
0.9286

> <Gold.PLP.Chemscore.Hbond>
1.8000

> <Gold.PLP.Chemscore.CHOScore>
0.0000

> <Gold.PLP.Chemscore.Metal>
0.0000

> <Gold.Chemscore.Hbonds>
donor molecule, donor type, donor heavy atom, donor atom, acceptor molecule, acceptor atom, score
      L1  H     3    23       P1  8028  1.00
      P1  H 10752 10764       L1    16  0.94

> <Gold.PLP.Chemscore.Internal.Correction>
0.0911

> <Gold.Rescore>
     Score         DG    S(hbond)    S(metal)    S(lipo)     H(rot)  DE(clash)    DE(int)     intcor
     16.94     -17.95       1.93        0.00      91.91       1.84       0.07       0.94       ----

> <Gold.Chemscore.Fitness>
16.9389

> <Gold.Chemscore.DG>
-17.9468

> <Gold.Chemscore.ZeroCoef>
-5.4800

> <Gold.Chemscore.Hbond>
1.9266

> <Gold.Chemscore.Metal>
0.0000

> <Gold.Chemscore.Lipo>
91.9067

> <Gold.Chemscore.Internal_Hbond>
0.0000

> <Gold.Chemscore.DEClash>
0.0650

> <Gold.Chemscore.DEInternal>
0.9429

> <Gold.Chemscore.Rot>
1.8442

> <Gold.Chemscore.Internal.Correction>
   9.000000E+99

> <Gold.Chemscore.Hbonds>
donor molecule, donor type, donor heavy atom, donor atom, acceptor molecule, acceptor atom, score
      L1  H     3    23       P1  8028  1.00
      P1  H 10752 10764       L1    16  0.86

> <Gold.Chemscore.Hbond.Weighted>
-6.4349

> <Gold.Chemscore.Metal.Weighted>
-0.0000

> <Gold.Chemscore.Lipo.Weighted>
-10.7531

> <Gold.Chemscore.Internal_Hbond.Weighted>
0.0000

> <Gold.Chemscore.DEClash.Weighted>
0.0650

> <Gold.Chemscore.DEInternal.Weighted>
0.9429

> <Gold.Chemscore.Rot.Weighted>
4.7212

> <Gold.Chemscore.Internal.Correction.Weighted>
   9.000000E+99

> <Gold.Protein.RotatedTorsions>
[ 6907 6896 6895 6894 ] final   50.41 input  -60.11 | X-H torsion
[ 7974 7965 7964 7962 ] final -179.86 input  175.53 | X-H torsion
[ 8008 7997 7996 7995 ] final   77.10 input   59.86 | X-H torsion
[ 10167 10162 10161 10158 ] final  123.17 input  -65.29 | X-H torsion
[ 10718 10713 10712 10709 ] final   42.66 input   66.30 | X-H torsion
[ 10763 10752 10751 10750 ] final  -49.83 input  -60.55 | X-H torsion
[ 11005 11000 10999 10996 ] final  111.81 input  -57.11 | X-H torsion

> <Gold.Protein.ActiveResidues>
 VAL166  LYS551  ARG553  GLY616  TRP617  ASP618  TYR619  PRO620  LYS621  CYS622 
 ASP623  PHE694  ASN695  SER759  ASP760  ASP761  ALA762  ILE779  LEU786  VAL792 
 PHE793  MET794  SER795  GLU796  ALA797  LYS798  CYS799  TRP800  GLU811  SER814 

> <Gold.Protein.RotatedAtoms>
  152.3015  134.7605  160.0356 H   0  0  0  0  0  0  0  0  0  0  0  0  # atno 6907 bound_to 6896
  151.8117  133.3377  159.3565 H   0  0  0  0  0  0  0  0  0  0  0  0  # atno 6908 bound_to 6896
  150.7276  134.5588  159.5876 H   0  0  0  0  0  0  0  0  0  0  0  0  # atno 6909 bound_to 6896
  144.7140  140.0654  143.6431 H   0  0  0  0  0  0  0  0  0  0  0  0  # atno 7974 bound_to 7965
  155.8368  140.3464  155.5606 H   0  0  0  0  0  0  0  0  0  0  0  0  # atno 8008 bound_to 7997
  155.8184  140.0909  157.1883 H   0  0  0  0  0  0  0  0  0  0  0  0  # atno 8009 bound_to 7997
  154.4004  140.1435  156.3457 H   0  0  0  0  0  0  0  0  0  0  0  0  # atno 8010 bound_to 7997
  139.5815  144.6988  151.3516 H   0  0  0  0  0  0  0  0  0  0  0  0  # atno 10167 bound_to 10162
  157.4073  130.7894  149.7400 H   0  0  0  0  0  0  0  0  0  0  0  0  # atno 10718 bound_to 10713
  154.1004  135.6564  153.4867 H   0  0  0  0  0  0  0  0  0  0  0  0  # atno 10763 bound_to 10752
  153.0290  135.5224  154.7292 H   0  0  0  0  0  0  0  0  0  0  0  0  # atno 10764 bound_to 10752
  154.6442  135.2992  155.0035 H   0  0  0  0  0  0  0  0  0  0  0  0  # atno 10765 bound_to 10752
  139.8912  134.9516  156.6490 H   0  0  0  0  0  0  0  0  0  0  0  0  # atno 11005 bound_to 11000
  145.9829  139.2955  143.1031 LP  0  0  0  0  0  0  0  0  0  0  0  0  # atno 17320 bound_to 7965
  145.8990  140.9255  143.0512 LP  0  0  0  0  0  0  0  0  0  0  0  0  # atno 17321 bound_to 7965
  140.7093  143.7433  150.7537 LP  0  0  0  0  0  0  0  0  0  0  0  0  # atno 17342 bound_to 10162
  140.0966  143.4827  152.2449 LP  0  0  0  0  0  0  0  0  0  0  0  0  # atno 17343 bound_to 10162
  155.9840  130.3995  150.3333 LP  0  0  0  0  0  0  0  0  0  0  0  0  # atno 17370 bound_to 10713
  157.1467  131.0310  151.2903 LP  0  0  0  0  0  0  0  0  0  0  0  0  # atno 17371 bound_to 10713
  140.7535  133.8877  155.8365 LP  0  0  0  0  0  0  0  0  0  0  0  0  # atno 17394 bound_to 11000
  140.9981  134.1188  157.4344 LP  0  0  0  0  0  0  0  0  0  0  0  0  # atno 17395 bound_to 11000

$$$$
