AV-unprocessed.smi:2009|AV-procd|sdf|8148|dock3
  -GOLD-   2272010383D 1   1.00000     0.00000
 Structure written by MMmdl.
 37 38  0  0  0  0  0  0  0  0  2 V2000
  150.4321  137.1904  157.8302 C   0  0  0  0  0  0  0  0  0  0  0  0
  150.3311  138.3428  156.8218 C   0  0  1  0  0  0  0  0  0  0  0  0
  148.9040  138.4758  156.2338 C   0  0  0  0  0  0  0  0  0  0  0  0
  148.7730  139.5068  155.2076 N   0  0  0  0  0  0  0  0  0  0  0  0
  147.6913  139.7737  154.3894 C   0  0  0  0  0  0  0  0  0  0  0  0
  148.0351  140.8190  153.5816 C   0  0  0  0  0  0  0  0  0  0  0  0
  149.3681  141.1233  153.9736 C   0  0  0  0  0  0  0  0  0  0  0  0
  149.8113  140.3332  154.9379 N   0  0  0  0  0  0  0  0  0  0  0  0
  150.7093  139.5828  157.4856 N   0  5  0  0  0  0  0  0  0  0  0  0
  150.1129  139.9129  158.9568 S   0  0  0  0  0  0  0  0  0  0  0  0
  148.7057  140.3441  158.9411 O   0  0  0  0  0  0  0  0  0  0  0  0
  150.5171  138.9247  159.9706 O   0  0  0  0  0  0  0  0  0  0  0  0
  151.0495  141.3459  159.2632 N   0  0  0  0  0  0  0  0  0  0  0  0
  150.9754  141.9164  160.6245 C   0  0  0  0  0  0  0  0  0  0  0  0
  152.1168  142.9143  160.8835 C   0  0  0  0  0  0  0  0  0  0  0  0
  152.1491  144.0128  159.8182 C   0  0  0  0  0  0  0  0  0  0  0  0
  152.2561  143.3673  158.4347 C   0  0  0  0  0  0  0  0  0  0  0  0
  151.1096  142.3714  158.1958 C   0  0  0  0  0  0  0  0  0  0  0  0
  150.1675  136.2407  157.3647 H   0  0  0  0  0  0  0  0  0  0  0  0
  149.7634  137.3423  158.6783 H   0  0  0  0  0  0  0  0  0  0  0  0
  151.4472  137.0937  158.2175 H   0  0  0  0  0  0  0  0  0  0  0  0
  151.0068  138.1060  155.9984 H   0  0  0  0  0  0  0  0  0  0  0  0
  148.5982  137.5237  155.7973 H   0  0  0  0  0  0  0  0  0  0  0  0
  148.1849  138.6885  157.0263 H   0  0  0  0  0  0  0  0  0  0  0  0
  146.7738  139.2078  154.4608 H   0  0  0  0  0  0  0  0  0  0  0  0
  147.4259  141.2940  152.8272 H   0  0  0  0  0  0  0  0  0  0  0  0
  150.0240  141.8888  153.5862 H   0  0  0  0  0  0  0  0  0  0  0  0
  150.0069  142.4016  160.7522 H   0  0  0  0  0  0  0  0  0  0  0  0
  151.0299  141.1194  161.3654 H   0  0  0  0  0  0  0  0  0  0  0  0
  152.0039  143.3583  161.8727 H   0  0  0  0  0  0  0  0  0  0  0  0
  153.0697  142.3830  160.8909 H   0  0  0  0  0  0  0  0  0  0  0  0
  151.2445  144.6190  159.8790 H   0  0  0  0  0  0  0  0  0  0  0  0
  152.9921  144.6824  159.9901 H   0  0  0  0  0  0  0  0  0  0  0  0
  152.2451  144.1370  157.6627 H   0  0  0  0  0  0  0  0  0  0  0  0
  153.2121  142.8499  158.3428 H   0  0  0  0  0  0  0  0  0  0  0  0
  151.2448  141.9024  157.2219 H   0  0  0  0  0  0  0  0  0  0  0  0
  150.1541  142.8958  158.1572 H   0  0  0  0  0  0  0  0  0  0  0  0
  1  2  1  0  0  0  0
  1 19  1  0  0  0  0
  1 20  1  0  0  0  0
  1 21  1  0  0  0  0
  2  3  1  0  0  0  0
  2  9  1  0  0  0  0
  2 22  1  0  0  0  0
  3  4  1  0  0  0  0
  3 23  1  0  0  0  0
  3 24  1  0  0  0  0
  4  8  1  0  0  0  0
  4  5  1  0  0  0  0
  5  6  2  0  0  0  0
  5 25  1  0  0  0  0
  6  7  1  0  0  0  0
  6 26  1  0  0  0  0
  7  8  2  0  0  0  0
  7 27  1  0  0  0  0
  9 10  1  0  0  0  0
 10 11  2  0  0  0  0
 10 12  2  0  0  0  0
 10 13  1  0  0  0  0
 13 18  1  0  0  0  0
 13 14  1  0  0  0  0
 14 15  1  0  0  0  0
 14 28  1  0  0  0  0
 14 29  1  0  0  0  0
 15 16  1  0  0  0  0
 15 30  1  0  0  0  0
 15 31  1  0  0  0  0
 16 17  1  0  0  0  0
 16 32  1  0  0  0  0
 16 33  1  0  0  0  0
 17 18  1  0  0  0  0
 17 34  1  0  0  0  0
 17 35  1  0  0  0  0
 18 36  1  0  0  0  0
 18 37  1  0  0  0  0
M  CHG  1   9  -1
M  END
> <s_m_source_file>
AV-unprocessed.smi

> <i_m_source_file_index>
2009

> <i_lp_mmshare_version>
43012

> <i_f3d_flags>
0

> <s_epik_input>
bjFbY0hdW2NIXVtjSF1uMVtDSDJdW0NAQEhdKFtDSDNdKVtOSF1TKD1PKSg9TylOMltDSDJdW0NIMl1bQ0gyXVtDSDJdW0NIMl0y

> <s_epik_cmdline>
J2VwaWtfcHl0aG9uJywgJy1waCcsICc3LjAnLCAnLXRuJywgJzgnLCAnLW1hJywgJzIwMCcsICctbWV0YWxfYmluZGluZycsICctaW1hZScsICc8aW5maWxlLm1hZT4nLCAnLW9tYWUnLCAnPG91dGZpbGUubWFlPic=

> <r_lp_tautomer_probability>
1

> <r_epik_Ionization_Penalty>
1.75622

> <r_epik_Ionization_Penalty_Charging>
1.7562

> <r_epik_Ionization_Penalty_Neutral>
2.38826e-05

> <r_epik_State_Penalty>
1.86645

> <r_epik_Charging_Adjusted_Penalty>
3.62264

> <i_epik_Tot_Q>
-1

> <i_epik_Tot_abs_Q>
1

> <r_epik_Metal_State_Penalty>
0.460135

> <b_epik_Metal_Only>
0

> <s_lp_Force_Field>
OPLS_2005

> <r_lp_Energy>
6.21629

> <b_lp_Chiralities_Consistent>
1

> <s_lp_Variant>
AV-unprocessed.smi:2009-4

> <Gold.Version>
5.8.1

> <Gold.Id.Protein>
6NUR|6NUR_protein|mol2

> <Gold.PLP.Fitness>
43.5931

> <Gold.PLP.PLP>
-36.7059

> <Gold.PLP.part.hbond>
-2.4567

> <Gold.PLP.part.metal>
0.0000

> <Gold.PLP.part.buried>
-0.9548

> <Gold.PLP.part.nonpolar>
-33.8878

> <Gold.PLP.part.repulsive>
0.1330

> <Gold.PLP.ligand.clash>
0.0000

> <Gold.PLP.ligand.torsion>
1.2226

> <Gold.PLP.Chemscore.Hbond>
1.5776

> <Gold.PLP.Chemscore.CHOScore>
1.0000

> <Gold.PLP.Chemscore.Metal>
0.0000

> <Gold.PLP.Chemscore.Internal.Correction>
1.5996

> <Gold.Rescore>
     Score         DG    S(hbond)    S(metal)    S(lipo)     H(rot)  DE(clash)    DE(int)     intcor
     13.54     -17.62       1.64        0.00      91.17       1.57       0.04       4.04       ----

> <Gold.Chemscore.Fitness>
13.5404

> <Gold.Chemscore.DG>
-17.6164

> <Gold.Chemscore.ZeroCoef>
-5.4800

> <Gold.Chemscore.Hbond>
1.6412

> <Gold.Chemscore.Metal>
0.0000

> <Gold.Chemscore.Lipo>
91.1685

> <Gold.Chemscore.Internal_Hbond>
0.0000

> <Gold.Chemscore.DEClash>
0.0362

> <Gold.Chemscore.DEInternal>
4.0398

> <Gold.Chemscore.Rot>
1.5672

> <Gold.Chemscore.Internal.Correction>
   9.000000E+99

> <Gold.Chemscore.Hbond.Weighted>
-5.4816

> <Gold.Chemscore.Metal.Weighted>
-0.0000

> <Gold.Chemscore.Lipo.Weighted>
-10.6667

> <Gold.Chemscore.Internal_Hbond.Weighted>
0.0000

> <Gold.Chemscore.DEClash.Weighted>
0.0362

> <Gold.Chemscore.DEInternal.Weighted>
4.0398

> <Gold.Chemscore.Rot.Weighted>
4.0119

> <Gold.Chemscore.Internal.Correction.Weighted>
   9.000000E+99

> <Gold.Protein.RotatedTorsions>
[ 6907 6896 6895 6894 ] final -113.50 input  -60.11 | X-H torsion
[ 7974 7965 7964 7962 ] final  -46.92 input  175.53 | X-H torsion
[ 8008 7997 7996 7995 ] final  151.34 input   59.86 | X-H torsion
[ 10167 10162 10161 10158 ] final   -9.95 input  -65.29 | X-H torsion
[ 10718 10713 10712 10709 ] final   39.21 input   66.30 | X-H torsion
[ 10763 10752 10751 10750 ] final -114.80 input  -60.55 | X-H torsion
[ 11005 11000 10999 10996 ] final  -71.83 input  -57.11 | X-H torsion

> <Gold.Protein.ActiveResidues>
 VAL166  LYS551  ARG553  GLY616  TRP617  ASP618  TYR619  PRO620  LYS621  CYS622 
 ASP623  PHE694  ASN695  SER759  ASP760  ASP761  ALA762  ILE779  LEU786  VAL792 
 PHE793  MET794  SER795  GLU796  ALA797  LYS798  CYS799  TRP800  GLU811  SER814 

> <Gold.Protein.RotatedAtoms>
  150.7834  133.8935  159.3320 H   0  0  0  0  0  0  0  0  0  0  0  0  # atno 6907 bound_to 6896
  151.6792  135.0962  160.0222 H   0  0  0  0  0  0  0  0  0  0  0  0  # atno 6908 bound_to 6896
  152.3891  133.6615  159.6258 H   0  0  0  0  0  0  0  0  0  0  0  0  # atno 6909 bound_to 6896
  145.9669  140.7423  142.9429 H   0  0  0  0  0  0  0  0  0  0  0  0  # atno 7974 bound_to 7965
  156.2678  140.2050  156.6160 H   0  0  0  0  0  0  0  0  0  0  0  0  # atno 8008 bound_to 7997
  154.6794  140.0541  157.0274 H   0  0  0  0  0  0  0  0  0  0  0  0  # atno 8009 bound_to 7997
  155.1022  140.3207  155.4547 H   0  0  0  0  0  0  0  0  0  0  0  0  # atno 8010 bound_to 7997
  140.7101  143.5801  150.9001 H   0  0  0  0  0  0  0  0  0  0  0  0  # atno 10167 bound_to 10162
  157.3679  130.7685  149.7097 H   0  0  0  0  0  0  0  0  0  0  0  0  # atno 10718 bound_to 10713
  154.8455  135.4404  154.1563 H   0  0  0  0  0  0  0  0  0  0  0  0  # atno 10763 bound_to 10752
  153.2711  135.6945  153.7486 H   0  0  0  0  0  0  0  0  0  0  0  0  # atno 10764 bound_to 10752
  153.6726  135.3416  155.3132 H   0  0  0  0  0  0  0  0  0  0  0  0  # atno 10765 bound_to 10752
  141.1599  133.6829  156.6966 H   0  0  0  0  0  0  0  0  0  0  0  0  # atno 11005 bound_to 11000
  144.6827  140.2684  143.7309 LP  0  0  0  0  0  0  0  0  0  0  0  0  # atno 17320 bound_to 7965
  145.7961  139.1946  143.2075 LP  0  0  0  0  0  0  0  0  0  0  0  0  # atno 17321 bound_to 7965
  139.9527  143.6254  152.3024 LP  0  0  0  0  0  0  0  0  0  0  0  0  # atno 17342 bound_to 10162
  139.6778  144.7657  151.1664 LP  0  0  0  0  0  0  0  0  0  0  0  0  # atno 17343 bound_to 10162
  155.9750  130.4095  150.3883 LP  0  0  0  0  0  0  0  0  0  0  0  0  # atno 17370 bound_to 10713
  157.1970  131.0429  151.2670 LP  0  0  0  0  0  0  0  0  0  0  0  0  # atno 17371 bound_to 10713
  140.2990  134.8179  157.4082 LP  0  0  0  0  0  0  0  0  0  0  0  0  # atno 17394 bound_to 11000
  140.1278  134.5134  155.8130 LP  0  0  0  0  0  0  0  0  0  0  0  0  # atno 17395 bound_to 11000

$$$$
