AV-unprocessed.smi:2133|AV-procd|sdf|8693|dock1
  -GOLD-   2272011453D 1   1.00000     0.00000
 Structure written by MMmdl.
 45 47  0  0  0  0  0  0  0  0  1 V2000
  146.8897  135.1468  162.5313 C   0  0  0  0  0  0  0  0  0  0  0  0
  147.4949  134.8819  161.2128 N   0  0  0  0  0  0  0  0  0  0  0  0
  148.0684  135.9290  160.5404 C   0  0  0  0  0  0  0  0  0  0  0  0
  148.1365  137.0847  160.9601 O   0  0  0  0  0  0  0  0  0  0  0  0
  148.6174  135.5637  159.2315 C   0  0  0  0  0  0  0  0  0  0  0  0
  148.5982  134.2973  158.7484 C   0  0  0  0  0  0  0  0  0  0  0  0
  149.1892  134.2277  157.4916 N   0  0  0  0  0  0  0  0  0  0  0  0
  149.5441  135.4954  157.2805 C   0  0  0  0  0  0  0  0  0  0  0  0
  149.2257  136.3613  158.2645 N   0  0  0  0  0  0  0  0  0  0  0  0
  149.4825  137.7941  158.2676 C   0  0  0  0  0  0  0  0  0  0  0  0
  148.3774  138.6149  157.5659 C   0  0  1  0  0  0  0  0  0  0  0  0
  147.3496  138.9255  158.4831 O   0  0  0  0  0  0  0  0  0  0  0  0
  148.8495  139.9017  156.8634 C   0  0  0  0  0  0  0  0  0  0  0  0
  150.1554  140.2494  157.2952 O   0  0  0  0  0  0  0  0  0  0  0  0
  150.6371  141.4343  156.6849 C   0  0  0  0  0  0  0  0  0  0  0  0
  151.2913  142.3489  157.6995 C   0  0  0  0  0  0  0  0  0  0  0  0
  151.6091  143.6796  157.3560 C   0  0  0  0  0  0  0  0  0  0  0  0
  152.2168  144.5278  158.3022 C   0  0  0  0  0  0  0  0  0  0  0  0
  152.5048  144.0496  159.5954 C   0  0  0  0  0  0  0  0  0  0  0  0
  152.1868  142.7220  159.9418 C   0  0  0  0  0  0  0  0  0  0  0  0
  151.5819  141.8725  158.9951 C   0  0  0  0  0  0  0  0  0  0  0  0
  148.0091  133.2802  159.5429 N   0  0  0  0  0  0  0  0  0  0  0  0
  147.9835  131.9075  159.0295 C   0  0  0  0  0  0  0  0  0  0  0  0
  147.4427  133.5751  160.7583 C   0  0  0  0  0  0  0  0  0  0  0  0
  146.9006  132.6889  161.4252 O   0  0  0  0  0  0  0  0  0  0  0  0
  146.8719  136.1970  162.8244 H   0  0  0  0  0  0  0  0  0  0  0  0
  147.4350  134.6112  163.3099 H   0  0  0  0  0  0  0  0  0  0  0  0
  145.8525  134.8082  162.5547 H   0  0  0  0  0  0  0  0  0  0  0  0
  150.0412  135.8079  156.3738 H   0  0  0  0  0  0  0  0  0  0  0  0
  149.6178  138.1279  159.2967 H   0  0  0  0  0  0  0  0  0  0  0  0
  150.4374  137.9618  157.7670 H   0  0  0  0  0  0  0  0  0  0  0  0
  147.9118  137.9889  156.8051 H   0  0  0  0  0  0  0  0  0  0  0  0
  147.3444  138.2689  159.1627 H   0  0  0  0  0  0  0  0  0  0  0  0
  148.8654  139.7297  155.7858 H   0  0  0  0  0  0  0  0  0  0  0  0
  148.1523  140.7220  157.0422 H   0  0  0  0  0  0  0  0  0  0  0  0
  151.3693  141.1870  155.9143 H   0  0  0  0  0  0  0  0  0  0  0  0
  149.8178  141.9605  156.1923 H   0  0  0  0  0  0  0  0  0  0  0  0
  151.3878  144.0532  156.3670 H   0  0  0  0  0  0  0  0  0  0  0  0
  152.4611  145.5456  158.0360 H   0  0  0  0  0  0  0  0  0  0  0  0
  152.9694  144.7009  160.3210 H   0  0  0  0  0  0  0  0  0  0  0  0
  152.4075  142.3553  160.9335 H   0  0  0  0  0  0  0  0  0  0  0  0
  151.3417  140.8548  159.2657 H   0  0  0  0  0  0  0  0  0  0  0  0
  148.2716  131.1891  159.7986 H   0  0  0  0  0  0  0  0  0  0  0  0
  148.6696  131.7639  158.1949 H   0  0  0  0  0  0  0  0  0  0  0  0
  146.9811  131.6537  158.6831 H   0  0  0  0  0  0  0  0  0  0  0  0
  1  2  1  0  0  0  0
  1 26  1  0  0  0  0
  1 27  1  0  0  0  0
  1 28  1  0  0  0  0
  2 24  1  0  0  0  0
  2  3  1  0  0  0  0
  3  4  2  0  0  0  0
  3  5  1  0  0  0  0
  5  9  1  0  0  0  0
  5  6  2  0  0  0  0
  6  7  1  0  0  0  0
  6 22  1  0  0  0  0
  7  8  2  0  0  0  0
  8  9  1  0  0  0  0
  8 29  1  0  0  0  0
  9 10  1  0  0  0  0
 10 11  1  0  0  0  0
 10 30  1  0  0  0  0
 10 31  1  0  0  0  0
 11 12  1  0  0  0  0
 11 13  1  0  0  0  0
 11 32  1  0  0  0  0
 12 33  1  0  0  0  0
 13 14  1  0  0  0  0
 13 34  1  0  0  0  0
 13 35  1  0  0  0  0
 14 15  1  0  0  0  0
 15 16  1  0  0  0  0
 15 36  1  0  0  0  0
 15 37  1  0  0  0  0
 16 21  1  0  0  0  0
 16 17  2  0  0  0  0
 17 18  1  0  0  0  0
 17 38  1  0  0  0  0
 18 19  2  0  0  0  0
 18 39  1  0  0  0  0
 19 20  1  0  0  0  0
 19 40  1  0  0  0  0
 20 21  2  0  0  0  0
 20 41  1  0  0  0  0
 21 42  1  0  0  0  0
 22 23  1  0  0  0  0
 22 24  1  0  0  0  0
 23 43  1  0  0  0  0
 23 44  1  0  0  0  0
 23 45  1  0  0  0  0
 24 25  2  0  0  0  0
M  END
> <s_m_source_file>
AV-unprocessed.smi

> <i_m_source_file_index>
2133

> <i_lp_mmshare_version>
43012

> <i_f3d_flags>
0

> <s_epik_input>
Tz1jMW4oW0NIM10pYyg9TyluKFtDSDNdKWMoYzEyKW5bY0hdbjJbQ0gyXVtDQEhdKFtPSF0pW0NIMl1PW0NIMl1jM1tjSF1bY0hdW2NIXVtjSF1bY0hdMw==

> <s_epik_cmdline>
J2VwaWtfcHl0aG9uJywgJy1waCcsICc3LjAnLCAnLXRuJywgJzgnLCAnLW1hJywgJzIwMCcsICctbWV0YWxfYmluZGluZycsICctaW1hZScsICc8aW5maWxlLm1hZT4nLCAnLW9tYWUnLCAnPG91dGZpbGUubWFlPic=

> <r_lp_tautomer_probability>
1

> <r_epik_Ionization_Penalty>
1.52174e-06

> <r_epik_Ionization_Penalty_Charging>
3.83535e-09

> <r_epik_Ionization_Penalty_Neutral>
1.5179e-06

> <r_epik_State_Penalty>
-0

> <r_epik_Charging_Adjusted_Penalty>
3.83535e-09

> <i_epik_Tot_Q>
0

> <i_epik_Tot_abs_Q>
0

> <r_epik_Metal_State_Penalty>
-0

> <b_epik_Metal_Only>
0

> <s_lp_Force_Field>
OPLS_2005

> <r_lp_Energy>
39.5783

> <b_lp_Chiralities_Consistent>
1

> <s_lp_Variant>
AV-unprocessed.smi:2133-2

> <Gold.Version>
5.8.1

> <Gold.Id.Protein>
6NUR|6NUR_protein|mol2

> <Gold.PLP.Fitness>
46.1217

> <Gold.PLP.PLP>
-44.4294

> <Gold.PLP.part.hbond>
-2.9985

> <Gold.PLP.part.metal>
0.0000

> <Gold.PLP.part.buried>
-3.7614

> <Gold.PLP.part.nonpolar>
-36.9599

> <Gold.PLP.part.repulsive>
0.0049

> <Gold.PLP.ligand.clash>
0.0000

> <Gold.PLP.ligand.torsion>
1.8329

> <Gold.PLP.Chemscore.Hbond>
1.6209

> <Gold.PLP.Chemscore.CHOScore>
0.0000

> <Gold.PLP.Chemscore.Metal>
0.0000

> <Gold.Chemscore.Hbonds>
donor molecule, donor type, donor heavy atom, donor atom, acceptor molecule, acceptor atom, score
      P1  H  6931  6943       L1     4  0.99
      P1  H  6934  6947       L1     4  0.49

> <Gold.PLP.Chemscore.Internal.Correction>
0.4954

> <Gold.Rescore>
     Score         DG    S(hbond)    S(metal)    S(lipo)     H(rot)  DE(clash)    DE(int)     intcor
     12.67     -14.64       1.64        0.00      95.06       2.91       0.03       1.94       ----

> <Gold.Chemscore.Fitness>
12.6680

> <Gold.Chemscore.DG>
-14.6359

> <Gold.Chemscore.ZeroCoef>
-5.4800

> <Gold.Chemscore.Hbond>
1.6441

> <Gold.Chemscore.Metal>
0.0000

> <Gold.Chemscore.Lipo>
95.0635

> <Gold.Chemscore.Internal_Hbond>
0.0000

> <Gold.Chemscore.DEClash>
0.0291

> <Gold.Chemscore.DEInternal>
1.9388

> <Gold.Chemscore.Rot>
2.9132

> <Gold.Chemscore.Internal.Correction>
   9.000000E+99

> <Gold.Chemscore.Hbonds>
donor molecule, donor type, donor heavy atom, donor atom, acceptor molecule, acceptor atom, score
      P1  H  6931  6943       L1     4  0.94
      P1  H  6934  6947       L1     4  0.48

> <Gold.Chemscore.Hbond.Weighted>
-5.4913

> <Gold.Chemscore.Metal.Weighted>
-0.0000

> <Gold.Chemscore.Lipo.Weighted>
-11.1224

> <Gold.Chemscore.Internal_Hbond.Weighted>
0.0000

> <Gold.Chemscore.DEClash.Weighted>
0.0291

> <Gold.Chemscore.DEInternal.Weighted>
1.9388

> <Gold.Chemscore.Rot.Weighted>
7.4578

> <Gold.Chemscore.Internal.Correction.Weighted>
   9.000000E+99

> <Gold.Protein.RotatedTorsions>
[ 6907 6896 6895 6894 ] final  -97.02 input  -60.11 | X-H torsion
[ 7974 7965 7964 7962 ] final    2.75 input  175.53 | X-H torsion
[ 8008 7997 7996 7995 ] final  158.72 input   59.86 | X-H torsion
[ 10167 10162 10161 10158 ] final  -94.82 input  -65.29 | X-H torsion
[ 10718 10713 10712 10709 ] final   86.70 input   66.30 | X-H torsion
[ 10763 10752 10751 10750 ] final -152.93 input  -60.55 | X-H torsion
[ 11005 11000 10999 10996 ] final -127.24 input  -57.11 | X-H torsion

> <Gold.Protein.ActiveResidues>
 VAL166  LYS551  ARG553  GLY616  TRP617  ASP618  TYR619  PRO620  LYS621  CYS622 
 ASP623  PHE694  ASN695  SER759  ASP760  ASP761  ALA762  ILE779  LEU786  VAL792 
 PHE793  MET794  SER795  GLU796  ALA797  LYS798  CYS799  TRP800  GLU811  SER814 

> <Gold.Protein.RotatedAtoms>
  150.7004  134.1413  159.4105 H   0  0  0  0  0  0  0  0  0  0  0  0  # atno 6907 bound_to 6896
  151.9398  135.0216  160.0544 H   0  0  0  0  0  0  0  0  0  0  0  0  # atno 6908 bound_to 6896
  152.2104  133.4872  159.5143 H   0  0  0  0  0  0  0  0  0  0  0  0  # atno 6909 bound_to 6896
  146.2444  140.0789  142.8358 H   0  0  0  0  0  0  0  0  0  0  0  0  # atno 7974 bound_to 7965
  156.2285  140.1851  156.7303 H   0  0  0  0  0  0  0  0  0  0  0  0  # atno 8008 bound_to 7997
  154.5982  140.0640  156.9360 H   0  0  0  0  0  0  0  0  0  0  0  0  # atno 8009 bound_to 7997
  155.2220  140.3308  155.4317 H   0  0  0  0  0  0  0  0  0  0  0  0  # atno 8010 bound_to 7997
  140.3105  143.3107  152.0153 H   0  0  0  0  0  0  0  0  0  0  0  0  # atno 10167 bound_to 10162
  157.6932  131.0226  150.3012 H   0  0  0  0  0  0  0  0  0  0  0  0  # atno 10718 bound_to 10713
  154.7962  135.3224  154.7662 H   0  0  0  0  0  0  0  0  0  0  0  0  # atno 10763 bound_to 10752
  153.8340  135.6877  153.4815 H   0  0  0  0  0  0  0  0  0  0  0  0  # atno 10764 bound_to 10752
  153.1654  135.4644  154.9772 H   0  0  0  0  0  0  0  0  0  0  0  0  # atno 10765 bound_to 10752
  140.9616  134.0928  157.3962 H   0  0  0  0  0  0  0  0  0  0  0  0  # atno 11005 bound_to 11000
  145.0750  140.9182  143.4859 LP  0  0  0  0  0  0  0  0  0  0  0  0  # atno 17320 bound_to 7965
  145.0931  139.2876  143.5725 LP  0  0  0  0  0  0  0  0  0  0  0  0  # atno 17321 bound_to 7965
  139.4895  144.6388  151.6921 LP  0  0  0  0  0  0  0  0  0  0  0  0  # atno 17342 bound_to 10162
  140.5572  144.0329  150.6153 LP  0  0  0  0  0  0  0  0  0  0  0  0  # atno 17343 bound_to 10162
  156.3528  130.3834  149.7315 LP  0  0  0  0  0  0  0  0  0  0  0  0  # atno 17370 bound_to 10713
  156.4787  130.8031  151.3046 LP  0  0  0  0  0  0  0  0  0  0  0  0  # atno 17371 bound_to 10713
  139.8880  135.0094  156.6594 LP  0  0  0  0  0  0  0  0  0  0  0  0  # atno 17394 bound_to 11000
  140.7459  133.8938  155.8312 LP  0  0  0  0  0  0  0  0  0  0  0  0  # atno 17395 bound_to 11000

$$$$
