#       Name:                AV-unprocessed.smi:1797
#       Creating user name   scv26
#       Creation time:       Fri Mar 27 08:51:07 2020


#       File generated by GOLD software.
#

@<TRIPOS>MOLECULE
AV-unprocessed.smi:1797
    36    37     1
SMALL
NO_CHARGES


@<TRIPOS>ATOM
      1 ****        -4.2520   3.1378  -0.6616 C.3            1 S1                 0.0000
      2 ****        -2.8511   3.0372  -0.1635 C.2            1 S1                 0.0000
      3 ****        -2.5514   2.9247   1.1328 N.2            1 S1                 0.0000
      4 ****        -1.1830   2.8480   1.3483 N.2            1 S1                 0.0000
      5 ****        -0.4690   2.8905   0.2143 C.2            1 S1                 0.0000
      6 ****         0.8753   2.8259   0.2014 N.pl3          1 S1                -1.0000
      7 ****         1.5519   1.6568   0.0516 C.2            1 S1                 0.0000
      8 ****         2.7796   1.5899   0.0053 O.2            1 S1                 0.0000
      9 ****         0.8326   0.5218  -0.0481 N.am           1 S1                 0.0000
     10 ****         1.3622  -0.8271  -0.2233 C.3            1 S1                 0.0000
     11 ****         1.8041  -1.4231   1.1217 C.3            1 S1                 0.0000
     12 ****         2.3626  -2.8435   0.9394 C.3            1 S1                 0.0000
     13 ****         1.4995  -3.7305   0.0295 C.2            1 S1                 0.0000
     14 ****         1.6517  -4.9499   0.0538 O.2            1 S1                 0.0000
     15 ****         0.6187  -3.1492  -0.8039 N.am           1 S1                 0.0000
     16 ****         0.2867  -1.7258  -0.8592 C.3            1 S1                 0.0000
     17 ****        -1.4604   3.0524  -1.2349 S.3            1 S1                 0.0000
     18 ****        -4.7065   2.1476  -0.6967 H              1 S1                 0.0000
     19 ****        -4.2673   3.5663  -1.6639 H              1 S1                 0.0000
     20 ****        -4.8432   3.7738  -0.0022 H              1 S1                 0.0000
     21 ****        -0.1719   0.6082   0.0032 H              1 S1                 0.0000
     22 ****         2.2214  -0.7918  -0.8960 H              1 S1                 0.0000
     23 ****         2.5642  -0.7929   1.5848 H              1 S1                 0.0000
     24 ****         0.9607  -1.4462   1.8137 H              1 S1                 0.0000
     25 ****         3.3566  -2.7866   0.4946 H              1 S1                 0.0000
     26 ****         2.4825  -3.3240   1.9108 H              1 S1                 0.0000
     27 ****         0.0902  -3.7559  -1.4140 H              1 S1                 0.0000
     28 ****        -0.6646  -1.5946  -0.3413 H              1 S1                 0.0000
     29 ****         0.1196  -1.4386  -1.8977 H              1 S1                 0.0000
     30 ****        -3.2338   2.8987   1.8633 LP             1 S1                 0.0000
     31 ****        -0.7714   2.7691   2.2563 LP             1 S1                 0.0000
     32 ****         1.3974   3.6723   0.3063 LP             1 S1                 0.0000
     33 ****         3.3289   2.4222   0.0793 LP             1 S1                 0.0000
     34 ****         3.2282   0.7031  -0.1062 LP             1 S1                 0.0000
     35 ****         2.3329  -5.3568   0.6625 LP             1 S1                 0.0000
     36 ****         1.0943  -5.5352  -0.5350 LP             1 S1                 0.0000
@<TRIPOS>BOND
    1    1    2 1     
    2    1   18 1     
    3    1   19 1     
    4    1   20 1     
    5    2   17 1     
    6    2    3 2     
    7    3    4 1     
    8    4    5 2     
    9    5    6 1     
   10    5   17 1     
   11    6    7 1     
   12    7    8 2     
   13    7    9 am    
   14    9   10 1     
   15    9   21 1     
   16   10   16 1     
   17   10   11 1     
   18   10   22 1     
   19   11   12 1     
   20   11   23 1     
   21   11   24 1     
   22   12   13 1     
   23   12   25 1     
   24   12   26 1     
   25   13   14 2     
   26   13   15 am    
   27   15   16 1     
   28   15   27 1     
   29   16   28 1     
   30   16   29 1     
   31    3   30 1     
   32    4   31 1     
   33    6   32 1     
   34    8   33 1     
   35    8   34 1     
   36   14   35 1     
   37   14   36 1     
@<TRIPOS>SUBSTRUCTURE
      1 S1             1
@<TRIPOS>SET
LONE_PAIRS      STATIC     ATOMS    <user>   **** ""
7 30 31 32 33 34 35 36
DONOR_HYDROGENS      STATIC     ATOMS    <user>   **** ""
2 21 27
ATOM$BLUE        STATIC     ATOMS    COLORGROUP SYSTEM
7 30 31 32 33 34 35 36
ATOM$RED        STATIC     ATOMS    COLORGROUP SYSTEM
2 21 27
