AV-unprocessed.smi:1401|AV-procd|sdf|5693|dock1
  -GOLD-   22720 5323D 1   1.00000     0.00000
 Structure written by MMmdl.
 48 50  0  0  0  0  0  0  0  0  1 V2000
  148.5393  136.6161  159.0706 C   0  0  0  0  0  0  0  0  0  0  0  0
  149.2981  136.5485  157.7726 C   0  0  0  0  0  0  0  0  0  0  0  0
  150.2280  137.4291  157.5975 N   0  0  0  0  0  0  0  0  0  0  0  0
  150.9803  137.4592  156.4395 N   0  0  0  0  0  0  0  0  0  0  0  0
  151.9592  138.5540  156.3842 C   0  0  0  0  0  0  0  0  0  0  0  0
  151.2861  139.9098  156.1371 C   0  0  0  0  0  0  0  0  0  0  0  0
  150.7976  140.1656  155.0362 O   0  0  0  0  0  0  0  0  0  0  0  0
  151.2768  140.7659  157.1711 N   0  0  0  0  0  0  0  0  0  0  0  0
  150.7515  142.1299  157.1498 C   0  0  1  0  0  0  0  0  0  0  0  0
  149.3352  142.0887  156.5528 C   0  0  0  0  0  0  0  0  0  0  0  0
  150.7675  142.7427  158.5751 C   0  0  2  0  0  0  0  0  0  0  0  0
  150.0702  144.1234  158.6544 C   0  0  0  0  0  0  0  0  0  0  0  0
  151.1384  145.0277  159.2948 C   0  0  1  0  0  0  0  0  0  0  0  0
  151.3301  144.6332  160.7702 C   0  0  0  0  0  0  0  0  0  0  0  0
  152.0683  143.2864  160.6643 C   0  0  0  0  0  0  0  0  0  0  0  0
  152.1742  143.0746  159.1421 C   0  0  2  0  0  0  0  0  0  0  0  0
  152.4137  144.4982  158.6528 C   0  0  0  0  0  0  0  0  0  0  0  0
  150.8472  136.5809  155.4034 C   0  0  0  0  0  0  0  0  0  0  0  0
  151.5537  136.6332  154.3950 O   0  0  0  0  0  0  0  0  0  0  0  0
  149.7902  135.5886  155.6074 C   0  0  0  0  0  0  0  0  0  0  0  0
  149.6082  134.6592  154.5395 C   0  0  0  0  0  0  0  0  0  0  0  0
  149.4782  133.9102  153.6664 N   0  0  0  0  0  0  0  0  0  0  0  0
  149.0337  135.5586  156.7330 C   0  0  0  0  0  0  0  0  0  0  0  0
  147.9231  134.5497  156.9916 C   0  0  0  0  0  0  0  0  0  0  0  0
  148.5930  135.6655  159.6014 H   0  0  0  0  0  0  0  0  0  0  0  0
  147.4888  136.8460  158.8917 H   0  0  0  0  0  0  0  0  0  0  0  0
  148.9363  137.3861  159.7341 H   0  0  0  0  0  0  0  0  0  0  0  0
  152.5149  138.6176  157.3213 H   0  0  0  0  0  0  0  0  0  0  0  0
  152.7058  138.3516  155.6135 H   0  0  0  0  0  0  0  0  0  0  0  0
  151.7033  140.4614  158.0342 H   0  0  0  0  0  0  0  0  0  0  0  0
  151.3646  142.7492  156.4930 H   0  0  0  0  0  0  0  0  0  0  0  0
  148.9080  143.0870  156.4593 H   0  0  0  0  0  0  0  0  0  0  0  0
  148.6604  141.4972  157.1724 H   0  0  0  0  0  0  0  0  0  0  0  0
  149.3433  141.6472  155.5557 H   0  0  0  0  0  0  0  0  0  0  0  0
  150.2703  142.0405  159.2465 H   0  0  0  0  0  0  0  0  0  0  0  0
  149.8173  144.5028  157.6637 H   0  0  0  0  0  0  0  0  0  0  0  0
  149.1498  144.0899  159.2385 H   0  0  0  0  0  0  0  0  0  0  0  0
  150.9557  146.0922  159.1461 H   0  0  0  0  0  0  0  0  0  0  0  0
  151.9444  145.3669  161.2937 H   0  0  0  0  0  0  0  0  0  0  0  0
  150.3818  144.5486  161.3021 H   0  0  0  0  0  0  0  0  0  0  0  0
  153.0600  143.3584  161.1131 H   0  0  0  0  0  0  0  0  0  0  0  0
  151.5362  142.4762  161.1640 H   0  0  0  0  0  0  0  0  0  0  0  0
  152.9581  142.3664  158.8798 H   0  0  0  0  0  0  0  0  0  0  0  0
  152.4251  144.5892  157.5656 H   0  0  0  0  0  0  0  0  0  0  0  0
  153.3217  144.9481  159.0583 H   0  0  0  0  0  0  0  0  0  0  0  0
  147.7323  133.9161  156.1261 H   0  0  0  0  0  0  0  0  0  0  0  0
  146.9887  135.0572  157.2329 H   0  0  0  0  0  0  0  0  0  0  0  0
  148.1870  133.8989  157.8256 H   0  0  0  0  0  0  0  0  0  0  0  0
  1  2  1  0  0  0  0
  1 25  1  0  0  0  0
  1 26  1  0  0  0  0
  1 27  1  0  0  0  0
  2 23  1  0  0  0  0
  2  3  2  0  0  0  0
  3  4  1  0  0  0  0
  4  5  1  0  0  0  0
  4 18  1  0  0  0  0
  5  6  1  0  0  0  0
  5 28  1  0  0  0  0
  5 29  1  0  0  0  0
  6  7  2  0  0  0  0
  6  8  1  0  0  0  0
  8  9  1  0  0  0  0
  8 30  1  0  0  0  0
  9 10  1  0  0  0  0
  9 11  1  0  0  0  0
  9 31  1  0  0  0  0
 10 32  1  0  0  0  0
 10 33  1  0  0  0  0
 10 34  1  0  0  0  0
 11 16  1  0  0  0  0
 11 12  1  0  0  0  0
 11 35  1  0  0  0  0
 12 13  1  0  0  0  0
 12 36  1  0  0  0  0
 12 37  1  0  0  0  0
 13 17  1  0  0  0  0
 13 14  1  0  0  0  0
 13 38  1  0  0  0  0
 14 15  1  0  0  0  0
 14 39  1  0  0  0  0
 14 40  1  0  0  0  0
 15 16  1  0  0  0  0
 15 41  1  0  0  0  0
 15 42  1  0  0  0  0
 16 17  1  0  0  0  0
 16 43  1  0  0  0  0
 17 44  1  0  0  0  0
 17 45  1  0  0  0  0
 18 19  2  0  0  0  0
 18 20  1  0  0  0  0
 20 21  1  0  0  0  0
 20 23  2  0  0  0  0
 21 22  3  0  0  0  0
 23 24  1  0  0  0  0
 24 46  1  0  0  0  0
 24 47  1  0  0  0  0
 24 48  1  0  0  0  0
M  END
> <s_m_source_file>
AV-unprocessed.smi

> <i_m_source_file_index>
1401

> <i_lp_mmshare_version>
43012

> <i_f3d_flags>
0

> <s_epik_input>
TiNDYyhjMVtDSDNdKWMoPU8pbihuYzFbQ0gzXSlbQ0gyXUMoPU8pW05IXVtDQEhdKFtDSDNdKVtDQEhdKFtDSDJdW0NASF0yMylbQ0BIXShbQ0gyXTMpW0NIMl1bQ0gyXTI=

> <s_epik_cmdline>
J2VwaWtfcHl0aG9uJywgJy1waCcsICc3LjAnLCAnLXRuJywgJzgnLCAnLW1hJywgJzIwMCcsICctbWV0YWxfYmluZGluZycsICctaW1hZScsICc8aW5maWxlLm1hZT4nLCAnLW9tYWUnLCAnPG91dGZpbGUubWFlPic=

> <r_lp_tautomer_probability>
1

> <r_epik_Ionization_Penalty>
2.16501e-08

> <r_epik_Ionization_Penalty_Charging>
2.29436e-11

> <r_epik_Ionization_Penalty_Neutral>
2.16271e-08

> <r_epik_State_Penalty>
-0

> <r_epik_Charging_Adjusted_Penalty>
2.29436e-11

> <i_epik_Tot_Q>
0

> <i_epik_Tot_abs_Q>
0

> <r_epik_Metal_State_Penalty>
-0

> <b_epik_Metal_Only>
0

> <s_lp_Force_Field>
OPLS_2005

> <r_lp_Energy>
65.2014

> <b_lp_Chiralities_Consistent>
1

> <s_lp_Variant>
AV-unprocessed.smi:1401-6

> <Gold.Version>
5.8.1

> <Gold.Id.Protein>
6NUR|6NUR_protein|mol2

> <Gold.PLP.Fitness>
49.2655

> <Gold.PLP.PLP>
-44.0775

> <Gold.PLP.part.hbond>
-2.0000

> <Gold.PLP.part.metal>
0.0000

> <Gold.PLP.part.buried>
-5.9481

> <Gold.PLP.part.nonpolar>
-38.1165

> <Gold.PLP.part.repulsive>
1.1746

> <Gold.PLP.ligand.clash>
0.0000

> <Gold.PLP.ligand.torsion>
0.4271

> <Gold.PLP.Chemscore.Hbond>
2.0000

> <Gold.PLP.Chemscore.CHOScore>
0.0000

> <Gold.PLP.Chemscore.Metal>
0.0000

> <Gold.Chemscore.Hbonds>
donor molecule, donor type, donor heavy atom, donor atom, acceptor molecule, acceptor atom, score
      P1  H  7989  7998       L1     7  1.00
      P1  H 10752 10765       L1    19  1.00

> <Gold.PLP.Chemscore.Internal.Correction>
0.0421

> <Gold.Rescore>
     Score         DG    S(hbond)    S(metal)    S(lipo)     H(rot)  DE(clash)    DE(int)     intcor
     19.11     -21.74       1.96        0.00     118.65       1.63       0.49       2.14       ----

> <Gold.Chemscore.Fitness>
19.1103

> <Gold.Chemscore.DG>
-21.7396

> <Gold.Chemscore.ZeroCoef>
-5.4800

> <Gold.Chemscore.Hbond>
1.9596

> <Gold.Chemscore.Metal>
0.0000

> <Gold.Chemscore.Lipo>
118.6530

> <Gold.Chemscore.Internal_Hbond>
0.0000

> <Gold.Chemscore.DEClash>
0.4935

> <Gold.Chemscore.DEInternal>
2.1359

> <Gold.Chemscore.Rot>
1.6281

> <Gold.Chemscore.Internal.Correction>
   9.000000E+99

> <Gold.Chemscore.Hbonds>
donor molecule, donor type, donor heavy atom, donor atom, acceptor molecule, acceptor atom, score
      P1  H  7989  7998       L1     7  1.00
      P1  H 10752 10765       L1    19  0.82

> <Gold.Chemscore.Hbond.Weighted>
-6.5451

> <Gold.Chemscore.Metal.Weighted>
-0.0000

> <Gold.Chemscore.Lipo.Weighted>
-13.8824

> <Gold.Chemscore.Internal_Hbond.Weighted>
0.0000

> <Gold.Chemscore.DEClash.Weighted>
0.4935

> <Gold.Chemscore.DEInternal.Weighted>
2.1359

> <Gold.Chemscore.Rot.Weighted>
4.1678

> <Gold.Chemscore.Internal.Correction.Weighted>
   9.000000E+99

> <Gold.Protein.RotatedTorsions>
[ 6907 6896 6895 6894 ] final  140.16 input  -60.11 | X-H torsion
[ 7974 7965 7964 7962 ] final  171.17 input  175.53 | X-H torsion
[ 8008 7997 7996 7995 ] final  172.08 input   59.86 | X-H torsion
[ 10167 10162 10161 10158 ] final   52.93 input  -65.29 | X-H torsion
[ 10718 10713 10712 10709 ] final  166.60 input   66.30 | X-H torsion
[ 10763 10752 10751 10750 ] final  176.64 input  -60.55 | X-H torsion
[ 11005 11000 10999 10996 ] final  -75.82 input  -57.11 | X-H torsion

> <Gold.Protein.ActiveResidues>
 VAL166  LYS551  ARG553  GLY616  TRP617  ASP618  TYR619  PRO620  LYS621  CYS622 
 ASP623  PHE694  ASN695  SER759  ASP760  ASP761  ALA762  ILE779  LEU786  VAL792 
 PHE793  MET794  SER795  GLU796  ALA797  LYS798  CYS799  TRP800  GLU811  SER814 

> <Gold.Protein.RotatedAtoms>
  152.2464  133.5178  159.5299 H   0  0  0  0  0  0  0  0  0  0  0  0  # atno 6907 bound_to 6896
  150.7080  134.1020  159.3978 H   0  0  0  0  0  0  0  0  0  0  0  0  # atno 6908 bound_to 6896
  151.8940  135.0405  160.0551 H   0  0  0  0  0  0  0  0  0  0  0  0  # atno 6909 bound_to 6896
  144.7302  139.9310  143.6424 H   0  0  0  0  0  0  0  0  0  0  0  0  # atno 7974 bound_to 7965
  156.1209  140.1495  156.9206 H   0  0  0  0  0  0  0  0  0  0  0  0  # atno 8008 bound_to 7997
  154.4835  140.0872  156.7474 H   0  0  0  0  0  0  0  0  0  0  0  0  # atno 8009 bound_to 7997
  155.4430  140.3432  155.4294 H   0  0  0  0  0  0  0  0  0  0  0  0  # atno 8010 bound_to 7997
  140.2461  144.3530  150.6363 H   0  0  0  0  0  0  0  0  0  0  0  0  # atno 10167 bound_to 10162
  157.0635  131.0346  151.2638 H   0  0  0  0  0  0  0  0  0  0  0  0  # atno 10718 bound_to 10713
  154.4838  135.2776  155.1550 H   0  0  0  0  0  0  0  0  0  0  0  0  # atno 10763 bound_to 10752
  154.3249  135.6202  153.5528 H   0  0  0  0  0  0  0  0  0  0  0  0  # atno 10764 bound_to 10752
  152.9878  135.5751  154.5244 H   0  0  0  0  0  0  0  0  0  0  0  0  # atno 10765 bound_to 10752
  141.1649  133.6961  156.7575 H   0  0  0  0  0  0  0  0  0  0  0  0  # atno 11005 bound_to 11000
  146.0857  139.3845  143.0437 LP  0  0  0  0  0  0  0  0  0  0  0  0  # atno 17320 bound_to 7965
  145.7780  140.9868  143.1114 LP  0  0  0  0  0  0  0  0  0  0  0  0  # atno 17321 bound_to 7965
  140.6076  143.2168  151.6950 LP  0  0  0  0  0  0  0  0  0  0  0  0  # atno 17342 bound_to 10162
  139.5061  144.3693  152.0486 LP  0  0  0  0  0  0  0  0  0  0  0  0  # atno 17343 bound_to 10162
  157.4935  130.7837  149.7532 LP  0  0  0  0  0  0  0  0  0  0  0  0  # atno 17370 bound_to 10713
  155.9971  130.3902  150.2752 LP  0  0  0  0  0  0  0  0  0  0  0  0  # atno 17371 bound_to 10713
  140.2558  134.8505  157.3711 LP  0  0  0  0  0  0  0  0  0  0  0  0  # atno 17394 bound_to 11000
  140.1658  134.4670  155.7864 LP  0  0  0  0  0  0  0  0  0  0  0  0  # atno 17395 bound_to 11000

$$$$
