AV-unprocessed.smi:2193|AV-procd|sdf|8900|dock6
  -GOLD-   2272012113D 1   1.00000     0.00000
 Structure written by MMmdl.
 41 43  0  0  0  0  0  0  0  0  2 V2000
  146.5773  137.9312  151.4891 O   0  0  0  0  0  0  0  0  0  0  0  0
  145.6814  137.2572  152.3442 C   0  0  0  0  0  0  0  0  0  0  0  0
  145.4514  135.8439  151.9222 C   0  0  0  0  0  0  0  0  0  0  0  0
  146.3989  134.9906  151.4419 N   0  3  0  0  0  0  0  0  0  0  0  0
  145.8164  133.7589  151.1408 C   0  0  0  0  0  0  0  0  0  0  0  0
  146.3725  132.5890  150.6326 C   0  0  0  0  0  0  0  0  0  0  0  0
  145.4946  131.5018  150.4421 C   0  0  0  0  0  0  0  0  0  0  0  0
  144.1231  131.6027  150.7531 C   0  0  0  0  0  0  0  0  0  0  0  0
  143.5705  132.7944  151.2667 C   0  0  0  0  0  0  0  0  0  0  0  0
  144.4449  133.8655  151.4519 C   0  0  0  0  0  0  0  0  0  0  0  0
  144.2657  135.1695  151.9300 N   0  0  0  0  0  0  0  0  0  0  0  0
  142.9270  135.6218  152.3408 C   0  0  0  0  0  0  0  0  0  0  0  0
  142.5537  135.1675  153.7661 C   0  0  2  0  0  0  0  0  0  0  0  0
  141.5522  134.1718  153.7101 O   0  0  0  0  0  0  0  0  0  0  0  0
  142.0456  136.3259  154.6363 C   0  0  0  0  0  0  0  0  0  0  0  0
  140.6366  136.2049  154.7821 O   0  0  0  0  0  0  0  0  0  0  0  0
  139.8455  137.2627  154.3890 C   0  0  0  0  0  0  0  0  0  0  0  0
  140.4857  138.5060  154.2050 C   0  0  0  0  0  0  0  0  0  0  0  0
  139.7554  139.6411  153.8037 C   0  0  0  0  0  0  0  0  0  0  0  0
  138.3694  139.5430  153.5820 C   0  0  0  0  0  0  0  0  0  0  0  0
  137.6648  140.6329  153.1960 F   0  0  0  0  0  0  0  0  0  0  0  0
  137.7171  138.3092  153.7628 C   0  0  0  0  0  0  0  0  0  0  0  0
  138.4481  137.1738  154.1638 C   0  0  0  0  0  0  0  0  0  0  0  0
  147.3433  137.3905  151.3683 H   0  0  0  0  0  0  0  0  0  0  0  0
  146.0778  137.2727  153.3596 H   0  0  0  0  0  0  0  0  0  0  0  0
  144.7330  137.7940  152.3627 H   0  0  0  0  0  0  0  0  0  0  0  0
  147.4231  132.5090  150.3941 H   0  0  0  0  0  0  0  0  0  0  0  0
  145.8808  130.5719  150.0502 H   0  0  0  0  0  0  0  0  0  0  0  0
  143.4809  130.7481  150.5952 H   0  0  0  0  0  0  0  0  0  0  0  0
  142.5190  132.8569  151.5047 H   0  0  0  0  0  0  0  0  0  0  0  0
  142.9272  136.7109  152.2848 H   0  0  0  0  0  0  0  0  0  0  0  0
  142.1899  135.2856  151.6114 H   0  0  0  0  0  0  0  0  0  0  0  0
  143.4247  134.7224  154.2485 H   0  0  0  0  0  0  0  0  0  0  0  0
  141.9666  133.3265  153.7905 H   0  0  0  0  0  0  0  0  0  0  0  0
  142.5395  136.3108  155.6095 H   0  0  0  0  0  0  0  0  0  0  0  0
  142.2785  137.2761  154.1523 H   0  0  0  0  0  0  0  0  0  0  0  0
  141.5493  138.5906  154.3727 H   0  0  0  0  0  0  0  0  0  0  0  0
  140.2591  140.5865  153.6662 H   0  0  0  0  0  0  0  0  0  0  0  0
  136.6531  138.2328  153.5940 H   0  0  0  0  0  0  0  0  0  0  0  0
  137.9123  136.2458  154.2926 H   0  0  0  0  0  0  0  0  0  0  0  0
  147.3729  135.2389  151.3246 H   0  0  0  0  0  0  0  0  0  0  0  0
  1  2  1  0  0  0  0
  1 24  1  0  0  0  0
  2  3  1  0  0  0  0
  2 25  1  0  0  0  0
  2 26  1  0  0  0  0
  3 11  1  0  0  0  0
  3  4  2  0  0  0  0
  4  5  1  0  0  0  0
  4 41  1  0  0  0  0
  5 10  2  0  0  0  0
  5  6  1  0  0  0  0
  6  7  2  0  0  0  0
  6 27  1  0  0  0  0
  7  8  1  0  0  0  0
  7 28  1  0  0  0  0
  8  9  2  0  0  0  0
  8 29  1  0  0  0  0
  9 10  1  0  0  0  0
  9 30  1  0  0  0  0
 10 11  1  0  0  0  0
 11 12  1  0  0  0  0
 12 13  1  0  0  0  0
 12 31  1  0  0  0  0
 12 32  1  0  0  0  0
 13 14  1  0  0  0  0
 13 15  1  0  0  0  0
 13 33  1  0  0  0  0
 14 34  1  0  0  0  0
 15 16  1  0  0  0  0
 15 35  1  0  0  0  0
 15 36  1  0  0  0  0
 16 17  1  0  0  0  0
 17 23  1  0  0  0  0
 17 18  2  0  0  0  0
 18 19  1  0  0  0  0
 18 37  1  0  0  0  0
 19 20  2  0  0  0  0
 19 38  1  0  0  0  0
 20 21  1  0  0  0  0
 20 22  1  0  0  0  0
 22 23  2  0  0  0  0
 22 39  1  0  0  0  0
 23 40  1  0  0  0  0
M  CHG  1   4   1
M  END
> <s_m_source_file>
AV-unprocessed.smi

> <i_m_source_file_index>
2193

> <i_lp_mmshare_version>
43012

> <i_f3d_flags>
0

> <s_epik_input>
W2NIXTFbY0hdW2NIXVtjSF1jKGMxMiluKGMobjIpW0NIMl1bT0hdKVtDSDJdW0NASF0oW09IXSlbQ0gyXU9jM1tjSF1bY0hdYyhGKVtjSF1bY0hdMw==

> <s_epik_cmdline>
J2VwaWtfcHl0aG9uJywgJy1waCcsICc3LjAnLCAnLXRuJywgJzgnLCAnLW1hJywgJzIwMCcsICctbWV0YWxfYmluZGluZycsICctaW1hZScsICc8aW5maWxlLm1hZT4nLCAnLW9tYWUnLCAnPG91dGZpbGUubWFlPic=

> <r_lp_tautomer_probability>
1

> <r_epik_Ionization_Penalty>
1.43752

> <r_epik_Ionization_Penalty_Charging>
1.43666

> <r_epik_Ionization_Penalty_Neutral>
0.000858184

> <r_epik_State_Penalty>
1.52171

> <r_epik_Charging_Adjusted_Penalty>
2.95837

> <i_epik_Tot_Q>
1

> <i_epik_Tot_abs_Q>
1

> <r_epik_Metal_State_Penalty>
5.56725

> <b_epik_Metal_Only>
0

> <s_lp_Force_Field>
OPLS_2005

> <r_lp_Energy>
17.6251

> <b_lp_Chiralities_Consistent>
1

> <s_lp_Variant>
AV-unprocessed.smi:2193-3

> <Gold.Version>
5.8.1

> <Gold.Id.Protein>
6NUR|6NUR_protein|mol2

> <Gold.PLP.Fitness>
55.4356

> <Gold.PLP.PLP>
-48.3039

> <Gold.PLP.part.hbond>
-5.4022

> <Gold.PLP.part.metal>
0.0000

> <Gold.PLP.part.buried>
-8.2256

> <Gold.PLP.part.nonpolar>
-35.2565

> <Gold.PLP.part.repulsive>
0.1123

> <Gold.PLP.ligand.clash>
2.2911

> <Gold.PLP.ligand.torsion>
2.4988

> <Gold.PLP.Chemscore.Hbond>
4.7771

> <Gold.PLP.Chemscore.CHOScore>
0.0000

> <Gold.PLP.Chemscore.Metal>
0.0000

> <Gold.Chemscore.Hbonds>
donor molecule, donor type, donor heavy atom, donor atom, acceptor molecule, acceptor atom, score
      L1  H     1    24       P1  7948  1.00
      L1  H     4    41       P1  7948  2.00
      L1  H    14    34       P1 10957  1.00
      P1  H 11000 11005       L1    16  0.80

> <Gold.PLP.Chemscore.Internal.Correction>
0.0890

> <Gold.Rescore>
     Score         DG    S(hbond)    S(metal)    S(lipo)     H(rot)  DE(clash)    DE(int)     intcor
     19.46     -22.10       3.59        0.00     111.98       3.31       0.08       2.55       ----

> <Gold.Chemscore.Fitness>
19.4613

> <Gold.Chemscore.DG>
-22.1001

> <Gold.Chemscore.ZeroCoef>
-5.4800

> <Gold.Chemscore.Hbond>
3.5930

> <Gold.Chemscore.Metal>
0.0000

> <Gold.Chemscore.Lipo>
111.9806

> <Gold.Chemscore.Internal_Hbond>
0.0000

> <Gold.Chemscore.DEClash>
0.0847

> <Gold.Chemscore.DEInternal>
2.5541

> <Gold.Chemscore.Rot>
3.3134

> <Gold.Chemscore.Internal.Correction>
   9.000000E+99

> <Gold.Chemscore.Hbonds>
donor molecule, donor type, donor heavy atom, donor atom, acceptor molecule, acceptor atom, score
      L1  H     1    24       P1  7948  0.96
      L1  H     4    41       P1  7948  0.68
      L1  H    14    34       P1 10957  0.96
      P1  H 11000 11005       L1    16  0.67

> <Gold.Chemscore.Hbond.Weighted>
-12.0007

> <Gold.Chemscore.Metal.Weighted>
-0.0000

> <Gold.Chemscore.Lipo.Weighted>
-13.1017

> <Gold.Chemscore.Internal_Hbond.Weighted>
0.0000

> <Gold.Chemscore.DEClash.Weighted>
0.0847

> <Gold.Chemscore.DEInternal.Weighted>
2.5541

> <Gold.Chemscore.Rot.Weighted>
8.4823

> <Gold.Chemscore.Internal.Correction.Weighted>
   9.000000E+99

> <Gold.Protein.RotatedTorsions>
[ 6907 6896 6895 6894 ] final  -35.66 input  -60.11 | X-H torsion
[ 7974 7965 7964 7962 ] final  -44.82 input  175.53 | X-H torsion
[ 8008 7997 7996 7995 ] final   67.10 input   59.86 | X-H torsion
[ 10167 10162 10161 10158 ] final -124.51 input  -65.29 | X-H torsion
[ 10718 10713 10712 10709 ] final  110.80 input   66.30 | X-H torsion
[ 10763 10752 10751 10750 ] final  -44.43 input  -60.55 | X-H torsion
[ 11005 11000 10999 10996 ] final   57.91 input  -57.11 | X-H torsion

> <Gold.Protein.ActiveResidues>
 VAL166  LYS551  ARG553  GLY616  TRP617  ASP618  TYR619  PRO620  LYS621  CYS622 
 ASP623  PHE694  ASN695  SER759  ASP760  ASP761  ALA762  ILE779  LEU786  VAL792 
 PHE793  MET794  SER795  GLU796  ALA797  LYS798  CYS799  TRP800  GLU811  SER814 

> <Gold.Protein.RotatedAtoms>
  151.0370  134.9580  159.8141 H   0  0  0  0  0  0  0  0  0  0  0  0  # atno 6907 bound_to 6896
  152.5357  134.2707  159.8980 H   0  0  0  0  0  0  0  0  0  0  0  0  # atno 6908 bound_to 6896
  151.2718  133.4209  159.2655 H   0  0  0  0  0  0  0  0  0  0  0  0  # atno 6909 bound_to 6896
  145.9882  140.7210  142.9330 H   0  0  0  0  0  0  0  0  0  0  0  0  # atno 7974 bound_to 7965
  155.6876  140.3496  155.4880 H   0  0  0  0  0  0  0  0  0  0  0  0  # atno 8008 bound_to 7997
  155.9552  140.1127  157.0965 H   0  0  0  0  0  0  0  0  0  0  0  0  # atno 8009 bound_to 7997
  154.4130  140.1186  156.5092 H   0  0  0  0  0  0  0  0  0  0  0  0  # atno 8010 bound_to 7997
  139.9921  143.5630  152.2338 H   0  0  0  0  0  0  0  0  0  0  0  0  # atno 10167 bound_to 10162
  157.6476  131.0939  150.6655 H   0  0  0  0  0  0  0  0  0  0  0  0  # atno 10718 bound_to 10713
  154.0119  135.6680  153.4766 H   0  0  0  0  0  0  0  0  0  0  0  0  # atno 10763 bound_to 10752
  153.0617  135.5024  154.8104 H   0  0  0  0  0  0  0  0  0  0  0  0  # atno 10764 bound_to 10752
  154.6990  135.3075  154.9333 H   0  0  0  0  0  0  0  0  0  0  0  0  # atno 10765 bound_to 10752
  140.0417  134.5864  155.9373 H   0  0  0  0  0  0  0  0  0  0  0  0  # atno 11005 bound_to 11000
  144.6881  140.3024  143.7261 LP  0  0  0  0  0  0  0  0  0  0  0  0  # atno 17320 bound_to 7965
  145.7669  139.1844  143.2235 LP  0  0  0  0  0  0  0  0  0  0  0  0  # atno 17321 bound_to 7965
  139.6333  144.7647  151.2491 LP  0  0  0  0  0  0  0  0  0  0  0  0  # atno 17342 bound_to 10162
  140.7451  143.6442  150.8307 LP  0  0  0  0  0  0  0  0  0  0  0  0  # atno 17343 bound_to 10162
  156.6971  130.4612  149.5583 LP  0  0  0  0  0  0  0  0  0  0  0  0  # atno 17370 bound_to 10713
  156.1821  130.6506  151.0964 LP  0  0  0  0  0  0  0  0  0  0  0  0  # atno 17371 bound_to 10713
  141.1886  133.6563  156.5333 LP  0  0  0  0  0  0  0  0  0  0  0  0  # atno 17394 bound_to 11000
  140.4058  134.7316  157.4807 LP  0  0  0  0  0  0  0  0  0  0  0  0  # atno 17395 bound_to 11000

$$$$
