#       Name:                AV-unprocessed.smi:1005
#       Creating user name   scv26
#       Creation time:       Fri Mar 27 02:28:00 2020


#       File generated by GOLD software.
#

@<TRIPOS>MOLECULE
AV-unprocessed.smi:1005
    62    64     1
SMALL
NO_CHARGES


@<TRIPOS>ATOM
      1 ****        -0.8364   2.7979  -4.1263 C.3            1 S1                 0.0000
      2 ****        -1.4478   2.2525  -2.8478 C.ar           1 S1                 0.0000
      3 ****        -2.5831   1.4151  -2.9319 C.ar           1 S1                 0.0000
      4 ****        -3.1817   0.8866  -1.7674 C.ar           1 S1                 0.0000
      5 ****        -4.2726   0.0480  -1.6167 N.2            1 S1                 0.0000
      6 ****        -4.3243  -0.0932  -0.2953 C.2            1 S1                 0.0000
      7 ****        -3.3892   0.5502   0.4294 N.pl3          1 S1                 0.0000
      8 ****        -3.2299   0.5229   1.8727 C.3            1 S1                 0.0000
      9 ****        -2.3530  -0.6528   2.3545 C.3            1 S1                 0.0000
     10 ****        -2.1910  -0.5230   3.7523 O.3            1 S1                 0.0000
     11 ****        -0.9606  -0.6903   1.6856 C.3            1 S1                 0.0000
     12 ****        -0.1015  -1.8157   2.1422 N.4            1 S1                 1.0000
     13 ****        -0.5196  -3.1607   1.6690 C.3            1 S1                 0.0000
     14 ****        -0.1299  -3.3913   0.1959 C.3            1 S1                 0.0000
     15 ****         1.2635  -3.1564   0.0217 O.3            1 S1                 0.0000
     16 ****         1.6401  -1.8235   0.3493 C.3            1 S1                 0.0000
     17 ****         3.1341  -1.6604   0.0080 C.3            1 S1                 0.0000
     18 ****         3.6351  -0.2718   0.1856 N.4            1 S1                 1.0000
     19 ****         5.1128  -0.2235   0.2507 C.3            1 S1                 0.0000
     20 ****         3.1065   0.6843  -0.8161 C.3            1 S1                 0.0000
     21 ****         1.3362  -1.5952   1.8482 C.3            1 S1                 0.0000
     22 ****        -2.6110   1.2254  -0.5062 C.ar           1 S1                 0.0000
     23 ****        -1.4850   2.0629  -0.4093 C.ar           1 S1                 0.0000
     24 ****        -0.8947   2.5756  -1.5828 C.ar           1 S1                 0.0000
     25 ****         0.3267   3.4704  -1.4678 C.3            1 S1                 0.0000
     26 ****        -1.3985   2.4791  -5.0046 H              1 S1                 0.0000
     27 ****         0.1891   2.4462  -4.2400 H              1 S1                 0.0000
     28 ****        -0.8298   3.8881  -4.1124 H              1 S1                 0.0000
     29 ****        -3.0040   1.1687  -3.8958 H              1 S1                 0.0000
     30 ****        -5.0793  -0.7081   0.1731 H              1 S1                 0.0000
     31 ****        -2.7966   1.4746   2.1841 H              1 S1                 0.0000
     32 ****        -4.2197   0.4694   2.3289 H              1 S1                 0.0000
     33 ****        -2.8907  -1.5801   2.1599 H              1 S1                 0.0000
     34 ****        -1.8445   0.3361   3.9409 H              1 S1                 0.0000
     35 ****        -1.0608  -0.7443   0.6033 H              1 S1                 0.0000
     36 ****        -0.4568   0.2537   1.8980 H              1 S1                 0.0000
     37 ****        -0.0172  -3.9051   2.2881 H              1 S1                 0.0000
     38 ****        -1.5862  -3.3228   1.8148 H              1 S1                 0.0000
     39 ****        -0.3483  -4.4203  -0.0891 H              1 S1                 0.0000
     40 ****        -0.7078  -2.7542  -0.4749 H              1 S1                 0.0000
     41 ****         1.0530  -1.1461  -0.2704 H              1 S1                 0.0000
     42 ****         3.7082  -2.3374   0.6426 H              1 S1                 0.0000
     43 ****         3.3199  -1.9758  -1.0200 H              1 S1                 0.0000
     44 ****         5.5567  -0.5566  -0.6884 H              1 S1                 0.0000
     45 ****         5.4880  -0.8613   1.0517 H              1 S1                 0.0000
     46 ****         5.4582   0.7912   0.4513 H              1 S1                 0.0000
     47 ****         3.3668   0.3748  -1.8290 H              1 S1                 0.0000
     48 ****         3.5197   1.6799  -0.6513 H              1 S1                 0.0000
     49 ****         2.0230   0.7779  -0.7530 H              1 S1                 0.0000
     50 ****         1.6339  -0.5940   2.1614 H              1 S1                 0.0000
     51 ****         1.9221  -2.2896   2.4516 H              1 S1                 0.0000
     52 ****        -1.0755   2.3054   0.5599 H              1 S1                 0.0000
     53 ****         0.6586   3.5601  -0.4331 H              1 S1                 0.0000
     54 ****         0.1005   4.4712  -1.8362 H              1 S1                 0.0000
     55 ****         1.1555   3.0663  -2.0493 H              1 S1                 0.0000
     56 ****         3.3102   0.0424   1.0888 H              1 S1                 0.0000
     57 ****        -0.1897  -1.8225   3.1490 H              1 S1                 0.0000
     58 ****        -4.8661  -0.3478  -2.3175 LP             1 S1                 0.0000
     59 ****        -1.5563  -1.2213   4.0833 LP             1 S1                 0.0000
     60 ****        -3.0757  -0.6353   4.2049 LP             1 S1                 0.0000
     61 ****         1.5003  -3.3302  -0.9341 LP             1 S1                 0.0000
     62 ****         1.7703  -3.7861   0.6105 LP             1 S1                 0.0000
@<TRIPOS>BOND
    1    1    2 1     
    2    1   26 1     
    3    1   27 1     
    4    1   28 1     
    5    2   24 ar    
    6    2    3 ar    
    7    3    4 ar    
    8    3   29 1     
    9    4   22 ar    
   10    4    5 1     
   11    5    6 2     
   12    6    7 1     
   13    6   30 1     
   14    7    8 1     
   15    7   22 1     
   16    8    9 1     
   17    8   31 1     
   18    8   32 1     
   19    9   10 1     
   20    9   11 1     
   21    9   33 1     
   22   10   34 1     
   23   11   12 1     
   24   11   35 1     
   25   11   36 1     
   26   12   21 1     
   27   12   13 1     
   28   12   57 1     
   29   13   14 1     
   30   13   37 1     
   31   13   38 1     
   32   14   15 1     
   33   14   39 1     
   34   14   40 1     
   35   15   16 1     
   36   16   17 1     
   37   16   21 1     
   38   16   41 1     
   39   17   18 1     
   40   17   42 1     
   41   17   43 1     
   42   18   19 1     
   43   18   20 1     
   44   18   56 1     
   45   19   44 1     
   46   19   45 1     
   47   19   46 1     
   48   20   47 1     
   49   20   48 1     
   50   20   49 1     
   51   21   50 1     
   52   21   51 1     
   53   22   23 ar    
   54   23   24 ar    
   55   23   52 1     
   56   24   25 1     
   57   25   53 1     
   58   25   54 1     
   59   25   55 1     
   60    5   58 1     
   61   10   59 1     
   62   10   60 1     
   63   15   61 1     
   64   15   62 1     
@<TRIPOS>SUBSTRUCTURE
      1 S1             1
@<TRIPOS>SET
LONE_PAIRS      STATIC     ATOMS    <user>   **** ""
5 58 59 60 61 62
DONOR_HYDROGENS      STATIC     ATOMS    <user>   **** ""
3 34 57 56
ATOM$BLUE        STATIC     ATOMS    COLORGROUP SYSTEM
5 58 59 60 61 62
ATOM$RED        STATIC     ATOMS    COLORGROUP SYSTEM
3 34 57 56
