#       Name:                AV-unprocessed.smi:687
#       Creating user name   scv26
#       Creation time:       Fri Mar 27 00:32:52 2020


#       File generated by GOLD software.
#

@<TRIPOS>MOLECULE
AV-unprocessed.smi:687
    45    46     1
SMALL
NO_CHARGES


@<TRIPOS>ATOM
      1 ****         0.9811   0.4004   1.5697 O.2            1 S1                 0.0000
      2 ****         0.2602   0.6718   0.6104 C.2            1 S1                 0.0000
      3 ****        -0.2784   1.8787   0.3687 N.am           1 S1                 0.0000
      4 ****        -0.1653   3.0606   1.1481 C.ar           1 S1                 0.0000
      5 ****        -0.3400   4.3022   0.5033 C.ar           1 S1                 0.0000
      6 ****        -0.2502   5.4861   1.2595 C.ar           1 S1                 0.0000
      7 ****         0.0007   5.3804   2.6413 C.ar           1 S1                 0.0000
      8 ****         0.1526   4.1999   3.2780 N.ar           1 S1                 0.0000
      9 ****         0.0686   3.0682   2.5455 C.ar           1 S1                 0.0000
     10 ****        -0.0709  -0.2021  -0.3554 N.am           1 S1                 0.0000
     11 ****         0.3255  -1.6136  -0.4910 C.3            1 S1                 0.0000
     12 ****         1.8708  -1.7472  -0.6101 C.3            1 S1                 0.0000
     13 ****         2.5379  -0.8899  -1.7036 C.3            1 S1                 0.0000
     14 ****         3.9314  -1.1119  -1.6963 O.3            1 S1                 0.0000
     15 ****        -0.1685  -2.4533   0.7211 C.3            1 S1                 0.0000
     16 ****        -1.7020  -2.5026   0.8411 C.3            1 S1                 0.0000
     17 ****        -2.3366  -3.0505  -0.4438 C.3            1 S1                 0.0000
     18 ****        -1.8897  -2.2378  -1.6664 C.3            1 S1                 0.0000
     19 ****        -0.3535  -2.1727  -1.7703 C.3            1 S1                 0.0000
     20 ****        -0.7689   1.9806  -0.5075 H              1 S1                 0.0000
     21 ****        -0.5345   4.3498  -0.5583 H              1 S1                 0.0000
     22 ****        -0.3719   6.4520   0.7919 H              1 S1                 0.0000
     23 ****         0.0757   6.2677   3.2522 H              1 S1                 0.0000
     24 ****         0.1710   2.1545   3.1103 H              1 S1                 0.0000
     25 ****        -0.6700   0.1465  -1.0892 H              1 S1                 0.0000
     26 ****         2.3311  -1.5014   0.3476 H              1 S1                 0.0000
     27 ****         2.1233  -2.7942  -0.7840 H              1 S1                 0.0000
     28 ****         2.1565  -1.1410  -2.6926 H              1 S1                 0.0000
     29 ****         2.3564   0.1725  -1.5410 H              1 S1                 0.0000
     30 ****         4.3256  -0.5727  -2.3650 H              1 S1                 0.0000
     31 ****         0.2007  -3.4751   0.6218 H              1 S1                 0.0000
     32 ****         0.2566  -2.0845   1.6544 H              1 S1                 0.0000
     33 ****        -1.9856  -3.1287   1.6875 H              1 S1                 0.0000
     34 ****        -2.0935  -1.5069   1.0530 H              1 S1                 0.0000
     35 ****        -2.0515  -4.0950  -0.5753 H              1 S1                 0.0000
     36 ****        -3.4237  -3.0337  -0.3604 H              1 S1                 0.0000
     37 ****        -2.3018  -2.6815  -2.5730 H              1 S1                 0.0000
     38 ****        -2.3026  -1.2303  -1.6067 H              1 S1                 0.0000
     39 ****        -0.0890  -1.5704  -2.6394 H              1 S1                 0.0000
     40 ****         0.0243  -3.1756  -1.9744 H              1 S1                 0.0000
     41 ****         1.2054   1.1059   2.2419 LP             1 S1                 0.0000
     42 ****         1.3427  -0.5257   1.6771 LP             1 S1                 0.0000
     43 ****         0.3223   4.1643   4.2628 LP             1 S1                 0.0000
     44 ****         4.1201  -2.0755  -1.8857 LP             1 S1                 0.0000
     45 ****         4.3068  -0.8681  -0.8021 LP             1 S1                 0.0000
@<TRIPOS>BOND
    1    1    2 2     
    2    2    3 am    
    3    2   10 am    
    4    3    4 1     
    5    3   20 1     
    6    4    9 ar    
    7    4    5 ar    
    8    5    6 ar    
    9    5   21 1     
   10    6    7 ar    
   11    6   22 1     
   12    7    8 ar    
   13    7   23 1     
   14    8    9 ar    
   15    9   24 1     
   16   10   11 1     
   17   10   25 1     
   18   11   19 1     
   19   11   12 1     
   20   11   15 1     
   21   12   13 1     
   22   12   26 1     
   23   12   27 1     
   24   13   14 1     
   25   13   28 1     
   26   13   29 1     
   27   14   30 1     
   28   15   16 1     
   29   15   31 1     
   30   15   32 1     
   31   16   17 1     
   32   16   33 1     
   33   16   34 1     
   34   17   18 1     
   35   17   35 1     
   36   17   36 1     
   37   18   19 1     
   38   18   37 1     
   39   18   38 1     
   40   19   39 1     
   41   19   40 1     
   42    1   41 1     
   43    1   42 1     
   44    8   43 1     
   45   14   44 1     
   46   14   45 1     
@<TRIPOS>SUBSTRUCTURE
      1 S1             1
@<TRIPOS>SET
LONE_PAIRS      STATIC     ATOMS    <user>   **** ""
5 41 42 43 44 45
DONOR_HYDROGENS      STATIC     ATOMS    <user>   **** ""
3 20 25 30
ATOM$BLUE        STATIC     ATOMS    COLORGROUP SYSTEM
5 41 42 43 44 45
ATOM$RED        STATIC     ATOMS    COLORGROUP SYSTEM
3 20 25 30
