AV-unprocessed.smi:2118|AV-procd|sdf|8628|dock6
  -GOLD-   2272011373D 1   1.00000     0.00000
 Structure written by MMmdl.
 40 41  0  0  0  0  0  0  0  0  1 V2000
  146.8116  138.9587  152.2045 C   0  0  0  0  0  0  0  0  0  0  0  0
  147.2452  139.3303  153.6295 C   0  0  0  0  0  0  0  0  0  0  0  0
  148.3151  140.4349  153.6282 C   0  0  0  0  0  0  0  0  0  0  0  0
  148.7665  140.7846  155.0578 C   0  0  0  0  0  0  0  0  0  0  0  0
  149.2237  139.5865  155.7893 N   0  0  0  0  0  0  0  0  0  0  0  0
  150.9196  139.1992  155.8040 S   0  0  0  0  0  0  0  0  0  0  0  0
  151.0846  137.7619  155.5378 O   0  0  0  0  0  0  0  0  0  0  0  0
  151.6483  140.2010  155.0106 O   0  0  0  0  0  0  0  0  0  0  0  0
  151.2716  139.4777  157.4661 N   0  0  0  0  0  0  0  0  0  0  0  0
  151.0708  140.8180  158.0080 C   0  0  0  0  0  0  0  0  0  0  0  0
  152.1887  141.1582  159.0014 C   0  0  0  0  0  0  0  0  0  0  0  0
  152.1514  142.6122  159.4284 C   0  0  0  0  0  0  0  0  0  0  0  0
  152.1261  143.6474  158.4710 C   0  0  0  0  0  0  0  0  0  0  0  0
  152.0902  144.9828  158.9166 C   0  0  0  0  0  0  0  0  0  0  0  0
  152.0805  145.2265  160.3046 C   0  0  0  0  0  0  0  0  0  0  0  0
  152.1032  144.2432  161.2303 N   0  0  0  0  0  0  0  0  0  0  0  0
  152.1375  142.9653  160.7945 C   0  0  0  0  0  0  0  0  0  0  0  0
  148.2343  138.4912  155.8181 C   0  0  0  0  0  0  0  0  0  0  0  0
  147.7736  138.1086  154.3996 C   0  0  0  0  0  0  0  0  0  0  0  0
  147.6481  138.5677  151.6243 H   0  0  0  0  0  0  0  0  0  0  0  0
  146.4166  139.8267  151.6760 H   0  0  0  0  0  0  0  0  0  0  0  0
  146.0307  138.1978  152.2176 H   0  0  0  0  0  0  0  0  0  0  0  0
  146.3679  139.7093  154.1561 H   0  0  0  0  0  0  0  0  0  0  0  0
  149.1732  140.1238  153.0324 H   0  0  0  0  0  0  0  0  0  0  0  0
  147.9216  141.3300  153.1454 H   0  0  0  0  0  0  0  0  0  0  0  0
  149.5538  141.5379  155.0364 H   0  0  0  0  0  0  0  0  0  0  0  0
  147.9333  141.2269  155.6051 H   0  0  0  0  0  0  0  0  0  0  0  0
  150.8856  138.7479  158.0642 H   0  0  0  0  0  0  0  0  0  0  0  0
  151.0573  141.5362  157.1874 H   0  0  0  0  0  0  0  0  0  0  0  0
  150.0970  140.8623  158.4972 H   0  0  0  0  0  0  0  0  0  0  0  0
  152.1078  140.5269  159.8875 H   0  0  0  0  0  0  0  0  0  0  0  0
  153.1619  140.9426  158.5579 H   0  0  0  0  0  0  0  0  0  0  0  0
  152.1333  143.4241  157.4142 H   0  0  0  0  0  0  0  0  0  0  0  0
  152.0703  145.8008  158.2117 H   0  0  0  0  0  0  0  0  0  0  0  0
  152.0528  146.2382  160.6814 H   0  0  0  0  0  0  0  0  0  0  0  0
  152.1530  142.2025  161.5589 H   0  0  0  0  0  0  0  0  0  0  0  0
  148.6454  137.6239  156.3341 H   0  0  0  0  0  0  0  0  0  0  0  0
  147.3750  138.8184  156.4046 H   0  0  0  0  0  0  0  0  0  0  0  0
  146.9939  137.3491  154.4668 H   0  0  0  0  0  0  0  0  0  0  0  0
  148.5960  137.6486  153.8518 H   0  0  0  0  0  0  0  0  0  0  0  0
  1  2  1  0  0  0  0
  1 20  1  0  0  0  0
  1 21  1  0  0  0  0
  1 22  1  0  0  0  0
  2 19  1  0  0  0  0
  2  3  1  0  0  0  0
  2 23  1  0  0  0  0
  3  4  1  0  0  0  0
  3 24  1  0  0  0  0
  3 25  1  0  0  0  0
  4  5  1  0  0  0  0
  4 26  1  0  0  0  0
  4 27  1  0  0  0  0
  5  6  1  0  0  0  0
  5 18  1  0  0  0  0
  6  7  2  0  0  0  0
  6  8  2  0  0  0  0
  6  9  1  0  0  0  0
  9 10  1  0  0  0  0
  9 28  1  0  0  0  0
 10 11  1  0  0  0  0
 10 29  1  0  0  0  0
 10 30  1  0  0  0  0
 11 12  1  0  0  0  0
 11 31  1  0  0  0  0
 11 32  1  0  0  0  0
 12 17  1  0  0  0  0
 12 13  2  0  0  0  0
 13 14  1  0  0  0  0
 13 33  1  0  0  0  0
 14 15  2  0  0  0  0
 14 34  1  0  0  0  0
 15 16  1  0  0  0  0
 15 35  1  0  0  0  0
 16 17  2  0  0  0  0
 17 36  1  0  0  0  0
 18 19  1  0  0  0  0
 18 37  1  0  0  0  0
 18 38  1  0  0  0  0
 19 39  1  0  0  0  0
 19 40  1  0  0  0  0
M  END
> <s_m_source_file>
AV-unprocessed.smi

> <i_m_source_file_index>
2118

> <i_lp_mmshare_version>
43012

> <i_f3d_flags>
0

> <s_epik_input>
W0NIM11bQ0hdMVtDSDJdW0NIMl1OKFtDSDJdW0NIMl0xKVMoPU8pKD1PKVtOSF1bQ0gyXVtDSDJdYzJbY0hdW2NIXVtjSF1uW2NIXTI=

> <s_epik_cmdline>
J2VwaWtfcHl0aG9uJywgJy1waCcsICc3LjAnLCAnLXRuJywgJzgnLCAnLW1hJywgJzIwMCcsICctbWV0YWxfYmluZGluZycsICctaW1hZScsICc8aW5maWxlLm1hZT4nLCAnLW9tYWUnLCAnPG91dGZpbGUubWFlPic=

> <r_epik_Ionization_Penalty>
0.0259724

> <r_epik_Ionization_Penalty_Charging>
0

> <r_epik_Ionization_Penalty_Neutral>
0.0259724

> <r_epik_State_Penalty>
0.0167858

> <r_epik_Charging_Adjusted_Penalty>
0.0167858

> <i_epik_Tot_Q>
0

> <i_epik_Tot_abs_Q>
0

> <r_epik_Metal_State_Penalty>
0.268382

> <b_epik_Metal_Only>
0

> <s_lp_Force_Field>
OPLS_2005

> <r_lp_Energy>
6.97296

> <b_lp_Chiralities_Consistent>
1

> <s_lp_Variant>
AV-unprocessed.smi:2118-1

> <Gold.Version>
5.8.1

> <Gold.Id.Protein>
6NUR|6NUR_protein|mol2

> <Gold.PLP.Fitness>
38.7054

> <Gold.PLP.PLP>
-36.4731

> <Gold.PLP.part.hbond>
-0.9806

> <Gold.PLP.part.metal>
0.0000

> <Gold.PLP.part.buried>
-2.3959

> <Gold.PLP.part.nonpolar>
-33.3151

> <Gold.PLP.part.repulsive>
0.2488

> <Gold.PLP.ligand.clash>
0.0000

> <Gold.PLP.ligand.torsion>
1.3864

> <Gold.PLP.Chemscore.Hbond>
0.9600

> <Gold.PLP.Chemscore.CHOScore>
0.0000

> <Gold.PLP.Chemscore.Metal>
0.0000

> <Gold.Chemscore.Hbonds>
donor molecule, donor type, donor heavy atom, donor atom, acceptor molecule, acceptor atom, score
      P1  H  7989  7998       L1     8  0.96

> <Gold.PLP.Chemscore.Internal.Correction>
2.1252

> <Gold.Rescore>
     Score         DG    S(hbond)    S(metal)    S(lipo)     H(rot)  DE(clash)    DE(int)     intcor
     15.16     -17.34       0.96        0.00     106.14       1.47       0.69       1.50       ----

> <Gold.Chemscore.Fitness>
15.1579

> <Gold.Chemscore.DG>
-17.3396

> <Gold.Chemscore.ZeroCoef>
-5.4800

> <Gold.Chemscore.Hbond>
0.9613

> <Gold.Chemscore.Metal>
0.0000

> <Gold.Chemscore.Lipo>
106.1412

> <Gold.Chemscore.Internal_Hbond>
0.0000

> <Gold.Chemscore.DEClash>
0.6863

> <Gold.Chemscore.DEInternal>
1.4954

> <Gold.Chemscore.Rot>
1.4725

> <Gold.Chemscore.Internal.Correction>
   9.000000E+99

> <Gold.Chemscore.Hbonds>
donor molecule, donor type, donor heavy atom, donor atom, acceptor molecule, acceptor atom, score
      P1  H  7989  7998       L1     8  0.92

> <Gold.Chemscore.Hbond.Weighted>
-3.2108

> <Gold.Chemscore.Metal.Weighted>
-0.0000

> <Gold.Chemscore.Lipo.Weighted>
-12.4185

> <Gold.Chemscore.Internal_Hbond.Weighted>
0.0000

> <Gold.Chemscore.DEClash.Weighted>
0.6863

> <Gold.Chemscore.DEInternal.Weighted>
1.4954

> <Gold.Chemscore.Rot.Weighted>
3.7697

> <Gold.Chemscore.Internal.Correction.Weighted>
   9.000000E+99

> <Gold.Protein.RotatedTorsions>
[ 6907 6896 6895 6894 ] final  125.88 input  -60.11 | X-H torsion
[ 7974 7965 7964 7962 ] final -179.44 input  175.53 | X-H torsion
[ 8008 7997 7996 7995 ] final  153.45 input   59.86 | X-H torsion
[ 10167 10162 10161 10158 ] final   58.42 input  -65.29 | X-H torsion
[ 10718 10713 10712 10709 ] final  -77.79 input   66.30 | X-H torsion
[ 10763 10752 10751 10750 ] final  166.20 input  -60.55 | X-H torsion
[ 11005 11000 10999 10996 ] final  -86.51 input  -57.11 | X-H torsion

> <Gold.Protein.ActiveResidues>
 VAL166  LYS551  ARG553  GLY616  TRP617  ASP618  TYR619  PRO620  LYS621  CYS622 
 ASP623  PHE694  ASN695  SER759  ASP760  ASP761  ALA762  ILE779  LEU786  VAL792 
 PHE793  MET794  SER795  GLU796  ALA797  LYS798  CYS799  TRP800  GLU811  SER814 

> <Gold.Protein.RotatedAtoms>
  152.3953  133.6737  159.6270 H   0  0  0  0  0  0  0  0  0  0  0  0  # atno 6907 bound_to 6896
  150.7853  133.8885  159.3315 H   0  0  0  0  0  0  0  0  0  0  0  0  # atno 6908 bound_to 6896
  151.6663  135.0984  160.0240 H   0  0  0  0  0  0  0  0  0  0  0  0  # atno 6909 bound_to 6896
  144.7136  140.0717  143.6429 H   0  0  0  0  0  0  0  0  0  0  0  0  # atno 7974 bound_to 7965
  156.2581  140.1993  156.6492 H   0  0  0  0  0  0  0  0  0  0  0  0  # atno 8008 bound_to 7997
  154.6550  140.0567  157.0023 H   0  0  0  0  0  0  0  0  0  0  0  0  # atno 8009 bound_to 7997
  155.1362  140.3238  155.4465 H   0  0  0  0  0  0  0  0  0  0  0  0  # atno 8010 bound_to 7997
  140.1874  144.4121  150.6587 H   0  0  0  0  0  0  0  0  0  0  0  0  # atno 10167 bound_to 10162
  156.0135  130.4501  150.3398 H   0  0  0  0  0  0  0  0  0  0  0  0  # atno 10718 bound_to 10713
  154.3354  135.2754  155.2450 H   0  0  0  0  0  0  0  0  0  0  0  0  # atno 10763 bound_to 10752
  154.4743  135.5875  153.6348 H   0  0  0  0  0  0  0  0  0  0  0  0  # atno 10764 bound_to 10752
  152.9862  135.6096  154.3551 H   0  0  0  0  0  0  0  0  0  0  0  0  # atno 10765 bound_to 10752
  141.1629  133.7459  156.9172 H   0  0  0  0  0  0  0  0  0  0  0  0  # atno 11005 bound_to 11000
  145.9777  139.2917  143.1060 LP  0  0  0  0  0  0  0  0  0  0  0  0  # atno 17320 bound_to 7965
  145.9045  140.9221  143.0485 LP  0  0  0  0  0  0  0  0  0  0  0  0  # atno 17321 bound_to 7965
  140.6479  143.2218  151.6144 LP  0  0  0  0  0  0  0  0  0  0  0  0  # atno 17342 bound_to 10162
  139.5270  144.3028  152.1059 LP  0  0  0  0  0  0  0  0  0  0  0  0  # atno 17343 bound_to 10162
  157.1494  131.0317  151.2892 LP  0  0  0  0  0  0  0  0  0  0  0  0  # atno 17370 bound_to 10713
  157.4405  130.7541  149.7065 LP  0  0  0  0  0  0  0  0  0  0  0  0  # atno 17371 bound_to 10713
  140.1476  134.9252  157.2550 LP  0  0  0  0  0  0  0  0  0  0  0  0  # atno 17394 bound_to 11000
  140.2761  134.3404  155.7358 LP  0  0  0  0  0  0  0  0  0  0  0  0  # atno 17395 bound_to 11000

$$$$
