#       Name:                AV-unprocessed.smi:261
#       Creating user name   scv26
#       Creation time:       Thu Mar 26 21:16:23 2020


#       File generated by GOLD software.
#

@<TRIPOS>MOLECULE
AV-unprocessed.smi:261
    63    66     1
SMALL
NO_CHARGES


@<TRIPOS>ATOM
      1 ****        -5.9822   4.3800  -2.1793 C.3            1 S1                 0.0000
      2 ****        -4.6660   4.2669  -1.6634 O.3            1 S1                 0.0000
      3 ****        -4.2939   2.9319  -1.3540 C.3            1 S1                 0.0000
      4 ****        -3.9918   2.0829  -2.5899 C.3            1 S1                 0.0000
      5 ****        -3.0272   0.9928  -2.0844 C.3            1 S1                 0.0000
      6 ****        -3.7585  -0.3203  -1.7647 C.2            1 S1                 0.0000
      7 ****        -3.7698  -1.2507  -2.7221 N.am           1 S1                 0.0000
      8 ****        -4.3196  -0.4913  -0.6833 O.2            1 S1                 0.0000
      9 ****        -2.4332   1.5582  -0.8696 N.3            1 S1                 0.0000
     10 ****        -1.1019   1.4023  -0.7076 C.ar           1 S1                 0.0000
     11 ****        -0.2378   1.9617  -1.5948 N.ar           1 S1                 0.0000
     12 ****         1.0794   1.8009  -1.4318 C.ar           1 S1                 0.0000
     13 ****         1.7278   1.1341  -0.4733 N.ar           1 S1                 0.0000
     14 ****         0.8575   0.5752   0.4165 C.ar           1 S1                 0.0000
     15 ****        -0.5614   0.6611   0.3739 C.ar           1 S1                 0.0000
     16 ****        -1.1157  -0.0315   1.4426 N.2            1 S1                 0.0000
     17 ****        -0.0801  -0.5037   2.0824 C.2            1 S1                 0.0000
     18 ****         1.1431  -0.1875   1.5341 N.pl3          1 S1                 0.0000
     19 ****         2.4501  -0.5792   2.0295 C.3            1 S1                 0.0000
     20 ****         3.0306  -1.7819   1.2610 C.3            1 S1                 0.0000
     21 ****         2.1809  -2.9069   1.3825 O.3            1 S1                 0.0000
     22 ****         4.4651  -2.1354   1.7024 C.3            1 S1                 0.0000
     23 ****         5.1007  -3.3618   1.0422 C.3            1 S1                 0.0000
     24 ****         6.1579  -3.7268   2.0601 C.3            1 S1                 0.0000
     25 ****         5.4387  -3.4371   3.3757 C.3            1 S1                 0.0000
     26 ****         4.5520  -2.3534   3.1088 O.3            1 S1                 0.0000
     27 ****        -2.9546   2.8957  -0.6254 C.3            1 S1                 0.0000
     28 ****        -5.0520   2.4461  -0.7362 H              1 S1                 0.0000
     29 ****        -2.2732   0.7928  -2.8487 H              1 S1                 0.0000
     30 ****        -6.2096   5.4289  -2.3689 H              1 S1                 0.0000
     31 ****        -6.7181   4.0009  -1.4689 H              1 S1                 0.0000
     32 ****        -6.0927   3.8398  -3.1200 H              1 S1                 0.0000
     33 ****        -4.8944   1.6857  -3.0567 H              1 S1                 0.0000
     34 ****        -3.4822   2.6930  -3.3372 H              1 S1                 0.0000
     35 ****        -4.2383  -2.1312  -2.5651 H              1 S1                 0.0000
     36 ****        -3.3102  -1.0680  -3.6024 H              1 S1                 0.0000
     37 ****         1.7033   2.2741  -2.1756 H              1 S1                 0.0000
     38 ****        -0.1808  -1.1033   2.9754 H              1 S1                 0.0000
     39 ****         3.1171   0.2796   1.9447 H              1 S1                 0.0000
     40 ****         2.3655  -0.8056   3.0932 H              1 S1                 0.0000
     41 ****         3.0620  -1.5318   0.1998 H              1 S1                 0.0000
     42 ****         2.1640  -3.1700   2.2901 H              1 S1                 0.0000
     43 ****         5.1071  -1.2777   1.4941 H              1 S1                 0.0000
     44 ****         4.3896  -4.1828   0.9456 H              1 S1                 0.0000
     45 ****         5.5113  -3.1484   0.0550 H              1 S1                 0.0000
     46 ****         6.4967  -4.7598   1.9770 H              1 S1                 0.0000
     47 ****         7.0240  -3.0722   1.9523 H              1 S1                 0.0000
     48 ****         4.8460  -4.3001   3.6817 H              1 S1                 0.0000
     49 ****         6.1296  -3.1975   4.1844 H              1 S1                 0.0000
     50 ****        -2.2809   3.6538  -1.0292 H              1 S1                 0.0000
     51 ****        -3.0733   3.0844   0.4420 H              1 S1                 0.0000
     52 ****        -4.6046   4.8145  -0.8289 LP             1 S1                 0.0000
     53 ****        -4.0269   4.6243  -2.3444 LP             1 S1                 0.0000
     54 ****        -4.3052   0.2317   0.0073 LP             1 S1                 0.0000
     55 ****        -4.7901  -1.3534  -0.4949 LP             1 S1                 0.0000
     56 ****        -2.7431   0.9776  -0.1167 LP             1 S1                 0.0000
     57 ****        -0.5863   2.4922  -2.3675 LP             1 S1                 0.0000
     58 ****         2.7229   1.0547  -0.4153 LP             1 S1                 0.0000
     59 ****        -2.0833  -0.1427   1.6694 LP             1 S1                 0.0000
     60 ****         2.5297  -3.6564   0.8198 LP             1 S1                 0.0000
     61 ****         1.2575  -2.6670   1.0829 LP             1 S1                 0.0000
     62 ****         3.6443  -2.5711   3.4677 LP             1 S1                 0.0000
     63 ****         4.8962  -1.5259   3.5524 LP             1 S1                 0.0000
@<TRIPOS>BOND
    1    1    2 1     
    2    1   30 1     
    3    1   31 1     
    4    1   32 1     
    5    2    3 1     
    6    3   28 1     
    7    3   27 1     
    8    3    4 1     
    9    4    5 1     
   10    4   33 1     
   11    4   34 1     
   12    5   29 1     
   13    5    6 1     
   14    5    9 1     
   15    6    7 am    
   16    6    8 2     
   17    7   35 1     
   18    7   36 1     
   19    9   10 1     
   20    9   27 1     
   21   10   15 ar    
   22   10   11 ar    
   23   11   12 ar    
   24   12   13 ar    
   25   12   37 1     
   26   13   14 ar    
   27   14   18 1     
   28   14   15 ar    
   29   15   16 1     
   30   16   17 2     
   31   17   18 1     
   32   17   38 1     
   33   18   19 1     
   34   19   20 1     
   35   19   39 1     
   36   19   40 1     
   37   20   21 1     
   38   20   22 1     
   39   20   41 1     
   40   21   42 1     
   41   22   26 1     
   42   22   23 1     
   43   22   43 1     
   44   23   24 1     
   45   23   44 1     
   46   23   45 1     
   47   24   25 1     
   48   24   46 1     
   49   24   47 1     
   50   25   26 1     
   51   25   48 1     
   52   25   49 1     
   53   27   50 1     
   54   27   51 1     
   55    2   52 1     
   56    2   53 1     
   57    8   54 1     
   58    8   55 1     
   59    9   56 1     
   60   11   57 1     
   61   13   58 1     
   62   16   59 1     
   63   21   60 1     
   64   21   61 1     
   65   26   62 1     
   66   26   63 1     
@<TRIPOS>SUBSTRUCTURE
      1 S1             1
@<TRIPOS>SET
LONE_PAIRS      STATIC     ATOMS    <user>   **** ""
12 52 53 54 55 56 57 58 59 60 61 62 63
DONOR_HYDROGENS      STATIC     ATOMS    <user>   **** ""
3 35 36 42
ATOM$BLUE        STATIC     ATOMS    COLORGROUP SYSTEM
12 52 53 54 55 56 57 58 59 60 61 62 63
ATOM$RED        STATIC     ATOMS    COLORGROUP SYSTEM
3 35 36 42
