AV-unprocessed.smi:1590|AV-procd|sdf|6396|dock7
  -GOLD-   22720 7 33D 1   1.00000     0.00000
 Structure written by MMmdl.
 34 35  0  0  0  0  0  0  0  0  2 V2000
  147.3496  139.3551  153.2815 C   0  0  0  0  0  0  0  0  0  0  0  0
  147.6992  140.2580  154.4730 C   0  0  0  0  0  0  0  0  0  0  0  0
  147.3544  141.7318  154.2137 C   0  0  0  0  0  0  0  0  0  0  0  0
  149.1228  140.0844  154.9045 C   0  0  0  0  0  0  0  0  0  0  0  0
  150.0295  139.4457  154.1595 N   0  0  0  0  0  0  0  0  0  0  0  0
  151.2780  139.4147  154.7629 N   0  0  0  0  0  0  0  0  0  0  0  0
  151.3047  140.0372  155.9495 C   0  0  0  0  0  0  0  0  0  0  0  0
  152.4193  140.1182  156.6950 N   0  5  0  0  0  0  0  0  0  0  0  0
  152.3259  140.2842  158.0343 C   0  0  0  0  0  0  0  0  0  0  0  0
  151.8798  139.4671  158.8432 O   0  0  0  0  0  0  0  0  0  0  0  0
  152.7785  141.4692  158.4651 N   0  0  0  0  0  0  0  0  0  0  0  0
  152.7938  141.9061  159.8547 C   0  0  0  0  0  0  0  0  0  0  0  0
  151.9055  143.1308  160.0380 C   0  0  0  0  0  0  0  0  0  0  0  0
  152.0906  144.3462  159.1175 C   0  0  0  0  0  0  0  0  0  0  0  0
  151.7381  145.2438  160.3069 C   0  0  0  0  0  0  0  0  0  0  0  0
  152.1503  144.0843  161.2176 C   0  0  0  0  0  0  0  0  0  0  0  0
  149.7442  140.7023  156.4289 S   0  0  0  0  0  0  0  0  0  0  0  0
  147.5389  138.3073  153.5165 H   0  0  0  0  0  0  0  0  0  0  0  0
  147.9395  139.6108  152.4007 H   0  0  0  0  0  0  0  0  0  0  0  0
  146.2969  139.4485  153.0140 H   0  0  0  0  0  0  0  0  0  0  0  0
  147.0728  139.9332  155.3052 H   0  0  0  0  0  0  0  0  0  0  0  0
  147.5475  142.3403  155.0977 H   0  0  0  0  0  0  0  0  0  0  0  0
  146.3013  141.8486  153.9570 H   0  0  0  0  0  0  0  0  0  0  0  0
  147.9432  142.1410  153.3923 H   0  0  0  0  0  0  0  0  0  0  0  0
  153.1354  142.1138  157.7753 H   0  0  0  0  0  0  0  0  0  0  0  0
  152.4552  141.0888  160.4930 H   0  0  0  0  0  0  0  0  0  0  0  0
  153.8191  142.1351  160.1481 H   0  0  0  0  0  0  0  0  0  0  0  0
  150.8506  142.8473  160.0298 H   0  0  0  0  0  0  0  0  0  0  0  0
  153.1224  144.4740  158.7859 H   0  0  0  0  0  0  0  0  0  0  0  0
  151.3912  144.3971  158.2824 H   0  0  0  0  0  0  0  0  0  0  0  0
  152.3514  146.1404  160.4012 H   0  0  0  0  0  0  0  0  0  0  0  0
  150.6724  145.4706  160.3663 H   0  0  0  0  0  0  0  0  0  0  0  0
  151.4992  143.9227  162.0770 H   0  0  0  0  0  0  0  0  0  0  0  0
  153.1999  144.1325  161.5129 H   0  0  0  0  0  0  0  0  0  0  0  0
  1  2  1  0  0  0  0
  1 18  1  0  0  0  0
  1 19  1  0  0  0  0
  1 20  1  0  0  0  0
  2  3  1  0  0  0  0
  2  4  1  0  0  0  0
  2 21  1  0  0  0  0
  3 22  1  0  0  0  0
  3 23  1  0  0  0  0
  3 24  1  0  0  0  0
  4 17  1  0  0  0  0
  4  5  2  0  0  0  0
  5  6  1  0  0  0  0
  6  7  2  0  0  0  0
  7  8  1  0  0  0  0
  7 17  1  0  0  0  0
  8  9  1  0  0  0  0
  9 10  2  0  0  0  0
  9 11  1  0  0  0  0
 11 12  1  0  0  0  0
 11 25  1  0  0  0  0
 12 13  1  0  0  0  0
 12 26  1  0  0  0  0
 12 27  1  0  0  0  0
 13 16  1  0  0  0  0
 13 14  1  0  0  0  0
 13 28  1  0  0  0  0
 14 15  1  0  0  0  0
 14 29  1  0  0  0  0
 14 30  1  0  0  0  0
 15 16  1  0  0  0  0
 15 31  1  0  0  0  0
 15 32  1  0  0  0  0
 16 33  1  0  0  0  0
 16 34  1  0  0  0  0
M  CHG  1   8  -1
M  END
> <s_m_source_file>
AV-unprocessed.smi

> <i_m_source_file_index>
1590

> <i_lp_mmshare_version>
43012

> <i_f3d_flags>
0

> <s_epik_input>
W0NIM11bQ0hdKFtDSDNdKWMxbm5jKHMxKVtOSF1DKD1PKVtOSF1bQ0gyXVtDSF0yW0NIMl1bQ0gyXVtDSDJdMg==

> <s_epik_cmdline>
J2VwaWtfcHl0aG9uJywgJy1waCcsICc3LjAnLCAnLXRuJywgJzgnLCAnLW1hJywgJzIwMCcsICctbWV0YWxfYmluZGluZycsICctaW1hZScsICc8aW5maWxlLm1hZT4nLCAnLW9tYWUnLCAnPG91dGZpbGUubWFlPic=

> <r_lp_tautomer_probability>
1

> <r_epik_Ionization_Penalty>
4.56565

> <r_epik_Ionization_Penalty_Charging>
4.40687

> <r_epik_Ionization_Penalty_Neutral>
0.158778

> <r_epik_State_Penalty>
4.40652

> <r_epik_Charging_Adjusted_Penalty>
8.8134

> <i_epik_Tot_Q>
-1

> <i_epik_Tot_abs_Q>
1

> <r_epik_Metal_State_Penalty>
0.774635

> <b_epik_Metal_Only>
1

> <s_lp_Force_Field>
OPLS_2005

> <r_lp_Energy>
4.00522

> <b_lp_Chiralities_Consistent>
1

> <s_lp_Variant>
AV-unprocessed.smi:1590-2

> <Gold.Version>
5.8.1

> <Gold.Id.Protein>
6NUR|6NUR_protein|mol2

> <Gold.PLP.Fitness>
41.6219

> <Gold.PLP.PLP>
-37.5244

> <Gold.PLP.part.hbond>
-3.0000

> <Gold.PLP.part.metal>
0.0000

> <Gold.PLP.part.buried>
-2.3498

> <Gold.PLP.part.nonpolar>
-32.0021

> <Gold.PLP.part.repulsive>
1.2862

> <Gold.PLP.ligand.clash>
0.0000

> <Gold.PLP.ligand.torsion>
1.1017

> <Gold.PLP.Chemscore.Hbond>
2.0500

> <Gold.PLP.Chemscore.CHOScore>
0.0000

> <Gold.PLP.Chemscore.Metal>
0.0000

> <Gold.Chemscore.Hbonds>
donor molecule, donor type, donor heavy atom, donor atom, acceptor molecule, acceptor atom, score
      P1  H  7989  7998       L1     6  0.15
      P1  H  7997  8008       L1     8  2.00

> <Gold.PLP.Chemscore.Internal.Correction>
0.1509

> <Gold.Rescore>
     Score         DG    S(hbond)    S(metal)    S(lipo)     H(rot)  DE(clash)    DE(int)     intcor
     13.79     -14.96       0.83        0.00      87.22       1.36       0.09       1.08       ----

> <Gold.Chemscore.Fitness>
13.7914

> <Gold.Chemscore.DG>
-14.9590

> <Gold.Chemscore.ZeroCoef>
-5.4800

> <Gold.Chemscore.Hbond>
0.8255

> <Gold.Chemscore.Metal>
0.0000

> <Gold.Chemscore.Lipo>
87.2175

> <Gold.Chemscore.Internal_Hbond>
0.0000

> <Gold.Chemscore.DEClash>
0.0901

> <Gold.Chemscore.DEInternal>
1.0775

> <Gold.Chemscore.Rot>
1.3604

> <Gold.Chemscore.Internal.Correction>
   9.000000E+99

> <Gold.Chemscore.Hbonds>
donor molecule, donor type, donor heavy atom, donor atom, acceptor molecule, acceptor atom, score
      P1  H  7997  8008       L1     8  0.34

> <Gold.Chemscore.Hbond.Weighted>
-2.7571

> <Gold.Chemscore.Metal.Weighted>
-0.0000

> <Gold.Chemscore.Lipo.Weighted>
-10.2044

> <Gold.Chemscore.Internal_Hbond.Weighted>
0.0000

> <Gold.Chemscore.DEClash.Weighted>
0.0901

> <Gold.Chemscore.DEInternal.Weighted>
1.0775

> <Gold.Chemscore.Rot.Weighted>
3.4826

> <Gold.Chemscore.Internal.Correction.Weighted>
   9.000000E+99

> <Gold.Protein.RotatedTorsions>
[ 6907 6896 6895 6894 ] final  -59.43 input  -60.11 | X-H torsion
[ 7974 7965 7964 7962 ] final   80.61 input  175.53 | X-H torsion
[ 8008 7997 7996 7995 ] final  -47.19 input   59.86 | X-H torsion
[ 10167 10162 10161 10158 ] final  150.17 input  -65.29 | X-H torsion
[ 10718 10713 10712 10709 ] final -136.44 input   66.30 | X-H torsion
[ 10763 10752 10751 10750 ] final   41.21 input  -60.55 | X-H torsion
[ 11005 11000 10999 10996 ] final   47.99 input  -57.11 | X-H torsion

> <Gold.Protein.ActiveResidues>
 VAL166  LYS551  ARG553  GLY616  TRP617  ASP618  TYR619  PRO620  LYS621  CYS622 
 ASP623  PHE694  ASN695  SER759  ASP760  ASP761  ALA762  ILE779  LEU786  VAL792 
 PHE793  MET794  SER795  GLU796  ALA797  LYS798  CYS799  TRP800  GLU811  SER814 

> <Gold.Protein.RotatedAtoms>
  150.7931  134.6970  159.6528 H   0  0  0  0  0  0  0  0  0  0  0  0  # atno 6907 bound_to 6896
  152.4040  134.6236  160.0067 H   0  0  0  0  0  0  0  0  0  0  0  0  # atno 6908 bound_to 6896
  151.6498  133.3284  159.3185 H   0  0  0  0  0  0  0  0  0  0  0  0  # atno 6909 bound_to 6896
  145.6489  139.2443  143.1988 H   0  0  0  0  0  0  0  0  0  0  0  0  # atno 7974 bound_to 7965
  154.4014  140.1352  156.4135 H   0  0  0  0  0  0  0  0  0  0  0  0  # atno 8008 bound_to 7997
  155.7711  140.3484  155.5227 H   0  0  0  0  0  0  0  0  0  0  0  0  # atno 8009 bound_to 7997
  155.8766  140.0980  157.1504 H   0  0  0  0  0  0  0  0  0  0  0  0  # atno 8010 bound_to 7997
  139.4853  144.5543  151.7344 H   0  0  0  0  0  0  0  0  0  0  0  0  # atno 10167 bound_to 10162
  156.2770  130.7299  151.1284 H   0  0  0  0  0  0  0  0  0  0  0  0  # atno 10718 bound_to 10713
  152.9914  135.6168  154.2750 H   0  0  0  0  0  0  0  0  0  0  0  0  # atno 10763 bound_to 10752
  154.2482  135.2786  155.2829 H   0  0  0  0  0  0  0  0  0  0  0  0  # atno 10764 bound_to 10752
  154.5311  135.5788  153.6817 H   0  0  0  0  0  0  0  0  0  0  0  0  # atno 10765 bound_to 10752
  140.1230  134.4805  155.8582 H   0  0  0  0  0  0  0  0  0  0  0  0  # atno 11005 bound_to 11000
  146.1220  140.7297  142.9453 LP  0  0  0  0  0  0  0  0  0  0  0  0  # atno 17320 bound_to 7965
  144.7130  140.4107  143.7066 LP  0  0  0  0  0  0  0  0  0  0  0  0  # atno 17321 bound_to 7965
  140.5103  144.1036  150.5993 LP  0  0  0  0  0  0  0  0  0  0  0  0  # atno 17342 bound_to 10162
  140.3959  143.2728  152.0005 LP  0  0  0  0  0  0  0  0  0  0  0  0  # atno 17343 bound_to 10162
  157.7302  131.0618  150.5735 LP  0  0  0  0  0  0  0  0  0  0  0  0  # atno 17370 bound_to 10713
  156.5837  130.4311  149.5966 LP  0  0  0  0  0  0  0  0  0  0  0  0  # atno 17371 bound_to 10713
  141.2155  133.6767  156.6925 LP  0  0  0  0  0  0  0  0  0  0  0  0  # atno 17394 bound_to 11000
  140.2940  134.8217  157.4041 LP  0  0  0  0  0  0  0  0  0  0  0  0  # atno 17395 bound_to 11000

$$$$
