AV-unprocessed.smi:1012|AV-procd|sdf|4425|dock5
  -GOLD-   22720 2383D 1   1.00000     0.00000
 Structure written by MMmdl.
 44 46  0  0  0  0  0  0  0  0  2 V2000
  147.5898  136.7639  163.2609 C   0  0  0  0  0  0  0  0  0  0  0  0
  147.9279  136.9453  161.8936 O   0  0  0  0  0  0  0  0  0  0  0  0
  147.9005  135.8444  161.0611 C   0  0  0  0  0  0  0  0  0  0  0  0
  147.4308  134.5677  161.4634 C   0  0  0  0  0  0  0  0  0  0  0  0
  147.4304  133.4870  160.5610 C   0  0  0  0  0  0  0  0  0  0  0  0
  147.8975  133.6651  159.2469 C   0  0  0  0  0  0  0  0  0  0  0  0
  148.3656  134.9259  158.8357 C   0  0  0  0  0  0  0  0  0  0  0  0
  148.3696  136.0123  159.7361 C   0  0  0  0  0  0  0  0  0  0  0  0
  148.8754  137.3657  159.2713 C   0  0  0  0  0  0  0  0  0  0  0  0
  149.2352  137.3405  157.9000 O   0  0  0  0  0  0  0  0  0  0  0  0
  149.8012  138.5624  157.4580 C   0  0  0  0  0  0  0  0  0  0  0  0
  151.2198  138.2950  156.9230 C   0  0  1  0  0  0  0  0  0  0  0  0
  151.1593  138.2176  155.5141 O   0  0  0  0  0  0  0  0  0  0  0  0
  152.2399  139.3966  157.2747 C   0  0  0  0  0  0  0  0  0  0  0  0
  151.6717  140.7499  157.1946 N   0  0  0  0  0  0  0  0  0  0  0  0
  150.9253  141.3134  156.2060 C   0  0  0  0  0  0  0  0  0  0  0  0
  150.6288  142.5861  156.5878 N   0  3  0  0  0  0  0  0  0  0  0  0
  151.1934  142.8409  157.8393 C   0  0  0  0  0  0  0  0  0  0  0  0
  151.1691  143.9833  158.6325 C   0  0  0  0  0  0  0  0  0  0  0  0
  151.8550  143.9173  159.8630 C   0  0  0  0  0  0  0  0  0  0  0  0
  151.8657  145.0023  160.6728 F   0  0  0  0  0  0  0  0  0  0  0  0
  152.5302  142.7452  160.2643 C   0  0  0  0  0  0  0  0  0  0  0  0
  153.1796  142.7247  161.4522 F   0  0  0  0  0  0  0  0  0  0  0  0
  152.5448  141.5917  159.4526 C   0  0  0  0  0  0  0  0  0  0  0  0
  151.8646  141.6653  158.2371 C   0  0  0  0  0  0  0  0  0  0  0  0
  147.6655  137.7196  163.7793 H   0  0  0  0  0  0  0  0  0  0  0  0
  148.2714  136.0682  163.7521 H   0  0  0  0  0  0  0  0  0  0  0  0
  146.5648  136.4083  163.3744 H   0  0  0  0  0  0  0  0  0  0  0  0
  147.0632  134.3894  162.4623 H   0  0  0  0  0  0  0  0  0  0  0  0
  147.0702  132.5197  160.8785 H   0  0  0  0  0  0  0  0  0  0  0  0
  147.8964  132.8358  158.5549 H   0  0  0  0  0  0  0  0  0  0  0  0
  148.7236  135.0548  157.8248 H   0  0  0  0  0  0  0  0  0  0  0  0
  148.1096  138.1253  159.4361 H   0  0  0  0  0  0  0  0  0  0  0  0
  149.7355  137.6442  159.8822 H   0  0  0  0  0  0  0  0  0  0  0  0
  149.1792  139.0421  156.7000 H   0  0  0  0  0  0  0  0  0  0  0  0
  149.8388  139.2334  158.3157 H   0  0  0  0  0  0  0  0  0  0  0  0
  151.5841  137.3411  157.3069 H   0  0  0  0  0  0  0  0  0  0  0  0
  151.5667  138.9886  155.1506 H   0  0  0  0  0  0  0  0  0  0  0  0
  152.5853  139.2648  158.3011 H   0  0  0  0  0  0  0  0  0  0  0  0
  153.1276  139.3314  156.6457 H   0  0  0  0  0  0  0  0  0  0  0  0
  150.6232  140.8362  155.2844 H   0  0  0  0  0  0  0  0  0  0  0  0
  150.6546  144.8830  158.3284 H   0  0  0  0  0  0  0  0  0  0  0  0
  153.0704  140.7045  159.7720 H   0  0  0  0  0  0  0  0  0  0  0  0
  150.0812  143.2309  156.0320 H   0  0  0  0  0  0  0  0  0  0  0  0
  1  2  1  0  0  0  0
  1 26  1  0  0  0  0
  1 27  1  0  0  0  0
  1 28  1  0  0  0  0
  2  3  1  0  0  0  0
  3  8  1  0  0  0  0
  3  4  2  0  0  0  0
  4  5  1  0  0  0  0
  4 29  1  0  0  0  0
  5  6  2  0  0  0  0
  5 30  1  0  0  0  0
  6  7  1  0  0  0  0
  6 31  1  0  0  0  0
  7  8  2  0  0  0  0
  7 32  1  0  0  0  0
  8  9  1  0  0  0  0
  9 10  1  0  0  0  0
  9 33  1  0  0  0  0
  9 34  1  0  0  0  0
 10 11  1  0  0  0  0
 11 12  1  0  0  0  0
 11 35  1  0  0  0  0
 11 36  1  0  0  0  0
 12 13  1  0  0  0  0
 12 14  1  0  0  0  0
 12 37  1  0  0  0  0
 13 38  1  0  0  0  0
 14 15  1  0  0  0  0
 14 39  1  0  0  0  0
 14 40  1  0  0  0  0
 15 25  1  0  0  0  0
 15 16  1  0  0  0  0
 16 17  2  0  0  0  0
 16 41  1  0  0  0  0
 17 18  1  0  0  0  0
 17 44  1  0  0  0  0
 18 25  2  0  0  0  0
 18 19  1  0  0  0  0
 19 20  2  0  0  0  0
 19 42  1  0  0  0  0
 20 21  1  0  0  0  0
 20 22  1  0  0  0  0
 22 23  1  0  0  0  0
 22 24  2  0  0  0  0
 24 25  1  0  0  0  0
 24 43  1  0  0  0  0
M  CHG  1  17   1
M  END
> <s_m_source_file>
AV-unprocessed.smi

> <i_m_source_file_index>
1012

> <i_lp_mmshare_version>
43012

> <i_f3d_flags>
0

> <s_epik_input>
W0NIM11PYzFbY0hdW2NIXVtjSF1bY0hdYzFbQ0gyXU9bQ0gyXVtDQEhdKFtPSF0pW0NIMl1uKFtjSF1uMiljKGMyMylbY0hdYyhGKWMoRilbY0hdMw==

> <s_epik_cmdline>
J2VwaWtfcHl0aG9uJywgJy1waCcsICc3LjAnLCAnLXRuJywgJzgnLCAnLW1hJywgJzIwMCcsICctbWV0YWxfYmluZGluZycsICctaW1hZScsICc8aW5maWxlLm1hZT4nLCAnLW9tYWUnLCAnPG91dGZpbGUubWFlPic=

> <r_lp_tautomer_probability>
1

> <r_epik_Ionization_Penalty>
2.14697

> <r_epik_Ionization_Penalty_Charging>
2.14697

> <r_epik_Ionization_Penalty_Neutral>
1.07667e-06

> <r_epik_State_Penalty>
2.28651

> <r_epik_Charging_Adjusted_Penalty>
4.43348

> <i_epik_Tot_Q>
1

> <i_epik_Tot_abs_Q>
1

> <r_epik_Metal_State_Penalty>
6.36664

> <b_epik_Metal_Only>
0

> <s_lp_Force_Field>
OPLS_2005

> <r_lp_Energy>
25.548

> <b_lp_Chiralities_Consistent>
1

> <s_lp_Variant>
AV-unprocessed.smi:1012-4

> <Gold.Version>
5.8.1

> <Gold.Id.Protein>
6NUR|6NUR_protein|mol2

> <Gold.PLP.Fitness>
59.3889

> <Gold.PLP.PLP>
-51.2914

> <Gold.PLP.part.hbond>
-3.0000

> <Gold.PLP.part.metal>
0.0000

> <Gold.PLP.part.buried>
-5.6283

> <Gold.PLP.part.nonpolar>
-41.5113

> <Gold.PLP.part.repulsive>
0.0890

> <Gold.PLP.ligand.clash>
0.0000

> <Gold.PLP.ligand.torsion>
1.3052

> <Gold.PLP.Chemscore.Hbond>
3.5097

> <Gold.PLP.Chemscore.CHOScore>
0.0000

> <Gold.PLP.Chemscore.Metal>
0.0000

> <Gold.Chemscore.Hbonds>
donor molecule, donor type, donor heavy atom, donor atom, acceptor molecule, acceptor atom, score
      L1  H    17    44       P1  8028  2.00
      P1  H  6931  6943       L1     2  1.00
      P1  H  6934  6947       L1     2  0.05

> <Gold.PLP.Chemscore.Internal.Correction>
0.1789

> <Gold.Rescore>
     Score         DG    S(hbond)    S(metal)    S(lipo)     H(rot)  DE(clash)    DE(int)     intcor
     17.54     -18.86       2.29        0.00     115.35       3.03       0.06       1.25       ----

> <Gold.Chemscore.Fitness>
17.5436

> <Gold.Chemscore.DG>
-18.8592

> <Gold.Chemscore.ZeroCoef>
-5.4800

> <Gold.Chemscore.Hbond>
2.2858

> <Gold.Chemscore.Metal>
0.0000

> <Gold.Chemscore.Lipo>
115.3493

> <Gold.Chemscore.Internal_Hbond>
0.0000

> <Gold.Chemscore.DEClash>
0.0623

> <Gold.Chemscore.DEInternal>
1.2533

> <Gold.Chemscore.Rot>
3.0278

> <Gold.Chemscore.Internal.Correction>
   9.000000E+99

> <Gold.Chemscore.Hbonds>
donor molecule, donor type, donor heavy atom, donor atom, acceptor molecule, acceptor atom, score
      L1  H    17    44       P1  8028  0.98
      P1  H  6931  6943       L1     2  0.40
      P1  H  6934  6947       L1     2  0.06

> <Gold.Chemscore.Hbond.Weighted>
-7.6345

> <Gold.Chemscore.Metal.Weighted>
-0.0000

> <Gold.Chemscore.Lipo.Weighted>
-13.4959

> <Gold.Chemscore.Internal_Hbond.Weighted>
0.0000

> <Gold.Chemscore.DEClash.Weighted>
0.0623

> <Gold.Chemscore.DEInternal.Weighted>
1.2533

> <Gold.Chemscore.Rot.Weighted>
7.7512

> <Gold.Chemscore.Internal.Correction.Weighted>
   9.000000E+99

> <Gold.Protein.RotatedTorsions>
[ 6907 6896 6895 6894 ] final   62.06 input  -60.11 | X-H torsion
[ 7974 7965 7964 7962 ] final  -30.13 input  175.53 | X-H torsion
[ 8008 7997 7996 7995 ] final -147.31 input   59.86 | X-H torsion
[ 10167 10162 10161 10158 ] final   67.67 input  -65.29 | X-H torsion
[ 10718 10713 10712 10709 ] final   92.90 input   66.30 | X-H torsion
[ 10763 10752 10751 10750 ] final   55.09 input  -60.55 | X-H torsion
[ 11005 11000 10999 10996 ] final  -21.11 input  -57.11 | X-H torsion

> <Gold.Protein.ActiveResidues>
 VAL166  LYS551  ARG553  GLY616  TRP617  ASP618  TYR619  PRO620  LYS621  CYS622 
 ASP623  PHE694  ASN695  SER759  ASP760  ASP761  ALA762  ILE779  LEU786  VAL792 
 PHE793  MET794  SER795  GLU796  ALA797  LYS798  CYS799  TRP800  GLU811  SER814 

> <Gold.Protein.RotatedAtoms>
  152.4141  134.6073  160.0016 H   0  0  0  0  0  0  0  0  0  0  0  0  # atno 6907 bound_to 6896
  151.6242  133.3331  159.3102 H   0  0  0  0  0  0  0  0  0  0  0  0  # atno 6908 bound_to 6896
  150.8030  134.7176  159.6684 H   0  0  0  0  0  0  0  0  0  0  0  0  # atno 6909 bound_to 6896
  146.1166  140.5501  142.8754 H   0  0  0  0  0  0  0  0  0  0  0  0  # atno 7974 bound_to 7965
  155.5735  140.0636  157.2801 H   0  0  0  0  0  0  0  0  0  0  0  0  # atno 8008 bound_to 7997
  154.4354  140.1864  156.0950 H   0  0  0  0  0  0  0  0  0  0  0  0  # atno 8009 bound_to 7997
  156.0358  140.3301  155.7193 H   0  0  0  0  0  0  0  0  0  0  0  0  # atno 8010 bound_to 7997
  140.0870  144.5021  150.7124 H   0  0  0  0  0  0  0  0  0  0  0  0  # atno 10167 bound_to 10162
  157.6957  131.0459  150.3953 H   0  0  0  0  0  0  0  0  0  0  0  0  # atno 10718 bound_to 10713
  152.9812  135.5723  154.5009 H   0  0  0  0  0  0  0  0  0  0  0  0  # atno 10763 bound_to 10752
  154.4529  135.2779  155.1770 H   0  0  0  0  0  0  0  0  0  0  0  0  # atno 10764 bound_to 10752
  154.3390  135.6233  153.5641 H   0  0  0  0  0  0  0  0  0  0  0  0  # atno 10765 bound_to 10752
  140.8529  133.7843  155.9987 H   0  0  0  0  0  0  0  0  0  0  0  0  # atno 11005 bound_to 11000
  144.7558  140.5304  143.6770 LP  0  0  0  0  0  0  0  0  0  0  0  0  # atno 17320 bound_to 7965
  145.5555  139.1478  143.3370 LP  0  0  0  0  0  0  0  0  0  0  0  0  # atno 17321 bound_to 7965
  140.7048  143.2460  151.4758 LP  0  0  0  0  0  0  0  0  0  0  0  0  # atno 17342 bound_to 10162
  139.5746  144.1848  152.1885 LP  0  0  0  0  0  0  0  0  0  0  0  0  # atno 17343 bound_to 10162
  156.4352  130.3980  149.6734 LP  0  0  0  0  0  0  0  0  0  0  0  0  # atno 17370 bound_to 10713
  156.3937  130.7640  151.2643 LP  0  0  0  0  0  0  0  0  0  0  0  0  # atno 17371 bound_to 10713
  140.8770  134.2658  157.5163 LP  0  0  0  0  0  0  0  0  0  0  0  0  # atno 17394 bound_to 11000
  139.8704  134.9596  156.4336 LP  0  0  0  0  0  0  0  0  0  0  0  0  # atno 17395 bound_to 11000

$$$$
