#       Name:                AV-unprocessed.smi:1406
#       Creating user name   scv26
#       Creation time:       Fri Mar 27 05:34:58 2020


#       File generated by GOLD software.
#

@<TRIPOS>MOLECULE
AV-unprocessed.smi:1406
    45    47     1
SMALL
NO_CHARGES


@<TRIPOS>ATOM
      1 ****        -2.6919  -3.1611  -0.4847 C.3            1 S1                 0.0000
      2 ****        -2.1774  -1.8230  -1.0530 C.3            1 S1                 0.0000
      3 ****        -0.6969  -1.5670  -0.7285 C.2            1 S1                 0.0000
      4 ****         0.0575  -2.4982  -0.4456 O.2            1 S1                 0.0000
      5 ****        -0.2935  -0.2864  -0.7658 N.am           1 S1                 0.0000
      6 ****         1.0724   0.1754  -0.5263 C.3            1 S1                 0.0000
      7 ****         1.4024   1.4858  -1.2661 C.3            1 S1                 0.0000
      8 ****         2.2436   2.2897  -0.2693 C.3            1 S1                 0.0000
      9 ****         1.6723   1.9038   1.0261 N.4            1 S1                 1.0000
     10 ****         2.3846   2.2947   2.2594 C.3            1 S1                 0.0000
     11 ****         1.4906   1.9444   3.4686 C.3            1 S1                 0.0000
     12 ****         1.0162   0.4733   3.4406 C.3            1 S1                 0.0000
     13 ****         0.4008   0.0922   2.0763 C.3            1 S1                 0.0000
     14 ****         1.3959   0.4582   0.9605 C.3            1 S1                 0.0000
     15 ****        -2.4072  -1.7127  -2.4883 N.pl3          1 S1                 0.0000
     16 ****        -2.9030  -0.7000  -3.2027 C.2            1 S1                 0.0000
     17 ****        -2.9324  -0.9250  -4.5086 N.2            1 S1                 0.0000
     18 ****        -2.3956  -2.1809  -4.5357 C.2            1 S1                 0.0000
     19 ****        -2.0535  -2.6949  -3.3545 N.2            1 S1                 0.0000
     20 ****        -2.5636  -3.2038   0.5976 H              1 S1                 0.0000
     21 ****        -2.1695  -4.0176  -0.9133 H              1 S1                 0.0000
     22 ****        -3.7550  -3.2868  -0.6918 H              1 S1                 0.0000
     23 ****        -2.7534  -1.0291  -0.5748 H              1 S1                 0.0000
     24 ****        -0.9784   0.4163  -1.0041 H              1 S1                 0.0000
     25 ****         1.7663  -0.5877  -0.8852 H              1 S1                 0.0000
     26 ****         1.9218   1.3170  -2.2100 H              1 S1                 0.0000
     27 ****         0.4867   2.0363  -1.4887 H              1 S1                 0.0000
     28 ****         3.2908   1.9865  -0.3163 H              1 S1                 0.0000
     29 ****         2.1845   3.3652  -0.4384 H              1 S1                 0.0000
     30 ****         3.3440   1.7788   2.3204 H              1 S1                 0.0000
     31 ****         2.5918   3.3653   2.2421 H              1 S1                 0.0000
     32 ****         2.0227   2.1481   4.3984 H              1 S1                 0.0000
     33 ****         0.6171   2.5978   3.4676 H              1 S1                 0.0000
     34 ****         1.8655  -0.1797   3.6458 H              1 S1                 0.0000
     35 ****         0.2953   0.2968   4.2394 H              1 S1                 0.0000
     36 ****         0.1797  -0.9752   2.0594 H              1 S1                 0.0000
     37 ****        -0.5445   0.6169   1.9309 H              1 S1                 0.0000
     38 ****         2.3329  -0.0629   1.1693 H              1 S1                 0.0000
     39 ****        -3.2457   0.2232  -2.7589 H              1 S1                 0.0000
     40 ****        -2.2460  -2.7297  -5.4538 H              1 S1                 0.0000
     41 ****         0.7703   2.3568   1.0639 H              1 S1                 0.0000
     42 ****        -0.2908  -3.4353  -0.4249 LP             1 S1                 0.0000
     43 ****         1.0186  -2.3173  -0.2366 LP             1 S1                 0.0000
     44 ****        -3.2540  -0.3443  -5.2565 LP             1 S1                 0.0000
     45 ****        -1.6393  -3.5833  -3.1563 LP             1 S1                 0.0000
@<TRIPOS>BOND
    1    1    2 1     
    2    1   20 1     
    3    1   21 1     
    4    1   22 1     
    5    2    3 1     
    6    2   15 1     
    7    2   23 1     
    8    3    4 2     
    9    3    5 am    
   10    5    6 1     
   11    5   24 1     
   12    6   14 1     
   13    6    7 1     
   14    6   25 1     
   15    7    8 1     
   16    7   26 1     
   17    7   27 1     
   18    8    9 1     
   19    8   28 1     
   20    8   29 1     
   21    9   14 1     
   22    9   10 1     
   23    9   41 1     
   24   10   11 1     
   25   10   30 1     
   26   10   31 1     
   27   11   12 1     
   28   11   32 1     
   29   11   33 1     
   30   12   13 1     
   31   12   34 1     
   32   12   35 1     
   33   13   14 1     
   34   13   36 1     
   35   13   37 1     
   36   14   38 1     
   37   15   19 1     
   38   15   16 1     
   39   16   17 2     
   40   16   39 1     
   41   17   18 1     
   42   18   19 2     
   43   18   40 1     
   44    4   42 1     
   45    4   43 1     
   46   17   44 1     
   47   19   45 1     
@<TRIPOS>SUBSTRUCTURE
      1 S1             1
@<TRIPOS>SET
LONE_PAIRS      STATIC     ATOMS    <user>   **** ""
4 42 43 44 45
DONOR_HYDROGENS      STATIC     ATOMS    <user>   **** ""
2 24 41
ATOM$BLUE        STATIC     ATOMS    COLORGROUP SYSTEM
4 42 43 44 45
ATOM$RED        STATIC     ATOMS    COLORGROUP SYSTEM
2 24 41
