AV-unprocessed.smi:1230|AV-procd|sdf|5155|dock2
  -GOLD-   22720 4223D 1   1.00000     0.00000
 Structure written by MMmdl.
 38 39  0  0  0  0  0  0  0  0  2 V2000
  153.1598  141.3039  160.3468 C   0  0  0  0  0  0  0  0  0  0  0  0
  152.2965  142.5303  160.0082 C   0  0  1  0  0  0  0  0  0  0  0  0
  152.8068  143.7770  160.7585 C   0  0  0  0  0  0  0  0  0  0  0  0
  151.9676  145.0217  160.4338 C   0  0  0  0  0  0  0  0  0  0  0  0
  151.9310  145.2805  158.9215 C   0  0  0  0  0  0  0  0  0  0  0  0
  151.4105  144.0497  158.1650 C   0  0  0  0  0  0  0  0  0  0  0  0
  152.2434  142.7899  158.4853 C   0  0  2  0  0  0  0  0  0  0  0  0
  151.6432  141.6556  157.8718 O   0  0  0  0  0  0  0  0  0  0  0  0
  151.3293  141.8261  156.4980 C   0  0  0  0  0  0  0  0  0  0  0  0
  150.2700  140.7854  156.1089 C   0  0  0  0  0  0  0  0  0  0  0  0
  150.8029  139.4194  156.1910 N   0  0  0  0  0  0  0  0  0  0  0  0
  150.0969  138.4928  156.9768 C   0  0  0  0  0  0  0  0  0  0  0  0
  150.5116  137.2186  157.1096 C   0  0  0  0  0  0  0  0  0  0  0  0
  149.8143  136.2589  157.9008 C   0  0  0  0  0  0  0  0  0  0  0  0
  149.2606  135.4923  158.5690 N   0  0  0  0  0  0  0  0  0  0  0  0
  151.7283  136.8026  156.4162 C   0  0  0  0  0  0  0  0  0  0  0  0
  152.1260  135.6422  156.5135 O   0  0  0  0  0  0  0  0  0  0  0  0
  152.3805  137.7472  155.6762 N   0  5  0  0  0  0  0  0  0  0  0  0
  151.9500  139.0416  155.5509 C   0  0  0  0  0  0  0  0  0  0  0  0
  152.5610  139.8763  154.8832 O   0  0  0  0  0  0  0  0  0  0  0  0
  154.1899  141.4410  160.0165 H   0  0  0  0  0  0  0  0  0  0  0  0
  152.7747  140.4025  159.8696 H   0  0  0  0  0  0  0  0  0  0  0  0
  153.1767  141.1212  161.4216 H   0  0  0  0  0  0  0  0  0  0  0  0
  151.2814  142.3260  160.3523 H   0  0  0  0  0  0  0  0  0  0  0  0
  152.7885  143.5977  161.8340 H   0  0  0  0  0  0  0  0  0  0  0  0
  153.8488  143.9646  160.4959 H   0  0  0  0  0  0  0  0  0  0  0  0
  150.9518  144.8877  160.8081 H   0  0  0  0  0  0  0  0  0  0  0  0
  152.3759  145.8909  160.9502 H   0  0  0  0  0  0  0  0  0  0  0  0
  151.2996  146.1431  158.7068 H   0  0  0  0  0  0  0  0  0  0  0  0
  152.9314  145.5324  158.5674 H   0  0  0  0  0  0  0  0  0  0  0  0
  150.3676  143.8750  158.4329 H   0  0  0  0  0  0  0  0  0  0  0  0
  151.4221  144.2568  157.0953 H   0  0  0  0  0  0  0  0  0  0  0  0
  153.2644  142.9218  158.1212 H   0  0  0  0  0  0  0  0  0  0  0  0
  150.9548  142.8322  156.3093 H   0  0  0  0  0  0  0  0  0  0  0  0
  152.2271  141.6895  155.8932 H   0  0  0  0  0  0  0  0  0  0  0  0
  149.4024  140.8884  156.7620 H   0  0  0  0  0  0  0  0  0  0  0  0
  149.8958  140.9910  155.1046 H   0  0  0  0  0  0  0  0  0  0  0  0
  149.2115  138.8788  157.4606 H   0  0  0  0  0  0  0  0  0  0  0  0
  1  2  1  0  0  0  0
  1 21  1  0  0  0  0
  1 22  1  0  0  0  0
  1 23  1  0  0  0  0
  2  7  1  0  0  0  0
  2  3  1  0  0  0  0
  2 24  1  0  0  0  0
  3  4  1  0  0  0  0
  3 25  1  0  0  0  0
  3 26  1  0  0  0  0
  4  5  1  0  0  0  0
  4 27  1  0  0  0  0
  4 28  1  0  0  0  0
  5  6  1  0  0  0  0
  5 29  1  0  0  0  0
  5 30  1  0  0  0  0
  6  7  1  0  0  0  0
  6 31  1  0  0  0  0
  6 32  1  0  0  0  0
  7  8  1  0  0  0  0
  7 33  1  0  0  0  0
  8  9  1  0  0  0  0
  9 10  1  0  0  0  0
  9 34  1  0  0  0  0
  9 35  1  0  0  0  0
 10 11  1  0  0  0  0
 10 36  1  0  0  0  0
 10 37  1  0  0  0  0
 11 19  1  0  0  0  0
 11 12  1  0  0  0  0
 12 13  2  0  0  0  0
 12 38  1  0  0  0  0
 13 14  1  0  0  0  0
 13 16  1  0  0  0  0
 14 15  3  0  0  0  0
 16 17  2  0  0  0  0
 16 18  1  0  0  0  0
 18 19  1  0  0  0  0
 19 20  2  0  0  0  0
M  CHG  1  18  -1
M  END
> <s_m_source_file>
AV-unprocessed.smi

> <i_m_source_file_index>
1230

> <i_lp_mmshare_version>
43012

> <i_f3d_flags>
0

> <s_epik_input>
W0NIM11bQ0BASF0xW0NIMl1bQ0gyXVtDSDJdW0NIMl1bQ0BIXTFPW0NIMl1bQ0gyXW4yW2NIXWMoQyNOKWMoPU8pW25IXWMyPU8=

> <s_epik_cmdline>
J2VwaWtfcHl0aG9uJywgJy1waCcsICc3LjAnLCAnLXRuJywgJzgnLCAnLW1hJywgJzIwMCcsICctbWV0YWxfYmluZGluZycsICctaW1hZScsICc8aW5maWxlLm1hZT4nLCAnLW9tYWUnLCAnPG91dGZpbGUubWFlPic=

> <r_epik_Ionization_Penalty>
0.400014

> <r_epik_Ionization_Penalty_Charging>
4.81474e-10

> <r_epik_Ionization_Penalty_Neutral>
0.400014

> <r_epik_State_Penalty>
0.399305

> <r_epik_Charging_Adjusted_Penalty>
0.399305

> <i_epik_Tot_Q>
-1

> <i_epik_Tot_abs_Q>
1

> <r_epik_Metal_State_Penalty>
0.00056968

> <b_epik_Metal_Only>
0

> <s_lp_Force_Field>
OPLS_2005

> <r_lp_Energy>
22.5171

> <b_lp_Chiralities_Consistent>
1

> <s_lp_Variant>
AV-unprocessed.smi:1230-4

> <Gold.Version>
5.8.1

> <Gold.Id.Protein>
6NUR|6NUR_protein|mol2

> <Gold.PLP.Fitness>
47.1578

> <Gold.PLP.PLP>
-37.7092

> <Gold.PLP.part.hbond>
-4.0166

> <Gold.PLP.part.metal>
0.0000

> <Gold.PLP.part.buried>
-6.2922

> <Gold.PLP.part.nonpolar>
-27.5442

> <Gold.PLP.part.repulsive>
0.0520

> <Gold.PLP.ligand.clash>
0.0000

> <Gold.PLP.ligand.torsion>
0.1919

> <Gold.PLP.Chemscore.Hbond>
3.2748

> <Gold.PLP.Chemscore.CHOScore>
0.0000

> <Gold.PLP.Chemscore.Metal>
0.0000

> <Gold.Chemscore.Hbonds>
donor molecule, donor type, donor heavy atom, donor atom, acceptor molecule, acceptor atom, score
      P1  H  6896  6909       L1    15  1.00
      P1  H  7989  7998       L1    20  0.56
      P1  H  7997  8008       L1    20  0.62
      P1  H 10752 10764       L1    17  1.00

> <Gold.PLP.Chemscore.Internal.Correction>
0.0083

> <Gold.Rescore>
     Score         DG    S(hbond)    S(metal)    S(lipo)     H(rot)  DE(clash)    DE(int)     intcor
     19.01     -20.50       2.60        0.00      95.62       1.90       0.01       1.47       ----

> <Gold.Chemscore.Fitness>
19.0105

> <Gold.Chemscore.DG>
-20.4954

> <Gold.Chemscore.ZeroCoef>
-5.4800

> <Gold.Chemscore.Hbond>
2.6012

> <Gold.Chemscore.Metal>
0.0000

> <Gold.Chemscore.Lipo>
95.6176

> <Gold.Chemscore.Internal_Hbond>
0.0000

> <Gold.Chemscore.DEClash>
0.0149

> <Gold.Chemscore.DEInternal>
1.4701

> <Gold.Chemscore.Rot>
1.8984

> <Gold.Chemscore.Internal.Correction>
   9.000000E+99

> <Gold.Chemscore.Hbonds>
donor molecule, donor type, donor heavy atom, donor atom, acceptor molecule, acceptor atom, score
      P1  H  6896  6909       L1    15  0.50
      P1  H  7989  7998       L1    20  0.55
      P1  H  7997  8008       L1    20  0.45
      P1  H 10752 10764       L1    17  0.35

> <Gold.Chemscore.Hbond.Weighted>
-8.6879

> <Gold.Chemscore.Metal.Weighted>
-0.0000

> <Gold.Chemscore.Lipo.Weighted>
-11.1873

> <Gold.Chemscore.Internal_Hbond.Weighted>
0.0000

> <Gold.Chemscore.DEClash.Weighted>
0.0149

> <Gold.Chemscore.DEInternal.Weighted>
1.4701

> <Gold.Chemscore.Rot.Weighted>
4.8598

> <Gold.Chemscore.Internal.Correction.Weighted>
   9.000000E+99

> <Gold.Protein.RotatedTorsions>
[ 6907 6896 6895 6894 ] final   49.80 input  -60.11 | X-H torsion
[ 7974 7965 7964 7962 ] final   74.74 input  175.53 | X-H torsion
[ 8008 7997 7996 7995 ] final   -6.78 input   59.86 | X-H torsion
[ 10167 10162 10161 10158 ] final -179.69 input  -65.29 | X-H torsion
[ 10718 10713 10712 10709 ] final  -74.66 input   66.30 | X-H torsion
[ 10763 10752 10751 10750 ] final  -32.82 input  -60.55 | X-H torsion
[ 11005 11000 10999 10996 ] final   43.10 input  -57.11 | X-H torsion

> <Gold.Protein.ActiveResidues>
 VAL166  LYS551  ARG553  GLY616  TRP617  ASP618  TYR619  PRO620  LYS621  CYS622 
 ASP623  PHE694  ASN695  SER759  ASP760  ASP761  ALA762  ILE779  LEU786  VAL792 
 PHE793  MET794  SER795  GLU796  ALA797  LYS798  CYS799  TRP800  GLU811  SER814 

> <Gold.Protein.RotatedAtoms>
  152.2947  134.7680  160.0370 H   0  0  0  0  0  0  0  0  0  0  0  0  # atno 6907 bound_to 6896
  151.8214  133.3390  159.3593 H   0  0  0  0  0  0  0  0  0  0  0  0  # atno 6908 bound_to 6896
  150.7246  134.5499  159.5834 H   0  0  0  0  0  0  0  0  0  0  0  0  # atno 6909 bound_to 6896
  145.7245  139.2660  143.1577 H   0  0  0  0  0  0  0  0  0  0  0  0  # atno 7974 bound_to 7965
  154.5903  140.2424  155.7929 H   0  0  0  0  0  0  0  0  0  0  0  0  # atno 8008 bound_to 7997
  156.2242  140.2988  155.9982 H   0  0  0  0  0  0  0  0  0  0  0  0  # atno 8009 bound_to 7997
  155.2385  140.0406  157.2962 H   0  0  0  0  0  0  0  0  0  0  0  0  # atno 8010 bound_to 7997
  139.5375  144.2456  152.0825 H   0  0  0  0  0  0  0  0  0  0  0  0  # atno 10167 bound_to 10162
  156.0235  130.4422  150.2926 H   0  0  0  0  0  0  0  0  0  0  0  0  # atno 10718 bound_to 10713
  153.8201  135.6875  153.4828 H   0  0  0  0  0  0  0  0  0  0  0  0  # atno 10763 bound_to 10752
  153.1574  135.4593  154.9723 H   0  0  0  0  0  0  0  0  0  0  0  0  # atno 10764 bound_to 10752
  154.7931  135.3309  154.7674 H   0  0  0  0  0  0  0  0  0  0  0  0  # atno 10765 bound_to 10752
  140.1676  134.4262  155.8277 H   0  0  0  0  0  0  0  0  0  0  0  0  # atno 11005 bound_to 11000
  146.0595  140.7985  142.9742 LP  0  0  0  0  0  0  0  0  0  0  0  0  # atno 17320 bound_to 7965
  144.6908  140.3175  143.7238 LP  0  0  0  0  0  0  0  0  0  0  0  0  # atno 17321 bound_to 7965
  140.1929  144.4734  150.6470 LP  0  0  0  0  0  0  0  0  0  0  0  0  # atno 17342 bound_to 10162
  140.6589  143.2246  151.5904 LP  0  0  0  0  0  0  0  0  0  0  0  0  # atno 17343 bound_to 10162
  157.1029  131.0200  151.3078 LP  0  0  0  0  0  0  0  0  0  0  0  0  # atno 17370 bound_to 10713
  157.4765  130.7740  149.7373 LP  0  0  0  0  0  0  0  0  0  0  0  0  # atno 17371 bound_to 10713
  141.2215  133.6941  156.7706 LP  0  0  0  0  0  0  0  0  0  0  0  0  # atno 17394 bound_to 11000
  140.2415  134.8610  157.3578 LP  0  0  0  0  0  0  0  0  0  0  0  0  # atno 17395 bound_to 11000

$$$$
