#       Name:                AV-unprocessed.smi:3193
#       Creating user name   scv26
#       Creation time:       Fri Mar 27 18:04:26 2020


#       File generated by GOLD software.
#

@<TRIPOS>MOLECULE
AV-unprocessed.smi:3193
    41    42     1
SMALL
NO_CHARGES


@<TRIPOS>ATOM
      1 ****        -3.5829  -0.3109  -1.1018 C.3            1 S1                 0.0000
      2 ****        -2.7951   0.5655  -0.1066 C.3            1 S1                 0.0000
      3 ****        -3.3206   2.0167  -0.0898 C.3            1 S1                 0.0000
      4 ****        -2.9225   2.7982  -1.3532 C.3            1 S1                 0.0000
      5 ****        -1.4024   2.7697  -1.5676 C.3            1 S1                 0.0000
      6 ****        -0.8648   1.3300  -1.5974 C.3            1 S1                 0.0000
      7 ****        -1.2575   0.5504  -0.3218 C.3            1 S1                 0.0000
      8 ****        -0.6705  -0.8754  -0.3014 C.3            1 S1                 0.0000
      9 ****         0.7998  -0.8581  -0.1643 N.4            1 S1                 1.0000
     10 ****         1.4138  -2.2014  -0.1301 C.3            1 S1                 0.0000
     11 ****         2.9463  -2.1294  -0.0224 C.3            1 S1                 0.0000
     12 ****         3.4039  -1.5665   1.2534 N.pl3          1 S1                 0.0000
     13 ****         3.2641  -2.1165   2.5025 C.2            1 S1                 0.0000
     14 ****         3.8600  -1.2491   3.3815 C.2            1 S1                 0.0000
     15 ****         4.3456  -0.2112   2.6325 N.pl3          1 S1                 1.0000
     16 ****         4.0720  -0.4079   1.3385 C.2            1 S1                 0.0000
     17 ****        -3.4168  -0.0118  -2.1362 H              1 S1                 0.0000
     18 ****        -4.6544  -0.2448  -0.9117 H              1 S1                 0.0000
     19 ****        -3.3115  -1.3626  -1.0133 H              1 S1                 0.0000
     20 ****        -2.9900   0.1504   0.8833 H              1 S1                 0.0000
     21 ****        -4.4049   2.0250   0.0267 H              1 S1                 0.0000
     22 ****        -2.9221   2.5318   0.7853 H              1 S1                 0.0000
     23 ****        -3.4251   2.3792  -2.2253 H              1 S1                 0.0000
     24 ****        -3.2651   3.8301  -1.2722 H              1 S1                 0.0000
     25 ****        -1.1492   3.2809  -2.4969 H              1 S1                 0.0000
     26 ****        -0.9124   3.3253  -0.7672 H              1 S1                 0.0000
     27 ****        -1.2393   0.8170  -2.4836 H              1 S1                 0.0000
     28 ****         0.2198   1.3612  -1.7032 H              1 S1                 0.0000
     29 ****        -0.8246   1.0831   0.5271 H              1 S1                 0.0000
     30 ****        -1.0862  -1.4341   0.5384 H              1 S1                 0.0000
     31 ****        -0.9403  -1.4137  -1.2110 H              1 S1                 0.0000
     32 ****         1.1840  -0.3468  -0.9461 H              1 S1                 0.0000
     33 ****         0.9996  -2.7735   0.7013 H              1 S1                 0.0000
     34 ****         1.1432  -2.7317  -1.0441 H              1 S1                 0.0000
     35 ****         3.3723  -3.1303  -0.1030 H              1 S1                 0.0000
     36 ****         3.3647  -1.5410  -0.8407 H              1 S1                 0.0000
     37 ****         2.7660  -3.0607   2.6712 H              1 S1                 0.0000
     38 ****         3.9769  -1.2935   4.4548 H              1 S1                 0.0000
     39 ****         4.3422   0.2419   0.5249 H              1 S1                 0.0000
     40 ****         1.0339  -0.3714   0.6891 H              1 S1                 0.0000
     41 ****         4.8486   0.5867   3.0017 H              1 S1                 0.0000
@<TRIPOS>BOND
    1    1    2 1     
    2    1   17 1     
    3    1   18 1     
    4    1   19 1     
    5    2    7 1     
    6    2    3 1     
    7    2   20 1     
    8    3    4 1     
    9    3   21 1     
   10    3   22 1     
   11    4    5 1     
   12    4   23 1     
   13    4   24 1     
   14    5    6 1     
   15    5   25 1     
   16    5   26 1     
   17    6    7 1     
   18    6   27 1     
   19    6   28 1     
   20    7    8 1     
   21    7   29 1     
   22    8    9 1     
   23    8   30 1     
   24    8   31 1     
   25    9   10 1     
   26    9   32 1     
   27    9   40 1     
   28   10   11 1     
   29   10   33 1     
   30   10   34 1     
   31   11   12 1     
   32   11   35 1     
   33   11   36 1     
   34   12   16 1     
   35   12   13 1     
   36   13   14 2     
   37   13   37 1     
   38   14   15 1     
   39   14   38 1     
   40   15   16 2     
   41   15   41 1     
   42   16   39 1     
@<TRIPOS>SUBSTRUCTURE
      1 S1             1
@<TRIPOS>SET
DONOR_HYDROGENS      STATIC     ATOMS    <user>   **** ""
3 32 40 41
ATOM$RED        STATIC     ATOMS    COLORGROUP SYSTEM
3 32 40 41
