#       Name:                AV-unprocessed.smi:44
#       Creating user name   scv26
#       Creation time:       Thu Mar 26 16:26:00 2020


#       File generated by GOLD software.
#

@<TRIPOS>MOLECULE
AV-unprocessed.smi:44
    37    39     1
SMALL
NO_CHARGES


@<TRIPOS>ATOM
      1 ****        -4.0785   3.2756  -1.3901 O.2            1 S1                 0.0000
      2 ****        -3.4086   2.8588  -0.4472 C.2            1 S1                 0.0000
      3 ****        -3.6972   3.0599   0.8783 N.pl3          1 S1                -1.0000
      4 ****        -2.8535   2.5337   1.8547 C.2            1 S1                 0.0000
      5 ****        -1.7782   1.8434   1.6787 N.2            1 S1                 0.0000
      6 ****        -1.4662   1.6260   0.3525 C.2            1 S1                 0.0000
      7 ****        -2.1774   2.0677  -0.7303 C.2            1 S1                 0.0000
      8 ****        -1.5787   1.6711  -1.9200 N.2            1 S1                 0.0000
      9 ****        -0.5138   0.9955  -1.4863 C.2            1 S1                 0.0000
     10 ****        -0.3797   0.9178  -0.1447 N.pl3          1 S1                 0.0000
     11 ****         0.6950   0.2444   0.6512 C.3            1 S1                 0.0000
     12 ****         0.1321  -1.0139   1.3297 C.3            1 S1                 0.0000
     13 ****         1.0927  -2.0907   0.8651 C.3            1 S1                 0.0000
     14 ****         1.5341  -1.5630  -0.4971 C.3            1 S1                 0.0000
     15 ****         2.8491  -2.1793  -0.9957 C.3            1 S1                 0.0000
     16 ****         2.9922  -1.9594  -2.3827 O.3            1 S1                 0.0000
     17 ****         1.7067  -0.1789  -0.2160 O.3            1 S1                 0.0000
     18 ****         1.0539   1.0094   1.3406 H              1 S1                 0.0000
     19 ****         0.7297  -1.7082  -1.2211 H              1 S1                 0.0000
     20 ****        -3.2024   2.7713   2.8628 H              1 S1                 0.0000
     21 ****         0.1886   0.5435  -2.1707 H              1 S1                 0.0000
     22 ****         0.1122  -0.8966   2.4134 H              1 S1                 0.0000
     23 ****        -0.8802  -1.2193   0.9765 H              1 S1                 0.0000
     24 ****         1.9442  -2.1485   1.5447 H              1 S1                 0.0000
     25 ****         0.6308  -3.0769   0.8109 H              1 S1                 0.0000
     26 ****         3.7065  -1.7768  -0.4554 H              1 S1                 0.0000
     27 ****         2.8415  -3.2577  -0.8347 H              1 S1                 0.0000
     28 ****         3.8049  -2.3489  -2.6660 H              1 S1                 0.0000
     29 ****        -3.7945   3.0823  -2.3293 LP             1 S1                 0.0000
     30 ****        -4.9073   3.8079  -1.2179 LP             1 S1                 0.0000
     31 ****        -4.5085   3.5812   1.1427 LP             1 S1                 0.0000
     32 ****        -1.2218   1.4975   2.4341 LP             1 S1                 0.0000
     33 ****        -1.8712   1.8471  -2.8600 LP             1 S1                 0.0000
     34 ****         3.0062  -0.9770  -2.5688 LP             1 S1                 0.0000
     35 ****         2.2281  -2.3803  -2.8715 LP             1 S1                 0.0000
     36 ****         2.5979  -0.0336   0.2137 LP             1 S1                 0.0000
     37 ****         1.6579   0.3438  -1.0672 LP             1 S1                 0.0000
@<TRIPOS>BOND
    1    1    2 2     
    2    2    7 1     
    3    2    3 1     
    4    3    4 1     
    5    4    5 2     
    6    4   20 1     
    7    5    6 1     
    8    6   10 1     
    9    6    7 2     
   10    7    8 1     
   11    8    9 2     
   12    9   10 1     
   13    9   21 1     
   14   10   11 1     
   15   11   18 1     
   16   11   17 1     
   17   11   12 1     
   18   12   13 1     
   19   12   22 1     
   20   12   23 1     
   21   13   14 1     
   22   13   24 1     
   23   13   25 1     
   24   14   19 1     
   25   14   15 1     
   26   14   17 1     
   27   15   16 1     
   28   15   26 1     
   29   15   27 1     
   30   16   28 1     
   31    1   29 1     
   32    1   30 1     
   33    3   31 1     
   34    5   32 1     
   35    8   33 1     
   36   16   34 1     
   37   16   35 1     
   38   17   36 1     
   39   17   37 1     
@<TRIPOS>SUBSTRUCTURE
      1 S1             1
@<TRIPOS>SET
LONE_PAIRS      STATIC     ATOMS    <user>   **** ""
9 29 30 31 32 33 34 35 36 37
DONOR_HYDROGENS      STATIC     ATOMS    <user>   **** ""
1 28
ATOM$BLUE        STATIC     ATOMS    COLORGROUP SYSTEM
9 29 30 31 32 33 34 35 36 37
ATOM$RED        STATIC     ATOMS    COLORGROUP SYSTEM
1 28
