AV-unprocessed.smi:1274|AV-procd|sdf|5340|dock1
  -GOLD-   22720 4473D 1   1.00000     0.00000
 Structure written by MMmdl.
 37 38  0  0  0  0  0  0  0  0  1 V2000
  155.2965  138.9831  158.9024 O   0  0  0  0  0  0  0  0  0  0  0  0
  155.9115  139.2491  160.2116 S   0  0  0  0  0  0  0  0  0  0  0  0
  157.3688  139.3988  160.3460 O   0  0  0  0  0  0  0  0  0  0  0  0
  155.1699  140.6391  160.9158 N   0  0  0  0  0  0  0  0  0  0  0  0
  153.8330  141.0531  160.4848 C   0  0  0  0  0  0  0  0  0  0  0  0
  153.3417  142.2892  161.2595 C   0  0  0  0  0  0  0  0  0  0  0  0
  152.5729  143.2654  160.3865 C   0  0  0  0  0  0  0  0  0  0  0  0
  152.5809  143.1416  158.9821 C   0  0  0  0  0  0  0  0  0  0  0  0
  151.8686  144.0830  158.2143 C   0  0  0  0  0  0  0  0  0  0  0  0
  151.1770  145.1109  158.8861 C   0  0  0  0  0  0  0  0  0  0  0  0
  151.1607  145.2386  160.2304 N   0  0  0  0  0  0  0  0  0  0  0  0
  151.8443  144.3304  160.9590 C   0  0  0  0  0  0  0  0  0  0  0  0
  155.3613  138.0434  161.3273 N   0  0  0  0  0  0  0  0  0  0  0  0
  155.8068  136.6527  161.0896 C   0  0  0  0  0  0  0  0  0  0  0  0
  154.9872  135.6463  161.9135 C   0  0  0  0  0  0  0  0  0  0  0  0
  155.0168  135.9973  163.4032 C   0  0  0  0  0  0  0  0  0  0  0  0
  154.5129  137.4304  163.5925 C   0  0  0  0  0  0  0  0  0  0  0  0
  155.3302  138.4271  162.7530 C   0  0  0  0  0  0  0  0  0  0  0  0
  155.8199  141.4209  160.9937 H   0  0  0  0  0  0  0  0  0  0  0  0
  153.8709  141.2792  159.4188 H   0  0  0  0  0  0  0  0  0  0  0  0
  153.1395  140.2206  160.6061 H   0  0  0  0  0  0  0  0  0  0  0  0
  152.6931  141.9695  162.0759 H   0  0  0  0  0  0  0  0  0  0  0  0
  154.1779  142.8041  161.7322 H   0  0  0  0  0  0  0  0  0  0  0  0
  153.1268  142.3433  158.5010 H   0  0  0  0  0  0  0  0  0  0  0  0
  151.8540  144.0207  157.1363 H   0  0  0  0  0  0  0  0  0  0  0  0
  150.6222  145.8508  158.3286 H   0  0  0  0  0  0  0  0  0  0  0  0
  151.8159  144.4650  162.0302 H   0  0  0  0  0  0  0  0  0  0  0  0
  155.7178  136.4057  160.0324 H   0  0  0  0  0  0  0  0  0  0  0  0
  156.8653  136.5730  161.3407 H   0  0  0  0  0  0  0  0  0  0  0  0
  153.9559  135.6366  161.5581 H   0  0  0  0  0  0  0  0  0  0  0  0
  155.3758  134.6393  161.7606 H   0  0  0  0  0  0  0  0  0  0  0  0
  154.3979  135.3002  163.9688 H   0  0  0  0  0  0  0  0  0  0  0  0
  156.0328  135.9041  163.7889 H   0  0  0  0  0  0  0  0  0  0  0  0
  153.4616  137.4894  163.3077 H   0  0  0  0  0  0  0  0  0  0  0  0
  154.5634  137.7056  164.6464 H   0  0  0  0  0  0  0  0  0  0  0  0
  156.3539  138.4880  163.1249 H   0  0  0  0  0  0  0  0  0  0  0  0
  154.8978  139.4225  162.8551 H   0  0  0  0  0  0  0  0  0  0  0  0
  1  2  2  0  0  0  0
  2  3  2  0  0  0  0
  2  4  1  0  0  0  0
  2 13  1  0  0  0  0
  4  5  1  0  0  0  0
  4 19  1  0  0  0  0
  5  6  1  0  0  0  0
  5 20  1  0  0  0  0
  5 21  1  0  0  0  0
  6  7  1  0  0  0  0
  6 22  1  0  0  0  0
  6 23  1  0  0  0  0
  7 12  1  0  0  0  0
  7  8  2  0  0  0  0
  8  9  1  0  0  0  0
  8 24  1  0  0  0  0
  9 10  2  0  0  0  0
  9 25  1  0  0  0  0
 10 11  1  0  0  0  0
 10 26  1  0  0  0  0
 11 12  2  0  0  0  0
 12 27  1  0  0  0  0
 13 18  1  0  0  0  0
 13 14  1  0  0  0  0
 14 15  1  0  0  0  0
 14 28  1  0  0  0  0
 14 29  1  0  0  0  0
 15 16  1  0  0  0  0
 15 30  1  0  0  0  0
 15 31  1  0  0  0  0
 16 17  1  0  0  0  0
 16 32  1  0  0  0  0
 16 33  1  0  0  0  0
 17 18  1  0  0  0  0
 17 34  1  0  0  0  0
 17 35  1  0  0  0  0
 18 36  1  0  0  0  0
 18 37  1  0  0  0  0
M  END
> <s_m_source_file>
AV-unprocessed.smi

> <i_m_source_file_index>
1274

> <i_lp_mmshare_version>
43012

> <i_f3d_flags>
0

> <s_epik_input>
W0NIMl0xW0NIMl1bQ0gyXVtDSDJdW0NIMl1OMVMoPU8pKD1PKVtOSF1bQ0gyXVtDSDJdYzJbY0hdW2NIXVtjSF1uW2NIXTI=

> <s_epik_cmdline>
J2VwaWtfcHl0aG9uJywgJy1waCcsICc3LjAnLCAnLXRuJywgJzgnLCAnLW1hJywgJzIwMCcsICctbWV0YWxfYmluZGluZycsICctaW1hZScsICc8aW5maWxlLm1hZT4nLCAnLW9tYWUnLCAnPG91dGZpbGUubWFlPic=

> <r_epik_Ionization_Penalty>
0.0259724

> <r_epik_Ionization_Penalty_Charging>
0

> <r_epik_Ionization_Penalty_Neutral>
0.0259724

> <r_epik_State_Penalty>
0.0167858

> <r_epik_Charging_Adjusted_Penalty>
0.0167858

> <i_epik_Tot_Q>
0

> <i_epik_Tot_abs_Q>
0

> <r_epik_Metal_State_Penalty>
0.268382

> <b_epik_Metal_Only>
0

> <s_lp_Force_Field>
OPLS_2005

> <r_lp_Energy>
7.33886

> <b_lp_Chiralities_Consistent>
1

> <s_lp_Variant>
AV-unprocessed.smi:1274-1

> <Gold.Version>
5.8.1

> <Gold.Id.Protein>
6NUR|6NUR_protein|mol2

> <Gold.PLP.Fitness>
42.1805

> <Gold.PLP.PLP>
-41.0862

> <Gold.PLP.part.hbond>
-1.3183

> <Gold.PLP.part.metal>
0.0000

> <Gold.PLP.part.buried>
-5.0639

> <Gold.PLP.part.nonpolar>
-34.7823

> <Gold.PLP.part.repulsive>
0.2293

> <Gold.PLP.ligand.clash>
0.0000

> <Gold.PLP.ligand.torsion>
1.3681

> <Gold.PLP.Chemscore.Hbond>
1.0000

> <Gold.PLP.Chemscore.CHOScore>
0.0000

> <Gold.PLP.Chemscore.Metal>
0.0000

> <Gold.Chemscore.Hbonds>
donor molecule, donor type, donor heavy atom, donor atom, acceptor molecule, acceptor atom, score
      P1  H  7997  8010       L1     1  1.00
      L1  C    10    26       P1  8029  0.09

> <Gold.PLP.Chemscore.Internal.Correction>
0.8306

> <Gold.Rescore>
     Score         DG    S(hbond)    S(metal)    S(lipo)     H(rot)  DE(clash)    DE(int)     intcor
     17.01     -18.32       0.99        0.00     118.49       1.69       0.04       1.27       ----

> <Gold.Chemscore.Fitness>
17.0142

> <Gold.Chemscore.DG>
-18.3231

> <Gold.Chemscore.ZeroCoef>
-5.4800

> <Gold.Chemscore.Hbond>
0.9893

> <Gold.Chemscore.Metal>
0.0000

> <Gold.Chemscore.Lipo>
118.4862

> <Gold.Chemscore.Internal_Hbond>
0.0000

> <Gold.Chemscore.DEClash>
0.0358

> <Gold.Chemscore.DEInternal>
1.2731

> <Gold.Chemscore.Rot>
1.6891

> <Gold.Chemscore.Internal.Correction>
   9.000000E+99

> <Gold.Chemscore.Hbonds>
donor molecule, donor type, donor heavy atom, donor atom, acceptor molecule, acceptor atom, score
      P1  H  7997  8010       L1     1  1.00

> <Gold.Chemscore.Hbond.Weighted>
-3.3044

> <Gold.Chemscore.Metal.Weighted>
-0.0000

> <Gold.Chemscore.Lipo.Weighted>
-13.8629

> <Gold.Chemscore.Internal_Hbond.Weighted>
0.0000

> <Gold.Chemscore.DEClash.Weighted>
0.0358

> <Gold.Chemscore.DEInternal.Weighted>
1.2731

> <Gold.Chemscore.Rot.Weighted>
4.3241

> <Gold.Chemscore.Internal.Correction.Weighted>
   9.000000E+99

> <Gold.Protein.RotatedTorsions>
[ 6907 6896 6895 6894 ] final    7.17 input  -60.11 | X-H torsion
[ 7974 7965 7964 7962 ] final  -67.56 input  175.53 | X-H torsion
[ 8008 7997 7996 7995 ] final  -11.93 input   59.86 | X-H torsion
[ 10167 10162 10161 10158 ] final  -60.64 input  -65.29 | X-H torsion
[ 10718 10713 10712 10709 ] final  -38.08 input   66.30 | X-H torsion
[ 10763 10752 10751 10750 ] final  -64.04 input  -60.55 | X-H torsion
[ 11005 11000 10999 10996 ] final  -36.45 input  -57.11 | X-H torsion

> <Gold.Protein.ActiveResidues>
 VAL166  LYS551  ARG553  GLY616  TRP617  ASP618  TYR619  PRO620  LYS621  CYS622 
 ASP623  PHE694  ASN695  SER759  ASP760  ASP761  ALA762  ILE779  LEU786  VAL792 
 PHE793  MET794  SER795  GLU796  ALA797  LYS798  CYS799  TRP800  GLU811  SER814 

> <Gold.Protein.RotatedAtoms>
  151.6856  135.0955  160.0223 H   0  0  0  0  0  0  0  0  0  0  0  0  # atno 6907 bound_to 6896
  152.3809  133.6541  159.6169 H   0  0  0  0  0  0  0  0  0  0  0  0  # atno 6908 bound_to 6896
  150.7746  133.9031  159.3388 H   0  0  0  0  0  0  0  0  0  0  0  0  # atno 6909 bound_to 6896
  145.7276  140.9011  143.0597 H   0  0  0  0  0  0  0  0  0  0  0  0  # atno 7974 bound_to 7965
  154.5421  140.2289  155.8624 H   0  0  0  0  0  0  0  0  0  0  0  0  # atno 8008 bound_to 7997
  156.1868  140.3087  155.9216 H   0  0  0  0  0  0  0  0  0  0  0  0  # atno 8009 bound_to 7997
  155.3237  140.0442  157.3031 H   0  0  0  0  0  0  0  0  0  0  0  0  # atno 8010 bound_to 7997
  140.6058  143.2373  151.5825 H   0  0  0  0  0  0  0  0  0  0  0  0  # atno 10167 bound_to 10162
  156.3078  130.4248  149.8080 H   0  0  0  0  0  0  0  0  0  0  0  0  # atno 10718 bound_to 10713
  154.3241  135.6190  153.5521 H   0  0  0  0  0  0  0  0  0  0  0  0  # atno 10763 bound_to 10752
  152.9817  135.5731  154.5036 H   0  0  0  0  0  0  0  0  0  0  0  0  # atno 10764 bound_to 10752
  154.4710  135.2859  155.1619 H   0  0  0  0  0  0  0  0  0  0  0  0  # atno 10765 bound_to 10752
  140.9875  133.7022  156.1792 H   0  0  0  0  0  0  0  0  0  0  0  0  # atno 11005 bound_to 11000
  144.6901  139.9288  143.7471 LP  0  0  0  0  0  0  0  0  0  0  0  0  # atno 17320 bound_to 7965
  146.0567  139.3563  143.0606 LP  0  0  0  0  0  0  0  0  0  0  0  0  # atno 17321 bound_to 7965
  139.5324  144.2878  152.1176 LP  0  0  0  0  0  0  0  0  0  0  0  0  # atno 17342 bound_to 10162
  140.2068  144.4603  150.6405 LP  0  0  0  0  0  0  0  0  0  0  0  0  # atno 17343 bound_to 10162
  156.5434  130.8310  151.3276 LP  0  0  0  0  0  0  0  0  0  0  0  0  # atno 17370 bound_to 10713
  157.7384  130.9812  150.2248 LP  0  0  0  0  0  0  0  0  0  0  0  0  # atno 17371 bound_to 10713
  140.7091  134.4481  157.5582 LP  0  0  0  0  0  0  0  0  0  0  0  0  # atno 17394 bound_to 11000
  139.8977  134.8630  156.2032 LP  0  0  0  0  0  0  0  0  0  0  0  0  # atno 17395 bound_to 11000

$$$$
