AV-unprocessed.smi:3218|AV-procd|sdf|12293|dock7
  -GOLD-   2272018133D 1   1.00000     0.00000
 Structure written by MMmdl.
 38 39  0  0  0  0  0  0  0  0  2 V2000
  151.1289  142.3426  157.8097 C   0  0  0  0  0  0  0  0  0  0  0  0
  150.6293  141.5724  156.6210 C   0  0  0  0  0  0  0  0  0  0  0  0
  151.2918  140.5279  155.9158 C   0  0  0  0  0  0  0  0  0  0  0  0
  150.5758  140.0522  154.9095 N   0  0  0  0  0  0  0  0  0  0  0  0
  149.4362  140.7753  154.9353 N   0  0  0  0  0  0  0  0  0  0  0  0
  148.3947  140.5188  153.9570 C   0  0  0  0  0  0  0  0  0  0  0  0
  148.0761  139.0211  153.8235 C   0  0  0  0  0  0  0  0  0  0  0  0
  147.9518  138.6124  152.4096 N   0  3  0  0  0  0  0  0  0  0  0  0
  146.5658  138.6018  151.9050 C   0  0  0  0  0  0  0  0  0  0  0  0
  145.6464  137.8009  152.8404 C   0  0  0  0  0  0  0  0  0  0  0  0
  145.1242  136.6036  152.1870 N   0  0  0  0  0  0  0  0  0  0  0  0
  145.7171  136.1081  150.9562 C   0  0  0  0  0  0  0  0  0  0  0  0
  144.7883  134.9761  150.4939 C   0  0  0  0  0  0  0  0  0  0  0  0
  143.8895  134.6569  151.6936 C   0  0  0  0  0  0  0  0  0  0  0  0
  144.1317  135.8251  152.6343 C   0  0  0  0  0  0  0  0  0  0  0  0
  143.4813  136.0014  153.6632 O   0  0  0  0  0  0  0  0  0  0  0  0
  149.4413  141.6993  155.9586 C   0  0  0  0  0  0  0  0  0  0  0  0
  152.2182  142.3656  157.8480 H   0  0  0  0  0  0  0  0  0  0  0  0
  150.7835  141.9039  158.7459 H   0  0  0  0  0  0  0  0  0  0  0  0
  150.7874  143.3778  157.7934 H   0  0  0  0  0  0  0  0  0  0  0  0
  152.2665  140.1029  156.1055 H   0  0  0  0  0  0  0  0  0  0  0  0
  147.4996  141.0588  154.2679 H   0  0  0  0  0  0  0  0  0  0  0  0
  148.6937  140.9400  152.9959 H   0  0  0  0  0  0  0  0  0  0  0  0
  148.8517  138.4286  154.3110 H   0  0  0  0  0  0  0  0  0  0  0  0
  147.1383  138.8019  154.3352 H   0  0  0  0  0  0  0  0  0  0  0  0
  148.4987  139.2440  151.8422 H   0  0  0  0  0  0  0  0  0  0  0  0
  146.2146  139.6306  151.8154 H   0  0  0  0  0  0  0  0  0  0  0  0
  146.5509  138.1668  150.9049 H   0  0  0  0  0  0  0  0  0  0  0  0
  146.1909  137.5118  153.7404 H   0  0  0  0  0  0  0  0  0  0  0  0
  144.8119  138.4210  153.1718 H   0  0  0  0  0  0  0  0  0  0  0  0
  145.7976  136.8962  150.2066 H   0  0  0  0  0  0  0  0  0  0  0  0
  146.7190  135.7304  151.1646 H   0  0  0  0  0  0  0  0  0  0  0  0
  144.1781  135.3112  149.6542 H   0  0  0  0  0  0  0  0  0  0  0  0
  145.3512  134.1032  150.1618 H   0  0  0  0  0  0  0  0  0  0  0  0
  142.8383  134.5818  151.4132 H   0  0  0  0  0  0  0  0  0  0  0  0
  144.1903  133.7291  152.1815 H   0  0  0  0  0  0  0  0  0  0  0  0
  148.6072  142.3642  156.1298 H   0  0  0  0  0  0  0  0  0  0  0  0
  148.3356  137.6823  152.3147 H   0  0  0  0  0  0  0  0  0  0  0  0
  1  2  1  0  0  0  0
  1 18  1  0  0  0  0
  1 19  1  0  0  0  0
  1 20  1  0  0  0  0
  2 17  2  0  0  0  0
  2  3  1  0  0  0  0
  3  4  2  0  0  0  0
  3 21  1  0  0  0  0
  4  5  1  0  0  0  0
  5  6  1  0  0  0  0
  5 17  1  0  0  0  0
  6  7  1  0  0  0  0
  6 22  1  0  0  0  0
  6 23  1  0  0  0  0
  7  8  1  0  0  0  0
  7 24  1  0  0  0  0
  7 25  1  0  0  0  0
  8  9  1  0  0  0  0
  8 26  1  0  0  0  0
  8 38  1  0  0  0  0
  9 10  1  0  0  0  0
  9 27  1  0  0  0  0
  9 28  1  0  0  0  0
 10 11  1  0  0  0  0
 10 29  1  0  0  0  0
 10 30  1  0  0  0  0
 11 15  1  0  0  0  0
 11 12  1  0  0  0  0
 12 13  1  0  0  0  0
 12 31  1  0  0  0  0
 12 32  1  0  0  0  0
 13 14  1  0  0  0  0
 13 33  1  0  0  0  0
 13 34  1  0  0  0  0
 14 15  1  0  0  0  0
 14 35  1  0  0  0  0
 14 36  1  0  0  0  0
 15 16  2  0  0  0  0
 17 37  1  0  0  0  0
M  CHG  1   8   1
M  END
> <s_m_source_file>
AV-unprocessed.smi

> <i_m_source_file_index>
3218

> <i_lp_mmshare_version>
43012

> <i_f3d_flags>
0

> <s_epik_input>
W0NIM11jMVtjSF1ubihbY0hdMSlbQ0gyXVtDSDJdW05IXVtDSDJdW0NIMl1OMltDSDJdW0NIMl1bQ0gyXUMyPU8=

> <s_epik_cmdline>
J2VwaWtfcHl0aG9uJywgJy1waCcsICc3LjAnLCAnLXRuJywgJzgnLCAnLW1hJywgJzIwMCcsICctbWV0YWxfYmluZGluZycsICctaW1hZScsICc8aW5maWxlLm1hZT4nLCAnLW9tYWUnLCAnPG91dGZpbGUubWFlPic=

> <r_lp_tautomer_probability>
1

> <r_epik_Ionization_Penalty>
0.00826456

> <r_epik_Ionization_Penalty_Charging>
0.00825899

> <r_epik_Ionization_Penalty_Neutral>
5.57245e-06

> <r_epik_State_Penalty>
0.00621436

> <r_epik_Charging_Adjusted_Penalty>
0.0144734

> <i_epik_Tot_Q>
1

> <i_epik_Tot_abs_Q>
1

> <r_epik_Metal_State_Penalty>
0.00623755

> <b_epik_Metal_Only>
0

> <s_lp_Force_Field>
OPLS_2005

> <r_lp_Energy>
17.5309

> <b_lp_Chiralities_Consistent>
1

> <s_lp_Variant>
AV-unprocessed.smi:3218-1

> <Gold.Version>
5.8.1

> <Gold.Id.Protein>
6NUR|6NUR_protein|mol2

> <Gold.PLP.Fitness>
46.5446

> <Gold.PLP.PLP>
-35.0840

> <Gold.PLP.part.hbond>
-2.8391

> <Gold.PLP.part.metal>
0.0000

> <Gold.PLP.part.buried>
-2.3820

> <Gold.PLP.part.nonpolar>
-31.4028

> <Gold.PLP.part.repulsive>
0.1985

> <Gold.PLP.ligand.clash>
0.0000

> <Gold.PLP.ligand.torsion>
1.2284

> <Gold.PLP.Chemscore.Hbond>
3.7438

> <Gold.PLP.Chemscore.CHOScore>
0.8784

> <Gold.PLP.Chemscore.Metal>
0.0000

> <Gold.Chemscore.Hbonds>
donor molecule, donor type, donor heavy atom, donor atom, acceptor molecule, acceptor atom, score
      L1  H     8    26       P1  7957  0.93
      L1  H     8    38       P1  7948  2.00
      P1  H  7989  7998       L1     4  0.80
      L1  C    17    37       P1  8028  0.79

> <Gold.PLP.Chemscore.Internal.Correction>
0.0509

> <Gold.Rescore>
     Score         DG    S(hbond)    S(metal)    S(lipo)     H(rot)  DE(clash)    DE(int)     intcor
     16.02     -17.05       2.66        0.00      67.47       2.03       0.02       1.00       ----

> <Gold.Chemscore.Fitness>
16.0238

> <Gold.Chemscore.DG>
-17.0529

> <Gold.Chemscore.ZeroCoef>
-5.4800

> <Gold.Chemscore.Hbond>
2.6588

> <Gold.Chemscore.Metal>
0.0000

> <Gold.Chemscore.Lipo>
67.4717

> <Gold.Chemscore.Internal_Hbond>
0.0000

> <Gold.Chemscore.DEClash>
0.0243

> <Gold.Chemscore.DEInternal>
1.0047

> <Gold.Chemscore.Rot>
2.0319

> <Gold.Chemscore.Internal.Correction>
   9.000000E+99

> <Gold.Chemscore.Hbonds>
donor molecule, donor type, donor heavy atom, donor atom, acceptor molecule, acceptor atom, score
      L1  H     8    26       P1  7957  0.88
      L1  H     8    38       P1  7948  0.99
      P1  H  7989  7998       L1     4  0.05

> <Gold.Chemscore.Hbond.Weighted>
-8.8804

> <Gold.Chemscore.Metal.Weighted>
-0.0000

> <Gold.Chemscore.Lipo.Weighted>
-7.8942

> <Gold.Chemscore.Internal_Hbond.Weighted>
0.0000

> <Gold.Chemscore.DEClash.Weighted>
0.0243

> <Gold.Chemscore.DEInternal.Weighted>
1.0047

> <Gold.Chemscore.Rot.Weighted>
5.2017

> <Gold.Chemscore.Internal.Correction.Weighted>
   9.000000E+99

> <Gold.Protein.RotatedTorsions>
[ 6907 6896 6895 6894 ] final  107.49 input  -60.11 | X-H torsion
[ 7974 7965 7964 7962 ] final  -86.17 input  175.53 | X-H torsion
[ 8008 7997 7996 7995 ] final   97.77 input   59.86 | X-H torsion
[ 10167 10162 10161 10158 ] final -176.26 input  -65.29 | X-H torsion
[ 10718 10713 10712 10709 ] final   97.32 input   66.30 | X-H torsion
[ 10763 10752 10751 10750 ] final  -36.17 input  -60.55 | X-H torsion
[ 11005 11000 10999 10996 ] final   31.76 input  -57.11 | X-H torsion

> <Gold.Protein.ActiveResidues>
 VAL166  LYS551  ARG553  GLY616  TRP617  ASP618  TYR619  PRO620  LYS621  CYS622 
 ASP623  PHE694  ASN695  SER759  ASP760  ASP761  ALA762  ILE779  LEU786  VAL792 
 PHE793  MET794  SER795  GLU796  ALA797  LYS798  CYS799  TRP800  GLU811  SER814 

> <Gold.Protein.RotatedAtoms>
  152.5152  133.9226  159.7541 H   0  0  0  0  0  0  0  0  0  0  0  0  # atno 6907 bound_to 6896
  150.9595  133.6453  159.2764 H   0  0  0  0  0  0  0  0  0  0  0  0  # atno 6908 bound_to 6896
  151.3703  135.0926  159.9516 H   0  0  0  0  0  0  0  0  0  0  0  0  # atno 6909 bound_to 6896
  145.4835  140.9556  143.1851 H   0  0  0  0  0  0  0  0  0  0  0  0  # atno 7974 bound_to 7965
  156.0935  140.3253  155.7847 H   0  0  0  0  0  0  0  0  0  0  0  0  # atno 8008 bound_to 7997
  155.4956  140.0565  157.2964 H   0  0  0  0  0  0  0  0  0  0  0  0  # atno 8009 bound_to 7997
  154.4652  140.1986  156.0152 H   0  0  0  0  0  0  0  0  0  0  0  0  # atno 8010 bound_to 7997
  139.5538  144.2040  152.1124 H   0  0  0  0  0  0  0  0  0  0  0  0  # atno 10167 bound_to 10162
  157.6914  131.0606  150.4626 H   0  0  0  0  0  0  0  0  0  0  0  0  # atno 10718 bound_to 10713
  153.8754  135.6827  153.4771 H   0  0  0  0  0  0  0  0  0  0  0  0  # atno 10763 bound_to 10752
  153.1264  135.4717  154.9276 H   0  0  0  0  0  0  0  0  0  0  0  0  # atno 10764 bound_to 10752
  154.7694  135.3234  154.8171 H   0  0  0  0  0  0  0  0  0  0  0  0  # atno 10765 bound_to 10752
  140.2805  134.2978  155.7802 H   0  0  0  0  0  0  0  0  0  0  0  0  # atno 11005 bound_to 11000
  144.7875  139.6396  143.7127 LP  0  0  0  0  0  0  0  0  0  0  0  0  # atno 17320 bound_to 7965
  146.2327  139.5845  142.9544 LP  0  0  0  0  0  0  0  0  0  0  0  0  # atno 17321 bound_to 7965
  140.1540  144.5088  150.6670 LP  0  0  0  0  0  0  0  0  0  0  0  0  # atno 17342 bound_to 10162
  140.6807  143.2325  151.5391 LP  0  0  0  0  0  0  0  0  0  0  0  0  # atno 17343 bound_to 10162
  156.4969  130.4108  149.6375 LP  0  0  0  0  0  0  0  0  0  0  0  0  # atno 17370 bound_to 10713
  156.3364  130.7359  151.2297 LP  0  0  0  0  0  0  0  0  0  0  0  0  # atno 17371 bound_to 10713
  141.2163  133.7522  156.9473 LP  0  0  0  0  0  0  0  0  0  0  0  0  # atno 17394 bound_to 11000
  140.1288  134.9369  157.2308 LP  0  0  0  0  0  0  0  0  0  0  0  0  # atno 17395 bound_to 11000

$$$$
