AV-unprocessed.smi:1218|AV-procd|sdf|5110|dock1
  -GOLD-   22720 4163D 1   1.00000     0.00000
 Structure written by MMmdl.
 44 45  0  0  0  0  0  0  0  0  1 V2000
  150.2678  144.8338  159.6729 C   0  0  0  0  0  0  0  0  0  0  0  0
  151.7395  144.4166  159.5257 C   0  0  0  0  0  0  0  0  0  0  0  0
  152.2083  144.6565  158.0802 C   0  0  0  0  0  0  0  0  0  0  0  0
  151.9451  142.9464  159.9610 C   0  0  0  0  0  0  0  0  0  0  0  0
  153.1547  142.6816  160.7413 N   0  0  0  0  0  0  0  0  0  0  0  0
  152.8710  142.7287  162.1717 C   0  0  0  0  0  0  0  0  0  0  0  0
  154.1242  142.4505  163.0171 C   0  0  0  0  0  0  0  0  0  0  0  0
  154.6715  141.1907  162.6466 O   0  0  0  0  0  0  0  0  0  0  0  0
  155.0265  141.1209  161.2677 C   0  0  1  0  0  0  0  0  0  0  0  0
  155.6230  139.7344  160.9724 C   0  0  0  0  0  0  0  0  0  0  0  0
  154.8132  138.6672  161.5511 N   0  0  0  0  0  0  0  0  0  0  0  0
  155.0212  138.0944  162.7464 C   0  0  0  0  0  0  0  0  0  0  0  0
  155.9319  138.4299  163.5055 O   0  0  0  0  0  0  0  0  0  0  0  0
  154.0435  136.9735  163.1226 C   0  0  0  0  0  0  0  0  0  0  0  0
  154.7094  135.7176  163.4294 N   0  0  0  0  0  0  0  0  0  0  0  0
  154.5750  134.9283  164.5529 C   0  0  0  0  0  0  0  0  0  0  0  0
  155.3988  133.8511  164.3945 C   0  0  0  0  0  0  0  0  0  0  0  0
  156.0022  134.0713  163.1248 C   0  0  0  0  0  0  0  0  0  0  0  0
  155.5860  135.1874  162.5484 N   0  0  0  0  0  0  0  0  0  0  0  0
  153.7666  141.3942  160.4215 C   0  0  0  0  0  0  0  0  0  0  0  0
  149.6168  144.2220  159.0473 H   0  0  0  0  0  0  0  0  0  0  0  0
  150.1229  145.8757  159.3856 H   0  0  0  0  0  0  0  0  0  0  0  0
  149.9317  144.7308  160.7052 H   0  0  0  0  0  0  0  0  0  0  0  0
  152.3173  145.0653  160.1857 H   0  0  0  0  0  0  0  0  0  0  0  0
  151.6240  144.0670  157.3730 H   0  0  0  0  0  0  0  0  0  0  0  0
  153.2554  144.3902  157.9425 H   0  0  0  0  0  0  0  0  0  0  0  0
  152.1011  145.7058  157.8033 H   0  0  0  0  0  0  0  0  0  0  0  0
  151.0886  142.6544  160.5706 H   0  0  0  0  0  0  0  0  0  0  0  0
  151.9090  142.2890  159.0907 H   0  0  0  0  0  0  0  0  0  0  0  0
  152.4683  143.7066  162.4380 H   0  0  0  0  0  0  0  0  0  0  0  0
  152.1015  141.9961  162.4202 H   0  0  0  0  0  0  0  0  0  0  0  0
  154.8690  143.2357  162.8788 H   0  0  0  0  0  0  0  0  0  0  0  0
  153.8707  142.4310  164.0771 H   0  0  0  0  0  0  0  0  0  0  0  0
  155.7764  141.8848  161.0524 H   0  0  0  0  0  0  0  0  0  0  0  0
  155.7546  139.5918  159.8984 H   0  0  0  0  0  0  0  0  0  0  0  0
  156.6171  139.6632  161.4144 H   0  0  0  0  0  0  0  0  0  0  0  0
  154.0435  138.3279  160.9924 H   0  0  0  0  0  0  0  0  0  0  0  0
  153.4622  137.2750  163.9948 H   0  0  0  0  0  0  0  0  0  0  0  0
  153.3387  136.8183  162.3042 H   0  0  0  0  0  0  0  0  0  0  0  0
  153.9139  135.1987  165.3628 H   0  0  0  0  0  0  0  0  0  0  0  0
  155.5487  133.0315  165.0813 H   0  0  0  0  0  0  0  0  0  0  0  0
  156.7249  133.4570  162.6086 H   0  0  0  0  0  0  0  0  0  0  0  0
  153.0424  140.5927  160.5752 H   0  0  0  0  0  0  0  0  0  0  0  0
  154.0476  141.3677  159.3692 H   0  0  0  0  0  0  0  0  0  0  0  0
  1  2  1  0  0  0  0
  1 21  1  0  0  0  0
  1 22  1  0  0  0  0
  1 23  1  0  0  0  0
  2  3  1  0  0  0  0
  2  4  1  0  0  0  0
  2 24  1  0  0  0  0
  3 25  1  0  0  0  0
  3 26  1  0  0  0  0
  3 27  1  0  0  0  0
  4  5  1  0  0  0  0
  4 28  1  0  0  0  0
  4 29  1  0  0  0  0
  5 20  1  0  0  0  0
  5  6  1  0  0  0  0
  6  7  1  0  0  0  0
  6 30  1  0  0  0  0
  6 31  1  0  0  0  0
  7  8  1  0  0  0  0
  7 32  1  0  0  0  0
  7 33  1  0  0  0  0
  8  9  1  0  0  0  0
  9 10  1  0  0  0  0
  9 20  1  0  0  0  0
  9 34  1  0  0  0  0
 10 11  1  0  0  0  0
 10 35  1  0  0  0  0
 10 36  1  0  0  0  0
 11 12  1  0  0  0  0
 11 37  1  0  0  0  0
 12 13  2  0  0  0  0
 12 14  1  0  0  0  0
 14 15  1  0  0  0  0
 14 38  1  0  0  0  0
 14 39  1  0  0  0  0
 15 19  1  0  0  0  0
 15 16  1  0  0  0  0
 16 17  2  0  0  0  0
 16 40  1  0  0  0  0
 17 18  1  0  0  0  0
 17 41  1  0  0  0  0
 18 19  2  0  0  0  0
 18 42  1  0  0  0  0
 20 43  1  0  0  0  0
 20 44  1  0  0  0  0
M  END
> <s_m_source_file>
AV-unprocessed.smi

> <i_m_source_file_index>
1218

> <i_lp_mmshare_version>
43012

> <i_f3d_flags>
0

> <s_epik_input>
W0NIM11bQ0hdKFtDSDNdKVtDSDJdTjFbQ0gyXVtDSDJdT1tDQEhdKFtDSDJdMSlbQ0gyXVtOSF1DKD1PKVtDSDJdbjJbY0hdW2NIXVtjSF1uMg==

> <s_epik_cmdline>
J2VwaWtfcHl0aG9uJywgJy1waCcsICc3LjAnLCAnLXRuJywgJzgnLCAnLW1hJywgJzIwMCcsICctbWV0YWxfYmluZGluZycsICctaW1hZScsICc8aW5maWxlLm1hZT4nLCAnLW9tYWUnLCAnPG91dGZpbGUubWFlPic=

> <r_lp_tautomer_probability>
1

> <r_epik_Ionization_Penalty>
1.10621

> <r_epik_Ionization_Penalty_Charging>
0

> <r_epik_Ionization_Penalty_Neutral>
1.10621

> <r_epik_State_Penalty>
1.16377

> <r_epik_Charging_Adjusted_Penalty>
1.16377

> <i_epik_Tot_Q>
0

> <i_epik_Tot_abs_Q>
0

> <r_epik_Metal_State_Penalty>
1.16377

> <b_epik_Metal_Only>
0

> <s_lp_Force_Field>
OPLS_2005

> <r_lp_Energy>
27.1639

> <b_lp_Chiralities_Consistent>
1

> <s_lp_Variant>
AV-unprocessed.smi:1218-5

> <Gold.Version>
5.8.1

> <Gold.Id.Protein>
6NUR|6NUR_protein|mol2

> <Gold.PLP.Fitness>
41.2636

> <Gold.PLP.PLP>
-43.8192

> <Gold.PLP.part.hbond>
-1.0000

> <Gold.PLP.part.metal>
0.0000

> <Gold.PLP.part.buried>
-1.0657

> <Gold.PLP.part.nonpolar>
-41.0500

> <Gold.PLP.part.repulsive>
0.0047

> <Gold.PLP.ligand.clash>
0.0000

> <Gold.PLP.ligand.torsion>
1.3721

> <Gold.PLP.Chemscore.Hbond>
0.0000

> <Gold.PLP.Chemscore.CHOScore>
0.0000

> <Gold.PLP.Chemscore.Metal>
0.0000

> <Gold.PLP.Chemscore.Internal.Correction>
0.1887

> <Gold.Rescore>
     Score         DG    S(hbond)    S(metal)    S(lipo)     H(rot)  DE(clash)    DE(int)     intcor
     13.37     -14.23       0.00        0.00     116.29       1.90       0.06       0.80       ----

> <Gold.Chemscore.Fitness>
13.3714

> <Gold.Chemscore.DG>
-14.2291

> <Gold.Chemscore.ZeroCoef>
-5.4800

> <Gold.Chemscore.Hbond>
0.0000

> <Gold.Chemscore.Metal>
0.0000

> <Gold.Chemscore.Lipo>
116.2865

> <Gold.Chemscore.Internal_Hbond>
0.0000

> <Gold.Chemscore.DEClash>
0.0604

> <Gold.Chemscore.DEInternal>
0.7973

> <Gold.Chemscore.Rot>
1.8970

> <Gold.Chemscore.Internal.Correction>
   9.000000E+99

> <Gold.Chemscore.Hbond.Weighted>
-0.0000

> <Gold.Chemscore.Metal.Weighted>
-0.0000

> <Gold.Chemscore.Lipo.Weighted>
-13.6055

> <Gold.Chemscore.Internal_Hbond.Weighted>
0.0000

> <Gold.Chemscore.DEClash.Weighted>
0.0604

> <Gold.Chemscore.DEInternal.Weighted>
0.7973

> <Gold.Chemscore.Rot.Weighted>
4.8564

> <Gold.Chemscore.Internal.Correction.Weighted>
   9.000000E+99

> <Gold.Protein.RotatedTorsions>
[ 6907 6896 6895 6894 ] final -106.90 input  -60.11 | X-H torsion
[ 7974 7965 7964 7962 ] final -148.68 input  175.53 | X-H torsion
[ 8008 7997 7996 7995 ] final -126.04 input   59.86 | X-H torsion
[ 10167 10162 10161 10158 ] final  101.97 input  -65.29 | X-H torsion
[ 10718 10713 10712 10709 ] final  176.86 input   66.30 | X-H torsion
[ 10763 10752 10751 10750 ] final -124.35 input  -60.55 | X-H torsion
[ 11005 11000 10999 10996 ] final  -24.85 input  -57.11 | X-H torsion

> <Gold.Protein.ActiveResidues>
 VAL166  LYS551  ARG553  GLY616  TRP617  ASP618  TYR619  PRO620  LYS621  CYS622 
 ASP623  PHE694  ASN695  SER759  ASP760  ASP761  ALA762  ILE779  LEU786  VAL792 
 PHE793  MET794  SER795  GLU796  ALA797  LYS798  CYS799  TRP800  GLU811  SER814 

> <Gold.Protein.RotatedAtoms>
  150.7414  133.9907  159.3605 H   0  0  0  0  0  0  0  0  0  0  0  0  # atno 6907 bound_to 6896
  151.7854  135.0748  160.0389 H   0  0  0  0  0  0  0  0  0  0  0  0  # atno 6908 bound_to 6896
  152.3245  133.5853  159.5803 H   0  0  0  0  0  0  0  0  0  0  0  0  # atno 6909 bound_to 6896
  144.8014  140.5165  143.5704 H   0  0  0  0  0  0  0  0  0  0  0  0  # atno 7974 bound_to 7965
  155.2232  140.0422  157.2951 H   0  0  0  0  0  0  0  0  0  0  0  0  # atno 8008 bound_to 7997
  154.5936  140.2433  155.7858 H   0  0  0  0  0  0  0  0  0  0  0  0  # atno 8009 bound_to 7997
  156.2275  140.2949  156.0113 H   0  0  0  0  0  0  0  0  0  0  0  0  # atno 8010 bound_to 7997
  139.7391  144.7016  151.0603 H   0  0  0  0  0  0  0  0  0  0  0  0  # atno 10167 bound_to 10162
  156.9138  130.9918  151.3016 H   0  0  0  0  0  0  0  0  0  0  0  0  # atno 10718 bound_to 10713
  154.8722  135.4067  154.3091 H   0  0  0  0  0  0  0  0  0  0  0  0  # atno 10763 bound_to 10752
  153.3938  135.7016  153.6481 H   0  0  0  0  0  0  0  0  0  0  0  0  # atno 10764 bound_to 10752
  153.5252  135.3679  155.2622 H   0  0  0  0  0  0  0  0  0  0  0  0  # atno 10765 bound_to 10752
  140.8883  133.7606  156.0389 H   0  0  0  0  0  0  0  0  0  0  0  0  # atno 11005 bound_to 11000
  145.5543  139.1477  143.3377 LP  0  0  0  0  0  0  0  0  0  0  0  0  # atno 17320 bound_to 7965
  146.2297  140.5680  142.8981 LP  0  0  0  0  0  0  0  0  0  0  0  0  # atno 17321 bound_to 7965
  140.7783  143.4946  150.9849 LP  0  0  0  0  0  0  0  0  0  0  0  0  # atno 17342 bound_to 10162
  139.8635  143.7284  152.3172 LP  0  0  0  0  0  0  0  0  0  0  0  0  # atno 17343 bound_to 10162
  157.5950  130.8471  149.8716 LP  0  0  0  0  0  0  0  0  0  0  0  0  # atno 17370 bound_to 10713
  156.0523  130.3715  150.1172 LP  0  0  0  0  0  0  0  0  0  0  0  0  # atno 17371 bound_to 10713
  140.8377  134.3103  157.5325 LP  0  0  0  0  0  0  0  0  0  0  0  0  # atno 17394 bound_to 11000
  139.8727  134.9399  156.3754 LP  0  0  0  0  0  0  0  0  0  0  0  0  # atno 17395 bound_to 11000

$$$$
