AV-unprocessed.smi:3342|AV-procd|sdf|12888|dock3
  -GOLD-   2272019293D 1   1.00000     0.00000
 Structure written by MMmdl.
 42 43  0  0  0  0  0  0  0  0  2 V2000
  152.6016  141.8711  159.0274 C   0  0  0  0  0  0  0  0  0  0  0  0
  151.3063  141.8448  158.2050 C   0  0  1  0  0  0  0  0  0  0  0  0
  150.9389  143.2555  157.6953 C   0  0  0  0  0  0  0  0  0  0  0  0
  151.0130  144.2821  158.7400 N   0  0  0  0  0  0  0  0  0  0  0  0
  152.0024  145.2143  158.9226 C   0  0  0  0  0  0  0  0  0  0  0  0
  151.6365  145.9636  160.0109 C   0  0  0  0  0  0  0  0  0  0  0  0
  150.4440  145.4537  160.4499 N   0  3  0  0  0  0  0  0  0  0  0  0
  150.0688  144.4283  159.6785 C   0  0  0  0  0  0  0  0  0  0  0  0
  151.4736  140.9100  157.0930 N   0  0  0  0  0  0  0  0  0  0  0  0
  150.6531  140.7817  156.0351 C   0  0  0  0  0  0  0  0  0  0  0  0
  149.6590  141.4945  155.8875 O   0  0  0  0  0  0  0  0  0  0  0  0
  151.0359  139.8447  155.1317 N   0  0  0  0  0  0  0  0  0  0  0  0
  152.2832  139.0622  155.1645 C   0  0  0  0  0  0  0  0  0  0  0  0
  151.9562  137.6306  155.6267 C   0  0  0  0  0  0  0  0  0  0  0  0
  150.8990  136.9752  154.7064 C   0  0  0  0  0  0  0  0  0  0  0  0
  150.4736  135.6026  155.2448 C   0  0  0  0  0  0  0  0  0  0  0  0
  149.6379  134.8847  154.4902 N   0  0  0  0  0  0  0  0  0  0  0  0
  150.8919  135.1934  156.3261 O   0  0  0  0  0  0  0  0  0  0  0  0
  149.6753  137.9043  154.5248 C   0  0  0  0  0  0  0  0  0  0  0  0
  150.1123  139.3231  154.1169 C   0  0  0  0  0  0  0  0  0  0  0  0
  152.5071  142.5345  159.8876 H   0  0  0  0  0  0  0  0  0  0  0  0
  153.4456  142.2188  158.4306 H   0  0  0  0  0  0  0  0  0  0  0  0
  152.8479  140.8779  159.4051 H   0  0  0  0  0  0  0  0  0  0  0  0
  150.5146  141.4898  158.8673 H   0  0  0  0  0  0  0  0  0  0  0  0
  151.6154  143.5585  156.8949 H   0  0  0  0  0  0  0  0  0  0  0  0
  149.9310  143.2668  157.2776 H   0  0  0  0  0  0  0  0  0  0  0  0
  152.8664  145.2783  158.2772 H   0  0  0  0  0  0  0  0  0  0  0  0
  152.1219  146.7999  160.4929 H   0  0  0  0  0  0  0  0  0  0  0  0
  149.1738  143.8416  159.7858 H   0  0  0  0  0  0  0  0  0  0  0  0
  152.2742  140.2961  157.1365 H   0  0  0  0  0  0  0  0  0  0  0  0
  152.7176  139.0390  154.1640 H   0  0  0  0  0  0  0  0  0  0  0  0
  153.0576  139.4871  155.8030 H   0  0  0  0  0  0  0  0  0  0  0  0
  152.8672  137.0308  155.6350 H   0  0  0  0  0  0  0  0  0  0  0  0
  151.5980  137.6617  156.6575 H   0  0  0  0  0  0  0  0  0  0  0  0
  151.3563  136.8352  153.7249 H   0  0  0  0  0  0  0  0  0  0  0  0
  149.3314  133.9745  154.8014 H   0  0  0  0  0  0  0  0  0  0  0  0
  149.3168  135.2557  153.6077 H   0  0  0  0  0  0  0  0  0  0  0  0
  149.0040  137.4955  153.7686 H   0  0  0  0  0  0  0  0  0  0  0  0
  149.0994  137.9605  155.4504 H   0  0  0  0  0  0  0  0  0  0  0  0
  149.2369  139.9588  153.9770 H   0  0  0  0  0  0  0  0  0  0  0  0
  150.6139  139.2977  153.1485 H   0  0  0  0  0  0  0  0  0  0  0  0
  149.9183  145.8024  161.2417 H   0  0  0  0  0  0  0  0  0  0  0  0
  1  2  1  0  0  0  0
  1 21  1  0  0  0  0
  1 22  1  0  0  0  0
  1 23  1  0  0  0  0
  2  3  1  0  0  0  0
  2  9  1  0  0  0  0
  2 24  1  0  0  0  0
  3  4  1  0  0  0  0
  3 25  1  0  0  0  0
  3 26  1  0  0  0  0
  4  8  1  0  0  0  0
  4  5  1  0  0  0  0
  5  6  2  0  0  0  0
  5 27  1  0  0  0  0
  6  7  1  0  0  0  0
  6 28  1  0  0  0  0
  7  8  2  0  0  0  0
  7 42  1  0  0  0  0
  8 29  1  0  0  0  0
  9 10  1  0  0  0  0
  9 30  1  0  0  0  0
 10 11  2  0  0  0  0
 10 12  1  0  0  0  0
 12 20  1  0  0  0  0
 12 13  1  0  0  0  0
 13 14  1  0  0  0  0
 13 31  1  0  0  0  0
 13 32  1  0  0  0  0
 14 15  1  0  0  0  0
 14 33  1  0  0  0  0
 14 34  1  0  0  0  0
 15 16  1  0  0  0  0
 15 19  1  0  0  0  0
 15 35  1  0  0  0  0
 16 17  1  0  0  0  0
 16 18  2  0  0  0  0
 17 36  1  0  0  0  0
 17 37  1  0  0  0  0
 19 20  1  0  0  0  0
 19 38  1  0  0  0  0
 19 39  1  0  0  0  0
 20 40  1  0  0  0  0
 20 41  1  0  0  0  0
M  CHG  1   7   1
M  END
> <s_m_source_file>
AV-unprocessed.smi

> <i_m_source_file_index>
3342

> <i_lp_mmshare_version>
43012

> <i_f3d_flags>
0

> <s_epik_input>
W2NIXTFuW2NIXVtjSF1uMVtDSDJdW0NAQEhdKFtDSDNdKVtOSF1DKD1PKU4yW0NIMl1bQ0gyXVtDSF0oQyg9TylbTkgyXSlbQ0gyXVtDSDJdMg==

> <s_epik_cmdline>
J2VwaWtfcHl0aG9uJywgJy1waCcsICc3LjAnLCAnLXRuJywgJzgnLCAnLW1hJywgJzIwMCcsICctbWV0YWxfYmluZGluZycsICctaW1hZScsICc8aW5maWxlLm1hZT4nLCAnLW9tYWUnLCAnPG91dGZpbGUubWFlPic=

> <r_lp_tautomer_probability>
1

> <r_epik_Ionization_Penalty>
0.254015

> <r_epik_Ionization_Penalty_Charging>
0

> <r_epik_Ionization_Penalty_Neutral>
0.254015

> <r_epik_State_Penalty>
0.245417

> <r_epik_Charging_Adjusted_Penalty>
0.245417

> <i_epik_Tot_Q>
1

> <i_epik_Tot_abs_Q>
1

> <r_epik_Metal_State_Penalty>
0.535589

> <b_epik_Metal_Only>
0

> <s_lp_Force_Field>
OPLS_2005

> <r_lp_Energy>
31.4878

> <b_lp_Chiralities_Consistent>
1

> <s_lp_Variant>
AV-unprocessed.smi:3342-2

> <Gold.Version>
5.8.1

> <Gold.Id.Protein>
6NUR|6NUR_protein|mol2

> <Gold.PLP.Fitness>
44.0529

> <Gold.PLP.PLP>
-42.0731

> <Gold.PLP.part.hbond>
-2.0000

> <Gold.PLP.part.metal>
0.0000

> <Gold.PLP.part.buried>
-3.1626

> <Gold.PLP.part.nonpolar>
-37.5901

> <Gold.PLP.part.repulsive>
0.4312

> <Gold.PLP.ligand.clash>
0.0000

> <Gold.PLP.ligand.torsion>
0.5488

> <Gold.PLP.Chemscore.Hbond>
1.0000

> <Gold.PLP.Chemscore.CHOScore>
0.0000

> <Gold.PLP.Chemscore.Metal>
0.0000

> <Gold.Chemscore.Hbonds>
donor molecule, donor type, donor heavy atom, donor atom, acceptor molecule, acceptor atom, score
      L1  H    17    37       P1  7948  0.95

> <Gold.PLP.Chemscore.Internal.Correction>
0.0775

> <Gold.Rescore>
     Score         DG    S(hbond)    S(metal)    S(lipo)     H(rot)  DE(clash)    DE(int)     intcor
     10.39     -12.49       0.94        0.00      84.28       2.34       0.15       1.95       ----

> <Gold.Chemscore.Fitness>
10.3902

> <Gold.Chemscore.DG>
-12.4874

> <Gold.Chemscore.ZeroCoef>
-5.4800

> <Gold.Chemscore.Hbond>
0.9391

> <Gold.Chemscore.Metal>
0.0000

> <Gold.Chemscore.Lipo>
84.2835

> <Gold.Chemscore.Internal_Hbond>
0.0000

> <Gold.Chemscore.DEClash>
0.1494

> <Gold.Chemscore.DEInternal>
1.9478

> <Gold.Chemscore.Rot>
2.3400

> <Gold.Chemscore.Internal.Correction>
   9.000000E+99

> <Gold.Chemscore.Hbonds>
donor molecule, donor type, donor heavy atom, donor atom, acceptor molecule, acceptor atom, score
      L1  H    17    37       P1  7948  0.21

> <Gold.Chemscore.Hbond.Weighted>
-3.1366

> <Gold.Chemscore.Metal.Weighted>
-0.0000

> <Gold.Chemscore.Lipo.Weighted>
-9.8612

> <Gold.Chemscore.Internal_Hbond.Weighted>
0.0000

> <Gold.Chemscore.DEClash.Weighted>
0.1494

> <Gold.Chemscore.DEInternal.Weighted>
1.9478

> <Gold.Chemscore.Rot.Weighted>
5.9904

> <Gold.Chemscore.Internal.Correction.Weighted>
   9.000000E+99

> <Gold.Protein.RotatedTorsions>
[ 6907 6896 6895 6894 ] final -117.27 input  -60.11 | X-H torsion
[ 7974 7965 7964 7962 ] final   16.05 input  175.53 | X-H torsion
[ 8008 7997 7996 7995 ] final  -58.75 input   59.86 | X-H torsion
[ 10167 10162 10161 10158 ] final  144.38 input  -65.29 | X-H torsion
[ 10718 10713 10712 10709 ] final -146.93 input   66.30 | X-H torsion
[ 10763 10752 10751 10750 ] final -120.71 input  -60.55 | X-H torsion
[ 11005 11000 10999 10996 ] final -138.21 input  -57.11 | X-H torsion

> <Gold.Protein.ActiveResidues>
 VAL166  LYS551  ARG553  GLY616  TRP617  ASP618  TYR619  PRO620  LYS621  CYS622 
 ASP623  PHE694  ASN695  SER759  ASP760  ASP761  ALA762  ILE779  LEU786  VAL792 
 PHE793  MET794  SER795  GLU796  ALA797  LYS798  CYS799  TRP800  GLU811  SER814 

> <Gold.Protein.RotatedAtoms>
  150.8123  133.8400  159.3176 H   0  0  0  0  0  0  0  0  0  0  0  0  # atno 6907 bound_to 6896
  151.6182  135.1032  160.0105 H   0  0  0  0  0  0  0  0  0  0  0  0  # atno 6908 bound_to 6896
  152.4215  133.7083  159.6521 H   0  0  0  0  0  0  0  0  0  0  0  0  # atno 6909 bound_to 6896
  146.2261  139.8805  142.8571 H   0  0  0  0  0  0  0  0  0  0  0  0  # atno 7974 bound_to 7965
  154.4322  140.1077  156.6007 H   0  0  0  0  0  0  0  0  0  0  0  0  # atno 8008 bound_to 7997
  155.5914  140.3492  155.4549 H   0  0  0  0  0  0  0  0  0  0  0  0  # atno 8009 bound_to 7997
  156.0243  140.1246  157.0314 H   0  0  0  0  0  0  0  0  0  0  0  0  # atno 8010 bound_to 7997
  139.4948  144.5976  151.6550 H   0  0  0  0  0  0  0  0  0  0  0  0  # atno 10167 bound_to 10162
  156.4011  130.7934  151.2145 H   0  0  0  0  0  0  0  0  0  0  0  0  # atno 10718 bound_to 10713
  154.8651  135.4193  154.2503 H   0  0  0  0  0  0  0  0  0  0  0  0  # atno 10763 bound_to 10752
  153.3451  135.6996  153.6840 H   0  0  0  0  0  0  0  0  0  0  0  0  # atno 10764 bound_to 10752
  153.5803  135.3574  155.2845 H   0  0  0  0  0  0  0  0  0  0  0  0  # atno 10765 bound_to 10752
  140.8637  134.2137  157.4692 H   0  0  0  0  0  0  0  0  0  0  0  0  # atno 11005 bound_to 11000
  145.2517  141.0046  143.3877 LP  0  0  0  0  0  0  0  0  0  0  0  0  # atno 17320 bound_to 7965
  144.9369  139.4234  143.6468 LP  0  0  0  0  0  0  0  0  0  0  0  0  # atno 17321 bound_to 7965
  140.5618  144.0256  150.6173 LP  0  0  0  0  0  0  0  0  0  0  0  0  # atno 17342 bound_to 10162
  140.3345  143.3057  152.0653 LP  0  0  0  0  0  0  0  0  0  0  0  0  # atno 17343 bound_to 10162
  157.7504  131.0286  150.4057 LP  0  0  0  0  0  0  0  0  0  0  0  0  # atno 17370 bound_to 10713
  156.4337  130.3977  149.6743 LP  0  0  0  0  0  0  0  0  0  0  0  0  # atno 17371 bound_to 10713
  139.8708  134.9742  156.4836 LP  0  0  0  0  0  0  0  0  0  0  0  0  # atno 17394 bound_to 11000
  140.8653  133.8029  155.9307 LP  0  0  0  0  0  0  0  0  0  0  0  0  # atno 17395 bound_to 11000

$$$$
