#       Name:                AV-unprocessed.smi:157
#       Creating user name   scv26
#       Creation time:       Thu Mar 26 18:59:35 2020


#       File generated by GOLD software.
#

@<TRIPOS>MOLECULE
AV-unprocessed.smi:157
    45    47     1
SMALL
NO_CHARGES


@<TRIPOS>ATOM
      1 ****        -4.8107   2.8663  -0.3476 O.3            1 S1                 0.0000
      2 ****        -4.0574   1.6723  -0.3733 C.3            1 S1                 0.0000
      3 ****        -2.5662   1.9862  -0.5650 C.3            1 S1                 0.0000
      4 ****        -1.8704   0.7631  -0.7899 O.3            1 S1                 0.0000
      5 ****        -0.5956   0.9017  -0.2619 C.3            1 S1                 0.0000
      6 ****        -0.0184  -0.4573  -0.0211 N.pl3          1 S1                 0.0000
      7 ****        -0.7030  -1.5646   0.2945 C.2            1 S1                 0.0000
      8 ****         0.0434  -2.6434   0.4609 N.2            1 S1                 0.0000
      9 ****         1.3421  -2.1920   0.2313 C.2            1 S1                 0.0000
     10 ****         1.3263  -0.8362  -0.0643 C.2            1 S1                 0.0000
     11 ****         2.2709   0.1309  -0.3501 N.2            1 S1                 0.0000
     12 ****         3.4407  -0.2610  -0.7464 C.2            1 S1                 0.0000
     13 ****         3.9667  -1.5404  -0.8534 N.pl3          1 S1                 0.0000
     14 ****         3.8843  -2.5266   0.2105 C.3            1 S1                 0.0000
     15 ****         2.4912  -3.1500   0.3636 C.3            1 S1                 0.0000
     16 ****         2.3161  -4.1448  -0.6246 O.3            1 S1                 0.0000
     17 ****        -0.7898   1.6518   1.0464 C.3            1 S1                 0.0000
     18 ****        -1.8902   2.6309   0.6671 C.3            1 S1                 0.0000
     19 ****        -1.3277   3.8810   0.3200 O.3            1 S1                 0.0000
     20 ****        -2.4283   2.6061  -1.4534 H              1 S1                 0.0000
     21 ****         0.0626   1.4055  -0.9713 H              1 S1                 0.0000
     22 ****         2.4435  -3.6541   1.3293 H              1 S1                 0.0000
     23 ****        -2.5831   2.7758   1.4968 H              1 S1                 0.0000
     24 ****        -5.7245   2.6424  -0.2583 H              1 S1                 0.0000
     25 ****        -4.2239   1.1099   0.5460 H              1 S1                 0.0000
     26 ****        -4.4198   1.0582  -1.1981 H              1 S1                 0.0000
     27 ****        -1.7771  -1.5795   0.4083 H              1 S1                 0.0000
     28 ****         4.1659   0.4959  -1.0486 H              1 S1                 0.0000
     29 ****         4.7988  -1.6722  -1.4099 H              1 S1                 0.0000
     30 ****         4.6401  -3.2982   0.0611 H              1 S1                 0.0000
     31 ****         4.1468  -2.0205   1.1407 H              1 S1                 0.0000
     32 ****         1.4802  -4.5613  -0.4790 H              1 S1                 0.0000
     33 ****        -1.1490   0.9589   1.8088 H              1 S1                 0.0000
     34 ****         0.1391   2.1108   1.3877 H              1 S1                 0.0000
     35 ****        -2.0252   4.4559   0.0436 H              1 S1                 0.0000
     36 ****        -4.6690   3.3729  -1.1981 LP             1 S1                 0.0000
     37 ****        -4.5240   3.4294   0.4275 LP             1 S1                 0.0000
     38 ****        -1.8146   0.5781  -1.7711 LP             1 S1                 0.0000
     39 ****        -2.3476   0.0109  -0.3355 LP             1 S1                 0.0000
     40 ****        -0.2546  -3.5684   0.6967 LP             1 S1                 0.0000
     41 ****         2.0583   1.1033  -0.2541 LP             1 S1                 0.0000
     42 ****         3.0485  -4.8224  -0.5565 LP             1 S1                 0.0000
     43 ****         2.3324  -3.7266  -1.5328 LP             1 S1                 0.0000
     44 ****        -0.6731   3.7611  -0.4264 LP             1 S1                 0.0000
     45 ****        -0.8610   4.2731   1.1128 LP             1 S1                 0.0000
@<TRIPOS>BOND
    1    1    2 1     
    2    1   24 1     
    3    2    3 1     
    4    2   25 1     
    5    2   26 1     
    6    3   20 1     
    7    3   18 1     
    8    3    4 1     
    9    4    5 1     
   10    5   21 1     
   11    5    6 1     
   12    5   17 1     
   13    6   10 1     
   14    6    7 1     
   15    7    8 2     
   16    7   27 1     
   17    8    9 1     
   18    9   15 1     
   19    9   10 2     
   20   10   11 1     
   21   11   12 2     
   22   12   13 1     
   23   12   28 1     
   24   13   14 1     
   25   13   29 1     
   26   14   15 1     
   27   14   30 1     
   28   14   31 1     
   29   15   22 1     
   30   15   16 1     
   31   16   32 1     
   32   17   18 1     
   33   17   33 1     
   34   17   34 1     
   35   18   23 1     
   36   18   19 1     
   37   19   35 1     
   38    1   36 1     
   39    1   37 1     
   40    4   38 1     
   41    4   39 1     
   42    8   40 1     
   43   11   41 1     
   44   16   42 1     
   45   16   43 1     
   46   19   44 1     
   47   19   45 1     
@<TRIPOS>SUBSTRUCTURE
      1 S1             1
@<TRIPOS>SET
LONE_PAIRS      STATIC     ATOMS    <user>   **** ""
10 36 37 38 39 40 41 42 43 44 45
DONOR_HYDROGENS      STATIC     ATOMS    <user>   **** ""
4 24 29 32 35
ATOM$BLUE        STATIC     ATOMS    COLORGROUP SYSTEM
10 36 37 38 39 40 41 42 43 44 45
ATOM$RED        STATIC     ATOMS    COLORGROUP SYSTEM
4 24 29 32 35
