AV-unprocessed.smi:3348|AV-procd|sdf|12921|dock5
  -GOLD-   2272019343D 1   1.00000     0.00000
 Structure written by MMmdl.
 47 48  0  0  0  0  0  0  0  0  2 V2000
  146.6498  132.5650  154.1216 C   0  0  0  0  0  0  0  0  0  0  0  0
  147.2327  133.5282  153.0747 C   0  0  2  0  0  0  0  0  0  0  0  0
  147.3221  132.8488  151.6943 C   0  0  0  0  0  0  0  0  0  0  0  0
  146.0305  132.7648  151.0354 N   0  0  0  0  0  0  0  0  0  0  0  0
  145.7185  132.1501  149.8408 C   0  0  0  0  0  0  0  0  0  0  0  0
  144.3812  132.3269  149.6304 C   0  0  0  0  0  0  0  0  0  0  0  0
  143.9554  133.0726  150.7651 C   0  0  0  0  0  0  0  0  0  0  0  0
  144.9445  133.3306  151.6061 N   0  0  0  0  0  0  0  0  0  0  0  0
  148.5671  134.0121  153.4955 N   0  3  0  0  0  0  0  0  0  0  0  0
  148.6298  134.5821  154.8572 C   0  0  0  0  0  0  0  0  0  0  0  0
  150.0372  135.1009  155.1672 C   0  0  0  0  0  0  0  0  0  0  0  0
  149.9416  136.0629  156.2070 O   0  0  0  0  0  0  0  0  0  0  0  0
  151.0563  136.9413  156.3052 C   0  0  1  0  0  0  0  0  0  0  0  0
  151.2717  137.6629  154.9574 C   0  0  0  0  0  0  0  0  0  0  0  0
  152.3798  138.7217  155.0541 C   0  0  0  0  0  0  0  0  0  0  0  0
  152.0814  139.7308  156.1712 C   0  0  0  0  0  0  0  0  0  0  0  0
  151.8746  139.0189  157.5165 C   0  0  0  0  0  0  0  0  0  0  0  0
  150.7621  137.9541  157.4354 C   0  0  2  0  0  0  0  0  0  0  0  0
  150.5814  137.2562  158.7934 C   0  0  0  0  0  0  0  0  0  0  0  0
  145.6681  132.2028  153.8151 H   0  0  0  0  0  0  0  0  0  0  0  0
  146.5250  133.0475  155.0908 H   0  0  0  0  0  0  0  0  0  0  0  0
  147.2933  131.6959  154.2622 H   0  0  0  0  0  0  0  0  0  0  0  0
  146.5635  134.3855  152.9830 H   0  0  0  0  0  0  0  0  0  0  0  0
  148.0218  133.3769  151.0441 H   0  0  0  0  0  0  0  0  0  0  0  0
  147.7058  131.8332  151.8012 H   0  0  0  0  0  0  0  0  0  0  0  0
  146.4651  131.6436  149.2467 H   0  0  0  0  0  0  0  0  0  0  0  0
  143.7960  131.9784  148.7923 H   0  0  0  0  0  0  0  0  0  0  0  0
  142.9639  133.4301  151.0009 H   0  0  0  0  0  0  0  0  0  0  0  0
  149.2290  133.2525  153.4212 H   0  0  0  0  0  0  0  0  0  0  0  0
  147.9166  135.4041  154.9248 H   0  0  0  0  0  0  0  0  0  0  0  0
  148.3366  133.8398  155.5993 H   0  0  0  0  0  0  0  0  0  0  0  0
  150.6912  134.2771  155.4585 H   0  0  0  0  0  0  0  0  0  0  0  0
  150.4607  135.5544  154.2712 H   0  0  0  0  0  0  0  0  0  0  0  0
  151.9557  136.3816  156.5695 H   0  0  0  0  0  0  0  0  0  0  0  0
  151.5284  136.9499  154.1745 H   0  0  0  0  0  0  0  0  0  0  0  0
  150.3415  138.1403  154.6459 H   0  0  0  0  0  0  0  0  0  0  0  0
  153.3367  138.2344  155.2451 H   0  0  0  0  0  0  0  0  0  0  0  0
  152.4813  139.2421  154.1013 H   0  0  0  0  0  0  0  0  0  0  0  0
  152.8974  140.4493  156.2520 H   0  0  0  0  0  0  0  0  0  0  0  0
  151.1884  140.3036  155.9189 H   0  0  0  0  0  0  0  0  0  0  0  0
  152.8105  138.5517  157.8263 H   0  0  0  0  0  0  0  0  0  0  0  0
  151.6304  139.7559  158.2824 H   0  0  0  0  0  0  0  0  0  0  0  0
  149.8277  138.4658  157.1986 H   0  0  0  0  0  0  0  0  0  0  0  0
  151.4791  136.7072  159.0791 H   0  0  0  0  0  0  0  0  0  0  0  0
  149.7516  136.5494  158.7712 H   0  0  0  0  0  0  0  0  0  0  0  0
  150.3704  137.9806  159.5804 H   0  0  0  0  0  0  0  0  0  0  0  0
  148.8447  134.7396  152.8509 H   0  0  0  0  0  0  0  0  0  0  0  0
  1  2  1  0  0  0  0
  1 20  1  0  0  0  0
  1 21  1  0  0  0  0
  1 22  1  0  0  0  0
  2  3  1  0  0  0  0
  2  9  1  0  0  0  0
  2 23  1  0  0  0  0
  3  4  1  0  0  0  0
  3 24  1  0  0  0  0
  3 25  1  0  0  0  0
  4  8  1  0  0  0  0
  4  5  1  0  0  0  0
  5  6  2  0  0  0  0
  5 26  1  0  0  0  0
  6  7  1  0  0  0  0
  6 27  1  0  0  0  0
  7  8  2  0  0  0  0
  7 28  1  0  0  0  0
  9 10  1  0  0  0  0
  9 29  1  0  0  0  0
  9 47  1  0  0  0  0
 10 11  1  0  0  0  0
 10 30  1  0  0  0  0
 10 31  1  0  0  0  0
 11 12  1  0  0  0  0
 11 32  1  0  0  0  0
 11 33  1  0  0  0  0
 12 13  1  0  0  0  0
 13 18  1  0  0  0  0
 13 14  1  0  0  0  0
 13 34  1  0  0  0  0
 14 15  1  0  0  0  0
 14 35  1  0  0  0  0
 14 36  1  0  0  0  0
 15 16  1  0  0  0  0
 15 37  1  0  0  0  0
 15 38  1  0  0  0  0
 16 17  1  0  0  0  0
 16 39  1  0  0  0  0
 16 40  1  0  0  0  0
 17 18  1  0  0  0  0
 17 41  1  0  0  0  0
 17 42  1  0  0  0  0
 18 19  1  0  0  0  0
 18 43  1  0  0  0  0
 19 44  1  0  0  0  0
 19 45  1  0  0  0  0
 19 46  1  0  0  0  0
M  CHG  1   9   1
M  END
> <s_m_source_file>
AV-unprocessed.smi

> <i_m_source_file_index>
3348

> <i_lp_mmshare_version>
43012

> <i_f3d_flags>
0

> <s_epik_input>
bjFbY0hdW2NIXVtjSF1uMVtDSDJdW0NAQEhdKFtDSDNdKVtOSF1bQ0gyXVtDSDJdT1tDQEBIXTJbQ0gyXVtDSDJdW0NIMl1bQ0gyXVtDQEhdMltDSDNd

> <s_epik_cmdline>
J2VwaWtfcHl0aG9uJywgJy1waCcsICc3LjAnLCAnLXRuJywgJzgnLCAnLW1hJywgJzIwMCcsICctbWV0YWxfYmluZGluZycsICctaW1hZScsICc8aW5maWxlLm1hZT4nLCAnLW9tYWUnLCAnPG91dGZpbGUubWFlPic=

> <r_lp_tautomer_probability>
1

> <r_epik_Ionization_Penalty>
0.00925088

> <r_epik_Ionization_Penalty_Charging>
0.00924645

> <r_epik_Ionization_Penalty_Neutral>
4.42413e-06

> <r_epik_State_Penalty>
0.0070118

> <r_epik_Charging_Adjusted_Penalty>
0.0162583

> <i_epik_Tot_Q>
1

> <i_epik_Tot_abs_Q>
1

> <r_epik_Metal_State_Penalty>
0.00701222

> <b_epik_Metal_Only>
0

> <s_lp_Force_Field>
OPLS_2005

> <r_lp_Energy>
15.6253

> <b_lp_Chiralities_Consistent>
1

> <s_lp_Variant>
AV-unprocessed.smi:3348-7

> <Gold.Version>
5.8.1

> <Gold.Id.Protein>
6NUR|6NUR_protein|mol2

> <Gold.PLP.Fitness>
43.1690

> <Gold.PLP.PLP>
-31.8871

> <Gold.PLP.part.hbond>
-1.0000

> <Gold.PLP.part.metal>
0.0000

> <Gold.PLP.part.buried>
-3.4879

> <Gold.PLP.part.nonpolar>
-28.2309

> <Gold.PLP.part.repulsive>
0.1265

> <Gold.PLP.ligand.clash>
0.0000

> <Gold.PLP.ligand.torsion>
0.4090

> <Gold.PLP.Chemscore.Hbond>
2.0000

> <Gold.PLP.Chemscore.CHOScore>
1.9948

> <Gold.PLP.Chemscore.Metal>
0.0000

> <Gold.Chemscore.Hbonds>
donor molecule, donor type, donor heavy atom, donor atom, acceptor molecule, acceptor atom, score
      L1  H     9    47       P1  7948  1.40
      L1  C     5    26       P1 10747  0.29
      L1  C     7    28       P1 10186  0.76

> <Gold.PLP.Chemscore.Internal.Correction>
0.1154

> <Gold.Rescore>
     Score         DG    S(hbond)    S(metal)    S(lipo)     H(rot)  DE(clash)    DE(int)     intcor
     13.96     -14.47       0.92        0.00      90.44       1.82       0.01       0.50       ----

> <Gold.Chemscore.Fitness>
13.9594

> <Gold.Chemscore.DG>
-14.4682

> <Gold.Chemscore.ZeroCoef>
-5.4800

> <Gold.Chemscore.Hbond>
0.9151

> <Gold.Chemscore.Metal>
0.0000

> <Gold.Chemscore.Lipo>
90.4387

> <Gold.Chemscore.Internal_Hbond>
0.0000

> <Gold.Chemscore.DEClash>
0.0102

> <Gold.Chemscore.DEInternal>
0.4985

> <Gold.Chemscore.Rot>
1.8163

> <Gold.Chemscore.Internal.Correction>
   9.000000E+99

> <Gold.Chemscore.Hbonds>
donor molecule, donor type, donor heavy atom, donor atom, acceptor molecule, acceptor atom, score
      L1  H     9    47       P1  7948  0.07

> <Gold.Chemscore.Hbond.Weighted>
-3.0566

> <Gold.Chemscore.Metal.Weighted>
-0.0000

> <Gold.Chemscore.Lipo.Weighted>
-10.5813

> <Gold.Chemscore.Internal_Hbond.Weighted>
0.0000

> <Gold.Chemscore.DEClash.Weighted>
0.0102

> <Gold.Chemscore.DEInternal.Weighted>
0.4985

> <Gold.Chemscore.Rot.Weighted>
4.6497

> <Gold.Chemscore.Internal.Correction.Weighted>
   9.000000E+99

> <Gold.Protein.RotatedTorsions>
[ 6907 6896 6895 6894 ] final -150.54 input  -60.11 | X-H torsion
[ 7974 7965 7964 7962 ] final  -58.91 input  175.53 | X-H torsion
[ 8008 7997 7996 7995 ] final  -17.23 input   59.86 | X-H torsion
[ 10167 10162 10161 10158 ] final   73.81 input  -65.29 | X-H torsion
[ 10718 10713 10712 10709 ] final   32.60 input   66.30 | X-H torsion
[ 10763 10752 10751 10750 ] final   64.56 input  -60.55 | X-H torsion
[ 11005 11000 10999 10996 ] final  107.18 input  -57.11 | X-H torsion

> <Gold.Protein.ActiveResidues>
 VAL166  LYS551  ARG553  GLY616  TRP617  ASP618  TYR619  PRO620  LYS621  CYS622 
 ASP623  PHE694  ASN695  SER759  ASP760  ASP761  ALA762  ILE779  LEU786  VAL792 
 PHE793  MET794  SER795  GLU796  ALA797  LYS798  CYS799  TRP800  GLU811  SER814 

> <Gold.Protein.RotatedAtoms>
  151.2001  133.4616  159.2595 H   0  0  0  0  0  0  0  0  0  0  0  0  # atno 6907 bound_to 6896
  151.1078  135.0009  159.8489 H   0  0  0  0  0  0  0  0  0  0  0  0  # atno 6908 bound_to 6896
  152.5448  134.1923  159.8731 H   0  0  0  0  0  0  0  0  0  0  0  0  # atno 6909 bound_to 6896
  145.8337  140.8463  143.0070 H   0  0  0  0  0  0  0  0  0  0  0  0  # atno 7974 bound_to 7965
  154.4994  140.2148  155.9379 H   0  0  0  0  0  0  0  0  0  0  0  0  # atno 8008 bound_to 7997
  156.1413  140.3179  155.8468 H   0  0  0  0  0  0  0  0  0  0  0  0  # atno 8009 bound_to 7997
  155.4114  140.0491  157.3022 H   0  0  0  0  0  0  0  0  0  0  0  0  # atno 8010 bound_to 7997
  140.0204  144.5544  150.7586 H   0  0  0  0  0  0  0  0  0  0  0  0  # atno 10167 bound_to 10162
  157.2872  130.7285  149.6590 H   0  0  0  0  0  0  0  0  0  0  0  0  # atno 10718 bound_to 10713
  153.0060  135.5388  154.6529 H   0  0  0  0  0  0  0  0  0  0  0  0  # atno 10763 bound_to 10752
  154.5757  135.2845  155.0786 H   0  0  0  0  0  0  0  0  0  0  0  0  # atno 10764 bound_to 10752
  154.1934  135.6496  153.5119 H   0  0  0  0  0  0  0  0  0  0  0  0  # atno 10765 bound_to 10752
  139.8824  134.9393  156.5780 H   0  0  0  0  0  0  0  0  0  0  0  0  # atno 11005 bound_to 11000
  144.6738  140.0709  143.7473 LP  0  0  0  0  0  0  0  0  0  0  0  0  # atno 17320 bound_to 7965
  145.9543  139.2755  143.1194 LP  0  0  0  0  0  0  0  0  0  0  0  0  # atno 17321 bound_to 7965
  140.7344  143.2729  151.3832 LP  0  0  0  0  0  0  0  0  0  0  0  0  # atno 17342 bound_to 10162
  139.6143  144.1034  152.2330 LP  0  0  0  0  0  0  0  0  0  0  0  0  # atno 17343 bound_to 10162
  155.9666  130.4320  150.4943 LP  0  0  0  0  0  0  0  0  0  0  0  0  # atno 17370 bound_to 10713
  157.2899  131.0624  151.2141 LP  0  0  0  0  0  0  0  0  0  0  0  0  # atno 17371 bound_to 10713
  140.8048  133.8476  155.8758 LP  0  0  0  0  0  0  0  0  0  0  0  0  # atno 17394 bound_to 11000
  140.9559  134.1718  157.4692 LP  0  0  0  0  0  0  0  0  0  0  0  0  # atno 17395 bound_to 11000

$$$$
