#       Name:                AV-unprocessed.smi:274
#       Creating user name   scv26
#       Creation time:       Thu Mar 26 21:30:46 2020


#       File generated by GOLD software.
#

@<TRIPOS>MOLECULE
AV-unprocessed.smi:274
    59    62     1
SMALL
NO_CHARGES


@<TRIPOS>ATOM
      1 ****        -3.4203  -1.8481  -0.0404 C.3            1 S1                 0.0000
      2 ****        -3.8642  -1.1936  -1.3648 C.3            1 S1                 0.0000
      3 ****        -4.5593  -2.2582  -2.2375 C.3            1 S1                 0.0000
      4 ****        -2.6822  -0.4724  -2.0863 C.3            1 S1                 0.0000
      5 ****        -3.1269   0.2670  -3.3742 C.2            1 S1                 0.0000
      6 ****        -3.3614  -0.3716  -4.3980 O.2            1 S1                 0.0000
      7 ****        -3.2189   1.6094  -3.3618 N.am           1 S1                 0.0000
      8 ****        -2.8834   2.4869  -2.2402 C.3            1 S1                 0.0000
      9 ****        -2.6834   1.7310  -0.9149 C.3            1 S1                 0.0000
     10 ****        -2.0184   0.4524  -1.1523 N.pl3          1 S1                 0.0000
     11 ****        -0.6619   0.5055  -1.1298 C.ar           1 S1                 0.0000
     12 ****         0.0503   0.3093  -2.2713 N.ar           1 S1                 0.0000
     13 ****         1.3846   0.3781  -2.2528 C.ar           1 S1                 0.0000
     14 ****         2.1931   0.6262  -1.2205 N.ar           1 S1                 0.0000
     15 ****         1.4840   0.8184  -0.0715 C.ar           1 S1                 0.0000
     16 ****         0.0674   0.7799   0.0599 C.ar           1 S1                 0.0000
     17 ****        -0.2939   1.0215   1.3799 N.2            1 S1                 0.0000
     18 ****         0.8445   1.1964   1.9935 C.2            1 S1                 0.0000
     19 ****         1.9638   1.0839   1.1993 N.pl3          1 S1                 0.0000
     20 ****         3.3495   1.2237   1.6192 C.3            1 S1                 0.0000
     21 ****         3.9880  -0.1048   2.0880 C.3            1 S1                 0.0000
     22 ****         3.9998  -1.0202   1.0063 O.3            1 S1                 0.0000
     23 ****         3.2733  -0.7592   3.2673 C.3            1 S1                 0.0000
     24 ****         4.4083  -1.4467   4.0133 C.3            1 S1                 0.0000
     25 ****         5.4595  -0.5019   3.9103 O.3            1 S1                 0.0000
     26 ****         5.4319   0.0618   2.6028 C.3            1 S1                 0.0000
     27 ****        -2.6231  -2.5732  -0.2070 H              1 S1                 0.0000
     28 ****        -4.2489  -2.3721   0.4372 H              1 S1                 0.0000
     29 ****        -3.0580  -1.1135   0.6791 H              1 S1                 0.0000
     30 ****        -4.6232  -0.4516  -1.1146 H              1 S1                 0.0000
     31 ****        -3.8454  -2.9968  -2.6035 H              1 S1                 0.0000
     32 ****        -5.0623  -1.8196  -3.0984 H              1 S1                 0.0000
     33 ****        -5.3242  -2.7912  -1.6721 H              1 S1                 0.0000
     34 ****        -1.9799  -1.2511  -2.3896 H              1 S1                 0.0000
     35 ****        -3.5104   2.0620  -4.2160 H              1 S1                 0.0000
     36 ****        -1.9589   3.0020  -2.5037 H              1 S1                 0.0000
     37 ****        -3.6492   3.2548  -2.1308 H              1 S1                 0.0000
     38 ****        -2.1418   2.3575  -0.2055 H              1 S1                 0.0000
     39 ****        -3.6518   1.5355  -0.4547 H              1 S1                 0.0000
     40 ****         1.8744   0.2112  -3.2008 H              1 S1                 0.0000
     41 ****         0.8987   1.4082   3.0513 H              1 S1                 0.0000
     42 ****         3.9210   1.6469   0.7918 H              1 S1                 0.0000
     43 ****         3.3860   1.9604   2.4229 H              1 S1                 0.0000
     44 ****         4.4102  -1.8208   1.2952 H              1 S1                 0.0000
     45 ****         2.8410   0.0030   3.9169 H              1 S1                 0.0000
     46 ****         2.4726  -1.4404   2.9763 H              1 S1                 0.0000
     47 ****         4.1616  -1.6648   5.0524 H              1 S1                 0.0000
     48 ****         4.6972  -2.3767   3.5212 H              1 S1                 0.0000
     49 ****         6.1566  -0.4519   1.9688 H              1 S1                 0.0000
     50 ****         5.7344   1.1079   2.6602 H              1 S1                 0.0000
     51 ****        -3.2652  -1.3670  -4.3995 LP             1 S1                 0.0000
     52 ****        -3.6483   0.1042  -5.2294 LP             1 S1                 0.0000
     53 ****        -0.4264   0.1127  -3.1281 LP             1 S1                 0.0000
     54 ****         3.1904   0.6660  -1.2816 LP             1 S1                 0.0000
     55 ****        -1.2142   1.0539   1.7697 LP             1 S1                 0.0000
     56 ****         4.5162  -0.6331   0.2425 LP             1 S1                 0.0000
     57 ****         3.0623  -1.2084   0.7135 LP             1 S1                 0.0000
     58 ****         6.3374  -0.9555   4.0639 LP             1 S1                 0.0000
     59 ****         5.3332   0.2192   4.5915 LP             1 S1                 0.0000
@<TRIPOS>BOND
    1    1    2 1     
    2    1   27 1     
    3    1   28 1     
    4    1   29 1     
    5    2    3 1     
    6    2    4 1     
    7    2   30 1     
    8    3   31 1     
    9    3   32 1     
   10    3   33 1     
   11    4   10 1     
   12    4    5 1     
   13    4   34 1     
   14    5    6 2     
   15    5    7 am    
   16    7    8 1     
   17    7   35 1     
   18    8    9 1     
   19    8   36 1     
   20    8   37 1     
   21    9   10 1     
   22    9   38 1     
   23    9   39 1     
   24   10   11 1     
   25   11   16 ar    
   26   11   12 ar    
   27   12   13 ar    
   28   13   14 ar    
   29   13   40 1     
   30   14   15 ar    
   31   15   19 1     
   32   15   16 ar    
   33   16   17 1     
   34   17   18 2     
   35   18   19 1     
   36   18   41 1     
   37   19   20 1     
   38   20   21 1     
   39   20   42 1     
   40   20   43 1     
   41   21   26 1     
   42   21   22 1     
   43   21   23 1     
   44   22   44 1     
   45   23   24 1     
   46   23   45 1     
   47   23   46 1     
   48   24   25 1     
   49   24   47 1     
   50   24   48 1     
   51   25   26 1     
   52   26   49 1     
   53   26   50 1     
   54    6   51 1     
   55    6   52 1     
   56   12   53 1     
   57   14   54 1     
   58   17   55 1     
   59   22   56 1     
   60   22   57 1     
   61   25   58 1     
   62   25   59 1     
@<TRIPOS>SUBSTRUCTURE
      1 S1             1
@<TRIPOS>SET
LONE_PAIRS      STATIC     ATOMS    <user>   **** ""
9 51 52 53 54 55 56 57 58 59
DONOR_HYDROGENS      STATIC     ATOMS    <user>   **** ""
2 35 44
ATOM$BLUE        STATIC     ATOMS    COLORGROUP SYSTEM
9 51 52 53 54 55 56 57 58 59
ATOM$RED        STATIC     ATOMS    COLORGROUP SYSTEM
2 35 44
