AV-unprocessed.smi:66|AV-procd|sdf|622|dock9
  -GOLD-   2262016513D 1   1.00000     0.00000
 Structure written by MMmdl.
 28 30  0  0  0  0  0  0  0  0  2 V2000
  153.1407  138.3026  156.9090 O   0  0  0  0  0  0  0  0  0  0  0  0
  152.2847  138.2245  156.0013 C   0  0  0  0  0  0  0  0  0  0  0  0
  151.9898  137.1843  155.3705 O   0  5  0  0  0  0  0  0  0  0  0  0
  151.5389  139.5156  155.6417 C   0  0  1  0  0  0  0  0  0  0  0  0
  150.6810  139.3774  154.3774 C   0  0  0  0  0  0  0  0  0  0  0  0
  149.6158  140.4455  154.6024 C   0  0  1  0  0  0  0  0  0  0  0  0
  148.4485  140.2215  153.8401 O   0  0  0  0  0  0  0  0  0  0  0  0
  149.3588  140.3655  156.1092 C   0  0  0  0  0  0  0  0  0  0  0  0
  150.6109  139.9107  156.7022 N   0  0  0  0  0  0  0  0  0  0  0  0
  151.1137  140.7233  157.7290 C   0  0  0  0  0  0  0  0  0  0  0  0
  151.4916  140.1835  158.9114 N   0  0  0  0  0  0  0  0  0  0  0  0
  151.9838  141.0127  159.8428 C   0  0  0  0  0  0  0  0  0  0  0  0
  152.1779  142.3414  159.7805 N   0  0  0  0  0  0  0  0  0  0  0  0
  151.8123  142.8808  158.6088 C   0  0  0  0  0  0  0  0  0  0  0  0
  151.8987  144.2205  158.2537 N   0  0  0  0  0  0  0  0  0  0  0  0
  151.4129  144.2090  157.0118 C   0  0  0  0  0  0  0  0  0  0  0  0
  151.0291  143.0153  156.5287 N   0  0  0  0  0  0  0  0  0  0  0  0
  151.2723  142.1055  157.5422 C   0  0  0  0  0  0  0  0  0  0  0  0
  150.6329  142.8450  155.6152 H   0  0  0  0  0  0  0  0  0  0  0  0
  152.2712  140.3069  155.4755 H   0  0  0  0  0  0  0  0  0  0  0  0
  151.2510  139.5370  153.4616 H   0  0  0  0  0  0  0  0  0  0  0  0
  150.2183  138.3899  154.3218 H   0  0  0  0  0  0  0  0  0  0  0  0
  150.0274  141.4249  154.3535 H   0  0  0  0  0  0  0  0  0  0  0  0
  148.6699  140.3037  152.9251 H   0  0  0  0  0  0  0  0  0  0  0  0
  149.0105  141.3202  156.5074 H   0  0  0  0  0  0  0  0  0  0  0  0
  148.5979  139.6172  156.3354 H   0  0  0  0  0  0  0  0  0  0  0  0
  152.2691  140.5458  160.7739 H   0  0  0  0  0  0  0  0  0  0  0  0
  151.3310  145.1123  156.4252 H   0  0  0  0  0  0  0  0  0  0  0  0
  1  2  2  0  0  0  0
  2  3  1  0  0  0  0
  2  4  1  0  0  0  0
  4  9  1  0  0  0  0
  4  5  1  0  0  0  0
  4 20  1  0  0  0  0
  5  6  1  0  0  0  0
  5 21  1  0  0  0  0
  5 22  1  0  0  0  0
  6  7  1  0  0  0  0
  6  8  1  0  0  0  0
  6 23  1  0  0  0  0
  7 24  1  0  0  0  0
  8  9  1  0  0  0  0
  8 25  1  0  0  0  0
  8 26  1  0  0  0  0
  9 10  1  0  0  0  0
 10 18  1  0  0  0  0
 10 11  2  0  0  0  0
 11 12  1  0  0  0  0
 12 13  2  0  0  0  0
 12 27  1  0  0  0  0
 13 14  1  0  0  0  0
 14 18  2  0  0  0  0
 14 15  1  0  0  0  0
 15 16  2  0  0  0  0
 16 17  1  0  0  0  0
 16 28  1  0  0  0  0
 17 19  1  0  0  0  0
 17 18  1  0  0  0  0
M  CHG  1   3  -1
M  END
> <s_m_source_file>
AV-unprocessed.smi

> <i_m_source_file_index>
66

> <i_lp_mmshare_version>
43012

> <i_f3d_flags>
0

> <s_epik_input>
Tz1DKFtPSF0pW0NAQEhdMVtDSDJdW0NAQEhdKFtPSF0pW0NIMl1OMWMobltjSF1uMiljKGMyMylbbkhdW2NIXW4z

> <s_epik_cmdline>
J2VwaWtfcHl0aG9uJywgJy1waCcsICc3LjAnLCAnLXRuJywgJzgnLCAnLW1hJywgJzIwMCcsICctbWV0YWxfYmluZGluZycsICctaW1hZScsICc8aW5maWxlLm1hZT4nLCAnLW9tYWUnLCAnPG91dGZpbGUubWFlPic=

> <r_lp_tautomer_probability>
0.0419193

> <r_epik_Ionization_Penalty>
0.0157405

> <r_epik_Ionization_Penalty_Charging>
0.000248217

> <r_epik_Ionization_Penalty_Neutral>
0.0154923

> <r_epik_State_Penalty>
1.99742

> <r_epik_Charging_Adjusted_Penalty>
1.99767

> <i_epik_Tot_Q>
-1

> <i_epik_Tot_abs_Q>
1

> <r_epik_Metal_State_Penalty>
2.31035

> <b_epik_Metal_Only>
0

> <s_lp_Force_Field>
OPLS_2005

> <r_lp_Energy>
24.7496

> <b_lp_Chiralities_Consistent>
1

> <s_lp_Variant>
AV-unprocessed.smi:66-6

> <Gold.Version>
5.8.1

> <Gold.Id.Protein>
6NUR|6NUR_protein|mol2

> <Gold.PLP.Fitness>
40.0559

> <Gold.PLP.PLP>
-26.2371

> <Gold.PLP.part.hbond>
-4.0000

> <Gold.PLP.part.metal>
0.0000

> <Gold.PLP.part.buried>
-0.2211

> <Gold.PLP.part.nonpolar>
-22.0443

> <Gold.PLP.part.repulsive>
0.2343

> <Gold.PLP.ligand.clash>
0.0000

> <Gold.PLP.ligand.torsion>
0.5609

> <Gold.PLP.Chemscore.Hbond>
4.5270

> <Gold.PLP.Chemscore.CHOScore>
0.4099

> <Gold.PLP.Chemscore.Metal>
0.0000

> <Gold.Chemscore.Hbonds>
donor molecule, donor type, donor heavy atom, donor atom, acceptor molecule, acceptor atom, score
      L1  H     7    24       P1  7957  1.00
      P1  H  7997  8008       L1     1  1.23
      P1  H 10752 10765       L1     3  1.70
      L1  C    16    28       P1  8028  0.34

> <Gold.PLP.Chemscore.Internal.Correction>
0.1297

> <Gold.Rescore>
     Score         DG    S(hbond)    S(metal)    S(lipo)     H(rot)  DE(clash)    DE(int)     intcor
      9.16     -12.45       2.69        0.00      37.03       2.48       2.63       0.66       ----

> <Gold.Chemscore.Fitness>
9.1623

> <Gold.Chemscore.DG>
-12.4520

> <Gold.Chemscore.ZeroCoef>
-5.4800

> <Gold.Chemscore.Hbond>
2.6881

> <Gold.Chemscore.Metal>
0.0000

> <Gold.Chemscore.Lipo>
37.0336

> <Gold.Chemscore.Internal_Hbond>
0.0000

> <Gold.Chemscore.DEClash>
2.6286

> <Gold.Chemscore.DEInternal>
0.6612

> <Gold.Chemscore.Rot>
2.4762

> <Gold.Chemscore.Internal.Correction>
   9.000000E+99

> <Gold.Chemscore.Hbonds>
donor molecule, donor type, donor heavy atom, donor atom, acceptor molecule, acceptor atom, score
      L1  H     7    24       P1  7957  0.95
      P1  H  7997  8008       L1     1  0.38
      P1  H 10752 10765       L1     3  0.79

> <Gold.Chemscore.Hbond.Weighted>
-8.9781

> <Gold.Chemscore.Metal.Weighted>
-0.0000

> <Gold.Chemscore.Lipo.Weighted>
-4.3329

> <Gold.Chemscore.Internal_Hbond.Weighted>
0.0000

> <Gold.Chemscore.DEClash.Weighted>
2.6286

> <Gold.Chemscore.DEInternal.Weighted>
0.6612

> <Gold.Chemscore.Rot.Weighted>
6.3391

> <Gold.Chemscore.Internal.Correction.Weighted>
   9.000000E+99

> <Gold.Protein.RotatedTorsions>
[ 6907 6896 6895 6894 ] final  176.68 input  -60.11 | X-H torsion
[ 7974 7965 7964 7962 ] final   19.28 input  175.53 | X-H torsion
[ 8008 7997 7996 7995 ] final  -54.25 input   59.86 | X-H torsion
[ 10167 10162 10161 10158 ] final  -46.74 input  -65.29 | X-H torsion
[ 10718 10713 10712 10709 ] final -126.44 input   66.30 | X-H torsion
[ 10763 10752 10751 10750 ] final  171.81 input  -60.55 | X-H torsion
[ 11005 11000 10999 10996 ] final  162.69 input  -57.11 | X-H torsion

> <Gold.Protein.ActiveResidues>
 VAL166  LYS551  ARG553  GLY616  TRP617  ASP618  TYR619  PRO620  LYS621  CYS622 
 ASP623  PHE694  ASN695  SER759  ASP760  ASP761  ALA762  ILE779  LEU786  VAL792 
 PHE793  MET794  SER795  GLU796  ALA797  LYS798  CYS799  TRP800  GLU811  SER814 

> <Gold.Protein.RotatedAtoms>
  151.7162  133.3313  159.3303 H   0  0  0  0  0  0  0  0  0  0  0  0  # atno 6907 bound_to 6896
  150.7672  134.6488  159.6286 H   0  0  0  0  0  0  0  0  0  0  0  0  # atno 6908 bound_to 6896
  152.3680  134.6778  160.0237 H   0  0  0  0  0  0  0  0  0  0  0  0  # atno 6909 bound_to 6896
  146.2155  139.8336  142.8655 H   0  0  0  0  0  0  0  0  0  0  0  0  # atno 7974 bound_to 7965
  154.4157  140.1181  156.5285 H   0  0  0  0  0  0  0  0  0  0  0  0  # atno 8008 bound_to 7997
  155.6629  140.3496  155.4770 H   0  0  0  0  0  0  0  0  0  0  0  0  # atno 8009 bound_to 7997
  155.9698  140.1139  157.0812 H   0  0  0  0  0  0  0  0  0  0  0  0  # atno 8010 bound_to 7997
  140.6805  143.2816  151.3826 H   0  0  0  0  0  0  0  0  0  0  0  0  # atno 10167 bound_to 10162
  156.1765  130.6703  151.0249 H   0  0  0  0  0  0  0  0  0  0  0  0  # atno 10718 bound_to 10713
  154.4171  135.2757  155.1999 H   0  0  0  0  0  0  0  0  0  0  0  0  # atno 10763 bound_to 10752
  154.3960  135.6055  153.5874 H   0  0  0  0  0  0  0  0  0  0  0  0  # atno 10764 bound_to 10752
  152.9832  135.5915  154.4462 H   0  0  0  0  0  0  0  0  0  0  0  0  # atno 10765 bound_to 10752
  140.2283  134.8143  157.3291 H   0  0  0  0  0  0  0  0  0  0  0  0  # atno 11005 bound_to 11000
  145.2972  141.0184  143.3629 LP  0  0  0  0  0  0  0  0  0  0  0  0  # atno 17320 bound_to 7965
  144.9033  139.4621  143.6622 LP  0  0  0  0  0  0  0  0  0  0  0  0  # atno 17321 bound_to 7965
  139.6124  144.1072  152.2312 LP  0  0  0  0  0  0  0  0  0  0  0  0  # atno 17342 bound_to 10162
  140.0490  144.5947  150.7351 LP  0  0  0  0  0  0  0  0  0  0  0  0  # atno 17343 bound_to 10162
  157.6839  131.0830  150.7295 LP  0  0  0  0  0  0  0  0  0  0  0  0  # atno 17370 bound_to 10713
  156.7353  130.4722  149.5490 LP  0  0  0  0  0  0  0  0  0  0  0  0  # atno 17371 bound_to 10713
  140.1777  134.4528  155.7791 LP  0  0  0  0  0  0  0  0  0  0  0  0  # atno 17394 bound_to 11000
  141.2219  133.6970  156.7816 LP  0  0  0  0  0  0  0  0  0  0  0  0  # atno 17395 bound_to 11000

$$$$
