#       Name:                AV-unprocessed.smi:1976
#       Creating user name   scv26
#       Creation time:       Fri Mar 27 10:17:16 2020


#       File generated by GOLD software.
#

@<TRIPOS>MOLECULE
AV-unprocessed.smi:1976
    49    51     1
SMALL
NO_CHARGES


@<TRIPOS>ATOM
      1 ****         0.3281   0.8341  -1.7064 O.2            1 S1                 0.0000
      2 ****         0.8352   0.1750  -0.7981 C.2            1 S1                 0.0000
      3 ****         2.3601   0.0979  -0.6391 C.3            1 S1                 0.0000
      4 ****         3.0547   1.2907  -1.1515 N.am           1 S1                 0.0000
      5 ****         3.6000   1.2101  -2.4479 C.2            1 S1                 0.0000
      6 ****         4.2680   2.2266  -3.0264 C.2            1 S1                 0.0000
      7 ****         4.7907   2.1317  -4.4514 C.3            1 S1                 0.0000
      8 ****         4.8373   3.3333  -5.0267 F              1 S1                 0.0000
      9 ****         6.0227   1.6248  -4.4488 F              1 S1                 0.0000
     10 ****         4.0181   1.3404  -5.1963 F              1 S1                 0.0000
     11 ****         4.3794   3.4480  -2.2534 C.2            1 S1                 0.0000
     12 ****         3.8516   3.5465  -1.0176 C.2            1 S1                 0.0000
     13 ****         3.1415   2.4264  -0.3961 C.2            1 S1                 0.0000
     14 ****         2.6535   2.5036   0.7319 O.2            1 S1                 0.0000
     15 ****         0.1129  -0.5261   0.0878 N.am           1 S1                 0.0000
     16 ****        -1.3445  -0.5814   0.1104 C.3            1 S1                 0.0000
     17 ****        -1.9526  -1.5192  -0.9502 C.3            1 S1                 0.0000
     18 ****        -3.1541  -2.1931  -0.2579 C.3            1 S1                 0.0000
     19 ****        -3.2404  -1.5641   1.0740 N.4            1 S1                 1.0000
     20 ****        -3.9017  -2.3392   2.1463 C.3            1 S1                 0.0000
     21 ****        -3.9617  -1.4841   3.4283 C.3            1 S1                 0.0000
     22 ****        -2.5717  -0.9432   3.8233 C.3            1 S1                 0.0000
     23 ****        -1.8950  -0.2275   2.6379 C.3            1 S1                 0.0000
     24 ****        -1.8680  -1.1661   1.4208 C.3            1 S1                 0.0000
     25 ****         2.6124  -0.0579   0.4117 H              1 S1                 0.0000
     26 ****         2.7091  -0.7995  -1.1517 H              1 S1                 0.0000
     27 ****         3.4300   0.2684  -2.9493 H              1 S1                 0.0000
     28 ****         4.8978   4.2987  -2.6707 H              1 S1                 0.0000
     29 ****         3.9550   4.4719  -0.4702 H              1 S1                 0.0000
     30 ****         0.6063  -1.0446   0.8001 H              1 S1                 0.0000
     31 ****        -1.7566   0.4219  -0.0183 H              1 S1                 0.0000
     32 ****        -2.2543  -0.9629  -1.8383 H              1 S1                 0.0000
     33 ****        -1.2365  -2.2789  -1.2674 H              1 S1                 0.0000
     34 ****        -4.0840  -2.0560  -0.8105 H              1 S1                 0.0000
     35 ****        -2.9739  -3.2646  -0.1569 H              1 S1                 0.0000
     36 ****        -4.9081  -2.6167   1.8309 H              1 S1                 0.0000
     37 ****        -3.3531  -3.2647   2.3287 H              1 S1                 0.0000
     38 ****        -4.6407  -0.6450   3.2696 H              1 S1                 0.0000
     39 ****        -4.3824  -2.0685   4.2473 H              1 S1                 0.0000
     40 ****        -2.6599  -0.2636   4.6715 H              1 S1                 0.0000
     41 ****        -1.9421  -1.7703   4.1540 H              1 S1                 0.0000
     42 ****        -2.4390   0.6869   2.3970 H              1 S1                 0.0000
     43 ****        -0.8820   0.0721   2.9085 H              1 S1                 0.0000
     44 ****        -1.2972  -2.0650   1.6667 H              1 S1                 0.0000
     45 ****        -3.7636  -0.7086   0.9535 H              1 S1                 0.0000
     46 ****         0.9112   1.3276  -2.3518 LP             1 S1                 0.0000
     47 ****        -0.6668   0.8759  -1.7986 LP             1 S1                 0.0000
     48 ****         2.1740   1.7186   1.1241 LP             1 S1                 0.0000
     49 ****         2.7366   3.3514   1.2557 LP             1 S1                 0.0000
@<TRIPOS>BOND
    1    1    2 2     
    2    2    3 1     
    3    2   15 am    
    4    3    4 1     
    5    3   25 1     
    6    3   26 1     
    7    4   13 am    
    8    4    5 1     
    9    5    6 2     
   10    5   27 1     
   11    6    7 1     
   12    6   11 1     
   13    7    8 1     
   14    7    9 1     
   15    7   10 1     
   16   11   12 2     
   17   11   28 1     
   18   12   13 1     
   19   12   29 1     
   20   13   14 2     
   21   15   16 1     
   22   15   30 1     
   23   16   24 1     
   24   16   17 1     
   25   16   31 1     
   26   17   18 1     
   27   17   32 1     
   28   17   33 1     
   29   18   19 1     
   30   18   34 1     
   31   18   35 1     
   32   19   24 1     
   33   19   20 1     
   34   19   45 1     
   35   20   21 1     
   36   20   36 1     
   37   20   37 1     
   38   21   22 1     
   39   21   38 1     
   40   21   39 1     
   41   22   23 1     
   42   22   40 1     
   43   22   41 1     
   44   23   24 1     
   45   23   42 1     
   46   23   43 1     
   47   24   44 1     
   48    1   46 1     
   49    1   47 1     
   50   14   48 1     
   51   14   49 1     
@<TRIPOS>SUBSTRUCTURE
      1 S1             1
@<TRIPOS>SET
LONE_PAIRS      STATIC     ATOMS    <user>   **** ""
4 46 47 48 49
DONOR_HYDROGENS      STATIC     ATOMS    <user>   **** ""
2 30 45
ATOM$BLUE        STATIC     ATOMS    COLORGROUP SYSTEM
4 46 47 48 49
ATOM$RED        STATIC     ATOMS    COLORGROUP SYSTEM
2 30 45
