AV-unprocessed.smi:2714|AV-procd|sdf|10481|dock3
  -GOLD-   2272014523D 1   1.00000     0.00000
 Structure written by MMmdl.
 46 47  0  0  0  0  0  0  0  0  1 V2000
  154.1587  141.6553  160.6762 C   0  0  0  0  0  0  0  0  0  0  0  0
  153.3178  141.9976  159.4417 C   0  0  0  0  0  0  0  0  0  0  0  0
  152.3394  143.1583  159.6999 C   0  0  0  0  0  0  0  0  0  0  0  0
  151.3491  143.4240  158.5442 C   0  0  1  0  0  0  0  0  0  0  0  0
  151.9851  144.3235  157.4704 C   0  0  0  0  0  0  0  0  0  0  0  0
  150.8472  142.1214  157.9043 C   0  0  0  0  0  0  0  0  0  0  0  0
  151.5994  141.4506  157.1972 O   0  0  0  0  0  0  0  0  0  0  0  0
  149.5737  141.7834  158.1601 N   0  0  0  0  0  0  0  0  0  0  0  0
  148.8677  140.6305  157.6110 C   0  0  0  0  0  0  0  0  0  0  0  0
  148.3585  140.8923  156.1998 C   0  0  0  0  0  0  0  0  0  0  0  0
  147.3153  141.8222  156.0020 C   0  0  0  0  0  0  0  0  0  0  0  0
  146.8635  142.0819  154.6955 C   0  0  0  0  0  0  0  0  0  0  0  0
  147.4780  141.3992  153.6302 C   0  0  0  0  0  0  0  0  0  0  0  0
  148.4755  140.5077  153.8021 N   0  0  0  0  0  0  0  0  0  0  0  0
  148.9139  140.2537  155.0594 C   0  0  0  0  0  0  0  0  0  0  0  0
  149.9366  139.3012  155.2058 N   0  0  0  0  0  0  0  0  0  0  0  0
  151.2454  139.6846  154.6895 C   0  0  0  0  0  0  0  0  0  0  0  0
  152.2889  138.6216  155.0724 C   0  0  0  0  0  0  0  0  0  0  0  0
  151.8699  137.3486  154.5881 O   0  0  0  0  0  0  0  0  0  0  0  0
  150.6249  136.9446  155.1516 C   0  0  0  0  0  0  0  0  0  0  0  0
  149.5327  137.9654  154.7872 C   0  0  0  0  0  0  0  0  0  0  0  0
  154.8435  140.8339  160.4645 H   0  0  0  0  0  0  0  0  0  0  0  0
  153.5272  141.3547  161.5127 H   0  0  0  0  0  0  0  0  0  0  0  0
  154.7545  142.5107  160.9958 H   0  0  0  0  0  0  0  0  0  0  0  0
  153.9879  142.2452  158.6180 H   0  0  0  0  0  0  0  0  0  0  0  0
  152.7610  141.1127  159.1313 H   0  0  0  0  0  0  0  0  0  0  0  0
  151.7694  142.9348  160.6026 H   0  0  0  0  0  0  0  0  0  0  0  0
  152.9025  144.0662  159.9227 H   0  0  0  0  0  0  0  0  0  0  0  0
  150.4907  143.9603  158.9522 H   0  0  0  0  0  0  0  0  0  0  0  0
  151.2995  144.4983  156.6402 H   0  0  0  0  0  0  0  0  0  0  0  0
  152.8951  143.8807  157.0632 H   0  0  0  0  0  0  0  0  0  0  0  0
  152.2495  145.2969  157.8841 H   0  0  0  0  0  0  0  0  0  0  0  0
  149.0380  142.3962  158.7577 H   0  0  0  0  0  0  0  0  0  0  0  0
  149.4858  139.7319  157.6152 H   0  0  0  0  0  0  0  0  0  0  0  0
  148.0255  140.4111  158.2679 H   0  0  0  0  0  0  0  0  0  0  0  0
  146.8674  142.3365  156.8398 H   0  0  0  0  0  0  0  0  0  0  0  0
  146.0679  142.7893  154.5143 H   0  0  0  0  0  0  0  0  0  0  0  0
  147.1602  141.5728  152.6128 H   0  0  0  0  0  0  0  0  0  0  0  0
  151.2042  139.7840  153.6037 H   0  0  0  0  0  0  0  0  0  0  0  0
  151.5317  140.6557  155.0956 H   0  0  0  0  0  0  0  0  0  0  0  0
  153.2559  138.8688  154.6346 H   0  0  0  0  0  0  0  0  0  0  0  0
  152.4288  138.5832  156.1536 H   0  0  0  0  0  0  0  0  0  0  0  0
  150.3625  135.9603  154.7637 H   0  0  0  0  0  0  0  0  0  0  0  0
  150.7197  136.8444  156.2337 H   0  0  0  0  0  0  0  0  0  0  0  0
  148.5907  137.6898  155.2624 H   0  0  0  0  0  0  0  0  0  0  0  0
  149.3626  137.9611  153.7096 H   0  0  0  0  0  0  0  0  0  0  0  0
  1  2  1  0  0  0  0
  1 22  1  0  0  0  0
  1 23  1  0  0  0  0
  1 24  1  0  0  0  0
  2  3  1  0  0  0  0
  2 25  1  0  0  0  0
  2 26  1  0  0  0  0
  3  4  1  0  0  0  0
  3 27  1  0  0  0  0
  3 28  1  0  0  0  0
  4  5  1  0  0  0  0
  4  6  1  0  0  0  0
  4 29  1  0  0  0  0
  5 30  1  0  0  0  0
  5 31  1  0  0  0  0
  5 32  1  0  0  0  0
  6  7  2  0  0  0  0
  6  8  1  0  0  0  0
  8  9  1  0  0  0  0
  8 33  1  0  0  0  0
  9 10  1  0  0  0  0
  9 34  1  0  0  0  0
  9 35  1  0  0  0  0
 10 15  1  0  0  0  0
 10 11  2  0  0  0  0
 11 12  1  0  0  0  0
 11 36  1  0  0  0  0
 12 13  2  0  0  0  0
 12 37  1  0  0  0  0
 13 14  1  0  0  0  0
 13 38  1  0  0  0  0
 14 15  2  0  0  0  0
 15 16  1  0  0  0  0
 16 21  1  0  0  0  0
 16 17  1  0  0  0  0
 17 18  1  0  0  0  0
 17 39  1  0  0  0  0
 17 40  1  0  0  0  0
 18 19  1  0  0  0  0
 18 41  1  0  0  0  0
 18 42  1  0  0  0  0
 19 20  1  0  0  0  0
 20 21  1  0  0  0  0
 20 43  1  0  0  0  0
 20 44  1  0  0  0  0
 21 45  1  0  0  0  0
 21 46  1  0  0  0  0
M  END
> <s_m_source_file>
AV-unprocessed.smi

> <i_m_source_file_index>
2714

> <i_lp_mmshare_version>
43012

> <i_f3d_flags>
0

> <s_epik_input>
W0NIM11bQ0gyXVtDSDJdW0NASF0oW0NIM10pQyg9TylbTkhdW0NIMl1jMVtjSF1bY0hdW2NIXW5jMU4yW0NIMl1bQ0gyXU9bQ0gyXVtDSDJdMg==

> <s_epik_cmdline>
J2VwaWtfcHl0aG9uJywgJy1waCcsICc3LjAnLCAnLXRuJywgJzgnLCAnLW1hJywgJzIwMCcsICctbWV0YWxfYmluZGluZycsICctaW1hZScsICc8aW5maWxlLm1hZT4nLCAnLW9tYWUnLCAnPG91dGZpbGUubWFlPic=

> <r_lp_tautomer_probability>
1

> <r_epik_Ionization_Penalty>
0.00517355

> <r_epik_Ionization_Penalty_Charging>
0

> <r_epik_Ionization_Penalty_Neutral>
0.00517355

> <r_epik_State_Penalty>
0.00376978

> <r_epik_Charging_Adjusted_Penalty>
0.00376978

> <i_epik_Tot_Q>
0

> <i_epik_Tot_abs_Q>
0

> <r_epik_Metal_State_Penalty>
-0

> <b_epik_Metal_Only>
0

> <s_lp_Force_Field>
OPLS_2005

> <r_lp_Energy>
17.5243

> <b_lp_Chiralities_Consistent>
1

> <s_lp_Variant>
AV-unprocessed.smi:2714-2

> <Gold.Version>
5.8.1

> <Gold.Id.Protein>
6NUR|6NUR_protein|mol2

> <Gold.PLP.Fitness>
39.9414

> <Gold.PLP.PLP>
-38.3524

> <Gold.PLP.part.hbond>
-1.0000

> <Gold.PLP.part.metal>
0.0000

> <Gold.PLP.part.buried>
-3.9528

> <Gold.PLP.part.nonpolar>
-35.0008

> <Gold.PLP.part.repulsive>
1.9644

> <Gold.PLP.ligand.clash>
0.0000

> <Gold.PLP.ligand.torsion>
0.7530

> <Gold.PLP.Chemscore.Hbond>
0.9357

> <Gold.PLP.Chemscore.CHOScore>
0.0000

> <Gold.PLP.Chemscore.Metal>
0.0000

> <Gold.Chemscore.Hbonds>
donor molecule, donor type, donor heavy atom, donor atom, acceptor molecule, acceptor atom, score
      P1  H 10752 10765       L1    19  0.98

> <Gold.PLP.Chemscore.Internal.Correction>
0.2877

> <Gold.Rescore>
     Score         DG    S(hbond)    S(metal)    S(lipo)     H(rot)  DE(clash)    DE(int)     intcor
     13.58     -15.86       0.92        0.00     100.02       1.72       0.27       2.01       ----

> <Gold.Chemscore.Fitness>
13.5767

> <Gold.Chemscore.DG>
-15.8624

> <Gold.Chemscore.ZeroCoef>
-5.4800

> <Gold.Chemscore.Hbond>
0.9226

> <Gold.Chemscore.Metal>
0.0000

> <Gold.Chemscore.Lipo>
100.0178

> <Gold.Chemscore.Internal_Hbond>
0.0000

> <Gold.Chemscore.DEClash>
0.2748

> <Gold.Chemscore.DEInternal>
2.0109

> <Gold.Chemscore.Rot>
1.7192

> <Gold.Chemscore.Internal.Correction>
   9.000000E+99

> <Gold.Chemscore.Hbonds>
donor molecule, donor type, donor heavy atom, donor atom, acceptor molecule, acceptor atom, score
      P1  H 10752 10765       L1    19  0.49

> <Gold.Chemscore.Hbond.Weighted>
-3.0815

> <Gold.Chemscore.Metal.Weighted>
-0.0000

> <Gold.Chemscore.Lipo.Weighted>
-11.7021

> <Gold.Chemscore.Internal_Hbond.Weighted>
0.0000

> <Gold.Chemscore.DEClash.Weighted>
0.2748

> <Gold.Chemscore.DEInternal.Weighted>
2.0109

> <Gold.Chemscore.Rot.Weighted>
4.4011

> <Gold.Chemscore.Internal.Correction.Weighted>
   9.000000E+99

> <Gold.Protein.RotatedTorsions>
[ 6907 6896 6895 6894 ] final -139.39 input  -60.11 | X-H torsion
[ 7974 7965 7964 7962 ] final  -30.90 input  175.53 | X-H torsion
[ 8008 7997 7996 7995 ] final   20.92 input   59.86 | X-H torsion
[ 10167 10162 10161 10158 ] final   56.45 input  -65.29 | X-H torsion
[ 10718 10713 10712 10709 ] final  126.27 input   66.30 | X-H torsion
[ 10763 10752 10751 10750 ] final  165.70 input  -60.55 | X-H torsion
[ 11005 11000 10999 10996 ] final  -69.54 input  -57.11 | X-H torsion

> <Gold.Protein.ActiveResidues>
 VAL166  LYS551  ARG553  GLY616  TRP617  ASP618  TYR619  PRO620  LYS621  CYS622 
 ASP623  PHE694  ASN695  SER759  ASP760  ASP761  ALA762  ILE779  LEU786  VAL792 
 PHE793  MET794  SER795  GLU796  ALA797  LYS798  CYS799  TRP800  GLU811  SER814 

> <Gold.Protein.RotatedAtoms>
  151.0472  133.5655  159.2645 H   0  0  0  0  0  0  0  0  0  0  0  0  # atno 6907 bound_to 6896
  151.2679  135.0674  159.9133 H   0  0  0  0  0  0  0  0  0  0  0  0  # atno 6908 bound_to 6896
  152.5375  134.0207  159.8034 H   0  0  0  0  0  0  0  0  0  0  0  0  # atno 6909 bound_to 6896
  146.1108  140.5599  142.8779 H   0  0  0  0  0  0  0  0  0  0  0  0  # atno 7974 bound_to 7965
  154.9429  140.3055  155.5112 H   0  0  0  0  0  0  0  0  0  0  0  0  # atno 8008 bound_to 7997
  156.2994  140.2333  156.4437 H   0  0  0  0  0  0  0  0  0  0  0  0  # atno 8009 bound_to 7997
  154.8128  140.0427  157.1343 H   0  0  0  0  0  0  0  0  0  0  0  0  # atno 8010 bound_to 7997
  140.2086  144.3912  150.6498 H   0  0  0  0  0  0  0  0  0  0  0  0  # atno 10167 bound_to 10162
  157.5433  131.1096  150.8823 H   0  0  0  0  0  0  0  0  0  0  0  0  # atno 10718 bound_to 10713
  154.3279  135.2755  155.2486 H   0  0  0  0  0  0  0  0  0  0  0  0  # atno 10763 bound_to 10752
  154.4811  135.5858  153.6394 H   0  0  0  0  0  0  0  0  0  0  0  0  # atno 10764 bound_to 10752
  152.9869  135.6111  154.3469 H   0  0  0  0  0  0  0  0  0  0  0  0  # atno 10765 bound_to 10752
  141.1556  133.6767  156.6616 H   0  0  0  0  0  0  0  0  0  0  0  0  # atno 11005 bound_to 11000
  144.7510  140.5191  143.6802 LP  0  0  0  0  0  0  0  0  0  0  0  0  # atno 17320 bound_to 7965
  145.5667  139.1481  143.3311 LP  0  0  0  0  0  0  0  0  0  0  0  0  # atno 17321 bound_to 7965
  140.6339  143.2192  151.6436 LP  0  0  0  0  0  0  0  0  0  0  0  0  # atno 17342 bound_to 10162
  139.5188  144.3271  152.0859 LP  0  0  0  0  0  0  0  0  0  0  0  0  # atno 17343 bound_to 10162
  156.9370  130.5370  149.5279 LP  0  0  0  0  0  0  0  0  0  0  0  0  # atno 17370 bound_to 10713
  156.0514  130.5583  150.8998 LP  0  0  0  0  0  0  0  0  0  0  0  0  # atno 17371 bound_to 10713
  140.3243  134.7982  157.4277 LP  0  0  0  0  0  0  0  0  0  0  0  0  # atno 17394 bound_to 11000
  140.1070  134.5396  155.8300 LP  0  0  0  0  0  0  0  0  0  0  0  0  # atno 17395 bound_to 11000

$$$$
