AV-unprocessed.smi:474|AV-procd|sdf|2665|dock4
  -GOLD-   2262023 83D 1   1.00000     0.00000
 Structure written by MMmdl.
 37 38  0  0  0  0  0  0  0  0  1 V2000
  153.1049  142.9013  161.7717 C   0  0  0  0  0  0  0  0  0  0  0  0
  152.3716  143.2244  160.5152 C   0  0  0  0  0  0  0  0  0  0  0  0
  151.8415  142.4497  159.5225 C   0  0  0  0  0  0  0  0  0  0  0  0
  151.2834  143.4114  158.6305 C   0  0  0  0  0  0  0  0  0  0  0  0
  150.5978  143.1372  157.4191 N   0  0  0  0  0  0  0  0  0  0  0  0
  150.5073  141.9728  156.7547 C   0  0  0  0  0  0  0  0  0  0  0  0
  151.0432  140.9163  157.0896 O   0  0  0  0  0  0  0  0  0  0  0  0
  149.7453  142.0988  155.6587 N   0  0  0  0  0  0  0  0  0  0  0  0
  149.4356  141.0233  154.7237 C   0  0  0  0  0  0  0  0  0  0  0  0
  148.2640  141.3986  153.7996 C   0  0  0  0  0  0  0  0  0  0  0  0
  147.0709  141.9547  154.5587 C   0  0  0  0  0  0  0  0  0  0  0  0
  146.7941  141.5822  155.8235 C   0  0  0  0  0  0  0  0  0  0  0  0
  145.6090  142.0930  156.6240 C   0  0  0  0  0  0  0  0  0  0  0  0
  144.5718  142.8106  155.7440 C   0  0  0  0  0  0  0  0  0  0  0  0
  145.2524  143.7394  154.7311 C   0  0  0  0  0  0  0  0  0  0  0  0
  146.2039  142.9586  153.8068 C   0  0  0  0  0  0  0  0  0  0  0  0
  151.4617  144.6524  159.0444 N   0  0  0  0  0  0  0  0  0  0  0  0
  152.1596  144.5421  160.2528 O   0  0  0  0  0  0  0  0  0  0  0  0
  152.9952  141.8469  162.0261 H   0  0  0  0  0  0  0  0  0  0  0  0
  152.7237  143.4905  162.6060 H   0  0  0  0  0  0  0  0  0  0  0  0
  154.1682  143.1148  161.6635 H   0  0  0  0  0  0  0  0  0  0  0  0
  151.8582  141.3721  159.4621 H   0  0  0  0  0  0  0  0  0  0  0  0
  150.1062  143.9215  157.0166 H   0  0  0  0  0  0  0  0  0  0  0  0
  149.3451  143.0038  155.4580 H   0  0  0  0  0  0  0  0  0  0  0  0
  150.3334  140.8282  154.1374 H   0  0  0  0  0  0  0  0  0  0  0  0
  149.2139  140.1040  155.2686 H   0  0  0  0  0  0  0  0  0  0  0  0
  148.5961  142.1359  153.0670 H   0  0  0  0  0  0  0  0  0  0  0  0
  147.9393  140.5272  153.2299 H   0  0  0  0  0  0  0  0  0  0  0  0
  147.4418  140.8823  156.3316 H   0  0  0  0  0  0  0  0  0  0  0  0
  145.1390  141.2578  157.1440 H   0  0  0  0  0  0  0  0  0  0  0  0
  145.9876  142.7713  157.3889 H   0  0  0  0  0  0  0  0  0  0  0  0
  143.9762  142.0716  155.2062 H   0  0  0  0  0  0  0  0  0  0  0  0
  143.8767  143.3720  156.3690 H   0  0  0  0  0  0  0  0  0  0  0  0
  144.5054  144.2657  154.1364 H   0  0  0  0  0  0  0  0  0  0  0  0
  145.8136  144.5049  155.2689 H   0  0  0  0  0  0  0  0  0  0  0  0
  146.8412  143.6593  153.2664 H   0  0  0  0  0  0  0  0  0  0  0  0
  145.6249  142.4160  153.0592 H   0  0  0  0  0  0  0  0  0  0  0  0
  1  2  1  0  0  0  0
  1 19  1  0  0  0  0
  1 20  1  0  0  0  0
  1 21  1  0  0  0  0
  2 18  1  0  0  0  0
  2  3  2  0  0  0  0
  3  4  1  0  0  0  0
  3 22  1  0  0  0  0
  4  5  1  0  0  0  0
  4 17  2  0  0  0  0
  5  6  1  0  0  0  0
  5 23  1  0  0  0  0
  6  7  2  0  0  0  0
  6  8  1  0  0  0  0
  8  9  1  0  0  0  0
  8 24  1  0  0  0  0
  9 10  1  0  0  0  0
  9 25  1  0  0  0  0
  9 26  1  0  0  0  0
 10 11  1  0  0  0  0
 10 27  1  0  0  0  0
 10 28  1  0  0  0  0
 11 16  1  0  0  0  0
 11 12  2  0  0  0  0
 12 13  1  0  0  0  0
 12 29  1  0  0  0  0
 13 14  1  0  0  0  0
 13 30  1  0  0  0  0
 13 31  1  0  0  0  0
 14 15  1  0  0  0  0
 14 32  1  0  0  0  0
 14 33  1  0  0  0  0
 15 16  1  0  0  0  0
 15 34  1  0  0  0  0
 15 35  1  0  0  0  0
 16 36  1  0  0  0  0
 16 37  1  0  0  0  0
 17 18  1  0  0  0  0
M  END
> <s_m_source_file>
AV-unprocessed.smi

> <i_m_source_file_index>
474

> <i_lp_mmshare_version>
43012

> <i_f3d_flags>
0

> <s_epik_input>
W0NIM11jMVtjSF1jKG5vMSlbTkhdQyg9TylbTkhdW0NIMl1bQ0gyXUMyPVtDSF1bQ0gyXVtDSDJdW0NIMl1bQ0gyXTI=

> <s_epik_cmdline>
J2VwaWtfcHl0aG9uJywgJy1waCcsICc3LjAnLCAnLXRuJywgJzgnLCAnLW1hJywgJzIwMCcsICctbWV0YWxfYmluZGluZycsICctaW1hZScsICc8aW5maWxlLm1hZT4nLCAnLW9tYWUnLCAnPG91dGZpbGUubWFlPic=

> <r_lp_tautomer_probability>
1

> <r_epik_Ionization_Penalty>
2.87157e-05

> <r_epik_Ionization_Penalty_Charging>
0

> <r_epik_Ionization_Penalty_Neutral>
2.87157e-05

> <r_epik_State_Penalty>
-0

> <r_epik_Charging_Adjusted_Penalty>
0

> <i_epik_Tot_Q>
0

> <i_epik_Tot_abs_Q>
0

> <r_epik_Metal_State_Penalty>
0.00793999

> <b_epik_Metal_Only>
0

> <s_lp_Force_Field>
OPLS_2005

> <r_lp_Energy>
6.67712

> <b_lp_Chiralities_Consistent>
1

> <s_lp_Variant>
AV-unprocessed.smi:474-1

> <Gold.Version>
5.8.1

> <Gold.Id.Protein>
6NUR|6NUR_protein|mol2

> <Gold.PLP.Fitness>
42.9261

> <Gold.PLP.PLP>
-37.9652

> <Gold.PLP.part.hbond>
-2.0000

> <Gold.PLP.part.metal>
0.0000

> <Gold.PLP.part.buried>
-6.2943

> <Gold.PLP.part.nonpolar>
-28.5077

> <Gold.PLP.part.repulsive>
0.3527

> <Gold.PLP.ligand.clash>
0.0000

> <Gold.PLP.ligand.torsion>
0.5271

> <Gold.PLP.Chemscore.Hbond>
2.0000

> <Gold.PLP.Chemscore.CHOScore>
0.0000

> <Gold.PLP.Chemscore.Metal>
0.0000

> <Gold.Chemscore.Hbonds>
donor molecule, donor type, donor heavy atom, donor atom, acceptor molecule, acceptor atom, score
      L1  H     5    23       P1  8028  1.00
      L1  H     8    24       P1  8028  1.00

> <Gold.PLP.Chemscore.Internal.Correction>
0.0150

> <Gold.Rescore>
     Score         DG    S(hbond)    S(metal)    S(lipo)     H(rot)  DE(clash)    DE(int)     intcor
     15.46     -17.08       1.95        0.00      75.86       1.48       0.07       1.55       ----

> <Gold.Chemscore.Fitness>
15.4641

> <Gold.Chemscore.DG>
-17.0787

> <Gold.Chemscore.ZeroCoef>
-5.4800

> <Gold.Chemscore.Hbond>
1.9511

> <Gold.Chemscore.Metal>
0.0000

> <Gold.Chemscore.Lipo>
75.8577

> <Gold.Chemscore.Internal_Hbond>
0.0000

> <Gold.Chemscore.DEClash>
0.0682

> <Gold.Chemscore.DEInternal>
1.5464

> <Gold.Chemscore.Rot>
1.4818

> <Gold.Chemscore.Internal.Correction>
   9.000000E+99

> <Gold.Chemscore.Hbonds>
donor molecule, donor type, donor heavy atom, donor atom, acceptor molecule, acceptor atom, score
      L1  H     5    23       P1  8028  0.92
      L1  H     8    24       P1  8028  1.00

> <Gold.Chemscore.Hbond.Weighted>
-6.5166

> <Gold.Chemscore.Metal.Weighted>
-0.0000

> <Gold.Chemscore.Lipo.Weighted>
-8.8753

> <Gold.Chemscore.Internal_Hbond.Weighted>
0.0000

> <Gold.Chemscore.DEClash.Weighted>
0.0682

> <Gold.Chemscore.DEInternal.Weighted>
1.5464

> <Gold.Chemscore.Rot.Weighted>
3.7933

> <Gold.Chemscore.Internal.Correction.Weighted>
   9.000000E+99

> <Gold.Protein.RotatedTorsions>
[ 6907 6896 6895 6894 ] final  -58.01 input  -60.11 | X-H torsion
[ 7974 7965 7964 7962 ] final  130.92 input  175.53 | X-H torsion
[ 8008 7997 7996 7995 ] final -101.56 input   59.86 | X-H torsion
[ 10167 10162 10161 10158 ] final   82.05 input  -65.29 | X-H torsion
[ 10718 10713 10712 10709 ] final  -62.04 input   66.30 | X-H torsion
[ 10763 10752 10751 10750 ] final   22.03 input  -60.55 | X-H torsion
[ 11005 11000 10999 10996 ] final   -1.54 input  -57.11 | X-H torsion

> <Gold.Protein.ActiveResidues>
 VAL166  LYS551  ARG553  GLY616  TRP617  ASP618  TYR619  PRO620  LYS621  CYS622 
 ASP623  PHE694  ASN695  SER759  ASP760  ASP761  ALA762  ILE779  LEU786  VAL792 
 PHE793  MET794  SER795  GLU796  ALA797  LYS798  CYS799  TRP800  GLU811  SER814 

> <Gold.Protein.RotatedAtoms>
  150.8040  134.7153  159.6626 H   0  0  0  0  0  0  0  0  0  0  0  0  # atno 6907 bound_to 6896
  152.4159  134.6039  160.0017 H   0  0  0  0  0  0  0  0  0  0  0  0  # atno 6908 bound_to 6896
  151.6269  133.3298  159.3136 H   0  0  0  0  0  0  0  0  0  0  0  0  # atno 6909 bound_to 6896
  145.0128  139.4204  143.5236 H   0  0  0  0  0  0  0  0  0  0  0  0  # atno 7974 bound_to 7965
  154.8443  140.0433  157.1562 H   0  0  0  0  0  0  0  0  0  0  0  0  # atno 8008 bound_to 7997
  154.9013  140.3000  155.5296 H   0  0  0  0  0  0  0  0  0  0  0  0  # atno 8009 bound_to 7997
  156.2993  140.2375  156.4041 H   0  0  0  0  0  0  0  0  0  0  0  0  # atno 8010 bound_to 7997
  139.9328  144.6141  150.8328 H   0  0  0  0  0  0  0  0  0  0  0  0  # atno 10167 bound_to 10162
  156.0881  130.4205  150.1079 H   0  0  0  0  0  0  0  0  0  0  0  0  # atno 10718 bound_to 10713
  153.0947  135.6656  153.9785 H   0  0  0  0  0  0  0  0  0  0  0  0  # atno 10763 bound_to 10752
  153.9372  135.2997  155.3445 H   0  0  0  0  0  0  0  0  0  0  0  0  # atno 10764 bound_to 10752
  154.7365  135.5099  153.9124 H   0  0  0  0  0  0  0  0  0  0  0  0  # atno 10765 bound_to 10752
  140.6484  133.9426  155.8366 H   0  0  0  0  0  0  0  0  0  0  0  0  # atno 11005 bound_to 11000
  146.3473  139.9582  142.8720 LP  0  0  0  0  0  0  0  0  0  0  0  0  # atno 17320 bound_to 7965
  145.2000  140.9850  143.4161 LP  0  0  0  0  0  0  0  0  0  0  0  0  # atno 17321 bound_to 7965
  140.7632  143.3218  151.2604 LP  0  0  0  0  0  0  0  0  0  0  0  0  # atno 17342 bound_to 10162
  139.6768  143.9924  152.2785 LP  0  0  0  0  0  0  0  0  0  0  0  0  # atno 17343 bound_to 10162
  156.9096  130.9647  151.3565 LP  0  0  0  0  0  0  0  0  0  0  0  0  # atno 17370 bound_to 10713
  157.6022  130.8521  149.8820 LP  0  0  0  0  0  0  0  0  0  0  0  0  # atno 17371 bound_to 10713
  141.0555  134.0423  157.3728 LP  0  0  0  0  0  0  0  0  0  0  0  0  # atno 17394 bound_to 11000
  139.9054  135.0178  156.7463 LP  0  0  0  0  0  0  0  0  0  0  0  0  # atno 17395 bound_to 11000

$$$$
