AV-unprocessed.smi:1720|AV-procd|sdf|6934|dock1
  -GOLD-   22720 8143D 1   1.00000     0.00000
 Structure written by MMmdl.
 32 33  0  0  0  0  0  0  0  0  1 V2000
  144.1640  135.6063  152.7455 C   0  0  0  0  0  0  0  0  0  0  0  0
  145.0123  135.8744  151.4929 C   0  0  1  0  0  0  0  0  0  0  0  0
  146.1785  136.6641  151.8832 N   0  0  0  0  0  0  0  0  0  0  0  0
  146.1487  137.8103  152.5784 C   0  0  0  0  0  0  0  0  0  0  0  0
  145.1127  138.3387  152.9826 O   0  0  0  0  0  0  0  0  0  0  0  0
  147.3865  138.2954  152.7688 N   0  0  0  0  0  0  0  0  0  0  0  0
  147.7499  139.4867  153.4465 C   0  0  0  0  0  0  0  0  0  0  0  0
  147.0443  140.7172  153.3551 C   0  0  0  0  0  0  0  0  0  0  0  0
  147.6130  141.6570  154.0969 N   0  0  0  0  0  0  0  0  0  0  0  0
  148.6751  141.0380  154.6604 N   0  0  0  0  0  0  0  0  0  0  0  0
  148.7980  139.7161  154.2932 C   0  0  0  0  0  0  0  0  0  0  0  0
  145.4666  134.5704  150.8043 C   0  0  1  0  0  0  0  0  0  0  0  0
  146.1655  133.5701  151.7260 C   0  0  0  0  0  0  0  0  0  0  0  0
  145.9458  132.2331  151.0364 C   0  0  0  0  0  0  0  0  0  0  0  0
  144.8110  132.5068  150.0459 C   0  0  0  0  0  0  0  0  0  0  0  0
  144.3513  133.8143  150.3574 O   0  0  0  0  0  0  0  0  0  0  0  0
  149.2998  141.5255  155.2867 H   0  0  0  0  0  0  0  0  0  0  0  0
  143.2460  135.0731  152.4978 H   0  0  0  0  0  0  0  0  0  0  0  0
  143.8748  136.5395  153.2298 H   0  0  0  0  0  0  0  0  0  0  0  0
  144.7103  135.0074  153.4749 H   0  0  0  0  0  0  0  0  0  0  0  0
  144.3985  136.4468  150.7951 H   0  0  0  0  0  0  0  0  0  0  0  0
  147.0785  136.3120  151.5926 H   0  0  0  0  0  0  0  0  0  0  0  0
  148.1495  137.7590  152.3832 H   0  0  0  0  0  0  0  0  0  0  0  0
  146.1567  140.9549  152.7875 H   0  0  0  0  0  0  0  0  0  0  0  0
  149.5951  139.0859  154.6589 H   0  0  0  0  0  0  0  0  0  0  0  0
  146.1059  134.7939  149.9478 H   0  0  0  0  0  0  0  0  0  0  0  0
  147.2213  133.7989  151.8748 H   0  0  0  0  0  0  0  0  0  0  0  0
  145.6826  133.5585  152.7041 H   0  0  0  0  0  0  0  0  0  0  0  0
  146.8423  131.9056  150.5089 H   0  0  0  0  0  0  0  0  0  0  0  0
  145.6786  131.4601  151.7575 H   0  0  0  0  0  0  0  0  0  0  0  0
  145.1843  132.4920  149.0209 H   0  0  0  0  0  0  0  0  0  0  0  0
  144.0025  131.7797  150.1239 H   0  0  0  0  0  0  0  0  0  0  0  0
  1  2  1  0  0  0  0
  1 18  1  0  0  0  0
  1 19  1  0  0  0  0
  1 20  1  0  0  0  0
  2  3  1  0  0  0  0
  2 12  1  0  0  0  0
  2 21  1  0  0  0  0
  3  4  1  0  0  0  0
  3 22  1  0  0  0  0
  4  5  2  0  0  0  0
  4  6  1  0  0  0  0
  6  7  1  0  0  0  0
  6 23  1  0  0  0  0
  7 11  2  0  0  0  0
  7  8  1  0  0  0  0
  8  9  2  0  0  0  0
  8 24  1  0  0  0  0
  9 10  1  0  0  0  0
 10 17  1  0  0  0  0
 10 11  1  0  0  0  0
 11 25  1  0  0  0  0
 12 16  1  0  0  0  0
 12 13  1  0  0  0  0
 12 26  1  0  0  0  0
 13 14  1  0  0  0  0
 13 27  1  0  0  0  0
 13 28  1  0  0  0  0
 14 15  1  0  0  0  0
 14 29  1  0  0  0  0
 14 30  1  0  0  0  0
 15 16  1  0  0  0  0
 15 31  1  0  0  0  0
 15 32  1  0  0  0  0
M  END
> <s_m_source_file>
AV-unprocessed.smi

> <i_m_source_file_index>
1720

> <i_lp_mmshare_version>
43012

> <i_f3d_flags>
0

> <s_epik_input>
TzFbQ0gyXVtDSDJdW0NIMl1bQ0BIXTFbQ0BIXShbQ0gzXSlbTkhdQyg9TylbTkhdYzJbY0hdbltuSF1bY0hdMg==

> <s_epik_cmdline>
J2VwaWtfcHl0aG9uJywgJy1waCcsICc3LjAnLCAnLXRuJywgJzgnLCAnLW1hJywgJzIwMCcsICctbWV0YWxfYmluZGluZycsICctaW1hZScsICc8aW5maWxlLm1hZT4nLCAnLW9tYWUnLCAnPG91dGZpbGUubWFlPic=

> <r_lp_tautomer_probability>
1

> <r_epik_Ionization_Penalty>
4.95841e-05

> <r_epik_Ionization_Penalty_Charging>
0

> <r_epik_Ionization_Penalty_Neutral>
4.95841e-05

> <r_epik_State_Penalty>
-0

> <r_epik_Charging_Adjusted_Penalty>
0

> <i_epik_Tot_Q>
0

> <i_epik_Tot_abs_Q>
0

> <r_epik_Metal_State_Penalty>
-0

> <b_epik_Metal_Only>
0

> <s_lp_Force_Field>
OPLS_2005

> <r_lp_Energy>
20.531

> <b_lp_Chiralities_Consistent>
1

> <s_lp_Variant>
AV-unprocessed.smi:1720-4

> <Gold.Version>
5.8.1

> <Gold.Id.Protein>
6NUR|6NUR_protein|mol2

> <Gold.PLP.Fitness>
31.2531

> <Gold.PLP.PLP>
-22.9951

> <Gold.PLP.part.hbond>
-2.3481

> <Gold.PLP.part.metal>
0.0000

> <Gold.PLP.part.buried>
-4.7456

> <Gold.PLP.part.nonpolar>
-20.6910

> <Gold.PLP.part.repulsive>
4.0205

> <Gold.PLP.ligand.clash>
0.0000

> <Gold.PLP.ligand.torsion>
0.3825

> <Gold.PLP.Chemscore.Hbond>
2.0000

> <Gold.PLP.Chemscore.CHOScore>
1.0000

> <Gold.PLP.Chemscore.Metal>
0.0000

> <Gold.Chemscore.Hbonds>
donor molecule, donor type, donor heavy atom, donor atom, acceptor molecule, acceptor atom, score
      L1  H     3    22       P1  7948  1.00
      L1  H     6    23       P1  7948  1.00
      L1  C     8    24       P1 10175  1.00

> <Gold.PLP.Chemscore.Internal.Correction>
0.0229

> <Gold.Rescore>
     Score         DG    S(hbond)    S(metal)    S(lipo)     H(rot)  DE(clash)    DE(int)     intcor
     12.41     -15.53       1.96        0.00      58.55       1.31       1.51       1.62       ----

> <Gold.Chemscore.Fitness>
12.4051

> <Gold.Chemscore.DG>
-15.5277

> <Gold.Chemscore.ZeroCoef>
-5.4800

> <Gold.Chemscore.Hbond>
1.9598

> <Gold.Chemscore.Metal>
0.0000

> <Gold.Chemscore.Lipo>
58.5498

> <Gold.Chemscore.Internal_Hbond>
0.0000

> <Gold.Chemscore.DEClash>
1.5057

> <Gold.Chemscore.DEInternal>
1.6169

> <Gold.Chemscore.Rot>
1.3079

> <Gold.Chemscore.Internal.Correction>
   9.000000E+99

> <Gold.Chemscore.Hbonds>
donor molecule, donor type, donor heavy atom, donor atom, acceptor molecule, acceptor atom, score
      L1  H     3    22       P1  7948  0.94
      L1  H     6    23       P1  7948  0.98

> <Gold.Chemscore.Hbond.Weighted>
-6.5457

> <Gold.Chemscore.Metal.Weighted>
-0.0000

> <Gold.Chemscore.Lipo.Weighted>
-6.8503

> <Gold.Chemscore.Internal_Hbond.Weighted>
0.0000

> <Gold.Chemscore.DEClash.Weighted>
1.5057

> <Gold.Chemscore.DEInternal.Weighted>
1.6169

> <Gold.Chemscore.Rot.Weighted>
3.3483

> <Gold.Chemscore.Internal.Correction.Weighted>
   9.000000E+99

> <Gold.Protein.RotatedTorsions>
[ 6907 6896 6895 6894 ] final  153.64 input  -60.11 | X-H torsion
[ 7974 7965 7964 7962 ] final  -28.38 input  175.53 | X-H torsion
[ 8008 7997 7996 7995 ] final  -37.17 input   59.86 | X-H torsion
[ 10167 10162 10161 10158 ] final   24.71 input  -65.29 | X-H torsion
[ 10718 10713 10712 10709 ] final -106.67 input   66.30 | X-H torsion
[ 10763 10752 10751 10750 ] final  174.29 input  -60.55 | X-H torsion
[ 11005 11000 10999 10996 ] final   70.86 input  -57.11 | X-H torsion

> <Gold.Protein.ActiveResidues>
 VAL166  LYS551  ARG553  GLY616  TRP617  ASP618  TYR619  PRO620  LYS621  CYS622 
 ASP623  PHE694  ASN695  SER759  ASP760  ASP761  ALA762  ILE779  LEU786  VAL792 
 PHE793  MET794  SER795  GLU796  ALA797  LYS798  CYS799  TRP800  GLU811  SER814 

> <Gold.Protein.RotatedAtoms>
  152.0698  133.4101  159.4454 H   0  0  0  0  0  0  0  0  0  0  0  0  # atno 6907 bound_to 6896
  150.6864  134.3104  159.4753 H   0  0  0  0  0  0  0  0  0  0  0  0  # atno 6908 bound_to 6896
  152.0935  134.9391  160.0622 H   0  0  0  0  0  0  0  0  0  0  0  0  # atno 6909 bound_to 6896
  146.1292  140.5275  142.8701 H   0  0  0  0  0  0  0  0  0  0  0  0  # atno 7974 bound_to 7965
  154.4058  140.1611  156.2493 H   0  0  0  0  0  0  0  0  0  0  0  0  # atno 8008 bound_to 7997
  155.9133  140.3426  155.6093 H   0  0  0  0  0  0  0  0  0  0  0  0  # atno 8009 bound_to 7997
  155.7310  140.0780  157.2279 H   0  0  0  0  0  0  0  0  0  0  0  0  # atno 8010 bound_to 7997
  140.5166  144.0072  150.6397 H   0  0  0  0  0  0  0  0  0  0  0  0  # atno 10167 bound_to 10162
  156.0401  130.5624  150.7714 H   0  0  0  0  0  0  0  0  0  0  0  0  # atno 10718 bound_to 10713
  154.4519  135.2765  155.1775 H   0  0  0  0  0  0  0  0  0  0  0  0  # atno 10763 bound_to 10752
  154.3599  135.6132  153.5689 H   0  0  0  0  0  0  0  0  0  0  0  0  # atno 10764 bound_to 10752
  152.9848  135.5832  154.4865 H   0  0  0  0  0  0  0  0  0  0  0  0  # atno 10765 bound_to 10752
  139.9574  134.7119  156.0721 H   0  0  0  0  0  0  0  0  0  0  0  0  # atno 11005 bound_to 11000
  144.7673  140.5559  143.6694 LP  0  0  0  0  0  0  0  0  0  0  0  0  # atno 17320 bound_to 7965
  145.5298  139.1475  143.3506 LP  0  0  0  0  0  0  0  0  0  0  0  0  # atno 17321 bound_to 7965
  140.3410  143.3020  152.0588 LP  0  0  0  0  0  0  0  0  0  0  0  0  # atno 17342 bound_to 10162
  139.4911  144.6443  151.6812 LP  0  0  0  0  0  0  0  0  0  0  0  0  # atno 17343 bound_to 10162
  157.5207  131.0931  151.0082 LP  0  0  0  0  0  0  0  0  0  0  0  0  # atno 17370 bound_to 10713
  157.0414  130.5750  149.5356 LP  0  0  0  0  0  0  0  0  0  0  0  0  # atno 17371 bound_to 10713
  141.1248  133.6602  156.3307 LP  0  0  0  0  0  0  0  0  0  0  0  0  # atno 17394 bound_to 11000
  140.5577  134.5965  157.5425 LP  0  0  0  0  0  0  0  0  0  0  0  0  # atno 17395 bound_to 11000

$$$$
