AV-unprocessed.smi:1385|AV-procd|sdf|5635|dock1
  -GOLD-   22720 5253D 1   1.00000     0.00000
 Structure written by MMmdl.
 38 39  0  0  0  0  0  0  0  0  3 V2000
  154.0651  137.5215  157.7457 C   0  0  0  0  0  0  0  0  0  0  0  0
  152.9695  137.2446  156.7738 C   0  0  0  0  0  0  0  0  0  0  0  0
  152.6070  136.0042  156.4243 N   0  0  0  0  0  0  0  0  0  0  0  0
  151.5661  135.9994  155.5062 N   0  0  0  0  0  0  0  0  0  0  0  0
  151.1719  137.2409  155.1915 C   0  0  0  0  0  0  0  0  0  0  0  0
  150.1282  137.5288  154.2731 N   0  0  0  0  0  0  0  0  0  0  0  0
  149.2686  138.5627  154.2862 C   0  0  0  0  0  0  0  0  0  0  0  0
  149.2545  139.4685  155.1200 O   0  0  0  0  0  0  0  0  0  0  0  0
  148.4062  138.4886  153.2617 N   0  0  0  0  0  0  0  0  0  0  0  0
  147.3417  139.4516  152.9807 C   0  0  2  0  0  0  0  0  0  0  0  0
  146.2172  139.3839  154.0324 C   0  0  0  0  0  0  0  0  0  0  0  0
  145.3973  138.0865  153.9173 C   0  0  0  0  0  0  0  0  0  0  0  0
  144.8448  137.9179  152.5457 N   0  3  2  0  0  0  0  0  0  0  0  0
  143.9484  136.7418  152.4177 C   0  0  0  0  0  0  0  0  0  0  0  0
  142.6743  136.9483  153.2440 C   0  0  0  0  0  0  0  0  0  0  0  0
  142.0270  138.0826  152.9158 N   0  5  0  0  0  0  0  0  0  0  0  0
  142.3509  136.1088  154.0820 O   0  0  0  0  0  0  0  0  0  0  0  0
  145.9175  137.9186  151.5185 C   0  0  0  0  0  0  0  0  0  0  0  0
  146.7538  139.2101  151.5802 C   0  0  0  0  0  0  0  0  0  0  0  0
  152.0473  138.5286  156.0016 S   0  0  0  0  0  0  0  0  0  0  0  0
  154.7469  136.6726  157.8066 H   0  0  0  0  0  0  0  0  0  0  0  0
  153.6462  137.7068  158.7348 H   0  0  0  0  0  0  0  0  0  0  0  0
  154.6304  138.3998  157.4333 H   0  0  0  0  0  0  0  0  0  0  0  0
  150.0185  136.8631  153.5224 H   0  0  0  0  0  0  0  0  0  0  0  0
  148.4949  137.7102  152.6251 H   0  0  0  0  0  0  0  0  0  0  0  0
  147.7784  140.4519  152.9956 H   0  0  0  0  0  0  0  0  0  0  0  0
  146.6250  139.4802  155.0393 H   0  0  0  0  0  0  0  0  0  0  0  0
  145.5505  140.2366  153.8965 H   0  0  0  0  0  0  0  0  0  0  0  0
  146.0159  137.2246  154.1716 H   0  0  0  0  0  0  0  0  0  0  0  0
  144.5889  138.1159  154.6481 H   0  0  0  0  0  0  0  0  0  0  0  0
  143.6333  136.6249  151.3800 H   0  0  0  0  0  0  0  0  0  0  0  0
  144.4819  135.8265  152.6839 H   0  0  0  0  0  0  0  0  0  0  0  0
  142.5777  138.8943  152.6111 H   0  0  0  0  0  0  0  0  0  0  0  0
  146.5554  137.0443  151.6581 H   0  0  0  0  0  0  0  0  0  0  0  0
  145.4747  137.8302  150.5259 H   0  0  0  0  0  0  0  0  0  0  0  0
  146.1207  140.0558  151.3084 H   0  0  0  0  0  0  0  0  0  0  0  0
  147.5503  139.1776  150.8357 H   0  0  0  0  0  0  0  0  0  0  0  0
  144.2678  138.7259  152.3590 H   0  0  0  0  0  0  0  0  0  0  0  0
  1  2  1  0  0  0  0
  1 21  1  0  0  0  0
  1 22  1  0  0  0  0
  1 23  1  0  0  0  0
  2 20  1  0  0  0  0
  2  3  2  0  0  0  0
  3  4  1  0  0  0  0
  4  5  2  0  0  0  0
  5  6  1  0  0  0  0
  5 20  1  0  0  0  0
  6  7  1  0  0  0  0
  6 24  1  0  0  0  0
  7  8  2  0  0  0  0
  7  9  1  0  0  0  0
  9 10  1  0  0  0  0
  9 25  1  0  0  0  0
 10 19  1  0  0  0  0
 10 11  1  0  0  0  0
 10 26  1  0  0  0  0
 11 12  1  0  0  0  0
 11 27  1  0  0  0  0
 11 28  1  0  0  0  0
 12 13  1  0  0  0  0
 12 29  1  0  0  0  0
 12 30  1  0  0  0  0
 13 14  1  0  0  0  0
 13 18  1  0  0  0  0
 13 38  1  0  0  0  0
 14 15  1  0  0  0  0
 14 31  1  0  0  0  0
 14 32  1  0  0  0  0
 15 16  1  0  0  0  0
 15 17  2  0  0  0  0
 16 33  1  0  0  0  0
 18 19  1  0  0  0  0
 18 34  1  0  0  0  0
 18 35  1  0  0  0  0
 19 36  1  0  0  0  0
 19 37  1  0  0  0  0
M  CHG  1  13   1
M  CHG  1  16  -1
M  END
> <s_m_source_file>
AV-unprocessed.smi

> <i_m_source_file_index>
1385

> <i_lp_mmshare_version>
43012

> <i_f3d_flags>
0

> <s_epik_input>
W0NIM11jMW5uYyhzMSlbTkhdQyg9TylbTkhdW0NIXTJbQ0gyXVtDSDJdTihbQ0gyXVtDSDJdMilbQ0gyXUMoPU8pW05IMl0=

> <s_epik_cmdline>
J2VwaWtfcHl0aG9uJywgJy1waCcsICc3LjAnLCAnLXRuJywgJzgnLCAnLW1hJywgJzIwMCcsICctbWV0YWxfYmluZGluZycsICctaW1hZScsICc8aW5maWxlLm1hZT4nLCAnLW9tYWUnLCAnPG91dGZpbGUubWFlPic=

> <r_lp_tautomer_probability>
1

> <r_epik_Ionization_Penalty>
5.73549

> <r_epik_Ionization_Penalty_Charging>
5.73152

> <r_epik_Ionization_Penalty_Neutral>
0.00396448

> <r_epik_State_Penalty>
6.57436

> <r_epik_Charging_Adjusted_Penalty>
12.3059

> <i_epik_Tot_Q>
0

> <i_epik_Tot_abs_Q>
2

> <r_epik_Metal_State_Penalty>
2.87628

> <b_epik_Metal_Only>
1

> <s_lp_Force_Field>
OPLS_2005

> <r_lp_Energy>
6.46457

> <b_lp_Chiralities_Consistent>
1

> <s_lp_Variant>
AV-unprocessed.smi:1385-8

> <Gold.Version>
5.8.1

> <Gold.Id.Protein>
6NUR|6NUR_protein|mol2

> <Gold.PLP.Fitness>
42.4551

> <Gold.PLP.PLP>
-26.6152

> <Gold.PLP.part.hbond>
-8.0000

> <Gold.PLP.part.metal>
0.0000

> <Gold.PLP.part.buried>
3.1304

> <Gold.PLP.part.nonpolar>
-23.3484

> <Gold.PLP.part.repulsive>
0.2969

> <Gold.PLP.ligand.clash>
0.0000

> <Gold.PLP.ligand.torsion>
0.4006

> <Gold.PLP.Chemscore.Hbond>
5.5333

> <Gold.PLP.Chemscore.CHOScore>
0.0000

> <Gold.PLP.Chemscore.Metal>
0.0000

> <Gold.Chemscore.Hbonds>
donor molecule, donor type, donor heavy atom, donor atom, acceptor molecule, acceptor atom, score
      L1  H     6    24       P1  7948  0.94
      L1  H     9    25       P1  7948  1.00
      L1  H    13    38       P1 10175  2.00
      L1  H    16    33       P1 10175  1.00
      P1  H 10752 10763       L1     3  0.55

> <Gold.PLP.Chemscore.Internal.Correction>
0.0411

> <Gold.Rescore>
     Score         DG    S(hbond)    S(metal)    S(lipo)     H(rot)  DE(clash)    DE(int)     intcor
     15.77     -17.49       3.49        0.00      47.74       2.04       1.32       0.40       ----

> <Gold.Chemscore.Fitness>
15.7712

> <Gold.Chemscore.DG>
-17.4918

> <Gold.Chemscore.ZeroCoef>
-5.4800

> <Gold.Chemscore.Hbond>
3.4851

> <Gold.Chemscore.Metal>
0.0000

> <Gold.Chemscore.Lipo>
47.7440

> <Gold.Chemscore.Internal_Hbond>
0.0000

> <Gold.Chemscore.DEClash>
1.3158

> <Gold.Chemscore.DEInternal>
0.4048

> <Gold.Chemscore.Rot>
2.0369

> <Gold.Chemscore.Internal.Correction>
   9.000000E+99

> <Gold.Chemscore.Hbonds>
donor molecule, donor type, donor heavy atom, donor atom, acceptor molecule, acceptor atom, score
      L1  H     6    24       P1  7948  0.19
      L1  H     9    25       P1  7948  1.00
      L1  H    13    38       P1 10175  1.00
      L1  H    16    33       P1 10175  1.00
      P1  H 10752 10763       L1     3  0.02

> <Gold.Chemscore.Hbond.Weighted>
-11.6401

> <Gold.Chemscore.Metal.Weighted>
-0.0000

> <Gold.Chemscore.Lipo.Weighted>
-5.5860

> <Gold.Chemscore.Internal_Hbond.Weighted>
0.0000

> <Gold.Chemscore.DEClash.Weighted>
1.3158

> <Gold.Chemscore.DEInternal.Weighted>
0.4048

> <Gold.Chemscore.Rot.Weighted>
5.2144

> <Gold.Chemscore.Internal.Correction.Weighted>
   9.000000E+99

> <Gold.Protein.RotatedTorsions>
[ 6907 6896 6895 6894 ] final  -44.42 input  -60.11 | X-H torsion
[ 7974 7965 7964 7962 ] final  -80.38 input  175.53 | X-H torsion
[ 8008 7997 7996 7995 ] final   34.53 input   59.86 | X-H torsion
[ 10167 10162 10161 10158 ] final  159.85 input  -65.29 | X-H torsion
[ 10718 10713 10712 10709 ] final  -86.38 input   66.30 | X-H torsion
[ 10763 10752 10751 10750 ] final  122.05 input  -60.55 | X-H torsion
[ 11005 11000 10999 10996 ] final  -77.42 input  -57.11 | X-H torsion

> <Gold.Protein.ActiveResidues>
 VAL166  LYS551  ARG553  GLY616  TRP617  ASP618  TYR619  PRO620  LYS621  CYS622 
 ASP623  PHE694  ASN695  SER759  ASP760  ASP761  ALA762  ILE779  LEU786  VAL792 
 PHE793  MET794  SER795  GLU796  ALA797  LYS798  CYS799  TRP800  GLU811  SER814 

> <Gold.Protein.RotatedAtoms>
  150.9330  134.8744  159.7563 H   0  0  0  0  0  0  0  0  0  0  0  0  # atno 6907 bound_to 6896
  152.5046  134.4051  159.9439 H   0  0  0  0  0  0  0  0  0  0  0  0  # atno 6908 bound_to 6896
  151.4077  133.3697  159.2775 H   0  0  0  0  0  0  0  0  0  0  0  0  # atno 6909 bound_to 6896
  145.5608  140.9482  143.1448 H   0  0  0  0  0  0  0  0  0  0  0  0  # atno 7974 bound_to 7965
  155.1563  140.3279  155.4420 H   0  0  0  0  0  0  0  0  0  0  0  0  # atno 8008 bound_to 7997
  156.2557  140.1968  156.6623 H   0  0  0  0  0  0  0  0  0  0  0  0  # atno 8009 bound_to 7997
  154.6436  140.0567  156.9861 H   0  0  0  0  0  0  0  0  0  0  0  0  # atno 8010 bound_to 7997
  139.4835  144.4690  151.8602 H   0  0  0  0  0  0  0  0  0  0  0  0  # atno 10167 bound_to 10162
  155.9990  130.4763  150.4706 H   0  0  0  0  0  0  0  0  0  0  0  0  # atno 10718 bound_to 10713
  153.6237  135.3408  155.3019 H   0  0  0  0  0  0  0  0  0  0  0  0  # atno 10763 bound_to 10752
  154.8595  135.4279  154.2180 H   0  0  0  0  0  0  0  0  0  0  0  0  # atno 10764 bound_to 10752
  153.3059  135.7028  153.7233 H   0  0  0  0  0  0  0  0  0  0  0  0  # atno 10765 bound_to 10752
  141.1660  133.7022  156.7818 H   0  0  0  0  0  0  0  0  0  0  0  0  # atno 11005 bound_to 11000
  144.7484  139.7259  143.7283 LP  0  0  0  0  0  0  0  0  0  0  0  0  # atno 17320 bound_to 7965
  146.1853  139.5065  142.9840 LP  0  0  0  0  0  0  0  0  0  0  0  0  # atno 17321 bound_to 7965
  140.4158  144.2309  150.5888 LP  0  0  0  0  0  0  0  0  0  0  0  0  # atno 17342 bound_to 10162
  140.4922  143.2344  151.8801 LP  0  0  0  0  0  0  0  0  0  0  0  0  # atno 17343 bound_to 10162
  157.2721  131.0589  151.2253 LP  0  0  0  0  0  0  0  0  0  0  0  0  # atno 17370 bound_to 10713
  157.3329  130.6994  149.6335 LP  0  0  0  0  0  0  0  0  0  0  0  0  # atno 17371 bound_to 10713
  140.2389  134.8629  157.3553 LP  0  0  0  0  0  0  0  0  0  0  0  0  # atno 17394 bound_to 11000
  140.1816  134.4482  155.7768 LP  0  0  0  0  0  0  0  0  0  0  0  0  # atno 17395 bound_to 11000

$$$$
