AV-unprocessed.smi:2828|AV-procd|sdf|10897|dock7
  -GOLD-   2272015343D 1   1.00000     0.00000
 Structure written by MMmdl.
 38 39  0  0  0  0  0  0  0  0  1 V2000
  145.6642  137.5167  162.5793 C   0  0  0  0  0  0  0  0  0  0  0  0
  145.2650  136.1563  162.0070 C   0  0  0  0  0  0  0  0  0  0  0  0
  143.7473  136.0457  162.0669 C   0  0  0  0  0  0  0  0  0  0  0  0
  145.9837  135.4940  160.8321 C   0  0  0  0  0  0  0  0  0  0  0  0
  147.1125  136.2047  160.1575 C   0  0  0  0  0  0  0  0  0  0  0  0
  147.7212  137.1359  160.6845 O   0  0  0  0  0  0  0  0  0  0  0  0
  147.3516  135.7885  158.9044 N   0  0  0  0  0  0  0  0  0  0  0  0
  148.3764  136.3349  158.0226 C   0  0  0  0  0  0  0  0  0  0  0  0
  148.2870  137.8664  157.9294 C   0  0  0  0  0  0  0  0  0  0  0  0
  148.6039  138.3728  156.5624 C   0  0  0  0  0  0  0  0  0  0  0  0
  148.6606  137.6651  155.4365 N   0  0  0  0  0  0  0  0  0  0  0  0
  148.9285  138.6417  154.5289 C   0  0  0  0  0  0  0  0  0  0  0  0
  149.0906  138.3427  153.1661 N   0  0  0  0  0  0  0  0  0  0  0  0
  149.0213  139.8742  155.0101 N   0  0  0  0  0  0  0  0  0  0  0  0
  148.7906  139.7026  156.3829 O   0  0  0  0  0  0  0  0  0  0  0  0
  146.1515  134.9321  162.2411 C   0  0  0  0  0  0  0  0  0  0  0  0
  147.4576  135.0538  163.0265 C   0  0  0  0  0  0  0  0  0  0  0  0
  145.5361  133.5734  162.5478 C   0  0  0  0  0  0  0  0  0  0  0  0
  145.1693  138.3178  162.0293 H   0  0  0  0  0  0  0  0  0  0  0  0
  146.7353  137.7001  162.5243 H   0  0  0  0  0  0  0  0  0  0  0  0
  145.3663  137.5848  163.6259 H   0  0  0  0  0  0  0  0  0  0  0  0
  143.3872  135.1570  161.5503 H   0  0  0  0  0  0  0  0  0  0  0  0
  143.2835  136.9094  161.5895 H   0  0  0  0  0  0  0  0  0  0  0  0
  143.4122  136.0015  163.1035 H   0  0  0  0  0  0  0  0  0  0  0  0
  145.3417  134.9447  160.1455 H   0  0  0  0  0  0  0  0  0  0  0  0
  146.7886  135.0336  158.5396 H   0  0  0  0  0  0  0  0  0  0  0  0
  149.3663  136.0293  158.3660 H   0  0  0  0  0  0  0  0  0  0  0  0
  148.2415  135.8943  157.0344 H   0  0  0  0  0  0  0  0  0  0  0  0
  147.2856  138.2023  158.2008 H   0  0  0  0  0  0  0  0  0  0  0  0
  148.9746  138.3318  158.6368 H   0  0  0  0  0  0  0  0  0  0  0  0
  149.0097  137.3908  152.8392 H   0  0  0  0  0  0  0  0  0  0  0  0
  149.2809  139.0788  152.5016 H   0  0  0  0  0  0  0  0  0  0  0  0
  148.1114  134.2092  162.8075 H   0  0  0  0  0  0  0  0  0  0  0  0
  147.2509  135.0586  164.0971 H   0  0  0  0  0  0  0  0  0  0  0  0
  148.0104  135.9598  162.7859 H   0  0  0  0  0  0  0  0  0  0  0  0
  146.2632  132.7782  162.3810 H   0  0  0  0  0  0  0  0  0  0  0  0
  144.6782  133.3676  161.9089 H   0  0  0  0  0  0  0  0  0  0  0  0
  145.2098  133.5325  163.5875 H   0  0  0  0  0  0  0  0  0  0  0  0
  1  2  1  0  0  0  0
  1 19  1  0  0  0  0
  1 20  1  0  0  0  0
  1 21  1  0  0  0  0
  2 16  1  0  0  0  0
  2  3  1  0  0  0  0
  2  4  1  0  0  0  0
  3 22  1  0  0  0  0
  3 23  1  0  0  0  0
  3 24  1  0  0  0  0
  4  5  1  0  0  0  0
  4 16  1  0  0  0  0
  4 25  1  0  0  0  0
  5  6  2  0  0  0  0
  5  7  1  0  0  0  0
  7  8  1  0  0  0  0
  7 26  1  0  0  0  0
  8  9  1  0  0  0  0
  8 27  1  0  0  0  0
  8 28  1  0  0  0  0
  9 10  1  0  0  0  0
  9 29  1  0  0  0  0
  9 30  1  0  0  0  0
 10 15  1  0  0  0  0
 10 11  2  0  0  0  0
 11 12  1  0  0  0  0
 12 13  1  0  0  0  0
 12 14  2  0  0  0  0
 13 31  1  0  0  0  0
 13 32  1  0  0  0  0
 14 15  1  0  0  0  0
 16 17  1  0  0  0  0
 16 18  1  0  0  0  0
 17 33  1  0  0  0  0
 17 34  1  0  0  0  0
 17 35  1  0  0  0  0
 18 36  1  0  0  0  0
 18 37  1  0  0  0  0
 18 38  1  0  0  0  0
M  END
> <s_m_source_file>
AV-unprocessed.smi

> <i_m_source_file_index>
2828

> <i_lp_mmshare_version>
43012

> <i_f3d_flags>
0

> <s_epik_input>
W0NIM11DMShbQ0gzXSlbQ0hdKEMxKFtDSDNdKVtDSDNdKUMoPU8pW05IXVtDSDJdW0NIMl1jMm5jKFtOSDJdKW5vMg==

> <s_epik_cmdline>
J2VwaWtfcHl0aG9uJywgJy1waCcsICc3LjAnLCAnLXRuJywgJzgnLCAnLW1hJywgJzIwMCcsICctbWV0YWxfYmluZGluZycsICctaW1hZScsICc8aW5maWxlLm1hZT4nLCAnLW9tYWUnLCAnPG91dGZpbGUubWFlPic=

> <r_lp_tautomer_probability>
1

> <r_epik_Ionization_Penalty>
9.99855e-05

> <r_epik_Ionization_Penalty_Charging>
0

> <r_epik_Ionization_Penalty_Neutral>
9.99855e-05

> <r_epik_State_Penalty>
-0

> <r_epik_Charging_Adjusted_Penalty>
0

> <i_epik_Tot_Q>
0

> <i_epik_Tot_abs_Q>
0

> <r_epik_Metal_State_Penalty>
-0

> <b_epik_Metal_Only>
0

> <s_lp_Force_Field>
OPLS_2005

> <r_lp_Energy>
20.4222

> <b_lp_Chiralities_Consistent>
1

> <s_lp_Variant>
AV-unprocessed.smi:2828-1

> <Gold.Version>
5.8.1

> <Gold.Id.Protein>
6NUR|6NUR_protein|mol2

> <Gold.PLP.Fitness>
35.0181

> <Gold.PLP.PLP>
-25.3679

> <Gold.PLP.part.hbond>
-4.0000

> <Gold.PLP.part.metal>
0.0000

> <Gold.PLP.part.buried>
-4.4664

> <Gold.PLP.part.nonpolar>
-17.5753

> <Gold.PLP.part.repulsive>
0.2502

> <Gold.PLP.ligand.clash>
0.0000

> <Gold.PLP.ligand.torsion>
0.8166

> <Gold.PLP.Chemscore.Hbond>
3.7120

> <Gold.PLP.Chemscore.CHOScore>
0.0000

> <Gold.PLP.Chemscore.Metal>
0.0000

> <Gold.Chemscore.Hbonds>
donor molecule, donor type, donor heavy atom, donor atom, acceptor molecule, acceptor atom, score
      L1  H    13    31       P1  7948  0.91
      L1  H    13    32       P1  7957  1.00
      P1  H  6931  6943       L1     6  0.68
      P1  H  6934  6947       L1     6  0.91

> <Gold.PLP.Chemscore.Internal.Correction>
0.1474

> <Gold.Rescore>
     Score         DG    S(hbond)    S(metal)    S(lipo)     H(rot)  DE(clash)    DE(int)     intcor
     14.69     -18.09       3.70        0.00      52.02       2.28       0.10       3.31       ----

> <Gold.Chemscore.Fitness>
14.6862

> <Gold.Chemscore.DG>
-18.0937

> <Gold.Chemscore.ZeroCoef>
-5.4800

> <Gold.Chemscore.Hbond>
3.7019

> <Gold.Chemscore.Metal>
0.0000

> <Gold.Chemscore.Lipo>
52.0211

> <Gold.Chemscore.Internal_Hbond>
0.0000

> <Gold.Chemscore.DEClash>
0.1013

> <Gold.Chemscore.DEInternal>
3.3062

> <Gold.Chemscore.Rot>
2.2801

> <Gold.Chemscore.Internal.Correction>
   9.000000E+99

> <Gold.Chemscore.Hbonds>
donor molecule, donor type, donor heavy atom, donor atom, acceptor molecule, acceptor atom, score
      L1  H    13    31       P1  7948  0.86
      L1  H    13    32       P1  7957  0.98
      P1  H  6931  6943       L1     6  0.65
      P1  H  6934  6947       L1     6  0.88

> <Gold.Chemscore.Hbond.Weighted>
-12.3642

> <Gold.Chemscore.Metal.Weighted>
-0.0000

> <Gold.Chemscore.Lipo.Weighted>
-6.0865

> <Gold.Chemscore.Internal_Hbond.Weighted>
0.0000

> <Gold.Chemscore.DEClash.Weighted>
0.1013

> <Gold.Chemscore.DEInternal.Weighted>
3.3062

> <Gold.Chemscore.Rot.Weighted>
5.8370

> <Gold.Chemscore.Internal.Correction.Weighted>
   9.000000E+99

> <Gold.Protein.RotatedTorsions>
[ 6907 6896 6895 6894 ] final  136.42 input  -60.11 | X-H torsion
[ 7974 7965 7964 7962 ] final   50.26 input  175.53 | X-H torsion
[ 8008 7997 7996 7995 ] final   84.74 input   59.86 | X-H torsion
[ 10167 10162 10161 10158 ] final  117.46 input  -65.29 | X-H torsion
[ 10718 10713 10712 10709 ] final   15.73 input   66.30 | X-H torsion
[ 10763 10752 10751 10750 ] final  104.10 input  -60.55 | X-H torsion
[ 11005 11000 10999 10996 ] final  124.51 input  -57.11 | X-H torsion

> <Gold.Protein.ActiveResidues>
 VAL166  LYS551  ARG553  GLY616  TRP617  ASP618  TYR619  PRO620  LYS621  CYS622 
 ASP623  PHE694  ASN695  SER759  ASP760  ASP761  ALA762  ILE779  LEU786  VAL792 
 PHE793  MET794  SER795  GLU796  ALA797  LYS798  CYS799  TRP800  GLU811  SER814 

> <Gold.Protein.RotatedAtoms>
  152.2895  133.5548  159.5548 H   0  0  0  0  0  0  0  0  0  0  0  0  # atno 6907 bound_to 6896
  150.7229  134.0448  159.3787 H   0  0  0  0  0  0  0  0  0  0  0  0  # atno 6908 bound_to 6896
  151.8355  135.0608  160.0493 H   0  0  0  0  0  0  0  0  0  0  0  0  # atno 6909 bound_to 6896
  146.0029  139.4458  143.0004 H   0  0  0  0  0  0  0  0  0  0  0  0  # atno 7974 bound_to 7965
  155.9410  140.3408  155.6327 H   0  0  0  0  0  0  0  0  0  0  0  0  # atno 8008 bound_to 7997
  155.7040  140.0763  157.2417 H   0  0  0  0  0  0  0  0  0  0  0  0  # atno 8009 bound_to 7997
  154.4102  140.1635  156.2209 H   0  0  0  0  0  0  0  0  0  0  0  0  # atno 8010 bound_to 7997
  139.6177  144.7095  151.2703 H   0  0  0  0  0  0  0  0  0  0  0  0  # atno 10167 bound_to 10162
  157.0577  130.6296  149.5780 H   0  0  0  0  0  0  0  0  0  0  0  0  # atno 10718 bound_to 10713
  153.3614  135.3954  155.1721 H   0  0  0  0  0  0  0  0  0  0  0  0  # atno 10763 bound_to 10752
  154.8680  135.3680  154.5095 H   0  0  0  0  0  0  0  0  0  0  0  0  # atno 10764 bound_to 10752
  153.5554  135.7082  153.5632 H   0  0  0  0  0  0  0  0  0  0  0  0  # atno 10765 bound_to 10752
  139.9362  134.9639  156.8420 H   0  0  0  0  0  0  0  0  0  0  0  0  # atno 11005 bound_to 11000
  145.7460  140.9990  143.1275 LP  0  0  0  0  0  0  0  0  0  0  0  0  # atno 17320 bound_to 7965
  144.6925  139.9157  143.7465 LP  0  0  0  0  0  0  0  0  0  0  0  0  # atno 17321 bound_to 7965
  140.7362  143.6715  150.8077 LP  0  0  0  0  0  0  0  0  0  0  0  0  # atno 17342 bound_to 10162
  140.0321  143.5433  152.2755 LP  0  0  0  0  0  0  0  0  0  0  0  0  # atno 17343 bound_to 10162
  155.9988  130.5063  150.7584 LP  0  0  0  0  0  0  0  0  0  0  0  0  # atno 17370 bound_to 10713
  157.4980  131.0916  151.0348 LP  0  0  0  0  0  0  0  0  0  0  0  0  # atno 17371 bound_to 10713
  140.6069  134.0119  155.7560 LP  0  0  0  0  0  0  0  0  0  0  0  0  # atno 17394 bound_to 11000
  141.0977  133.9818  157.3132 LP  0  0  0  0  0  0  0  0  0  0  0  0  # atno 17395 bound_to 11000

$$$$
