AV-unprocessed.smi:3335|AV-procd|sdf|12841|dock6
  -GOLD-   2272019223D 1   1.00000     0.00000
 Structure written by MMmdl.
 47 48  0  0  0  0  0  0  0  0  2 V2000
  152.8633  142.8810  163.0414 C   0  0  0  0  0  0  0  0  0  0  0  0
  152.7574  142.6429  161.5625 C   0  0  0  0  0  0  0  0  0  0  0  0
  153.4804  141.7054  160.7727 C   0  0  0  0  0  0  0  0  0  0  0  0
  153.1519  141.7530  159.4925 N   0  0  0  0  0  0  0  0  0  0  0  0
  152.2006  142.7108  159.4155 N   0  0  0  0  0  0  0  0  0  0  0  0
  151.6069  143.0814  158.1321 C   0  0  2  0  0  0  0  0  0  0  0  0
  150.5620  144.2048  158.2832 C   0  0  0  0  0  0  0  0  0  0  0  0
  151.0689  141.8573  157.3425 C   0  0  2  0  0  0  0  0  0  0  0  0
  152.1014  140.7223  157.1697 C   0  0  0  0  0  0  0  0  0  0  0  0
  150.5586  142.3163  156.0269 N   0  3  0  0  0  0  0  0  0  0  0  0
  149.5176  141.4943  155.3673 C   0  0  1  0  0  0  0  0  0  0  0  0
  150.0143  140.0538  155.1254 C   0  0  0  0  0  0  0  0  0  0  0  0
  148.2508  141.5117  156.2429 C   0  0  0  0  0  0  0  0  0  0  0  0
  148.3302  141.1608  157.4210 O   0  0  0  0  0  0  0  0  0  0  0  0
  147.0869  141.9378  155.7056 N   0  0  0  0  0  0  0  0  0  0  0  0
  146.9620  142.3840  154.3187 C   0  0  0  0  0  0  0  0  0  0  0  0
  145.5630  142.9879  154.2002 C   0  0  0  0  0  0  0  0  0  0  0  0
  144.7630  142.2843  155.2866 C   0  0  0  0  0  0  0  0  0  0  0  0
  145.7908  142.0008  156.3821 C   0  0  0  0  0  0  0  0  0  0  0  0
  151.9511  143.2671  160.6539 C   0  0  0  0  0  0  0  0  0  0  0  0
  153.6235  142.2491  163.5013 H   0  0  0  0  0  0  0  0  0  0  0  0
  151.9223  142.6717  163.5502 H   0  0  0  0  0  0  0  0  0  0  0  0
  153.1272  143.9148  163.2652 H   0  0  0  0  0  0  0  0  0  0  0  0
  154.2335  140.9990  161.0898 H   0  0  0  0  0  0  0  0  0  0  0  0
  152.4137  143.5145  157.5382 H   0  0  0  0  0  0  0  0  0  0  0  0
  150.1918  144.5270  157.3095 H   0  0  0  0  0  0  0  0  0  0  0  0
  150.9976  145.0776  158.7708 H   0  0  0  0  0  0  0  0  0  0  0  0
  149.7012  143.8956  158.8758 H   0  0  0  0  0  0  0  0  0  0  0  0
  150.2259  141.4634  157.9092 H   0  0  0  0  0  0  0  0  0  0  0  0
  152.5480  140.4411  158.1227 H   0  0  0  0  0  0  0  0  0  0  0  0
  152.9104  141.0091  156.4979 H   0  0  0  0  0  0  0  0  0  0  0  0
  151.6468  139.8188  156.7658 H   0  0  0  0  0  0  0  0  0  0  0  0
  150.1792  143.2456  156.1399 H   0  0  0  0  0  0  0  0  0  0  0  0
  149.2658  141.9147  154.3957 H   0  0  0  0  0  0  0  0  0  0  0  0
  149.2138  139.4212  154.7396 H   0  0  0  0  0  0  0  0  0  0  0  0
  150.3870  139.5947  156.0422 H   0  0  0  0  0  0  0  0  0  0  0  0
  150.8187  140.0233  154.3911 H   0  0  0  0  0  0  0  0  0  0  0  0
  147.7316  143.1093  154.0485 H   0  0  0  0  0  0  0  0  0  0  0  0
  147.0631  141.5214  153.6581 H   0  0  0  0  0  0  0  0  0  0  0  0
  145.6068  144.0565  154.4147 H   0  0  0  0  0  0  0  0  0  0  0  0
  145.1306  142.8639  153.2070 H   0  0  0  0  0  0  0  0  0  0  0  0
  143.9189  142.8763  155.6417 H   0  0  0  0  0  0  0  0  0  0  0  0
  144.3715  141.3429  154.8984 H   0  0  0  0  0  0  0  0  0  0  0  0
  145.5506  141.0765  156.9081 H   0  0  0  0  0  0  0  0  0  0  0  0
  145.8051  142.8158  157.1074 H   0  0  0  0  0  0  0  0  0  0  0  0
  151.2266  144.0572  160.7865 H   0  0  0  0  0  0  0  0  0  0  0  0
  151.3504  142.3761  155.4025 H   0  0  0  0  0  0  0  0  0  0  0  0
  1  2  1  0  0  0  0
  1 21  1  0  0  0  0
  1 22  1  0  0  0  0
  1 23  1  0  0  0  0
  2 20  2  0  0  0  0
  2  3  1  0  0  0  0
  3  4  2  0  0  0  0
  3 24  1  0  0  0  0
  4  5  1  0  0  0  0
  5  6  1  0  0  0  0
  5 20  1  0  0  0  0
  6  7  1  0  0  0  0
  6  8  1  0  0  0  0
  6 25  1  0  0  0  0
  7 26  1  0  0  0  0
  7 27  1  0  0  0  0
  7 28  1  0  0  0  0
  8  9  1  0  0  0  0
  8 10  1  0  0  0  0
  8 29  1  0  0  0  0
  9 30  1  0  0  0  0
  9 31  1  0  0  0  0
  9 32  1  0  0  0  0
 10 11  1  0  0  0  0
 10 33  1  0  0  0  0
 10 47  1  0  0  0  0
 11 12  1  0  0  0  0
 11 13  1  0  0  0  0
 11 34  1  0  0  0  0
 12 35  1  0  0  0  0
 12 36  1  0  0  0  0
 12 37  1  0  0  0  0
 13 14  2  0  0  0  0
 13 15  1  0  0  0  0
 15 19  1  0  0  0  0
 15 16  1  0  0  0  0
 16 17  1  0  0  0  0
 16 38  1  0  0  0  0
 16 39  1  0  0  0  0
 17 18  1  0  0  0  0
 17 40  1  0  0  0  0
 17 41  1  0  0  0  0
 18 19  1  0  0  0  0
 18 42  1  0  0  0  0
 18 43  1  0  0  0  0
 19 44  1  0  0  0  0
 19 45  1  0  0  0  0
 20 46  1  0  0  0  0
M  CHG  1  10   1
M  END
> <s_m_source_file>
AV-unprocessed.smi

> <i_m_source_file_index>
3335

> <i_lp_mmshare_version>
43012

> <i_f3d_flags>
0

> <s_epik_input>
W0NIM11jMVtjSF1ubihbY0hdMSlbQ0BIXShbQ0gzXSlbQ0BIXShbQ0gzXSlbTkhdW0NASF0oW0NIM10pQyg9TylOMltDSDJdW0NIMl1bQ0gyXVtDSDJdMg==

> <s_epik_cmdline>
J2VwaWtfcHl0aG9uJywgJy1waCcsICc3LjAnLCAnLXRuJywgJzgnLCAnLW1hJywgJzIwMCcsICctbWV0YWxfYmluZGluZycsICctaW1hZScsICc8aW5maWxlLm1hZT4nLCAnLW9tYWUnLCAnPG91dGZpbGUubWFlPic=

> <r_lp_tautomer_probability>
1

> <r_epik_Ionization_Penalty>
0.14175

> <r_epik_Ionization_Penalty_Charging>
0.141731

> <r_epik_Ionization_Penalty_Neutral>
1.91261e-05

> <r_epik_State_Penalty>
0.131043

> <r_epik_Charging_Adjusted_Penalty>
0.272773

> <i_epik_Tot_Q>
1

> <i_epik_Tot_abs_Q>
1

> <r_epik_Metal_State_Penalty>
0.131408

> <b_epik_Metal_Only>
0

> <s_lp_Force_Field>
OPLS_2005

> <r_lp_Energy>
38.6819

> <b_lp_Chiralities_Consistent>
1

> <s_lp_Variant>
AV-unprocessed.smi:3335-5

> <Gold.Version>
5.8.1

> <Gold.Id.Protein>
6NUR|6NUR_protein|mol2

> <Gold.PLP.Fitness>
47.9442

> <Gold.PLP.PLP>
-42.6568

> <Gold.PLP.part.hbond>
-1.0000

> <Gold.PLP.part.metal>
0.0000

> <Gold.PLP.part.buried>
-2.8578

> <Gold.PLP.part.nonpolar>
-38.9719

> <Gold.PLP.part.repulsive>
0.1879

> <Gold.PLP.ligand.clash>
0.1111

> <Gold.PLP.ligand.torsion>
0.4023

> <Gold.PLP.Chemscore.Hbond>
2.0000

> <Gold.PLP.Chemscore.CHOScore>
0.0000

> <Gold.PLP.Chemscore.Metal>
0.0000

> <Gold.Chemscore.Hbonds>
donor molecule, donor type, donor heavy atom, donor atom, acceptor molecule, acceptor atom, score
      L1  H    10    33       P1  8028  2.00

> <Gold.PLP.Chemscore.Internal.Correction>
0.2031

> <Gold.Rescore>
     Score         DG    S(hbond)    S(metal)    S(lipo)     H(rot)  DE(clash)    DE(int)     intcor
     12.52     -17.20       0.84        0.00     112.90       1.68       0.32       4.37       ----

> <Gold.Chemscore.Fitness>
12.5174

> <Gold.Chemscore.DG>
-17.1997

> <Gold.Chemscore.ZeroCoef>
-5.4800

> <Gold.Chemscore.Hbond>
0.8401

> <Gold.Chemscore.Metal>
0.0000

> <Gold.Chemscore.Lipo>
112.8965

> <Gold.Chemscore.Internal_Hbond>
0.0000

> <Gold.Chemscore.DEClash>
0.3160

> <Gold.Chemscore.DEInternal>
4.3663

> <Gold.Chemscore.Rot>
1.6778

> <Gold.Chemscore.Internal.Correction>
   9.000000E+99

> <Gold.Chemscore.Hbonds>
donor molecule, donor type, donor heavy atom, donor atom, acceptor molecule, acceptor atom, score
      L1  H    10    33       P1  8028  0.92

> <Gold.Chemscore.Hbond.Weighted>
-2.8060

> <Gold.Chemscore.Metal.Weighted>
-0.0000

> <Gold.Chemscore.Lipo.Weighted>
-13.2089

> <Gold.Chemscore.Internal_Hbond.Weighted>
0.0000

> <Gold.Chemscore.DEClash.Weighted>
0.3160

> <Gold.Chemscore.DEInternal.Weighted>
4.3663

> <Gold.Chemscore.Rot.Weighted>
4.2952

> <Gold.Chemscore.Internal.Correction.Weighted>
   9.000000E+99

> <Gold.Protein.RotatedTorsions>
[ 6907 6896 6895 6894 ] final -147.13 input  -60.11 | X-H torsion
[ 7974 7965 7964 7962 ] final  -35.06 input  175.53 | X-H torsion
[ 8008 7997 7996 7995 ] final   22.50 input   59.86 | X-H torsion
[ 10167 10162 10161 10158 ] final  -32.26 input  -65.29 | X-H torsion
[ 10718 10713 10712 10709 ] final -142.45 input   66.30 | X-H torsion
[ 10763 10752 10751 10750 ] final   82.45 input  -60.55 | X-H torsion
[ 11005 11000 10999 10996 ] final -125.08 input  -57.11 | X-H torsion

> <Gold.Protein.ActiveResidues>
 VAL166  LYS551  ARG553  GLY616  TRP617  ASP618  TYR619  PRO620  LYS621  CYS622 
 ASP623  PHE694  ASN695  SER759  ASP760  ASP761  ALA762  ILE779  LEU786  VAL792 
 PHE793  MET794  SER795  GLU796  ALA797  LYS798  CYS799  TRP800  GLU811  SER814 

> <Gold.Protein.RotatedAtoms>
  151.1513  133.4905  159.2595 H   0  0  0  0  0  0  0  0  0  0  0  0  # atno 6907 bound_to 6896
  151.1550  135.0246  159.8695 H   0  0  0  0  0  0  0  0  0  0  0  0  # atno 6908 bound_to 6896
  152.5463  134.1393  159.8525 H   0  0  0  0  0  0  0  0  0  0  0  0  # atno 6909 bound_to 6896
  146.0778  140.6114  142.8922 H   0  0  0  0  0  0  0  0  0  0  0  0  # atno 7974 bound_to 7965
  154.9667  140.3085  155.5006 H   0  0  0  0  0  0  0  0  0  0  0  0  # atno 8008 bound_to 7997
  156.2971  140.2291  156.4695 H   0  0  0  0  0  0  0  0  0  0  0  0  # atno 8009 bound_to 7997
  154.7915  140.0439  157.1192 H   0  0  0  0  0  0  0  0  0  0  0  0  # atno 8010 bound_to 7997
  140.7224  143.3708  151.1782 H   0  0  0  0  0  0  0  0  0  0  0  0  # atno 10167 bound_to 10162
  156.3460  130.7663  151.1807 H   0  0  0  0  0  0  0  0  0  0  0  0  # atno 10718 bound_to 10713
  153.1204  135.4728  154.9186 H   0  0  0  0  0  0  0  0  0  0  0  0  # atno 10763 bound_to 10752
  154.7570  135.3121  154.8454 H   0  0  0  0  0  0  0  0  0  0  0  0  # atno 10764 bound_to 10752
  153.9019  135.6874  153.4808 H   0  0  0  0  0  0  0  0  0  0  0  0  # atno 10765 bound_to 10752
  140.9790  134.0700  157.3786 H   0  0  0  0  0  0  0  0  0  0  0  0  # atno 11005 bound_to 11000
  144.7273  140.4564  143.6964 LP  0  0  0  0  0  0  0  0  0  0  0  0  # atno 17320 bound_to 7965
  145.6274  139.1532  143.2988 LP  0  0  0  0  0  0  0  0  0  0  0  0  # atno 17321 bound_to 7965
  139.7279  143.9119  152.3009 LP  0  0  0  0  0  0  0  0  0  0  0  0  # atno 17342 bound_to 10162
  139.8898  144.6971  150.8783 LP  0  0  0  0  0  0  0  0  0  0  0  0  # atno 17343 bound_to 10162
  157.7454  131.0441  150.4776 LP  0  0  0  0  0  0  0  0  0  0  0  0  # atno 17370 bound_to 10713
  156.4964  130.4107  149.6378 LP  0  0  0  0  0  0  0  0  0  0  0  0  # atno 17371 bound_to 10713
  139.8942  135.0135  156.6940 LP  0  0  0  0  0  0  0  0  0  0  0  0  # atno 17394 bound_to 11000
  140.7215  133.9136  155.8150 LP  0  0  0  0  0  0  0  0  0  0  0  0  # atno 17395 bound_to 11000

$$$$
