AV-unprocessed.smi:1701|AV-procd|sdf|6838|dock2
  -GOLD-   22720 8 13D 1   1.00000     0.00000
 Structure written by MMmdl.
 54 56  0  0  0  0  0  0  0  0  4 V2000
  152.3634  144.3956  161.5790 C   0  0  0  0  0  0  0  0  0  0  0  0
  152.8315  144.3050  160.1181 C   0  0  0  0  0  0  0  0  0  0  0  0
  152.4473  143.0547  159.4629 N   0  0  0  0  0  0  0  0  0  0  0  0
  151.7948  143.1025  158.1521 C   0  0  0  0  0  0  0  0  0  0  0  0
  151.7003  144.5224  157.5751 C   0  0  0  0  0  0  0  0  0  0  0  0
  152.8707  141.8125  159.9963 C   0  0  0  0  0  0  0  0  0  0  0  0
  153.6497  141.6910  161.1748 C   0  0  0  0  0  0  0  0  0  0  0  0
  154.0302  140.4160  161.6407 C   0  0  0  0  0  0  0  0  0  0  0  0
  153.6229  139.2631  160.9402 C   0  0  0  0  0  0  0  0  0  0  0  0
  154.0454  137.9995  161.4338 N   0  0  0  0  0  0  0  0  0  0  0  0
  153.6534  136.7579  161.0553 C   0  0  0  0  0  0  0  0  0  0  0  0
  152.7738  136.6429  160.2041 O   0  0  0  0  0  0  0  0  0  0  0  0
  154.2160  135.6590  161.6421 N   0  5  0  0  0  0  0  0  0  0  0  0
  155.0322  135.5684  162.8651 C   0  0  1  0  0  0  0  0  0  0  0  0
  154.2400  136.1079  164.0625 C   0  0  0  0  0  0  0  0  0  0  0  0
  153.3986  134.9222  164.5733 C   0  0  0  0  0  0  0  0  0  0  0  0
  153.9926  133.6828  164.0083 N   0  3  1  0  0  0  0  0  0  0  0  0
  153.0125  132.8891  163.2114 C   0  0  0  0  0  0  0  0  0  0  0  0
  153.6790  131.7459  162.4371 C   0  0  0  0  0  0  0  0  0  0  0  0
  154.7325  132.3090  161.4812 C   0  0  0  0  0  0  0  0  0  0  0  0
  155.8017  133.0640  162.2820 C   0  0  0  0  0  0  0  0  0  0  0  0
  155.2315  134.0989  163.2924 C   0  0  1  0  0  0  0  0  0  0  0  0
  152.8598  139.4318  159.7621 C   0  0  0  0  0  0  0  0  0  0  0  0
  152.5196  140.6724  159.3513 N   0  3  0  0  0  0  0  0  0  0  0  0
  152.6584  145.3497  162.0158 H   0  0  0  0  0  0  0  0  0  0  0  0
  152.8018  143.6098  162.1920 H   0  0  0  0  0  0  0  0  0  0  0  0
  151.2796  144.3183  161.6631 H   0  0  0  0  0  0  0  0  0  0  0  0
  152.4642  145.1560  159.5451 H   0  0  0  0  0  0  0  0  0  0  0  0
  153.9179  144.3933  160.0927 H   0  0  0  0  0  0  0  0  0  0  0  0
  152.3097  142.4458  157.4504 H   0  0  0  0  0  0  0  0  0  0  0  0
  150.7900  142.6894  158.2441 H   0  0  0  0  0  0  0  0  0  0  0  0
  151.2558  144.5012  156.5799 H   0  0  0  0  0  0  0  0  0  0  0  0
  152.6828  144.9864  157.4869 H   0  0  0  0  0  0  0  0  0  0  0  0
  151.0776  145.1670  158.1936 H   0  0  0  0  0  0  0  0  0  0  0  0
  153.9700  142.5551  161.7361 H   0  0  0  0  0  0  0  0  0  0  0  0
  154.6271  140.3271  162.5367 H   0  0  0  0  0  0  0  0  0  0  0  0
  154.6916  138.0304  162.2085 H   0  0  0  0  0  0  0  0  0  0  0  0
  155.9929  136.0761  162.7681 H   0  0  0  0  0  0  0  0  0  0  0  0
  154.9393  136.4117  164.8429 H   0  0  0  0  0  0  0  0  0  0  0  0
  153.6327  136.9821  163.8228 H   0  0  0  0  0  0  0  0  0  0  0  0
  153.4081  134.8776  165.6628 H   0  0  0  0  0  0  0  0  0  0  0  0
  152.3560  135.0383  164.2703 H   0  0  0  0  0  0  0  0  0  0  0  0
  152.2527  132.4905  163.8843 H   0  0  0  0  0  0  0  0  0  0  0  0
  152.4917  133.5371  162.5045 H   0  0  0  0  0  0  0  0  0  0  0  0
  154.1359  131.0374  163.1291 H   0  0  0  0  0  0  0  0  0  0  0  0
  152.9268  131.1929  161.8739 H   0  0  0  0  0  0  0  0  0  0  0  0
  155.1940  131.5018  160.9123 H   0  0  0  0  0  0  0  0  0  0  0  0
  154.2626  132.9711  160.7530 H   0  0  0  0  0  0  0  0  0  0  0  0
  156.3640  132.3205  162.8487 H   0  0  0  0  0  0  0  0  0  0  0  0
  156.5302  133.5179  161.6075 H   0  0  0  0  0  0  0  0  0  0  0  0
  155.9848  134.1531  164.0809 H   0  0  0  0  0  0  0  0  0  0  0  0
  152.5183  138.6301  159.1244 H   0  0  0  0  0  0  0  0  0  0  0  0
  154.2845  133.0921  164.7731 H   0  0  0  0  0  0  0  0  0  0  0  0
  151.9664  140.7546  158.4984 H   0  0  0  0  0  0  0  0  0  0  0  0
  1  2  1  0  0  0  0
  1 25  1  0  0  0  0
  1 26  1  0  0  0  0
  1 27  1  0  0  0  0
  2  3  1  0  0  0  0
  2 28  1  0  0  0  0
  2 29  1  0  0  0  0
  3  4  1  0  0  0  0
  3  6  1  0  0  0  0
  4  5  1  0  0  0  0
  4 30  1  0  0  0  0
  4 31  1  0  0  0  0
  5 32  1  0  0  0  0
  5 33  1  0  0  0  0
  5 34  1  0  0  0  0
  6 24  1  0  0  0  0
  6  7  2  0  0  0  0
  7  8  1  0  0  0  0
  7 35  1  0  0  0  0
  8  9  2  0  0  0  0
  8 36  1  0  0  0  0
  9 10  1  0  0  0  0
  9 23  1  0  0  0  0
 10 11  1  0  0  0  0
 10 37  1  0  0  0  0
 11 12  2  0  0  0  0
 11 13  1  0  0  0  0
 13 14  1  0  0  0  0
 14 22  1  0  0  0  0
 14 15  1  0  0  0  0
 14 38  1  0  0  0  0
 15 16  1  0  0  0  0
 15 39  1  0  0  0  0
 15 40  1  0  0  0  0
 16 17  1  0  0  0  0
 16 41  1  0  0  0  0
 16 42  1  0  0  0  0
 17 22  1  0  0  0  0
 17 18  1  0  0  0  0
 17 53  1  0  0  0  0
 18 19  1  0  0  0  0
 18 43  1  0  0  0  0
 18 44  1  0  0  0  0
 19 20  1  0  0  0  0
 19 45  1  0  0  0  0
 19 46  1  0  0  0  0
 20 21  1  0  0  0  0
 20 47  1  0  0  0  0
 20 48  1  0  0  0  0
 21 22  1  0  0  0  0
 21 49  1  0  0  0  0
 21 50  1  0  0  0  0
 22 51  1  0  0  0  0
 23 24  2  0  0  0  0
 23 52  1  0  0  0  0
 24 54  1  0  0  0  0
M  CHG  1  13  -1
M  CHG  1  17   1
M  CHG  1  24   1
M  END
> <s_m_source_file>
AV-unprocessed.smi

> <i_m_source_file_index>
1701

> <i_lp_mmshare_version>
43012

> <i_f3d_flags>
0

> <s_epik_input>
W0NIM11bQ0gyXU4oW0NIMl1bQ0gzXSljMVtjSF1bY0hdYyhbY0hdbjEpW05IXUMoPU8pW05IXVtDQEhdKFtDSDJdW0NIMl0yKVtDQEBIXShOMjMpW0NIMl1bQ0gyXVtDSDJdW0NIMl0z

> <s_epik_cmdline>
J2VwaWtfcHl0aG9uJywgJy1waCcsICc3LjAnLCAnLXRuJywgJzgnLCAnLW1hJywgJzIwMCcsICctbWV0YWxfYmluZGluZycsICctaW1hZScsICc8aW5maWxlLm1hZT4nLCAnLW9tYWUnLCAnPG91dGZpbGUubWFlPic=

> <r_lp_tautomer_probability>
0.999994

> <r_epik_Ionization_Penalty>
7.37095

> <r_epik_Ionization_Penalty_Charging>
7.37095

> <r_epik_Ionization_Penalty_Neutral>
3.78969e-06

> <r_epik_State_Penalty>
6.83842

> <r_epik_Charging_Adjusted_Penalty>
14.2094

> <i_epik_Tot_Q>
1

> <i_epik_Tot_abs_Q>
3

> <r_epik_Metal_State_Penalty>
2.78552

> <b_epik_Metal_Only>
1

> <s_lp_Force_Field>
OPLS_2005

> <r_lp_Energy>
56.1591

> <b_lp_Chiralities_Consistent>
1

> <s_lp_Variant>
AV-unprocessed.smi:1701-18

> <Gold.Version>
5.8.1

> <Gold.Id.Protein>
6NUR|6NUR_protein|mol2

> <Gold.PLP.Fitness>
44.3098

> <Gold.PLP.PLP>
-41.6967

> <Gold.PLP.part.hbond>
-1.0000

> <Gold.PLP.part.metal>
0.0000

> <Gold.PLP.part.buried>
-5.3890

> <Gold.PLP.part.nonpolar>
-35.3844

> <Gold.PLP.part.repulsive>
0.1154

> <Gold.PLP.ligand.clash>
0.0000

> <Gold.PLP.ligand.torsion>
0.2853

> <Gold.PLP.Chemscore.Hbond>
1.0000

> <Gold.PLP.Chemscore.CHOScore>
0.0000

> <Gold.PLP.Chemscore.Metal>
0.0000

> <Gold.Chemscore.Hbonds>
donor molecule, donor type, donor heavy atom, donor atom, acceptor molecule, acceptor atom, score
      P1  H  6896  6907       L1    12  1.00

> <Gold.PLP.Chemscore.Internal.Correction>
0.1837

> <Gold.Rescore>
     Score         DG    S(hbond)    S(metal)    S(lipo)     H(rot)  DE(clash)    DE(int)     intcor
     17.30     -18.88       0.97        0.00     115.05       1.28       0.04       1.55       ----

> <Gold.Chemscore.Fitness>
17.2978

> <Gold.Chemscore.DG>
-18.8843

> <Gold.Chemscore.ZeroCoef>
-5.4800

> <Gold.Chemscore.Hbond>
0.9672

> <Gold.Chemscore.Metal>
0.0000

> <Gold.Chemscore.Lipo>
115.0457

> <Gold.Chemscore.Internal_Hbond>
0.0000

> <Gold.Chemscore.DEClash>
0.0363

> <Gold.Chemscore.DEInternal>
1.5502

> <Gold.Chemscore.Rot>
1.2838

> <Gold.Chemscore.Internal.Correction>
   9.000000E+99

> <Gold.Chemscore.Hbonds>
donor molecule, donor type, donor heavy atom, donor atom, acceptor molecule, acceptor atom, score
      P1  H  6896  6907       L1    12  0.93

> <Gold.Chemscore.Hbond.Weighted>
-3.2305

> <Gold.Chemscore.Metal.Weighted>
-0.0000

> <Gold.Chemscore.Lipo.Weighted>
-13.4603

> <Gold.Chemscore.Internal_Hbond.Weighted>
0.0000

> <Gold.Chemscore.DEClash.Weighted>
0.0363

> <Gold.Chemscore.DEInternal.Weighted>
1.5502

> <Gold.Chemscore.Rot.Weighted>
3.2865

> <Gold.Chemscore.Internal.Correction.Weighted>
   9.000000E+99

> <Gold.Protein.RotatedTorsions>
[ 6907 6896 6895 6894 ] final   26.85 input  -60.11 | X-H torsion
[ 7974 7965 7964 7962 ] final   77.02 input  175.53 | X-H torsion
[ 8008 7997 7996 7995 ] final  150.34 input   59.86 | X-H torsion
[ 10167 10162 10161 10158 ] final  -25.38 input  -65.29 | X-H torsion
[ 10718 10713 10712 10709 ] final  168.98 input   66.30 | X-H torsion
[ 10763 10752 10751 10750 ] final   29.98 input  -60.55 | X-H torsion
[ 11005 11000 10999 10996 ] final  148.85 input  -57.11 | X-H torsion

> <Gold.Protein.ActiveResidues>
 VAL166  LYS551  ARG553  GLY616  TRP617  ASP618  TYR619  PRO620  LYS621  CYS622 
 ASP623  PHE694  ASN695  SER759  ASP760  ASP761  ALA762  ILE779  LEU786  VAL792 
 PHE793  MET794  SER795  GLU796  ALA797  LYS798  CYS799  TRP800  GLU811  SER814 

> <Gold.Protein.RotatedAtoms>
  151.9936  134.9966  160.0562 H   0  0  0  0  0  0  0  0  0  0  0  0  # atno 6907 bound_to 6896
  152.1585  133.4562  159.4857 H   0  0  0  0  0  0  0  0  0  0  0  0  # atno 6908 bound_to 6896
  150.6884  134.2018  159.4368 H   0  0  0  0  0  0  0  0  0  0  0  0  # atno 6909 bound_to 6896
  145.6954  139.2565  143.1736 H   0  0  0  0  0  0  0  0  0  0  0  0  # atno 7974 bound_to 7965
  156.2720  140.2077  156.6001 H   0  0  0  0  0  0  0  0  0  0  0  0  # atno 8008 bound_to 7997
  154.6913  140.0530  157.0390 H   0  0  0  0  0  0  0  0  0  0  0  0  # atno 8009 bound_to 7997
  155.0862  140.3192  155.4590 H   0  0  0  0  0  0  0  0  0  0  0  0  # atno 8010 bound_to 7997
  140.7286  143.4270  151.0861 H   0  0  0  0  0  0  0  0  0  0  0  0  # atno 10167 bound_to 10162
  157.0293  131.0255  151.2750 H   0  0  0  0  0  0  0  0  0  0  0  0  # atno 10718 bound_to 10713
  153.0398  135.6475  154.0974 H   0  0  0  0  0  0  0  0  0  0  0  0  # atno 10763 bound_to 10752
  154.0683  135.2882  155.3314 H   0  0  0  0  0  0  0  0  0  0  0  0  # atno 10764 bound_to 10752
  154.6611  135.5391  153.8084 H   0  0  0  0  0  0  0  0  0  0  0  0  # atno 10765 bound_to 10752
  140.0995  134.8992  157.1774 H   0  0  0  0  0  0  0  0  0  0  0  0  # atno 11005 bound_to 11000
  146.0845  140.7726  142.9625 LP  0  0  0  0  0  0  0  0  0  0  0  0  # atno 17320 bound_to 7965
  144.6984  140.3541  143.7176 LP  0  0  0  0  0  0  0  0  0  0  0  0  # atno 17321 bound_to 7965
  139.7922  143.8202  152.3153 LP  0  0  0  0  0  0  0  0  0  0  0  0  # atno 17342 bound_to 10162
  139.8190  144.7304  150.9598 LP  0  0  0  0  0  0  0  0  0  0  0  0  # atno 17343 bound_to 10162
  157.5190  130.7986  149.7788 LP  0  0  0  0  0  0  0  0  0  0  0  0  # atno 17370 bound_to 10713
  156.0075  130.3848  150.2379 LP  0  0  0  0  0  0  0  0  0  0  0  0  # atno 17371 bound_to 10713
  140.3240  134.2884  155.7240 LP  0  0  0  0  0  0  0  0  0  0  0  0  # atno 17394 bound_to 11000
  141.2101  133.7728  156.9950 LP  0  0  0  0  0  0  0  0  0  0  0  0  # atno 17395 bound_to 11000

$$$$
