#       Name:                AV-unprocessed.smi:2416
#       Creating user name   scv26
#       Creation time:       Fri Mar 27 13:18:02 2020


#       File generated by GOLD software.
#

@<TRIPOS>MOLECULE
AV-unprocessed.smi:2416
    45    46     1
SMALL
NO_CHARGES


@<TRIPOS>ATOM
      1 ****        -3.9138   3.0641   0.7872 C.3            1 S1                 0.0000
      2 ****        -3.2162   1.8985   1.2070 O.3            1 S1                 0.0000
      3 ****        -1.7999   2.0243   1.3452 C.3            1 S1                 0.0000
      4 ****        -1.4678   2.9880   2.4953 C.3            1 S1                 0.0000
      5 ****        -1.1043   2.2504  -0.0095 C.3            1 S1                 0.0000
      6 ****        -0.0625   1.2348   0.4544 C.3            1 S1                 0.0000
      7 ****         0.4177   0.3876  -0.6321 N.am           1 S1                 0.0000
      8 ****         1.3790  -0.5370  -0.5023 C.2            1 S1                 0.0000
      9 ****         1.9620  -0.7633   0.5584 O.2            1 S1                 0.0000
     10 ****         1.6085  -1.1678  -1.6676 N.am           1 S1                 0.0000
     11 ****         2.5288  -2.2171  -1.9323 C.ar           1 S1                 0.0000
     12 ****         2.5500  -2.6705  -3.2709 C.ar           1 S1                 0.0000
     13 ****         3.4260  -3.7113  -3.6369 C.ar           1 S1                 0.0000
     14 ****         4.2577  -4.2720  -2.6516 C.ar           1 S1                 0.0000
     15 ****         5.1146  -5.2756  -2.9553 F              1 S1                 0.0000
     16 ****         4.1763  -3.7632  -1.3423 C.ar           1 S1                 0.0000
     17 ****         3.3374  -2.7654  -0.9905 N.ar           1 S1                 0.0000
     18 ****        -1.1597   0.5975   1.3454 C.3            1 S1                 0.0000
     19 ****        -0.6879   0.0534   2.6977 C.3            1 S1                 0.0000
     20 ****        -2.0047  -0.5260   0.7113 C.3            1 S1                 0.0000
     21 ****        -4.9588   2.8094   0.6117 H              1 S1                 0.0000
     22 ****        -3.5130   3.4690  -0.1422 H              1 S1                 0.0000
     23 ****        -3.8944   3.8446   1.5473 H              1 S1                 0.0000
     24 ****        -0.4017   2.9998   2.7205 H              1 S1                 0.0000
     25 ****        -1.9916   2.7085   3.4096 H              1 S1                 0.0000
     26 ****        -1.7412   4.0154   2.2570 H              1 S1                 0.0000
     27 ****        -1.6931   1.9156  -0.8658 H              1 S1                 0.0000
     28 ****        -0.7167   3.2580  -0.1619 H              1 S1                 0.0000
     29 ****         0.7354   1.7086   1.0308 H              1 S1                 0.0000
     30 ****        -0.0138   0.5127  -1.5361 H              1 S1                 0.0000
     31 ****         1.0552  -0.8664  -2.4561 H              1 S1                 0.0000
     32 ****         1.9028  -2.2278  -4.0141 H              1 S1                 0.0000
     33 ****         3.4575  -4.0721  -4.6544 H              1 S1                 0.0000
     34 ****         4.7986  -4.1665  -0.5571 H              1 S1                 0.0000
     35 ****        -0.1930  -0.9124   2.5915 H              1 S1                 0.0000
     36 ****        -1.5226  -0.0780   3.3870 H              1 S1                 0.0000
     37 ****         0.0294   0.7182   3.1787 H              1 S1                 0.0000
     38 ****        -1.4248  -1.4396   0.5763 H              1 S1                 0.0000
     39 ****        -2.3947  -0.2487  -0.2681 H              1 S1                 0.0000
     40 ****        -2.8623  -0.7793   1.3353 H              1 S1                 0.0000
     41 ****        -3.3941   1.1787   0.5361 LP             1 S1                 0.0000
     42 ****        -3.5859   1.6253   2.0950 LP             1 S1                 0.0000
     43 ****         1.7249  -0.2446   1.3798 LP             1 S1                 0.0000
     44 ****         2.6726  -1.4658   0.5984 LP             1 S1                 0.0000
     45 ****         3.3123  -2.4344  -0.0472 LP             1 S1                 0.0000
@<TRIPOS>BOND
    1    1    2 1     
    2    1   21 1     
    3    1   22 1     
    4    1   23 1     
    5    2    3 1     
    6    3   18 1     
    7    3    4 1     
    8    3    5 1     
    9    4   24 1     
   10    4   25 1     
   11    4   26 1     
   12    5    6 1     
   13    5   27 1     
   14    5   28 1     
   15    6    7 1     
   16    6   18 1     
   17    6   29 1     
   18    7    8 am    
   19    7   30 1     
   20    8    9 2     
   21    8   10 am    
   22   10   11 1     
   23   10   31 1     
   24   11   17 ar    
   25   11   12 ar    
   26   12   13 ar    
   27   12   32 1     
   28   13   14 ar    
   29   13   33 1     
   30   14   15 1     
   31   14   16 ar    
   32   16   17 ar    
   33   16   34 1     
   34   18   19 1     
   35   18   20 1     
   36   19   35 1     
   37   19   36 1     
   38   19   37 1     
   39   20   38 1     
   40   20   39 1     
   41   20   40 1     
   42    2   41 1     
   43    2   42 1     
   44    9   43 1     
   45    9   44 1     
   46   17   45 1     
@<TRIPOS>SUBSTRUCTURE
      1 S1             1
@<TRIPOS>SET
LONE_PAIRS      STATIC     ATOMS    <user>   **** ""
5 41 42 43 44 45
DONOR_HYDROGENS      STATIC     ATOMS    <user>   **** ""
2 30 31
ATOM$BLUE        STATIC     ATOMS    COLORGROUP SYSTEM
5 41 42 43 44 45
ATOM$RED        STATIC     ATOMS    COLORGROUP SYSTEM
2 30 31
