AV-unprocessed.smi:2143|AV-procd|sdf|8727|dock10
  -GOLD-   2272011493D 1   1.00000     0.00000
 Structure written by MMmdl.
 44 45  0  0  0  0  0  0  0  0  1 V2000
  152.1135  144.6662  160.3887 C   0  0  0  0  0  0  0  0  0  0  0  0
  152.6005  143.3271  159.8042 C   0  0  1  0  0  0  0  0  0  0  0  0
  152.9197  142.3514  160.9544 C   0  0  0  0  0  0  0  0  0  0  0  0
  153.4420  141.0076  160.4355 C   0  0  0  0  0  0  0  0  0  0  0  0
  152.4320  140.3712  159.4765 C   0  0  0  0  0  0  0  0  0  0  0  0
  152.1025  141.3137  158.3022 C   0  0  1  0  0  0  0  0  0  0  0  0
  151.1076  140.6781  157.4398 N   0  0  0  0  0  0  0  0  0  0  0  0
  151.3295  140.2303  156.1946 C   0  0  0  0  0  0  0  0  0  0  0  0
  152.4181  140.3248  155.6260 O   0  0  0  0  0  0  0  0  0  0  0  0
  150.1270  139.5958  155.4831 C   0  0  0  0  0  0  0  0  0  0  0  0
  148.9973  140.5220  155.3316 N   0  0  0  0  0  0  0  0  0  0  0  0
  148.6248  140.9490  154.0703 C   0  0  0  0  0  0  0  0  0  0  0  0
  147.5872  141.7837  153.8428 C   0  0  0  0  0  0  0  0  0  0  0  0
  146.7827  142.2966  154.9452 C   0  0  0  0  0  0  0  0  0  0  0  0
  145.8176  143.0435  154.7800 O   0  0  0  0  0  0  0  0  0  0  0  0
  147.1945  141.8559  156.2260 N   0  0  0  0  0  0  0  0  0  0  0  0
  146.4459  142.2943  157.3857 C   0  0  0  0  0  0  0  0  0  0  0  0
  148.2710  140.9707  156.4557 C   0  0  0  0  0  0  0  0  0  0  0  0
  148.5716  140.5908  157.5903 O   0  0  0  0  0  0  0  0  0  0  0  0
  151.5968  142.6966  158.7966 C   0  0  2  0  0  0  0  0  0  0  0  0
  151.3044  143.6380  157.6075 C   0  0  0  0  0  0  0  0  0  0  0  0
  151.1369  144.5606  160.8618 H   0  0  0  0  0  0  0  0  0  0  0  0
  152.0381  145.4406  159.6262 H   0  0  0  0  0  0  0  0  0  0  0  0
  152.8071  145.0384  161.1433 H   0  0  0  0  0  0  0  0  0  0  0  0
  153.5328  143.5234  159.2723 H   0  0  0  0  0  0  0  0  0  0  0  0
  153.6621  142.7907  161.6218 H   0  0  0  0  0  0  0  0  0  0  0  0
  152.0253  142.1857  161.5569 H   0  0  0  0  0  0  0  0  0  0  0  0
  154.3956  141.1521  159.9260 H   0  0  0  0  0  0  0  0  0  0  0  0
  153.6346  140.3354  161.2720 H   0  0  0  0  0  0  0  0  0  0  0  0
  152.8328  139.4281  159.1033 H   0  0  0  0  0  0  0  0  0  0  0  0
  151.5194  140.1242  160.0212 H   0  0  0  0  0  0  0  0  0  0  0  0
  153.0155  141.4796  157.7266 H   0  0  0  0  0  0  0  0  0  0  0  0
  150.1809  140.5642  157.8244 H   0  0  0  0  0  0  0  0  0  0  0  0
  150.4314  139.2169  154.5055 H   0  0  0  0  0  0  0  0  0  0  0  0
  149.8174  138.7199  156.0550 H   0  0  0  0  0  0  0  0  0  0  0  0
  149.1870  140.5930  153.2191 H   0  0  0  0  0  0  0  0  0  0  0  0
  147.3468  142.0734  152.8304 H   0  0  0  0  0  0  0  0  0  0  0  0
  147.1533  142.5471  158.1775 H   0  0  0  0  0  0  0  0  0  0  0  0
  145.7996  141.4650  157.6771 H   0  0  0  0  0  0  0  0  0  0  0  0
  145.8617  143.1845  157.1532 H   0  0  0  0  0  0  0  0  0  0  0  0
  150.6551  142.5356  159.3245 H   0  0  0  0  0  0  0  0  0  0  0  0
  152.2179  143.8830  157.0652 H   0  0  0  0  0  0  0  0  0  0  0  0
  150.8475  144.5715  157.9329 H   0  0  0  0  0  0  0  0  0  0  0  0
  150.6088  143.1930  156.8965 H   0  0  0  0  0  0  0  0  0  0  0  0
  1  2  1  0  0  0  0
  1 22  1  0  0  0  0
  1 23  1  0  0  0  0
  1 24  1  0  0  0  0
  2 20  1  0  0  0  0
  2  3  1  0  0  0  0
  2 25  1  0  0  0  0
  3  4  1  0  0  0  0
  3 26  1  0  0  0  0
  3 27  1  0  0  0  0
  4  5  1  0  0  0  0
  4 28  1  0  0  0  0
  4 29  1  0  0  0  0
  5  6  1  0  0  0  0
  5 30  1  0  0  0  0
  5 31  1  0  0  0  0
  6  7  1  0  0  0  0
  6 20  1  0  0  0  0
  6 32  1  0  0  0  0
  7  8  1  0  0  0  0
  7 33  1  0  0  0  0
  8  9  2  0  0  0  0
  8 10  1  0  0  0  0
 10 11  1  0  0  0  0
 10 34  1  0  0  0  0
 10 35  1  0  0  0  0
 11 18  1  0  0  0  0
 11 12  1  0  0  0  0
 12 13  2  0  0  0  0
 12 36  1  0  0  0  0
 13 14  1  0  0  0  0
 13 37  1  0  0  0  0
 14 15  2  0  0  0  0
 14 16  1  0  0  0  0
 16 17  1  0  0  0  0
 16 18  1  0  0  0  0
 17 38  1  0  0  0  0
 17 39  1  0  0  0  0
 17 40  1  0  0  0  0
 18 19  2  0  0  0  0
 20 21  1  0  0  0  0
 20 41  1  0  0  0  0
 21 42  1  0  0  0  0
 21 43  1  0  0  0  0
 21 44  1  0  0  0  0
M  END
> <s_m_source_file>
AV-unprocessed.smi

> <i_m_source_file_index>
2143

> <i_lp_mmshare_version>
43012

> <i_f3d_flags>
0

> <s_epik_input>
W0NIM11bQ0BASF0xW0NIMl1bQ0gyXVtDSDJdW0NASF0oW0NASF0xW0NIM10pW05IXUMoPU8pW0NIMl1uMltjSF1bY0hdYyg9TyluKFtDSDNdKWMyPU8=

> <s_epik_cmdline>
J2VwaWtfcHl0aG9uJywgJy1waCcsICc3LjAnLCAnLXRuJywgJzgnLCAnLW1hJywgJzIwMCcsICctbWV0YWxfYmluZGluZycsICctaW1hZScsICc8aW5maWxlLm1hZT4nLCAnLW9tYWUnLCAnPG91dGZpbGUubWFlPic=

> <r_lp_tautomer_probability>
1

> <r_epik_Ionization_Penalty>
3.18445e-08

> <r_epik_Ionization_Penalty_Charging>
1.27977e-08

> <r_epik_Ionization_Penalty_Neutral>
1.90469e-08

> <r_epik_State_Penalty>
-0

> <r_epik_Charging_Adjusted_Penalty>
1.27977e-08

> <i_epik_Tot_Q>
0

> <i_epik_Tot_abs_Q>
0

> <r_epik_Metal_State_Penalty>
-0

> <b_epik_Metal_Only>
0

> <s_lp_Force_Field>
OPLS_2005

> <r_lp_Energy>
20.3985

> <b_lp_Chiralities_Consistent>
1

> <s_lp_Variant>
AV-unprocessed.smi:2143-6

> <Gold.Version>
5.8.1

> <Gold.Id.Protein>
6NUR|6NUR_protein|mol2

> <Gold.PLP.Fitness>
47.5093

> <Gold.PLP.PLP>
-40.8679

> <Gold.PLP.part.hbond>
-2.0000

> <Gold.PLP.part.metal>
0.0000

> <Gold.PLP.part.buried>
-2.5056

> <Gold.PLP.part.nonpolar>
-36.2101

> <Gold.PLP.part.repulsive>
0.2874

> <Gold.PLP.ligand.clash>
0.0000

> <Gold.PLP.ligand.torsion>
0.1074

> <Gold.PLP.Chemscore.Hbond>
1.2830

> <Gold.PLP.Chemscore.CHOScore>
1.0000

> <Gold.PLP.Chemscore.Metal>
0.0000

> <Gold.Chemscore.Hbonds>
donor molecule, donor type, donor heavy atom, donor atom, acceptor molecule, acceptor atom, score
      P1  H  7989  7998       L1     9  0.16
      P1  H  7997  8010       L1     9  1.00
      L1  C    12    36       P1  7957  1.00

> <Gold.PLP.Chemscore.Internal.Correction>
0.0073

> <Gold.Rescore>
     Score         DG    S(hbond)    S(metal)    S(lipo)     H(rot)  DE(clash)    DE(int)     intcor
     15.83     -17.69       1.00        0.00     108.91       1.51       0.17       1.69       ----

> <Gold.Chemscore.Fitness>
15.8255

> <Gold.Chemscore.DG>
-17.6868

> <Gold.Chemscore.ZeroCoef>
-5.4800

> <Gold.Chemscore.Hbond>
0.9994

> <Gold.Chemscore.Metal>
0.0000

> <Gold.Chemscore.Lipo>
108.9076

> <Gold.Chemscore.Internal_Hbond>
0.0000

> <Gold.Chemscore.DEClash>
0.1729

> <Gold.Chemscore.DEInternal>
1.6884

> <Gold.Chemscore.Rot>
1.5131

> <Gold.Chemscore.Internal.Correction>
   9.000000E+99

> <Gold.Chemscore.Hbonds>
donor molecule, donor type, donor heavy atom, donor atom, acceptor molecule, acceptor atom, score
      P1  H  7989  7998       L1     9  0.04
      P1  H  7997  8010       L1     9  0.94

> <Gold.Chemscore.Hbond.Weighted>
-3.3380

> <Gold.Chemscore.Metal.Weighted>
-0.0000

> <Gold.Chemscore.Lipo.Weighted>
-12.7422

> <Gold.Chemscore.Internal_Hbond.Weighted>
0.0000

> <Gold.Chemscore.DEClash.Weighted>
0.1729

> <Gold.Chemscore.DEInternal.Weighted>
1.6884

> <Gold.Chemscore.Rot.Weighted>
3.8734

> <Gold.Chemscore.Internal.Correction.Weighted>
   9.000000E+99

> <Gold.Protein.RotatedTorsions>
[ 6907 6896 6895 6894 ] final   56.97 input  -60.11 | X-H torsion
[ 7974 7965 7964 7962 ] final    2.58 input  175.53 | X-H torsion
[ 8008 7997 7996 7995 ] final   89.38 input   59.86 | X-H torsion
[ 10167 10162 10161 10158 ] final  121.77 input  -65.29 | X-H torsion
[ 10718 10713 10712 10709 ] final   73.32 input   66.30 | X-H torsion
[ 10763 10752 10751 10750 ] final  -42.89 input  -60.55 | X-H torsion
[ 11005 11000 10999 10996 ] final -144.06 input  -57.11 | X-H torsion

> <Gold.Protein.ActiveResidues>
 VAL166  LYS551  ARG553  GLY616  TRP617  ASP618  TYR619  PRO620  LYS621  CYS622 
 ASP623  PHE694  ASN695  SER759  ASP760  ASP761  ALA762  ILE779  LEU786  VAL792 
 PHE793  MET794  SER795  GLU796  ALA797  LYS798  CYS799  TRP800  GLU811  SER814 

> <Gold.Protein.RotatedAtoms>
  152.3687  134.6766  160.0183 H   0  0  0  0  0  0  0  0  0  0  0  0  # atno 6907 bound_to 6896
  151.7066  133.3306  159.3288 H   0  0  0  0  0  0  0  0  0  0  0  0  # atno 6908 bound_to 6896
  150.7657  134.6503  159.6329 H   0  0  0  0  0  0  0  0  0  0  0  0  # atno 6909 bound_to 6896
  146.2444  140.0814  142.8357 H   0  0  0  0  0  0  0  0  0  0  0  0  # atno 7974 bound_to 7965
  155.9993  140.3361  155.6829 H   0  0  0  0  0  0  0  0  0  0  0  0  # atno 8008 bound_to 7997
  155.6313  140.0685  157.2666 H   0  0  0  0  0  0  0  0  0  0  0  0  # atno 8009 bound_to 7997
  154.4244  140.1759  156.1462 H   0  0  0  0  0  0  0  0  0  0  0  0  # atno 8010 bound_to 7997
  139.5899  144.7021  151.3315 H   0  0  0  0  0  0  0  0  0  0  0  0  # atno 10167 bound_to 10162
  157.6542  130.9623  150.1053 H   0  0  0  0  0  0  0  0  0  0  0  0  # atno 10718 bound_to 10713
  153.9866  135.6710  153.4752 H   0  0  0  0  0  0  0  0  0  0  0  0  # atno 10763 bound_to 10752
  153.0724  135.4967  154.8329 H   0  0  0  0  0  0  0  0  0  0  0  0  # atno 10764 bound_to 10752
  154.7134  135.3102  154.9124 H   0  0  0  0  0  0  0  0  0  0  0  0  # atno 10765 bound_to 10752
  140.8062  134.2798  157.4959 H   0  0  0  0  0  0  0  0  0  0  0  0  # atno 11005 bound_to 11000
  145.0730  140.9168  143.4871 LP  0  0  0  0  0  0  0  0  0  0  0  0  # atno 17320 bound_to 7965
  145.0951  139.2862  143.5715 LP  0  0  0  0  0  0  0  0  0  0  0  0  # atno 17321 bound_to 7965
  140.7164  143.7254  150.7664 LP  0  0  0  0  0  0  0  0  0  0  0  0  # atno 17342 bound_to 10162
  140.0807  143.4971  152.2531 LP  0  0  0  0  0  0  0  0  0  0  0  0  # atno 17343 bound_to 10162
  156.1965  130.3657  149.8843 LP  0  0  0  0  0  0  0  0  0  0  0  0  # atno 17370 bound_to 10713
  156.6758  130.8838  151.3569 LP  0  0  0  0  0  0  0  0  0  0  0  0  # atno 17371 bound_to 10713
  139.8717  134.9457  156.3918 LP  0  0  0  0  0  0  0  0  0  0  0  0  # atno 17394 bound_to 11000
  140.9244  133.7622  155.9947 LP  0  0  0  0  0  0  0  0  0  0  0  0  # atno 17395 bound_to 11000

$$$$
