#       Name:                AV-unprocessed.smi:32
#       Creating user name   scv26
#       Creation time:       Thu Mar 26 15:46:51 2020


#       File generated by GOLD software.
#

@<TRIPOS>MOLECULE
AV-unprocessed.smi:32
    57    59     1
SMALL
NO_CHARGES


@<TRIPOS>ATOM
      1 ****        -0.4319  -0.1845  -0.3388 O.2            1 S1                 0.0000
      2 ****         0.1161  -0.4659   0.7282 C.2            1 S1                 0.0000
      3 ****         1.6148  -0.2047   0.9433 C.3            1 S1                 0.0000
      4 ****         2.3331   0.1666  -0.2955 N.am           1 S1                 0.0000
      5 ****         2.8555  -0.8676  -1.1112 C.2            1 S1                 0.0000
      6 ****         2.7263  -2.0527  -0.8005 O.2            1 S1                 0.0000
      7 ****         3.5378  -0.4296  -2.3236 C.2            1 S1                 0.0000
      8 ****         4.0741  -1.3423  -3.1513 F              1 S1                 0.0000
      9 ****         3.6409   0.8802  -2.6292 C.2            1 S1                 0.0000
     10 ****         3.1133   1.8790  -1.8302 N.am           1 S1                 0.0000
     11 ****         3.2322   3.3449  -2.1901 C.3            1 S1                 0.0000
     12 ****         1.8833   3.8903  -2.6959 C.3            1 S1                 0.0000
     13 ****         2.2629   4.5631  -4.0000 C.3            1 S1                 0.0000
     14 ****         3.4559   3.7312  -4.4463 C.3            1 S1                 0.0000
     15 ****         4.1559   3.5068  -3.2292 O.3            1 S1                 0.0000
     16 ****         2.4442   1.5358  -0.6354 C.2            1 S1                 0.0000
     17 ****         1.9632   2.4113   0.0874 O.2            1 S1                 0.0000
     18 ****        -0.5351  -1.0078   1.7689 N.am           1 S1                 0.0000
     19 ****        -1.9556  -1.3485   1.8011 C.3            1 S1                 0.0000
     20 ****        -2.4596  -1.2302   3.2547 C.3            1 S1                 0.0000
     21 ****        -3.9935  -1.2329   3.3680 C.3            1 S1                 0.0000
     22 ****        -4.6495  -2.6209   3.4709 C.3            1 S1                 0.0000
     23 ****        -4.0664  -3.7251   2.5719 C.3            1 S1                 0.0000
     24 ****        -3.6042  -3.2655   1.1798 C.3            1 S1                 0.0000
     25 ****        -2.1567  -2.7441   1.1744 C.3            1 S1                 0.0000
     26 ****         1.7214   0.5656   1.7083 H              1 S1                 0.0000
     27 ****         2.0628  -1.0902   1.3974 H              1 S1                 0.0000
     28 ****         4.1602   1.1366  -3.5396 H              1 S1                 0.0000
     29 ****         3.6077   3.8408  -1.2933 H              1 S1                 0.0000
     30 ****         1.1889   3.0688  -2.8799 H              1 S1                 0.0000
     31 ****         1.4404   4.5739  -1.9710 H              1 S1                 0.0000
     32 ****         1.4519   4.5731  -4.7285 H              1 S1                 0.0000
     33 ****         2.5728   5.5927  -3.8160 H              1 S1                 0.0000
     34 ****         3.1284   2.7825  -4.8739 H              1 S1                 0.0000
     35 ****         4.0792   4.2434  -5.1794 H              1 S1                 0.0000
     36 ****        -0.0040  -1.2046   2.6049 H              1 S1                 0.0000
     37 ****        -2.4961  -0.6152   1.1995 H              1 S1                 0.0000
     38 ****        -2.0224  -2.0030   3.8884 H              1 S1                 0.0000
     39 ****        -2.1063  -0.2802   3.6585 H              1 S1                 0.0000
     40 ****        -4.2821  -0.6637   4.2523 H              1 S1                 0.0000
     41 ****        -4.4216  -0.6862   2.5268 H              1 S1                 0.0000
     42 ****        -4.6008  -2.9639   4.5050 H              1 S1                 0.0000
     43 ****        -5.7120  -2.5076   3.2518 H              1 S1                 0.0000
     44 ****        -3.2371  -4.2134   3.0853 H              1 S1                 0.0000
     45 ****        -4.8259  -4.4994   2.4570 H              1 S1                 0.0000
     46 ****        -3.6445  -4.1276   0.5130 H              1 S1                 0.0000
     47 ****        -4.2911  -2.5312   0.7574 H              1 S1                 0.0000
     48 ****        -1.8180  -2.7082   0.1382 H              1 S1                 0.0000
     49 ****        -1.5077  -3.4695   1.6673 H              1 S1                 0.0000
     50 ****         0.0999   0.2208  -1.0824 LP             1 S1                 0.0000
     51 ****        -1.4085  -0.3615  -0.4613 LP             1 S1                 0.0000
     52 ****         2.2455  -2.2995   0.0409 LP             1 S1                 0.0000
     53 ****         3.1022  -2.7679  -1.3897 LP             1 S1                 0.0000
     54 ****         4.7144   2.6814  -3.3119 LP             1 S1                 0.0000
     55 ****         4.7458   4.2902  -3.0333 LP             1 S1                 0.0000
     56 ****         1.4855   2.1584   0.9287 LP             1 S1                 0.0000
     57 ****         2.0508   3.3742  -0.1678 LP             1 S1                 0.0000
@<TRIPOS>BOND
    1    1    2 2     
    2    2    3 1     
    3    2   18 am    
    4    3    4 1     
    5    3   26 1     
    6    3   27 1     
    7    4   16 am    
    8    4    5 am    
    9    5    6 2     
   10    5    7 1     
   11    7    8 1     
   12    7    9 2     
   13    9   10 1     
   14    9   28 1     
   15   10   11 1     
   16   10   16 am    
   17   11   15 1     
   18   11   12 1     
   19   11   29 1     
   20   12   13 1     
   21   12   30 1     
   22   12   31 1     
   23   13   14 1     
   24   13   32 1     
   25   13   33 1     
   26   14   15 1     
   27   14   34 1     
   28   14   35 1     
   29   16   17 2     
   30   18   19 1     
   31   18   36 1     
   32   19   25 1     
   33   19   20 1     
   34   19   37 1     
   35   20   21 1     
   36   20   38 1     
   37   20   39 1     
   38   21   22 1     
   39   21   40 1     
   40   21   41 1     
   41   22   23 1     
   42   22   42 1     
   43   22   43 1     
   44   23   24 1     
   45   23   44 1     
   46   23   45 1     
   47   24   25 1     
   48   24   46 1     
   49   24   47 1     
   50   25   48 1     
   51   25   49 1     
   52    1   50 1     
   53    1   51 1     
   54    6   52 1     
   55    6   53 1     
   56   15   54 1     
   57   15   55 1     
   58   17   56 1     
   59   17   57 1     
@<TRIPOS>SUBSTRUCTURE
      1 S1             1
@<TRIPOS>SET
LONE_PAIRS      STATIC     ATOMS    <user>   **** ""
8 50 51 52 53 54 55 56 57
DONOR_HYDROGENS      STATIC     ATOMS    <user>   **** ""
1 36
ATOM$BLUE        STATIC     ATOMS    COLORGROUP SYSTEM
8 50 51 52 53 54 55 56 57
ATOM$RED        STATIC     ATOMS    COLORGROUP SYSTEM
1 36
