AV-unprocessed.smi:3150|AV-procd|sdf|12011|dock10
  -GOLD-   2272017423D 1   1.00000     0.00000
 Structure written by MMmdl.
 32 33  0  0  0  0  0  0  0  0  2 V2000
  152.8149  138.8674  154.7152 C   0  0  0  0  0  0  0  0  0  0  0  0
  151.4732  139.2326  155.3647 C   0  0  2  0  0  0  0  0  0  0  0  0
  150.5378  139.4811  154.3186 O   0  0  0  0  0  0  0  0  0  0  0  0
  149.2030  139.7315  154.7487 C   0  0  0  0  0  0  0  0  0  0  0  0
  148.6937  141.0563  154.2115 C   0  0  0  0  0  0  0  0  0  0  0  0
  147.5605  141.7946  154.8938 C   0  0  0  0  0  0  0  0  0  0  0  0
  147.3344  141.1556  153.5505 C   0  0  0  0  0  0  0  0  0  0  0  0
  151.6216  140.4748  156.2587 C   0  0  0  0  0  0  0  0  0  0  0  0
  150.9265  141.4646  156.0124 O   0  0  0  0  0  0  0  0  0  0  0  0
  152.5661  140.2828  157.2634 N   0  0  0  0  0  0  0  0  0  0  0  0
  152.6666  141.0490  158.3154 C   0  0  0  0  0  0  0  0  0  0  0  0
  151.8289  142.1535  158.5495 N   0  0  0  0  0  0  0  0  0  0  0  0
  151.9394  142.9589  159.6631 C   0  0  0  0  0  0  0  0  0  0  0  0
  152.8629  142.7330  160.5986 C   0  0  0  0  0  0  0  0  0  0  0  0
  153.7665  141.6130  160.4336 C   0  0  0  0  0  0  0  0  0  0  0  0
  153.7021  140.7615  159.3245 C   0  0  0  0  0  0  0  0  0  0  0  0
  154.5041  139.8041  159.2235 O   0  5  0  0  0  0  0  0  0  0  0  0
  153.5733  138.6514  155.4687 H   0  0  0  0  0  0  0  0  0  0  0  0
  153.1877  139.6757  154.0848 H   0  0  0  0  0  0  0  0  0  0  0  0
  152.7116  137.9810  154.0891 H   0  0  0  0  0  0  0  0  0  0  0  0
  151.1318  138.3779  155.9527 H   0  0  0  0  0  0  0  0  0  0  0  0
  148.5439  138.9371  154.3968 H   0  0  0  0  0  0  0  0  0  0  0  0
  149.1368  139.7556  155.8367 H   0  0  0  0  0  0  0  0  0  0  0  0
  149.4753  141.6798  153.7819 H   0  0  0  0  0  0  0  0  0  0  0  0
  147.0903  141.3282  155.7573 H   0  0  0  0  0  0  0  0  0  0  0  0
  147.6209  142.8803  154.9290 H   0  0  0  0  0  0  0  0  0  0  0  0
  147.2430  141.8155  152.6902 H   0  0  0  0  0  0  0  0  0  0  0  0
  146.7154  140.2612  153.5170 H   0  0  0  0  0  0  0  0  0  0  0  0
  151.2284  143.7704  159.7083 H   0  0  0  0  0  0  0  0  0  0  0  0
  152.9361  143.3741  161.4644 H   0  0  0  0  0  0  0  0  0  0  0  0
  154.5102  141.4394  161.1980 H   0  0  0  0  0  0  0  0  0  0  0  0
  151.1024  142.3975  157.8929 H   0  0  0  0  0  0  0  0  0  0  0  0
  1  2  1  0  0  0  0
  1 18  1  0  0  0  0
  1 19  1  0  0  0  0
  1 20  1  0  0  0  0
  2  3  1  0  0  0  0
  2  8  1  0  0  0  0
  2 21  1  0  0  0  0
  3  4  1  0  0  0  0
  4  5  1  0  0  0  0
  4 22  1  0  0  0  0
  4 23  1  0  0  0  0
  5  7  1  0  0  0  0
  5  6  1  0  0  0  0
  5 24  1  0  0  0  0
  6  7  1  0  0  0  0
  6 25  1  0  0  0  0
  6 26  1  0  0  0  0
  7 27  1  0  0  0  0
  7 28  1  0  0  0  0
  8  9  2  0  0  0  0
  8 10  1  0  0  0  0
 10 11  2  0  0  0  0
 11 16  1  0  0  0  0
 11 12  1  0  0  0  0
 12 32  1  0  0  0  0
 12 13  1  0  0  0  0
 13 29  1  0  0  0  0
 13 14  2  0  0  0  0
 14 30  1  0  0  0  0
 14 15  1  0  0  0  0
 15 16  2  0  0  0  0
 15 31  1  0  0  0  0
 16 17  1  0  0  0  0
M  CHG  1  17  -1
M  END
> <s_m_source_file>
AV-unprocessed.smi

> <i_m_source_file_index>
3150

> <i_lp_mmshare_version>
43012

> <i_f3d_flags>
0

> <s_epik_input>
W0NIMl0xW0NIMl1bQ0hdMVtDSDJdT1tDQEBIXShbQ0gzXSlDKD1PKVtOSF1jMm5bY0hdW2NIXVtjSF1jMltPSF0=

> <s_epik_cmdline>
J2VwaWtfcHl0aG9uJywgJy1waCcsICc3LjAnLCAnLXRuJywgJzgnLCAnLW1hJywgJzIwMCcsICctbWV0YWxfYmluZGluZycsICctaW1hZScsICc8aW5maWxlLm1hZT4nLCAnLW9tYWUnLCAnPG91dGZpbGUubWFlPic=

> <r_epik_Ionization_Penalty>
0.784632

> <r_epik_Ionization_Penalty_Charging>
0.784632

> <r_epik_Ionization_Penalty_Neutral>
7.02258e-13

> <r_epik_State_Penalty>
1.43154

> <r_epik_Charging_Adjusted_Penalty>
2.21617

> <i_epik_Tot_Q>
-1

> <i_epik_Tot_abs_Q>
1

> <r_epik_Metal_State_Penalty>
1.39244

> <b_epik_Metal_Only>
0

> <s_lp_Force_Field>
OPLS_2005

> <r_lp_Energy>
43.7392

> <b_lp_Chiralities_Consistent>
1

> <s_lp_Variant>
AV-unprocessed.smi:3150-5

> <Gold.Version>
5.8.1

> <Gold.Id.Protein>
6NUR|6NUR_protein|mol2

> <Gold.PLP.Fitness>
43.5682

> <Gold.PLP.PLP>
-36.7175

> <Gold.PLP.part.hbond>
-3.0000

> <Gold.PLP.part.metal>
0.0000

> <Gold.PLP.part.buried>
-3.9471

> <Gold.PLP.part.nonpolar>
-29.6932

> <Gold.PLP.part.repulsive>
0.2912

> <Gold.PLP.ligand.clash>
0.0000

> <Gold.PLP.ligand.torsion>
0.8986

> <Gold.PLP.Chemscore.Hbond>
2.7000

> <Gold.PLP.Chemscore.CHOScore>
0.0000

> <Gold.PLP.Chemscore.Metal>
0.0000

> <Gold.Chemscore.Hbonds>
donor molecule, donor type, donor heavy atom, donor atom, acceptor molecule, acceptor atom, score
      P1  H  7989  7998       L1     3  0.70
      P1  H  7997  8010       L1    17  1.80

> <Gold.PLP.Chemscore.Internal.Correction>
0.5479

> <Gold.Rescore>
     Score         DG    S(hbond)    S(metal)    S(lipo)     H(rot)  DE(clash)    DE(int)     intcor
      9.89     -13.77       0.76        0.00      85.08       1.64       0.15       3.73       ----

> <Gold.Chemscore.Fitness>
9.8911

> <Gold.Chemscore.DG>
-13.7717

> <Gold.Chemscore.ZeroCoef>
-5.4800

> <Gold.Chemscore.Hbond>
0.7580

> <Gold.Chemscore.Metal>
0.0000

> <Gold.Chemscore.Lipo>
85.0848

> <Gold.Chemscore.Internal_Hbond>
0.0000

> <Gold.Chemscore.DEClash>
0.1463

> <Gold.Chemscore.DEInternal>
3.7343

> <Gold.Chemscore.Rot>
1.6387

> <Gold.Chemscore.Internal.Correction>
   9.000000E+99

> <Gold.Chemscore.Hbonds>
donor molecule, donor type, donor heavy atom, donor atom, acceptor molecule, acceptor atom, score
      P1  H  7989  7998       L1     3  0.07
      P1  H  7997  8010       L1    17  0.17

> <Gold.Chemscore.Hbond.Weighted>
-2.5318

> <Gold.Chemscore.Metal.Weighted>
-0.0000

> <Gold.Chemscore.Lipo.Weighted>
-9.9549

> <Gold.Chemscore.Internal_Hbond.Weighted>
0.0000

> <Gold.Chemscore.DEClash.Weighted>
0.1463

> <Gold.Chemscore.DEInternal.Weighted>
3.7343

> <Gold.Chemscore.Rot.Weighted>
4.1950

> <Gold.Chemscore.Internal.Correction.Weighted>
   9.000000E+99

> <Gold.Protein.RotatedTorsions>
[ 6907 6896 6895 6894 ] final  -85.01 input  -60.11 | X-H torsion
[ 7974 7965 7964 7962 ] final -167.60 input  175.53 | X-H torsion
[ 8008 7997 7996 7995 ] final    8.25 input   59.86 | X-H torsion
[ 10167 10162 10161 10158 ] final  115.39 input  -65.29 | X-H torsion
[ 10718 10713 10712 10709 ] final -103.76 input   66.30 | X-H torsion
[ 10763 10752 10751 10750 ] final  157.61 input  -60.55 | X-H torsion
[ 11005 11000 10999 10996 ] final  -94.87 input  -57.11 | X-H torsion

> <Gold.Protein.ActiveResidues>
 VAL166  LYS551  ARG553  GLY616  TRP617  ASP618  TYR619  PRO620  LYS621  CYS622 
 ASP623  PHE694  ASN695  SER759  ASP760  ASP761  ALA762  ILE779  LEU786  VAL792 
 PHE793  MET794  SER795  GLU796  ALA797  LYS798  CYS799  TRP800  GLU811  SER814 

> <Gold.Protein.RotatedAtoms>
  150.6872  134.3270  159.4810 H   0  0  0  0  0  0  0  0  0  0  0  0  # atno 6907 bound_to 6896
  152.1139  134.9252  160.0575 H   0  0  0  0  0  0  0  0  0  0  0  0  # atno 6908 bound_to 6896
  152.0483  133.3973  159.4403 H   0  0  0  0  0  0  0  0  0  0  0  0  # atno 6909 bound_to 6896
  144.7220  140.2495  143.6280 H   0  0  0  0  0  0  0  0  0  0  0  0  # atno 7974 bound_to 7965
  154.7644  140.2790  155.6188 H   0  0  0  0  0  0  0  0  0  0  0  0  # atno 8008 bound_to 7997
  156.2922  140.2653  156.2358 H   0  0  0  0  0  0  0  0  0  0  0  0  # atno 8009 bound_to 7997
  154.9977  140.0373  157.2336 H   0  0  0  0  0  0  0  0  0  0  0  0  # atno 8010 bound_to 7997
  139.6320  144.7116  151.2412 H   0  0  0  0  0  0  0  0  0  0  0  0  # atno 10167 bound_to 10162
  156.0278  130.5483  150.7300 H   0  0  0  0  0  0  0  0  0  0  0  0  # atno 10718 bound_to 10713
  154.2030  135.2789  155.2984 H   0  0  0  0  0  0  0  0  0  0  0  0  # atno 10763 bound_to 10752
  154.5839  135.5581  153.7216 H   0  0  0  0  0  0  0  0  0  0  0  0  # atno 10764 bound_to 10752
  153.0083  135.6351  154.2168 H   0  0  0  0  0  0  0  0  0  0  0  0  # atno 10765 bound_to 10752
  141.1458  133.7986  157.0357 H   0  0  0  0  0  0  0  0  0  0  0  0  # atno 11005 bound_to 11000
  145.8242  139.2057  143.1920 LP  0  0  0  0  0  0  0  0  0  0  0  0  # atno 17320 bound_to 7965
  146.0488  140.8091  142.9792 LP  0  0  0  0  0  0  0  0  0  0  0  0  # atno 17321 bound_to 7965
  140.7444  143.6463  150.8289 LP  0  0  0  0  0  0  0  0  0  0  0  0  # atno 17342 bound_to 10162
  140.0089  143.5664  152.2847 LP  0  0  0  0  0  0  0  0  0  0  0  0  # atno 17343 bound_to 10162
  157.4895  131.0909  151.0444 LP  0  0  0  0  0  0  0  0  0  0  0  0  # atno 17370 bound_to 10713
  157.0855  130.5920  149.5429 LP  0  0  0  0  0  0  0  0  0  0  0  0  # atno 17371 bound_to 10713
  140.0725  134.9694  157.1491 LP  0  0  0  0  0  0  0  0  0  0  0  0  # atno 17394 bound_to 11000
  140.3690  134.2411  155.7179 LP  0  0  0  0  0  0  0  0  0  0  0  0  # atno 17395 bound_to 11000

$$$$
