AV-unprocessed.smi:243|AV-procd|sdf|1851|dock3
  -GOLD-   2262020473D 1   1.00000     0.00000
 Structure written by MMmdl.
 58 61  0  0  0  0  0  0  0  0  2 V2000
  149.5428  141.1060  155.2186 C   0  0  0  0  0  0  0  0  0  0  0  0
  148.9322  141.3800  156.6008 C   0  0  0  0  0  0  0  0  0  0  0  0
  149.9583  141.4703  157.6703 N   0  3  1  0  0  0  0  0  0  0  0  0
  150.8516  140.2879  157.6913 C   0  0  0  0  0  0  0  0  0  0  0  0
  151.7598  140.3357  158.9233 C   0  0  0  0  0  0  0  0  0  0  0  0
  152.6256  141.6147  158.9409 C   0  0  2  0  0  0  0  0  0  0  0  0
  153.5708  141.6460  160.0715 N   0  0  0  0  0  0  0  0  0  0  0  0
  153.2966  142.5212  161.2059 C   0  0  0  0  0  0  0  0  0  0  0  0
  154.3668  140.5763  160.3294 C   0  0  0  0  0  0  0  0  0  0  0  0
  154.6252  139.7145  159.3134 N   0  0  0  0  0  0  0  0  0  0  0  0
  155.4122  138.6530  159.5075 C   0  0  0  0  0  0  0  0  0  0  0  0
  156.0381  138.2730  160.6219 N   0  0  0  0  0  0  0  0  0  0  0  0
  155.7984  139.1424  161.6444 C   0  0  0  0  0  0  0  0  0  0  0  0
  154.9928  140.3158  161.5837 C   0  0  0  0  0  0  0  0  0  0  0  0
  155.0047  140.9536  162.8186 N   0  0  0  0  0  0  0  0  0  0  0  0
  155.7637  140.2001  163.5652 C   0  0  0  0  0  0  0  0  0  0  0  0
  156.2696  139.0815  162.9442 N   0  0  0  0  0  0  0  0  0  0  0  0
  157.1319  138.0715  163.5368 C   0  0  0  0  0  0  0  0  0  0  0  0
  156.4545  137.2513  164.6646 C   0  0  1  0  0  0  0  0  0  0  0  0
  156.7439  137.8312  165.9227 O   0  0  0  0  0  0  0  0  0  0  0  0
  154.9484  137.1628  164.4814 C   0  0  0  0  0  0  0  0  0  0  0  0
  154.7872  135.9712  163.5388 C   0  0  0  0  0  0  0  0  0  0  0  0
  155.9319  135.1469  163.7419 O   0  0  0  0  0  0  0  0  0  0  0  0
  156.8201  135.7622  164.6686 C   0  0  0  0  0  0  0  0  0  0  0  0
  151.7097  142.8676  158.8279 C   0  0  1  0  0  0  0  0  0  0  0  0
  152.4849  144.1875  158.6700 C   0  0  0  0  0  0  0  0  0  0  0  0
  150.7450  142.7294  157.6268 C   0  0  0  0  0  0  0  0  0  0  0  0
  148.7754  141.1536  154.4457 H   0  0  0  0  0  0  0  0  0  0  0  0
  149.9974  140.1177  155.1581 H   0  0  0  0  0  0  0  0  0  0  0  0
  150.3056  141.8449  154.9707 H   0  0  0  0  0  0  0  0  0  0  0  0
  148.3932  142.3266  156.5410 H   0  0  0  0  0  0  0  0  0  0  0  0
  148.1924  140.6192  156.8537 H   0  0  0  0  0  0  0  0  0  0  0  0
  150.2573  139.3737  157.7241 H   0  0  0  0  0  0  0  0  0  0  0  0
  151.4453  140.2505  156.7763 H   0  0  0  0  0  0  0  0  0  0  0  0
  151.1185  140.2857  159.8024 H   0  0  0  0  0  0  0  0  0  0  0  0
  152.3981  139.4516  158.9457 H   0  0  0  0  0  0  0  0  0  0  0  0
  153.2386  141.5851  158.0389 H   0  0  0  0  0  0  0  0  0  0  0  0
  154.1773  142.6175  161.8426 H   0  0  0  0  0  0  0  0  0  0  0  0
  152.4749  142.1548  161.8184 H   0  0  0  0  0  0  0  0  0  0  0  0
  153.0353  143.5201  160.8556 H   0  0  0  0  0  0  0  0  0  0  0  0
  155.5627  138.0175  158.6472 H   0  0  0  0  0  0  0  0  0  0  0  0
  155.9706  140.4367  164.5990 H   0  0  0  0  0  0  0  0  0  0  0  0
  157.4712  137.4062  162.7418 H   0  0  0  0  0  0  0  0  0  0  0  0
  158.0246  138.5718  163.9136 H   0  0  0  0  0  0  0  0  0  0  0  0
  157.4909  137.3869  166.2937 H   0  0  0  0  0  0  0  0  0  0  0  0
  154.4620  136.9316  165.4307 H   0  0  0  0  0  0  0  0  0  0  0  0
  154.5001  138.0787  164.0948 H   0  0  0  0  0  0  0  0  0  0  0  0
  153.8656  135.4205  163.7283 H   0  0  0  0  0  0  0  0  0  0  0  0
  154.7752  136.3001  162.4991 H   0  0  0  0  0  0  0  0  0  0  0  0
  157.8626  135.5558  164.4307 H   0  0  0  0  0  0  0  0  0  0  0  0
  156.6205  135.3247  165.6484 H   0  0  0  0  0  0  0  0  0  0  0  0
  151.1057  142.9384  159.7340 H   0  0  0  0  0  0  0  0  0  0  0  0
  153.1848  144.1397  157.8352 H   0  0  0  0  0  0  0  0  0  0  0  0
  153.0459  144.4414  159.5646 H   0  0  0  0  0  0  0  0  0  0  0  0
  151.8068  145.0212  158.4853 H   0  0  0  0  0  0  0  0  0  0  0  0
  151.3040  142.7685  156.6902 H   0  0  0  0  0  0  0  0  0  0  0  0
  150.0690  143.5837  157.6206 H   0  0  0  0  0  0  0  0  0  0  0  0
  149.4583  141.4622  158.5480 H   0  0  0  0  0  0  0  0  0  0  0  0
  1  2  1  0  0  0  0
  1 28  1  0  0  0  0
  1 29  1  0  0  0  0
  1 30  1  0  0  0  0
  2  3  1  0  0  0  0
  2 31  1  0  0  0  0
  2 32  1  0  0  0  0
  3 27  1  0  0  0  0
  3  4  1  0  0  0  0
  3 58  1  0  0  0  0
  4  5  1  0  0  0  0
  4 33  1  0  0  0  0
  4 34  1  0  0  0  0
  5  6  1  0  0  0  0
  5 35  1  0  0  0  0
  5 36  1  0  0  0  0
  6  7  1  0  0  0  0
  6 25  1  0  0  0  0
  6 37  1  0  0  0  0
  7  8  1  0  0  0  0
  7  9  1  0  0  0  0
  8 38  1  0  0  0  0
  8 39  1  0  0  0  0
  8 40  1  0  0  0  0
  9 14  1  0  0  0  0
  9 10  2  0  0  0  0
 10 11  1  0  0  0  0
 11 12  2  0  0  0  0
 11 41  1  0  0  0  0
 12 13  1  0  0  0  0
 13 17  1  0  0  0  0
 13 14  2  0  0  0  0
 14 15  1  0  0  0  0
 15 16  2  0  0  0  0
 16 17  1  0  0  0  0
 16 42  1  0  0  0  0
 17 18  1  0  0  0  0
 18 19  1  0  0  0  0
 18 43  1  0  0  0  0
 18 44  1  0  0  0  0
 19 24  1  0  0  0  0
 19 20  1  0  0  0  0
 19 21  1  0  0  0  0
 20 45  1  0  0  0  0
 21 22  1  0  0  0  0
 21 46  1  0  0  0  0
 21 47  1  0  0  0  0
 22 23  1  0  0  0  0
 22 48  1  0  0  0  0
 22 49  1  0  0  0  0
 23 24  1  0  0  0  0
 24 50  1  0  0  0  0
 24 51  1  0  0  0  0
 25 26  1  0  0  0  0
 25 27  1  0  0  0  0
 25 52  1  0  0  0  0
 26 53  1  0  0  0  0
 26 54  1  0  0  0  0
 26 55  1  0  0  0  0
 27 56  1  0  0  0  0
 27 57  1  0  0  0  0
M  CHG  1   3   1
M  END
> <s_m_source_file>
AV-unprocessed.smi

> <i_m_source_file_index>
243

> <i_lp_mmshare_version>
43012

> <i_f3d_flags>
0

> <s_epik_input>
W0NIM11bQ0gyXU4xW0NIMl1bQ0gyXVtDQEhdKFtDQEBIXShbQ0gzXSlbQ0gyXTEpTihbQ0gzXSljKG5bY0hdbjIpYyhjMjMpbltjSF1uM1tDSDJdW0NAQF00KFtPSF0pW0NIMl1bQ0gyXU9bQ0gyXTQ=

> <s_epik_cmdline>
J2VwaWtfcHl0aG9uJywgJy1waCcsICc3LjAnLCAnLXRuJywgJzgnLCAnLW1hJywgJzIwMCcsICctbWV0YWxfYmluZGluZycsICctaW1hZScsICc8aW5maWxlLm1hZT4nLCAnLW9tYWUnLCAnPG91dGZpbGUubWFlPic=

> <r_lp_tautomer_probability>
1

> <r_epik_Ionization_Penalty>
0.00253099

> <r_epik_Ionization_Penalty_Charging>
0.00137877

> <r_epik_Ionization_Penalty_Neutral>
0.00115221

> <r_epik_State_Penalty>
-0

> <r_epik_Charging_Adjusted_Penalty>
0.00137877

> <i_epik_Tot_Q>
1

> <i_epik_Tot_abs_Q>
1

> <r_epik_Metal_State_Penalty>
-0

> <b_epik_Metal_Only>
0

> <s_lp_Force_Field>
OPLS_2005

> <r_lp_Energy>
48.9209

> <b_lp_Chiralities_Consistent>
1

> <s_lp_Variant>
AV-unprocessed.smi:243-4

> <Gold.Version>
5.8.1

> <Gold.Id.Protein>
6NUR|6NUR_protein|mol2

> <Gold.PLP.Fitness>
49.4181

> <Gold.PLP.PLP>
-48.3710

> <Gold.PLP.part.hbond>
-2.4569

> <Gold.PLP.part.metal>
0.0000

> <Gold.PLP.part.buried>
-4.6063

> <Gold.PLP.part.nonpolar>
-39.2541

> <Gold.PLP.part.repulsive>
0.0970

> <Gold.PLP.ligand.clash>
0.0000

> <Gold.PLP.ligand.torsion>
1.1951

> <Gold.PLP.Chemscore.Hbond>
0.8775

> <Gold.PLP.Chemscore.CHOScore>
0.0000

> <Gold.PLP.Chemscore.Metal>
0.0000

> <Gold.Chemscore.Hbonds>
donor molecule, donor type, donor heavy atom, donor atom, acceptor molecule, acceptor atom, score
      P1  H  7997  8009       L1    10  0.68

> <Gold.PLP.Chemscore.Internal.Correction>
0.8048

> <Gold.Rescore>
     Score         DG    S(hbond)    S(metal)    S(lipo)     H(rot)  DE(clash)    DE(int)     intcor
     10.96     -13.98       0.36        0.00     111.27       2.24       0.33       2.69       ----

> <Gold.Chemscore.Fitness>
10.9584

> <Gold.Chemscore.DG>
-13.9812

> <Gold.Chemscore.ZeroCoef>
-5.4800

> <Gold.Chemscore.Hbond>
0.3629

> <Gold.Chemscore.Metal>
0.0000

> <Gold.Chemscore.Lipo>
111.2651

> <Gold.Chemscore.Internal_Hbond>
0.0000

> <Gold.Chemscore.DEClash>
0.3347

> <Gold.Chemscore.DEInternal>
2.6880

> <Gold.Chemscore.Rot>
2.2379

> <Gold.Chemscore.Internal.Correction>
   9.000000E+99

> <Gold.Chemscore.Hbonds>
donor molecule, donor type, donor heavy atom, donor atom, acceptor molecule, acceptor atom, score
      P1  H  7997  8009       L1    10  0.08

> <Gold.Chemscore.Hbond.Weighted>
-1.2123

> <Gold.Chemscore.Metal.Weighted>
-0.0000

> <Gold.Chemscore.Lipo.Weighted>
-13.0180

> <Gold.Chemscore.Internal_Hbond.Weighted>
0.0000

> <Gold.Chemscore.DEClash.Weighted>
0.3347

> <Gold.Chemscore.DEInternal.Weighted>
2.6880

> <Gold.Chemscore.Rot.Weighted>
5.7291

> <Gold.Chemscore.Internal.Correction.Weighted>
   9.000000E+99

> <Gold.Protein.RotatedTorsions>
[ 6907 6896 6895 6894 ] final   40.76 input  -60.11 | X-H torsion
[ 7974 7965 7964 7962 ] final  124.54 input  175.53 | X-H torsion
[ 8008 7997 7996 7995 ] final  112.65 input   59.86 | X-H torsion
[ 10167 10162 10161 10158 ] final  124.73 input  -65.29 | X-H torsion
[ 10718 10713 10712 10709 ] final   44.78 input   66.30 | X-H torsion
[ 10763 10752 10751 10750 ] final  -30.67 input  -60.55 | X-H torsion
[ 11005 11000 10999 10996 ] final  103.47 input  -57.11 | X-H torsion

> <Gold.Protein.ActiveResidues>
 VAL166  LYS551  ARG553  GLY616  TRP617  ASP618  TYR619  PRO620  LYS621  CYS622 
 ASP623  PHE694  ASN695  SER759  ASP760  ASP761  ALA762  ILE779  LEU786  VAL792 
 PHE793  MET794  SER795  GLU796  ALA797  LYS798  CYS799  TRP800  GLU811  SER814 

> <Gold.Protein.RotatedAtoms>
  152.1866  134.8708  160.0521 H   0  0  0  0  0  0  0  0  0  0  0  0  # atno 6907 bound_to 6896
  151.9613  133.3691  159.4044 H   0  0  0  0  0  0  0  0  0  0  0  0  # atno 6908 bound_to 6896
  150.6927  134.4161  159.5227 H   0  0  0  0  0  0  0  0  0  0  0  0  # atno 6909 bound_to 6896
  145.0832  139.3641  143.4898 H   0  0  0  0  0  0  0  0  0  0  0  0  # atno 7974 bound_to 7965
  156.2206  140.2995  155.9943 H   0  0  0  0  0  0  0  0  0  0  0  0  # atno 8008 bound_to 7997
  155.2491  140.0425  157.3001 H   0  0  0  0  0  0  0  0  0  0  0  0  # atno 8009 bound_to 7997
  154.5835  140.2382  155.8028 H   0  0  0  0  0  0  0  0  0  0  0  0  # atno 8010 bound_to 7997
  139.5725  144.6946  151.3740 H   0  0  0  0  0  0  0  0  0  0  0  0  # atno 10167 bound_to 10162
  157.4305  130.8022  149.7599 H   0  0  0  0  0  0  0  0  0  0  0  0  # atno 10718 bound_to 10713
  153.7848  135.6902  153.4882 H   0  0  0  0  0  0  0  0  0  0  0  0  # atno 10763 bound_to 10752
  153.1788  135.4514  154.9999 H   0  0  0  0  0  0  0  0  0  0  0  0  # atno 10764 bound_to 10752
  154.8067  135.3360  154.7348 H   0  0  0  0  0  0  0  0  0  0  0  0  # atno 10765 bound_to 10752
  139.8784  134.9264  156.5214 H   0  0  0  0  0  0  0  0  0  0  0  0  # atno 11005 bound_to 11000
  146.3531  140.0632  142.8628 LP  0  0  0  0  0  0  0  0  0  0  0  0  # atno 17320 bound_to 7965
  145.1153  140.9430  143.4632 LP  0  0  0  0  0  0  0  0  0  0  0  0  # atno 17321 bound_to 7965
  140.7009  143.7634  150.7401 LP  0  0  0  0  0  0  0  0  0  0  0  0  # atno 17342 bound_to 10162
  140.1144  143.4669  152.2351 LP  0  0  0  0  0  0  0  0  0  0  0  0  # atno 17343 bound_to 10162
  155.9912  130.3939  150.2997 LP  0  0  0  0  0  0  0  0  0  0  0  0  # atno 17370 bound_to 10713
  157.1153  131.0232  151.3031 LP  0  0  0  0  0  0  0  0  0  0  0  0  # atno 17371 bound_to 10713
  140.8448  133.8177  155.9110 LP  0  0  0  0  0  0  0  0  0  0  0  0  # atno 17394 bound_to 11000
  140.9202  134.2151  157.4931 LP  0  0  0  0  0  0  0  0  0  0  0  0  # atno 17395 bound_to 11000

$$$$
