AV-unprocessed.smi:662|AV-procd|sdf|3245|dock4
  -GOLD-   22720 0193D 1   1.00000     0.00000
 Structure written by MMmdl.
 33 34  0  0  0  0  0  0  0  0  1 V2000
  150.9475  139.7326  154.0287 O   0  0  0  0  0  0  0  0  0  0  0  0
  149.9778  140.3212  154.5088 C   0  0  0  0  0  0  0  0  0  0  0  0
  150.0613  141.1197  155.5838 N   0  0  0  0  0  0  0  0  0  0  0  0
  151.2830  141.3927  156.3315 C   0  0  0  0  0  0  0  0  0  0  0  0
  151.0608  142.4661  157.4097 C   0  0  0  0  0  0  0  0  0  0  0  0
  152.0121  142.3331  158.5505 C   0  0  0  0  0  0  0  0  0  0  0  0
  152.8428  141.2984  158.7018 N   0  0  0  0  0  0  0  0  0  0  0  0
  153.6130  141.3876  159.8667 C   0  0  0  0  0  0  0  0  0  0  0  0
  154.6135  140.3141  160.1832 C   0  0  0  0  0  0  0  0  0  0  0  0
  154.4156  139.8011  161.3977 F   0  0  0  0  0  0  0  0  0  0  0  0
  154.5378  139.3123  159.3073 F   0  0  0  0  0  0  0  0  0  0  0  0
  155.8570  140.7920  160.1469 F   0  0  0  0  0  0  0  0  0  0  0  0
  153.3369  142.5113  160.6074 C   0  0  0  0  0  0  0  0  0  0  0  0
  152.1023  143.4939  159.8692 S   0  0  0  0  0  0  0  0  0  0  0  0
  148.5863  140.1632  153.8842 C   0  0  2  0  0  0  0  0  0  0  0  0
  147.5388  139.6570  154.8894 C   0  0  0  0  0  0  0  0  0  0  0  0
  146.8624  138.4964  154.1698 C   0  0  0  0  0  0  0  0  0  0  0  0
  147.2305  138.7063  152.7026 C   0  0  0  0  0  0  0  0  0  0  0  0
  148.5915  139.2115  152.7658 N   0  0  0  0  0  0  0  0  0  0  0  0
  149.2167  141.5668  155.9095 H   0  0  0  0  0  0  0  0  0  0  0  0
  151.6589  140.4712  156.7797 H   0  0  0  0  0  0  0  0  0  0  0  0
  152.0436  141.7273  155.6254 H   0  0  0  0  0  0  0  0  0  0  0  0
  151.1687  143.4617  156.9768 H   0  0  0  0  0  0  0  0  0  0  0  0
  150.0457  142.4066  157.8035 H   0  0  0  0  0  0  0  0  0  0  0  0
  153.7831  142.8188  161.5416 H   0  0  0  0  0  0  0  0  0  0  0  0
  148.2529  141.1276  153.4958 H   0  0  0  0  0  0  0  0  0  0  0  0
  147.9657  139.3293  155.8390 H   0  0  0  0  0  0  0  0  0  0  0  0
  146.8192  140.4463  155.1098 H   0  0  0  0  0  0  0  0  0  0  0  0
  147.2760  137.5504  154.5225 H   0  0  0  0  0  0  0  0  0  0  0  0
  145.7847  138.4713  154.3333 H   0  0  0  0  0  0  0  0  0  0  0  0
  147.1670  137.7903  152.1147 H   0  0  0  0  0  0  0  0  0  0  0  0
  146.5835  139.4560  152.2442 H   0  0  0  0  0  0  0  0  0  0  0  0
  148.8774  139.6304  151.8925 H   0  0  0  0  0  0  0  0  0  0  0  0
  1  2  2  0  0  0  0
  2  3  1  0  0  0  0
  2 15  1  0  0  0  0
  3  4  1  0  0  0  0
  3 20  1  0  0  0  0
  4  5  1  0  0  0  0
  4 21  1  0  0  0  0
  4 22  1  0  0  0  0
  5  6  1  0  0  0  0
  5 23  1  0  0  0  0
  5 24  1  0  0  0  0
  6 14  1  0  0  0  0
  6  7  2  0  0  0  0
  7  8  1  0  0  0  0
  8  9  1  0  0  0  0
  8 13  2  0  0  0  0
  9 10  1  0  0  0  0
  9 11  1  0  0  0  0
  9 12  1  0  0  0  0
 13 14  1  0  0  0  0
 13 25  1  0  0  0  0
 15 19  1  0  0  0  0
 15 16  1  0  0  0  0
 15 26  1  0  0  0  0
 16 17  1  0  0  0  0
 16 27  1  0  0  0  0
 16 28  1  0  0  0  0
 17 18  1  0  0  0  0
 17 29  1  0  0  0  0
 17 30  1  0  0  0  0
 18 19  1  0  0  0  0
 18 31  1  0  0  0  0
 18 32  1  0  0  0  0
 19 33  1  0  0  0  0
M  END
> <s_m_source_file>
AV-unprocessed.smi

> <i_m_source_file_index>
662

> <i_lp_mmshare_version>
43012

> <i_f3d_flags>
0

> <s_epik_input>
W05IXTFbQ0gyXVtDSDJdW0NIMl1bQ0BIXTFDKD1PKVtOSF1bQ0gyXVtDSDJdYzJuYyhDKEYpKEYpRilbY0hdczI=

> <s_epik_cmdline>
J2VwaWtfcHl0aG9uJywgJy1waCcsICc3LjAnLCAnLXRuJywgJzgnLCAnLW1hJywgJzIwMCcsICctbWV0YWxfYmluZGluZycsICctaW1hZScsICc8aW5maWxlLm1hZT4nLCAnLW9tYWUnLCAnPG91dGZpbGUubWFlPic=

> <r_epik_Ionization_Penalty>
1.64272

> <r_epik_Ionization_Penalty_Charging>
0

> <r_epik_Ionization_Penalty_Neutral>
1.64272

> <r_epik_State_Penalty>
1.74416

> <r_epik_Charging_Adjusted_Penalty>
1.74416

> <i_epik_Tot_Q>
0

> <i_epik_Tot_abs_Q>
0

> <r_epik_Metal_State_Penalty>
1.74416

> <b_epik_Metal_Only>
0

> <s_lp_Force_Field>
OPLS_2005

> <r_lp_Energy>
16.594

> <b_lp_Chiralities_Consistent>
1

> <s_lp_Variant>
AV-unprocessed.smi:662-3

> <Gold.Version>
5.8.1

> <Gold.Id.Protein>
6NUR|6NUR_protein|mol2

> <Gold.PLP.Fitness>
41.3962

> <Gold.PLP.PLP>
-36.0396

> <Gold.PLP.part.hbond>
-2.0316

> <Gold.PLP.part.metal>
0.0000

> <Gold.PLP.part.buried>
-4.3676

> <Gold.PLP.part.nonpolar>
-29.9347

> <Gold.PLP.part.repulsive>
0.2717

> <Gold.PLP.ligand.clash>
0.0000

> <Gold.PLP.ligand.torsion>
0.3348

> <Gold.PLP.Chemscore.Hbond>
2.0000

> <Gold.PLP.Chemscore.CHOScore>
0.0000

> <Gold.PLP.Chemscore.Metal>
0.0000

> <Gold.Chemscore.Hbonds>
donor molecule, donor type, donor heavy atom, donor atom, acceptor molecule, acceptor atom, score
      P1  H  7989  7998       L1     1  0.69

> <Gold.PLP.Chemscore.Internal.Correction>
0.0263

> <Gold.Rescore>
     Score         DG    S(hbond)    S(metal)    S(lipo)     H(rot)  DE(clash)    DE(int)     intcor
     16.30     -16.74       1.87        0.00      84.77       1.91       0.04       0.40       ----

> <Gold.Chemscore.Fitness>
16.3023

> <Gold.Chemscore.DG>
-16.7425

> <Gold.Chemscore.ZeroCoef>
-5.4800

> <Gold.Chemscore.Hbond>
1.8660

> <Gold.Chemscore.Metal>
0.0000

> <Gold.Chemscore.Lipo>
84.7713

> <Gold.Chemscore.Internal_Hbond>
0.0000

> <Gold.Chemscore.DEClash>
0.0354

> <Gold.Chemscore.DEInternal>
0.4047

> <Gold.Chemscore.Rot>
1.9095

> <Gold.Chemscore.Internal.Correction>
   9.000000E+99

> <Gold.Chemscore.Hbonds>
donor molecule, donor type, donor heavy atom, donor atom, acceptor molecule, acceptor atom, score
      L1  H    19    33       P1  7957  0.04
      P1  H  7989  7998       L1     1  0.16

> <Gold.Chemscore.Hbond.Weighted>
-6.2326

> <Gold.Chemscore.Metal.Weighted>
-0.0000

> <Gold.Chemscore.Lipo.Weighted>
-9.9182

> <Gold.Chemscore.Internal_Hbond.Weighted>
0.0000

> <Gold.Chemscore.DEClash.Weighted>
0.0354

> <Gold.Chemscore.DEInternal.Weighted>
0.4047

> <Gold.Chemscore.Rot.Weighted>
4.8883

> <Gold.Chemscore.Internal.Correction.Weighted>
   9.000000E+99

> <Gold.Protein.RotatedTorsions>
[ 6907 6896 6895 6894 ] final -132.98 input  -60.11 | X-H torsion
[ 7974 7965 7964 7962 ] final  -43.04 input  175.53 | X-H torsion
[ 8008 7997 7996 7995 ] final  -62.52 input   59.86 | X-H torsion
[ 10167 10162 10161 10158 ] final  110.50 input  -65.29 | X-H torsion
[ 10718 10713 10712 10709 ] final  102.22 input   66.30 | X-H torsion
[ 10763 10752 10751 10750 ] final  -23.11 input  -60.55 | X-H torsion
[ 11005 11000 10999 10996 ] final   73.35 input  -57.11 | X-H torsion

> <Gold.Protein.ActiveResidues>
 VAL166  LYS551  ARG553  GLY616  TRP617  ASP618  TYR619  PRO620  LYS621  CYS622 
 ASP623  PHE694  ASN695  SER759  ASP760  ASP761  ALA762  ILE779  LEU786  VAL792 
 PHE793  MET794  SER795  GLU796  ALA797  LYS798  CYS799  TRP800  GLU811  SER814 

> <Gold.Protein.RotatedAtoms>
  150.9687  133.6367  159.2741 H   0  0  0  0  0  0  0  0  0  0  0  0  # atno 6907 bound_to 6896
  151.3664  135.0913  159.9461 H   0  0  0  0  0  0  0  0  0  0  0  0  # atno 6908 bound_to 6896
  152.5175  133.9250  159.7607 H   0  0  0  0  0  0  0  0  0  0  0  0  # atno 6909 bound_to 6896
  146.0058  140.7022  142.9248 H   0  0  0  0  0  0  0  0  0  0  0  0  # atno 7974 bound_to 7965
  154.4504  140.0994  156.6599 H   0  0  0  0  0  0  0  0  0  0  0  0  # atno 8008 bound_to 7997
  155.5304  140.3481  155.4406 H   0  0  0  0  0  0  0  0  0  0  0  0  # atno 8009 bound_to 7997
  156.0668  140.1339  156.9865 H   0  0  0  0  0  0  0  0  0  0  0  0  # atno 8010 bound_to 7997
  139.6683  144.7126  151.1735 H   0  0  0  0  0  0  0  0  0  0  0  0  # atno 10167 bound_to 10162
  157.6808  131.0747  150.5371 H   0  0  0  0  0  0  0  0  0  0  0  0  # atno 10718 bound_to 10713
  153.6626  135.6975  153.5172 H   0  0  0  0  0  0  0  0  0  0  0  0  # atno 10763 bound_to 10752
  153.2620  135.4242  155.0902 H   0  0  0  0  0  0  0  0  0  0  0  0  # atno 10764 bound_to 10752
  154.8448  135.3557  154.6171 H   0  0  0  0  0  0  0  0  0  0  0  0  # atno 10765 bound_to 10752
  139.9444  134.7339  156.1016 H   0  0  0  0  0  0  0  0  0  0  0  0  # atno 11005 bound_to 11000
  144.6935  140.3311  143.7216 LP  0  0  0  0  0  0  0  0  0  0  0  0  # atno 17320 bound_to 7965
  145.7419  139.1767  143.2371 LP  0  0  0  0  0  0  0  0  0  0  0  0  # atno 17321 bound_to 7965
  140.7608  143.5884  150.8822 LP  0  0  0  0  0  0  0  0  0  0  0  0  # atno 17342 bound_to 10162
  139.9547  143.6232  152.3019 LP  0  0  0  0  0  0  0  0  0  0  0  0  # atno 17343 bound_to 10162
  156.5679  130.4272  149.6032 LP  0  0  0  0  0  0  0  0  0  0  0  0  # atno 17370 bound_to 10713
  156.2765  130.7046  151.1859 LP  0  0  0  0  0  0  0  0  0  0  0  0  # atno 17371 bound_to 10713
  141.1090  133.6650  156.2933 LP  0  0  0  0  0  0  0  0  0  0  0  0  # atno 17394 bound_to 11000
  140.5870  134.5688  157.5492 LP  0  0  0  0  0  0  0  0  0  0  0  0  # atno 17395 bound_to 11000

$$$$
