AV-unprocessed.smi:2150|AV-procd|sdf|8756|dock1
  -GOLD-   2272011533D 1   1.00000     0.00000
 Structure written by MMmdl.
 35 36  0  0  0  0  0  0  0  0  1 V2000
  151.5167  140.7562  155.4897 O   0  0  0  0  0  0  0  0  0  0  0  0
  150.4167  140.5904  156.0187 C   0  0  0  0  0  0  0  0  0  0  0  0
  149.2416  140.0130  155.2180 C   0  0  0  0  0  0  0  0  0  0  0  0
  148.0928  140.9302  155.1456 N   0  0  0  0  0  0  0  0  0  0  0  0
  147.7708  141.4727  153.8901 C   0  0  0  0  0  0  0  0  0  0  0  0
  146.7453  142.3251  153.7512 C   0  0  0  0  0  0  0  0  0  0  0  0
  145.9959  142.6490  154.9722 C   0  0  0  0  0  0  0  0  0  0  0  0
  146.2876  142.1575  156.1182 N   0  0  0  0  0  0  0  0  0  0  0  0
  147.3665  141.2647  156.2619 C   0  0  0  0  0  0  0  0  0  0  0  0
  147.6564  140.7930  157.3618 O   0  0  0  0  0  0  0  0  0  0  0  0
  150.1686  140.8808  157.3057 N   0  0  0  0  0  0  0  0  0  0  0  0
  151.1258  141.4810  158.2377 C   0  0  2  0  0  0  0  0  0  0  0  0
  151.4615  142.8988  157.7207 C   0  0  0  0  0  0  0  0  0  0  0  0
  152.0006  143.8432  158.8096 C   0  0  0  0  0  0  0  0  0  0  0  0
  153.3552  143.4375  159.4106 C   0  0  0  0  0  0  0  0  0  0  0  0
  153.3300  142.0815  160.1368 C   0  0  0  0  0  0  0  0  0  0  0  0
  153.3607  140.9615  159.2055 N   0  0  0  0  0  0  0  0  0  0  0  0
  152.4245  140.6423  158.2994 C   0  0  0  0  0  0  0  0  0  0  0  0
  152.6025  139.6998  157.5277 O   0  0  0  0  0  0  0  0  0  0  0  0
  149.6012  139.7674  154.2178 H   0  0  0  0  0  0  0  0  0  0  0  0
  148.9304  139.0615  155.6538 H   0  0  0  0  0  0  0  0  0  0  0  0
  148.4029  141.1623  153.0707 H   0  0  0  0  0  0  0  0  0  0  0  0
  146.4469  142.7802  152.8186 H   0  0  0  0  0  0  0  0  0  0  0  0
  145.1638  143.3448  154.8386 H   0  0  0  0  0  0  0  0  0  0  0  0
  149.2371  140.7135  157.6567 H   0  0  0  0  0  0  0  0  0  0  0  0
  150.6704  141.5409  159.2279 H   0  0  0  0  0  0  0  0  0  0  0  0
  152.1568  142.8551  156.8804 H   0  0  0  0  0  0  0  0  0  0  0  0
  150.5539  143.3561  157.3232 H   0  0  0  0  0  0  0  0  0  0  0  0
  152.0972  144.8425  158.3842 H   0  0  0  0  0  0  0  0  0  0  0  0
  151.2632  143.9323  159.6081 H   0  0  0  0  0  0  0  0  0  0  0  0
  154.1258  143.4370  158.6384 H   0  0  0  0  0  0  0  0  0  0  0  0
  153.6507  144.2056  160.1261 H   0  0  0  0  0  0  0  0  0  0  0  0
  154.2142  141.9969  160.7689 H   0  0  0  0  0  0  0  0  0  0  0  0
  152.4692  142.0041  160.8024 H   0  0  0  0  0  0  0  0  0  0  0  0
  154.1908  140.3869  159.2272 H   0  0  0  0  0  0  0  0  0  0  0  0
  1  2  2  0  0  0  0
  2  3  1  0  0  0  0
  2 11  1  0  0  0  0
  3  4  1  0  0  0  0
  3 20  1  0  0  0  0
  3 21  1  0  0  0  0
  4  9  1  0  0  0  0
  4  5  1  0  0  0  0
  5  6  2  0  0  0  0
  5 22  1  0  0  0  0
  6  7  1  0  0  0  0
  6 23  1  0  0  0  0
  7  8  2  0  0  0  0
  7 24  1  0  0  0  0
  8  9  1  0  0  0  0
  9 10  2  0  0  0  0
 11 12  1  0  0  0  0
 11 25  1  0  0  0  0
 12 18  1  0  0  0  0
 12 13  1  0  0  0  0
 12 26  1  0  0  0  0
 13 14  1  0  0  0  0
 13 27  1  0  0  0  0
 13 28  1  0  0  0  0
 14 15  1  0  0  0  0
 14 29  1  0  0  0  0
 14 30  1  0  0  0  0
 15 16  1  0  0  0  0
 15 31  1  0  0  0  0
 15 32  1  0  0  0  0
 16 17  1  0  0  0  0
 16 33  1  0  0  0  0
 16 34  1  0  0  0  0
 17 18  1  0  0  0  0
 17 35  1  0  0  0  0
 18 19  2  0  0  0  0
M  END
> <s_m_source_file>
AV-unprocessed.smi

> <i_m_source_file_index>
2150

> <i_lp_mmshare_version>
43012

> <i_f3d_flags>
0

> <s_epik_input>
Tz1jMW5bY0hdW2NIXVtjSF1uMVtDSDJdQyg9TylbTkhdW0NAQEhdMltDSDJdW0NIMl1bQ0gyXVtDSDJdW05IXUMyPU8=

> <s_epik_cmdline>
J2VwaWtfcHl0aG9uJywgJy1waCcsICc3LjAnLCAnLXRuJywgJzgnLCAnLW1hJywgJzIwMCcsICctbWV0YWxfYmluZGluZycsICctaW1hZScsICc8aW5maWxlLm1hZT4nLCAnLW9tYWUnLCAnPG91dGZpbGUubWFlPic=

> <r_lp_tautomer_probability>
1

> <r_epik_Ionization_Penalty>
6.25431e-06

> <r_epik_Ionization_Penalty_Charging>
1.47848e-08

> <r_epik_Ionization_Penalty_Neutral>
6.23953e-06

> <r_epik_State_Penalty>
-0

> <r_epik_Charging_Adjusted_Penalty>
1.47848e-08

> <i_epik_Tot_Q>
0

> <i_epik_Tot_abs_Q>
0

> <r_epik_Metal_State_Penalty>
-0

> <b_epik_Metal_Only>
0

> <s_lp_Force_Field>
OPLS_2005

> <r_lp_Energy>
13.567

> <b_lp_Chiralities_Consistent>
1

> <s_lp_Variant>
AV-unprocessed.smi:2150-1

> <Gold.Version>
5.8.1

> <Gold.Id.Protein>
6NUR|6NUR_protein|mol2

> <Gold.PLP.Fitness>
41.8902

> <Gold.PLP.PLP>
-33.9091

> <Gold.PLP.part.hbond>
-2.0000

> <Gold.PLP.part.metal>
0.0000

> <Gold.PLP.part.buried>
-4.5937

> <Gold.PLP.part.nonpolar>
-27.2548

> <Gold.PLP.part.repulsive>
0.2922

> <Gold.PLP.ligand.clash>
0.0000

> <Gold.PLP.ligand.torsion>
0.0670

> <Gold.PLP.Chemscore.Hbond>
1.7040

> <Gold.PLP.Chemscore.CHOScore>
1.0000

> <Gold.PLP.Chemscore.Metal>
0.0000

> <Gold.Chemscore.Hbonds>
donor molecule, donor type, donor heavy atom, donor atom, acceptor molecule, acceptor atom, score
      P1  H  7989  7998       L1     1  0.70
      P1  H  7997  8009       L1    19  1.00
      L1  C     5    22       P1  7957  1.00

> <Gold.PLP.Chemscore.Internal.Correction>
0.0032

> <Gold.Rescore>
     Score         DG    S(hbond)    S(metal)    S(lipo)     H(rot)  DE(clash)    DE(int)     intcor
     10.83     -15.61       1.54        0.00      79.61       1.69       0.28       4.50       ----

> <Gold.Chemscore.Fitness>
10.8313

> <Gold.Chemscore.DG>
-15.6101

> <Gold.Chemscore.ZeroCoef>
-5.4800

> <Gold.Chemscore.Hbond>
1.5433

> <Gold.Chemscore.Metal>
0.0000

> <Gold.Chemscore.Lipo>
79.6059

> <Gold.Chemscore.Internal_Hbond>
0.0000

> <Gold.Chemscore.DEClash>
0.2792

> <Gold.Chemscore.DEInternal>
4.4996

> <Gold.Chemscore.Rot>
1.6947

> <Gold.Chemscore.Internal.Correction>
   9.000000E+99

> <Gold.Chemscore.Hbonds>
donor molecule, donor type, donor heavy atom, donor atom, acceptor molecule, acceptor atom, score
      P1  H  7989  7998       L1     1  0.67
      P1  H  7997  8009       L1    19  0.33

> <Gold.Chemscore.Hbond.Weighted>
-5.1547

> <Gold.Chemscore.Metal.Weighted>
-0.0000

> <Gold.Chemscore.Lipo.Weighted>
-9.3139

> <Gold.Chemscore.Internal_Hbond.Weighted>
0.0000

> <Gold.Chemscore.DEClash.Weighted>
0.2792

> <Gold.Chemscore.DEInternal.Weighted>
4.4996

> <Gold.Chemscore.Rot.Weighted>
4.3385

> <Gold.Chemscore.Internal.Correction.Weighted>
   9.000000E+99

> <Gold.Protein.RotatedTorsions>
[ 6907 6896 6895 6894 ] final   53.64 input  -60.11 | X-H torsion
[ 7974 7965 7964 7962 ] final  128.17 input  175.53 | X-H torsion
[ 8008 7997 7996 7995 ] final  166.62 input   59.86 | X-H torsion
[ 10167 10162 10161 10158 ] final -116.68 input  -65.29 | X-H torsion
[ 10718 10713 10712 10709 ] final   -6.14 input   66.30 | X-H torsion
[ 10763 10752 10751 10750 ] final  111.76 input  -60.55 | X-H torsion
[ 11005 11000 10999 10996 ] final -164.89 input  -57.11 | X-H torsion

> <Gold.Protein.ActiveResidues>
 VAL166  LYS551  ARG553  GLY616  TRP617  ASP618  TYR619  PRO620  LYS621  CYS622 
 ASP623  PHE694  ASN695  SER759  ASP760  ASP761  ALA762  ILE779  LEU786  VAL792 
 PHE793  MET794  SER795  GLU796  ALA797  LYS798  CYS799  TRP800  GLU811  SER814 

> <Gold.Protein.RotatedAtoms>
  152.3358  134.7200  160.0277 H   0  0  0  0  0  0  0  0  0  0  0  0  # atno 6907 bound_to 6896
  151.7602  133.3328  159.3423 H   0  0  0  0  0  0  0  0  0  0  0  0  # atno 6908 bound_to 6896
  150.7449  134.6045  159.6098 H   0  0  0  0  0  0  0  0  0  0  0  0  # atno 6909 bound_to 6896
  145.0425  139.3951  143.5095 H   0  0  0  0  0  0  0  0  0  0  0  0  # atno 7974 bound_to 7965
  156.1703  140.1638  156.8458 H   0  0  0  0  0  0  0  0  0  0  0  0  # atno 8008 bound_to 7997
  154.5250  140.0769  156.8276 H   0  0  0  0  0  0  0  0  0  0  0  0  # atno 8009 bound_to 7997
  155.3526  140.3391  155.4242 H   0  0  0  0  0  0  0  0  0  0  0  0  # atno 8010 bound_to 7997
  140.0766  143.4827  152.1950 H   0  0  0  0  0  0  0  0  0  0  0  0  # atno 10167 bound_to 10162
  156.7363  130.5195  149.5834 H   0  0  0  0  0  0  0  0  0  0  0  0  # atno 10718 bound_to 10713
  153.4681  135.3707  155.2375 H   0  0  0  0  0  0  0  0  0  0  0  0  # atno 10763 bound_to 10752
  154.8757  135.3925  154.3845 H   0  0  0  0  0  0  0  0  0  0  0  0  # atno 10764 bound_to 10752
  153.4429  135.7084  153.6222 H   0  0  0  0  0  0  0  0  0  0  0  0  # atno 10765 bound_to 10752
  140.5818  134.5133  157.5179 H   0  0  0  0  0  0  0  0  0  0  0  0  # atno 11005 bound_to 11000
  146.3510  140.0033  142.8674 LP  0  0  0  0  0  0  0  0  0  0  0  0  # atno 17320 bound_to 7965
  145.1630  140.9682  143.4366 LP  0  0  0  0  0  0  0  0  0  0  0  0  # atno 17321 bound_to 7965
  139.5804  144.7508  151.3654 LP  0  0  0  0  0  0  0  0  0  0  0  0  # atno 17342 bound_to 10162
  140.7099  143.7417  150.7548 LP  0  0  0  0  0  0  0  0  0  0  0  0  # atno 17343 bound_to 10162
  156.1495  130.6300  151.0576 LP  0  0  0  0  0  0  0  0  0  0  0  0  # atno 17370 bound_to 10713
  157.6837  131.0831  150.7300 LP  0  0  0  0  0  0  0  0  0  0  0  0  # atno 17371 bound_to 10713
  139.9314  134.7957  156.0922 LP  0  0  0  0  0  0  0  0  0  0  0  0  # atno 17394 bound_to 11000
  141.0991  133.6684  156.2713 LP  0  0  0  0  0  0  0  0  0  0  0  0  # atno 17395 bound_to 11000

$$$$
