AV-unprocessed.smi:200|AV-procd|sdf|1577|dock9
  -GOLD-   2262019463D 1   1.00000     0.00000
 Structure written by MMmdl.
 56 59  0  0  0  0  0  0  0  0  1 V2000
  151.2029  138.3308  154.3379 C   0  0  0  0  0  0  0  0  0  0  0  0
  151.4389  139.7001  154.6120 O   0  0  0  0  0  0  0  0  0  0  0  0
  152.1885  139.8963  155.7994 C   0  0  0  0  0  0  0  0  0  0  0  0
  151.2638  139.7009  157.0087 C   0  0  0  0  0  0  0  0  0  0  0  0
  151.9683  139.8420  158.2838 N   0  0  0  0  0  0  0  0  0  0  0  0
  152.7801  138.7986  158.5724 C   0  0  0  0  0  0  0  0  0  0  0  0
  153.6487  138.3358  157.6356 N   0  0  0  0  0  0  0  0  0  0  0  0
  154.4501  137.3053  157.9219 C   0  0  0  0  0  0  0  0  0  0  0  0
  154.5400  136.6069  159.0563 N   0  0  0  0  0  0  0  0  0  0  0  0
  153.6633  137.0669  159.9946 C   0  0  0  0  0  0  0  0  0  0  0  0
  152.7510  138.1464  159.8330 C   0  0  0  0  0  0  0  0  0  0  0  0
  152.0089  138.3250  160.9928 N   0  0  0  0  0  0  0  0  0  0  0  0
  152.4578  137.4013  161.7979 C   0  0  0  0  0  0  0  0  0  0  0  0
  153.4611  136.6086  161.2850 N   0  0  0  0  0  0  0  0  0  0  0  0
  154.1371  135.5173  161.9701 C   0  0  0  0  0  0  0  0  0  0  0  0
  154.4117  135.7810  163.4659 C   0  0  0  0  0  0  0  0  0  0  0  0
  155.4294  134.7711  164.0259 C   0  0  0  0  0  0  0  0  0  0  0  0
  154.9564  133.4439  163.9144 O   0  0  0  0  0  0  0  0  0  0  0  0
  154.6829  137.2435  163.8448 C   0  0  0  0  0  0  0  0  0  0  0  0
  153.6964  137.2126  164.8976 O   0  0  0  0  0  0  0  0  0  0  0  0
  153.1730  135.9846  164.3501 C   0  0  0  0  0  0  0  0  0  0  0  0
  152.4155  141.1810  158.6958 C   0  0  1  0  0  0  0  0  0  0  0  0
  151.4888  142.3535  158.3385 C   0  0  0  0  0  0  0  0  0  0  0  0
  151.9479  143.5065  159.2421 C   0  0  0  0  0  0  0  0  0  0  0  0
  152.8082  142.8783  160.3568 C   0  0  1  0  0  0  0  0  0  0  0  0
  152.4702  143.3871  161.7643 C   0  0  0  0  0  0  0  0  0  0  0  0
  152.6457  141.3615  160.1989 C   0  0  0  0  0  0  0  0  0  0  0  0
  150.6226  138.2369  153.4199 H   0  0  0  0  0  0  0  0  0  0  0  0
  150.6392  137.8582  155.1432 H   0  0  0  0  0  0  0  0  0  0  0  0
  152.1399  137.7896  154.2005 H   0  0  0  0  0  0  0  0  0  0  0  0
  152.9938  139.1618  155.8407 H   0  0  0  0  0  0  0  0  0  0  0  0
  152.6553  140.8813  155.8088 H   0  0  0  0  0  0  0  0  0  0  0  0
  150.4428  140.4171  156.9416 H   0  0  0  0  0  0  0  0  0  0  0  0
  150.8097  138.7109  156.9636 H   0  0  0  0  0  0  0  0  0  0  0  0
  155.1152  136.9965  157.1290 H   0  0  0  0  0  0  0  0  0  0  0  0
  152.0730  137.2772  162.7998 H   0  0  0  0  0  0  0  0  0  0  0  0
  153.5349  134.6161  161.8484 H   0  0  0  0  0  0  0  0  0  0  0  0
  155.0680  135.3168  161.4384 H   0  0  0  0  0  0  0  0  0  0  0  0
  156.3710  134.8354  163.4796 H   0  0  0  0  0  0  0  0  0  0  0  0
  155.6736  134.9793  165.0678 H   0  0  0  0  0  0  0  0  0  0  0  0
  154.6378  133.1673  164.7601 H   0  0  0  0  0  0  0  0  0  0  0  0
  155.6905  137.4289  164.2186 H   0  0  0  0  0  0  0  0  0  0  0  0
  154.4200  137.9594  163.0642 H   0  0  0  0  0  0  0  0  0  0  0  0
  152.2500  136.1590  163.7959 H   0  0  0  0  0  0  0  0  0  0  0  0
  153.0328  135.2109  165.1057 H   0  0  0  0  0  0  0  0  0  0  0  0
  153.3643  141.3733  158.1955 H   0  0  0  0  0  0  0  0  0  0  0  0
  151.5313  142.6080  157.2790 H   0  0  0  0  0  0  0  0  0  0  0  0
  150.4499  142.1321  158.5827 H   0  0  0  0  0  0  0  0  0  0  0  0
  152.5375  144.2296  158.6772 H   0  0  0  0  0  0  0  0  0  0  0  0
  151.0846  144.0398  159.6423 H   0  0  0  0  0  0  0  0  0  0  0  0
  153.8508  143.1215  160.1464 H   0  0  0  0  0  0  0  0  0  0  0  0
  151.4342  143.1710  162.0266 H   0  0  0  0  0  0  0  0  0  0  0  0
  152.6143  144.4654  161.8348 H   0  0  0  0  0  0  0  0  0  0  0  0
  153.1089  142.9172  162.5126 H   0  0  0  0  0  0  0  0  0  0  0  0
  151.7784  141.0205  160.7646 H   0  0  0  0  0  0  0  0  0  0  0  0
  153.5167  140.8149  160.5611 H   0  0  0  0  0  0  0  0  0  0  0  0
  1  2  1  0  0  0  0
  1 28  1  0  0  0  0
  1 29  1  0  0  0  0
  1 30  1  0  0  0  0
  2  3  1  0  0  0  0
  3  4  1  0  0  0  0
  3 31  1  0  0  0  0
  3 32  1  0  0  0  0
  4  5  1  0  0  0  0
  4 33  1  0  0  0  0
  4 34  1  0  0  0  0
  5  6  1  0  0  0  0
  5 22  1  0  0  0  0
  6 11  1  0  0  0  0
  6  7  2  0  0  0  0
  7  8  1  0  0  0  0
  8  9  2  0  0  0  0
  8 35  1  0  0  0  0
  9 10  1  0  0  0  0
 10 14  1  0  0  0  0
 10 11  2  0  0  0  0
 11 12  1  0  0  0  0
 12 13  2  0  0  0  0
 13 14  1  0  0  0  0
 13 36  1  0  0  0  0
 14 15  1  0  0  0  0
 15 16  1  0  0  0  0
 15 37  1  0  0  0  0
 15 38  1  0  0  0  0
 16 21  1  0  0  0  0
 16 17  1  0  0  0  0
 16 19  1  0  0  0  0
 17 18  1  0  0  0  0
 17 39  1  0  0  0  0
 17 40  1  0  0  0  0
 18 41  1  0  0  0  0
 19 20  1  0  0  0  0
 19 42  1  0  0  0  0
 19 43  1  0  0  0  0
 20 21  1  0  0  0  0
 21 44  1  0  0  0  0
 21 45  1  0  0  0  0
 22 27  1  0  0  0  0
 22 23  1  0  0  0  0
 22 46  1  0  0  0  0
 23 24  1  0  0  0  0
 23 47  1  0  0  0  0
 23 48  1  0  0  0  0
 24 25  1  0  0  0  0
 24 49  1  0  0  0  0
 24 50  1  0  0  0  0
 25 26  1  0  0  0  0
 25 27  1  0  0  0  0
 25 51  1  0  0  0  0
 26 52  1  0  0  0  0
 26 53  1  0  0  0  0
 26 54  1  0  0  0  0
 27 55  1  0  0  0  0
 27 56  1  0  0  0  0
M  END
> <s_m_source_file>
AV-unprocessed.smi

> <i_m_source_file_index>
200

> <i_lp_mmshare_version>
43012

> <i_f3d_flags>
0

> <s_epik_input>
W0NIM11bQ0BASF0oW0NIMl0xKVtDSDJdW0NIMl1bQ0BIXTFOKFtDSDJdW0NIMl1PW0NIM10pYyhuW2NIXW4yKWMoYzIzKW5bY0hdbjNbQ0gyXUM0KFtDSDJdW09IXSlbQ0gyXU9bQ0gyXTQ=

> <s_epik_cmdline>
J2VwaWtfcHl0aG9uJywgJy1waCcsICc3LjAnLCAnLXRuJywgJzgnLCAnLW1hJywgJzIwMCcsICctbWV0YWxfYmluZGluZycsICctaW1hZScsICc8aW5maWxlLm1hZT4nLCAnLW9tYWUnLCAnPG91dGZpbGUubWFlPic=

> <r_lp_tautomer_probability>
1

> <r_epik_Ionization_Penalty>
0.00363087

> <r_epik_Ionization_Penalty_Charging>
0

> <r_epik_Ionization_Penalty_Neutral>
0.00363087

> <r_epik_State_Penalty>
0.0024341

> <r_epik_Charging_Adjusted_Penalty>
0.0024341

> <i_epik_Tot_Q>
0

> <i_epik_Tot_abs_Q>
0

> <r_epik_Metal_State_Penalty>
-0

> <b_epik_Metal_Only>
0

> <s_lp_Force_Field>
OPLS_2005

> <r_lp_Energy>
50.9431

> <b_lp_Chiralities_Consistent>
1

> <s_lp_Variant>
AV-unprocessed.smi:200-2

> <Gold.Version>
5.8.1

> <Gold.Id.Protein>
6NUR|6NUR_protein|mol2

> <Gold.PLP.Fitness>
44.2979

> <Gold.PLP.PLP>
-39.9354

> <Gold.PLP.part.hbond>
-2.3316

> <Gold.PLP.part.metal>
0.0000

> <Gold.PLP.part.buried>
-1.7300

> <Gold.PLP.part.nonpolar>
-36.3026

> <Gold.PLP.part.repulsive>
0.1619

> <Gold.PLP.ligand.clash>
0.0000

> <Gold.PLP.ligand.torsion>
1.4583

> <Gold.PLP.Chemscore.Hbond>
1.9600

> <Gold.PLP.Chemscore.CHOScore>
0.0000

> <Gold.PLP.Chemscore.Metal>
0.0000

> <Gold.Chemscore.Hbonds>
donor molecule, donor type, donor heavy atom, donor atom, acceptor molecule, acceptor atom, score
      P1  H  7989  7998       L1     2  1.00
      P1  H  7997  8009       L1     7  1.00

> <Gold.PLP.Chemscore.Internal.Correction>
1.3991

> <Gold.Rescore>
     Score         DG    S(hbond)    S(metal)    S(lipo)     H(rot)  DE(clash)    DE(int)     intcor
      9.94     -15.40       1.44        0.00     115.44       3.28       2.81       2.65       ----

> <Gold.Chemscore.Fitness>
9.9436

> <Gold.Chemscore.DG>
-15.4047

> <Gold.Chemscore.ZeroCoef>
-5.4800

> <Gold.Chemscore.Hbond>
1.4388

> <Gold.Chemscore.Metal>
0.0000

> <Gold.Chemscore.Lipo>
115.4361

> <Gold.Chemscore.Internal_Hbond>
0.0000

> <Gold.Chemscore.DEClash>
2.8104

> <Gold.Chemscore.DEInternal>
2.6506

> <Gold.Chemscore.Rot>
3.2761

> <Gold.Chemscore.Internal.Correction>
   9.000000E+99

> <Gold.Chemscore.Hbonds>
donor molecule, donor type, donor heavy atom, donor atom, acceptor molecule, acceptor atom, score
      P1  H  7989  7998       L1     2  0.87
      P1  H  7997  8009       L1     7  0.38

> <Gold.Chemscore.Hbond.Weighted>
-4.8055

> <Gold.Chemscore.Metal.Weighted>
-0.0000

> <Gold.Chemscore.Lipo.Weighted>
-13.5060

> <Gold.Chemscore.Internal_Hbond.Weighted>
0.0000

> <Gold.Chemscore.DEClash.Weighted>
2.8104

> <Gold.Chemscore.DEInternal.Weighted>
2.6506

> <Gold.Chemscore.Rot.Weighted>
8.3868

> <Gold.Chemscore.Internal.Correction.Weighted>
   9.000000E+99

> <Gold.Protein.RotatedTorsions>
[ 6907 6896 6895 6894 ] final  117.86 input  -60.11 | X-H torsion
[ 7974 7965 7964 7962 ] final   92.34 input  175.53 | X-H torsion
[ 8008 7997 7996 7995 ] final  158.26 input   59.86 | X-H torsion
[ 10167 10162 10161 10158 ] final  -73.75 input  -65.29 | X-H torsion
[ 10718 10713 10712 10709 ] final  -33.43 input   66.30 | X-H torsion
[ 10763 10752 10751 10750 ] final   57.21 input  -60.55 | X-H torsion
[ 11005 11000 10999 10996 ] final  178.77 input  -57.11 | X-H torsion

> <Gold.Protein.ActiveResidues>
 VAL166  LYS551  ARG553  GLY616  TRP617  ASP618  TYR619  PRO620  LYS621  CYS622 
 ASP623  PHE694  ASN695  SER759  ASP760  ASP761  ALA762  ILE779  LEU786  VAL792 
 PHE793  MET794  SER795  GLU796  ALA797  LYS798  CYS799  TRP800  GLU811  SER814 

> <Gold.Protein.RotatedAtoms>
  152.4583  133.7768  159.6828 H   0  0  0  0  0  0  0  0  0  0  0  0  # atno 6907 bound_to 6896
  150.8517  133.7767  159.3029 H   0  0  0  0  0  0  0  0  0  0  0  0  # atno 6908 bound_to 6896
  151.5361  135.1071  159.9966 H   0  0  0  0  0  0  0  0  0  0  0  0  # atno 6909 bound_to 6896
  145.4936  139.2276  143.2816 H   0  0  0  0  0  0  0  0  0  0  0  0  # atno 7974 bound_to 7965
  156.2313  140.1863  156.7234 H   0  0  0  0  0  0  0  0  0  0  0  0  # atno 8008 bound_to 7997
  154.6028  140.0633  156.9419 H   0  0  0  0  0  0  0  0  0  0  0  0  # atno 8009 bound_to 7997
  155.2145  140.3302  155.4326 H   0  0  0  0  0  0  0  0  0  0  0  0  # atno 8010 bound_to 7997
  140.5084  143.2349  151.7634 H   0  0  0  0  0  0  0  0  0  0  0  0  # atno 10167 bound_to 10162
  156.3627  130.4326  149.7610 H   0  0  0  0  0  0  0  0  0  0  0  0  # atno 10718 bound_to 10713
  152.9846  135.5649  154.5354 H   0  0  0  0  0  0  0  0  0  0  0  0  # atno 10763 bound_to 10752
  154.4818  135.2789  155.1566 H   0  0  0  0  0  0  0  0  0  0  0  0  # atno 10764 bound_to 10752
  154.3072  135.6295  153.5503 H   0  0  0  0  0  0  0  0  0  0  0  0  # atno 10765 bound_to 10752
  140.3988  134.6796  157.4550 H   0  0  0  0  0  0  0  0  0  0  0  0  # atno 11005 bound_to 11000
  146.2269  140.5732  142.8992 LP  0  0  0  0  0  0  0  0  0  0  0  0  # atno 17320 bound_to 7965
  144.7820  140.5859  143.6599 LP  0  0  0  0  0  0  0  0  0  0  0  0  # atno 17321 bound_to 7965
  139.4889  144.4425  151.9748 LP  0  0  0  0  0  0  0  0  0  0  0  0  # atno 17342 bound_to 10162
  140.3516  144.3082  150.5948 LP  0  0  0  0  0  0  0  0  0  0  0  0  # atno 17343 bound_to 10162
  156.4768  130.8022  151.3038 LP  0  0  0  0  0  0  0  0  0  0  0  0  # atno 17370 bound_to 10713
  157.7475  131.0018  150.2978 LP  0  0  0  0  0  0  0  0  0  0  0  0  # atno 17371 bound_to 10713
  140.0352  134.6348  155.9053 LP  0  0  0  0  0  0  0  0  0  0  0  0  # atno 17394 bound_to 11000
  141.1864  133.6557  156.5239 LP  0  0  0  0  0  0  0  0  0  0  0  0  # atno 17395 bound_to 11000

$$$$
