AV-unprocessed.smi:528|AV-procd|sdf|2837|dock8
  -GOLD-   2262023323D 1   1.00000     0.00000
 Structure written by MMmdl.
 45 47  0  0  0  0  0  0  0  0  1 V2000
  153.7092  138.8549  158.8964 C   0  0  0  0  0  0  0  0  0  0  0  0
  152.5913  139.8334  159.2875 C   0  0  2  0  0  0  0  0  0  0  0  0
  151.3173  139.3049  158.8015 N   0  0  0  0  0  0  0  0  0  0  0  0
  150.7878  138.1091  159.1041 C   0  0  0  0  0  0  0  0  0  0  0  0
  151.3472  137.2838  159.8276 O   0  0  0  0  0  0  0  0  0  0  0  0
  149.4118  137.8165  158.4895 C   0  0  0  0  0  0  0  0  0  0  0  0
  148.7568  136.6341  159.0728 N   0  0  0  0  0  0  0  0  0  0  0  0
  148.2429  136.7739  160.3769 C   0  0  0  0  0  0  0  0  0  0  0  0
  147.6448  135.7669  161.0414 C   0  0  0  0  0  0  0  0  0  0  0  0
  147.0640  135.9631  162.4330 C   0  0  0  0  0  0  0  0  0  0  0  0
  146.6215  134.8108  162.9369 F   0  0  0  0  0  0  0  0  0  0  0  0
  148.0004  136.4418  163.2510 F   0  0  0  0  0  0  0  0  0  0  0  0
  146.0496  136.8287  162.4128 F   0  0  0  0  0  0  0  0  0  0  0  0
  147.5137  134.5116  160.3280 C   0  0  0  0  0  0  0  0  0  0  0  0
  147.9961  134.3625  159.0786 C   0  0  0  0  0  0  0  0  0  0  0  0
  148.6727  135.4585  158.3811 C   0  0  0  0  0  0  0  0  0  0  0  0
  149.1343  135.3271  157.2473 O   0  0  0  0  0  0  0  0  0  0  0  0
  152.8211  141.2535  158.7130 C   0  0  1  0  0  0  0  0  0  0  0  0
  151.6231  142.2227  158.8508 C   0  0  0  0  0  0  0  0  0  0  0  0
  152.2670  143.4916  159.4386 C   0  0  1  0  0  0  0  0  0  0  0  0
  152.5954  143.2450  160.9224 C   0  0  0  0  0  0  0  0  0  0  0  0
  153.7980  142.2871  160.8462 C   0  0  0  0  0  0  0  0  0  0  0  0
  153.9777  142.0810  159.3276 C   0  0  2  0  0  0  0  0  0  0  0  0
  153.6518  143.4759  158.8022 C   0  0  0  0  0  0  0  0  0  0  0  0
  154.6707  139.1666  159.3047 H   0  0  0  0  0  0  0  0  0  0  0  0
  153.8142  138.7821  157.8134 H   0  0  0  0  0  0  0  0  0  0  0  0
  153.5051  137.8543  159.2792 H   0  0  0  0  0  0  0  0  0  0  0  0
  152.5663  139.8851  160.3761 H   0  0  0  0  0  0  0  0  0  0  0  0
  150.7844  139.9101  158.1937 H   0  0  0  0  0  0  0  0  0  0  0  0
  148.7719  138.6906  158.6229 H   0  0  0  0  0  0  0  0  0  0  0  0
  149.5271  137.7130  157.4093 H   0  0  0  0  0  0  0  0  0  0  0  0
  148.3753  137.7560  160.8074 H   0  0  0  0  0  0  0  0  0  0  0  0
  147.0246  133.6747  160.8042 H   0  0  0  0  0  0  0  0  0  0  0  0
  147.8830  133.4118  158.5783 H   0  0  0  0  0  0  0  0  0  0  0  0
  153.0368  141.1425  157.6483 H   0  0  0  0  0  0  0  0  0  0  0  0
  151.1786  142.4219  157.8750 H   0  0  0  0  0  0  0  0  0  0  0  0
  150.8340  141.8428  159.5000 H   0  0  0  0  0  0  0  0  0  0  0  0
  151.6865  144.3978  159.2643 H   0  0  0  0  0  0  0  0  0  0  0  0
  152.8762  144.1739  161.4201 H   0  0  0  0  0  0  0  0  0  0  0  0
  151.7542  142.8142  161.4669 H   0  0  0  0  0  0  0  0  0  0  0  0
  154.6835  142.7625  161.2701 H   0  0  0  0  0  0  0  0  0  0  0  0
  153.6376  141.3609  161.3963 H   0  0  0  0  0  0  0  0  0  0  0  0
  154.9684  141.7189  159.0513 H   0  0  0  0  0  0  0  0  0  0  0  0
  153.6286  143.5372  157.7127 H   0  0  0  0  0  0  0  0  0  0  0  0
  154.3146  144.2520  159.1892 H   0  0  0  0  0  0  0  0  0  0  0  0
  1  2  1  0  0  0  0
  1 25  1  0  0  0  0
  1 26  1  0  0  0  0
  1 27  1  0  0  0  0
  2  3  1  0  0  0  0
  2 18  1  0  0  0  0
  2 28  1  0  0  0  0
  3  4  1  0  0  0  0
  3 29  1  0  0  0  0
  4  5  2  0  0  0  0
  4  6  1  0  0  0  0
  6  7  1  0  0  0  0
  6 30  1  0  0  0  0
  6 31  1  0  0  0  0
  7 16  1  0  0  0  0
  7  8  1  0  0  0  0
  8  9  2  0  0  0  0
  8 32  1  0  0  0  0
  9 10  1  0  0  0  0
  9 14  1  0  0  0  0
 10 11  1  0  0  0  0
 10 12  1  0  0  0  0
 10 13  1  0  0  0  0
 14 15  2  0  0  0  0
 14 33  1  0  0  0  0
 15 16  1  0  0  0  0
 15 34  1  0  0  0  0
 16 17  2  0  0  0  0
 18 23  1  0  0  0  0
 18 19  1  0  0  0  0
 18 35  1  0  0  0  0
 19 20  1  0  0  0  0
 19 36  1  0  0  0  0
 19 37  1  0  0  0  0
 20 24  1  0  0  0  0
 20 21  1  0  0  0  0
 20 38  1  0  0  0  0
 21 22  1  0  0  0  0
 21 39  1  0  0  0  0
 21 40  1  0  0  0  0
 22 23  1  0  0  0  0
 22 41  1  0  0  0  0
 22 42  1  0  0  0  0
 23 24  1  0  0  0  0
 23 43  1  0  0  0  0
 24 44  1  0  0  0  0
 24 45  1  0  0  0  0
M  END
> <s_m_source_file>
AV-unprocessed.smi

> <i_m_source_file_index>
528

> <i_lp_mmshare_version>
43012

> <i_f3d_flags>
0

> <s_epik_input>
W0NIMl0xW0NIMl1bQ0BASF0oW0NIMl0yKVtDQEBIXShbQ0gyXVtDQEhdMTIpW0NASF0oW0NIM10pW05IXUMoPU8pW0NIMl1uM1tjSF1jKEMoRikoRilGKVtjSF1bY0hdYzM9Tw==

> <s_epik_cmdline>
J2VwaWtfcHl0aG9uJywgJy1waCcsICc3LjAnLCAnLXRuJywgJzgnLCAnLW1hJywgJzIwMCcsICctbWV0YWxfYmluZGluZycsICctaW1hZScsICc8aW5maWxlLm1hZT4nLCAnLW9tYWUnLCAnPG91dGZpbGUubWFlPic=

> <r_lp_tautomer_probability>
1

> <r_epik_Ionization_Penalty>
4.09479e-08

> <r_epik_Ionization_Penalty_Charging>
1.9321e-08

> <r_epik_Ionization_Penalty_Neutral>
2.16269e-08

> <r_epik_State_Penalty>
-0

> <r_epik_Charging_Adjusted_Penalty>
1.9321e-08

> <i_epik_Tot_Q>
0

> <i_epik_Tot_abs_Q>
0

> <r_epik_Metal_State_Penalty>
-0

> <b_epik_Metal_Only>
0

> <s_lp_Force_Field>
OPLS_2005

> <r_lp_Energy>
63.2054

> <b_lp_Chiralities_Consistent>
1

> <s_lp_Variant>
AV-unprocessed.smi:528-7

> <Gold.Version>
5.8.1

> <Gold.Id.Protein>
6NUR|6NUR_protein|mol2

> <Gold.PLP.Fitness>
51.8833

> <Gold.PLP.PLP>
-50.1510

> <Gold.PLP.part.hbond>
-0.9338

> <Gold.PLP.part.metal>
0.0000

> <Gold.PLP.part.buried>
-6.7181

> <Gold.PLP.part.nonpolar>
-42.4585

> <Gold.PLP.part.repulsive>
0.1483

> <Gold.PLP.ligand.clash>
0.0000

> <Gold.PLP.ligand.torsion>
0.5459

> <Gold.PLP.Chemscore.Hbond>
0.9263

> <Gold.PLP.Chemscore.CHOScore>
0.0000

> <Gold.PLP.Chemscore.Metal>
0.0000

> <Gold.Chemscore.Hbonds>
donor molecule, donor type, donor heavy atom, donor atom, acceptor molecule, acceptor atom, score
      P1  H  6896  6909       L1     5  0.71

> <Gold.PLP.Chemscore.Internal.Correction>
0.0453

> <Gold.Rescore>
     Score         DG    S(hbond)    S(metal)    S(lipo)     H(rot)  DE(clash)    DE(int)     intcor
     16.11     -17.78       0.94        0.00     115.68       1.71       0.01       1.66       ----

> <Gold.Chemscore.Fitness>
16.1064

> <Gold.Chemscore.DG>
-17.7771

> <Gold.Chemscore.ZeroCoef>
-5.4800

> <Gold.Chemscore.Hbond>
0.9420

> <Gold.Chemscore.Metal>
0.0000

> <Gold.Chemscore.Lipo>
115.6804

> <Gold.Chemscore.Internal_Hbond>
0.0000

> <Gold.Chemscore.DEClash>
0.0139

> <Gold.Chemscore.DEInternal>
1.6567

> <Gold.Chemscore.Rot>
1.7125

> <Gold.Chemscore.Internal.Correction>
   9.000000E+99

> <Gold.Chemscore.Hbonds>
donor molecule, donor type, donor heavy atom, donor atom, acceptor molecule, acceptor atom, score
      P1  H  6896  6909       L1     5  0.71

> <Gold.Chemscore.Hbond.Weighted>
-3.1464

> <Gold.Chemscore.Metal.Weighted>
-0.0000

> <Gold.Chemscore.Lipo.Weighted>
-13.5346

> <Gold.Chemscore.Internal_Hbond.Weighted>
0.0000

> <Gold.Chemscore.DEClash.Weighted>
0.0139

> <Gold.Chemscore.DEInternal.Weighted>
1.6567

> <Gold.Chemscore.Rot.Weighted>
4.3840

> <Gold.Chemscore.Internal.Correction.Weighted>
   9.000000E+99

> <Gold.Protein.RotatedTorsions>
[ 6907 6896 6895 6894 ] final  101.33 input  -60.11 | X-H torsion
[ 7974 7965 7964 7962 ] final   36.49 input  175.53 | X-H torsion
[ 8008 7997 7996 7995 ] final  -63.33 input   59.86 | X-H torsion
[ 10167 10162 10161 10158 ] final  125.22 input  -65.29 | X-H torsion
[ 10718 10713 10712 10709 ] final   38.69 input   66.30 | X-H torsion
[ 10763 10752 10751 10750 ] final -167.96 input  -60.55 | X-H torsion
[ 11005 11000 10999 10996 ] final  -24.15 input  -57.11 | X-H torsion

> <Gold.Protein.ActiveResidues>
 VAL166  LYS551  ARG553  GLY616  TRP617  ASP618  TYR619  PRO620  LYS621  CYS622 
 ASP623  PHE694  ASN695  SER759  ASP760  ASP761  ALA762  ILE779  LEU786  VAL792 
 PHE793  MET794  SER795  GLU796  ALA797  LYS798  CYS799  TRP800  GLU811  SER814 

> <Gold.Protein.RotatedAtoms>
  152.5352  134.0142  159.7951 H   0  0  0  0  0  0  0  0  0  0  0  0  # atno 6907 bound_to 6896
  151.0339  133.5758  159.2665 H   0  0  0  0  0  0  0  0  0  0  0  0  # atno 6908 bound_to 6896
  151.2753  135.0704  159.9203 H   0  0  0  0  0  0  0  0  0  0  0  0  # atno 6909 bound_to 6896
  146.1207  139.6011  142.9291 H   0  0  0  0  0  0  0  0  0  0  0  0  # atno 7974 bound_to 7965
  154.4548  140.0977  156.6726 H   0  0  0  0  0  0  0  0  0  0  0  0  # atno 8008 bound_to 7997
  155.5171  140.3478  155.4381 H   0  0  0  0  0  0  0  0  0  0  0  0  # atno 8009 bound_to 7997
  156.0756  140.1360  156.9764 H   0  0  0  0  0  0  0  0  0  0  0  0  # atno 8010 bound_to 7997
  139.5698  144.6932  151.3811 H   0  0  0  0  0  0  0  0  0  0  0  0  # atno 10167 bound_to 10162
  157.3618  130.7654  149.7053 H   0  0  0  0  0  0  0  0  0  0  0  0  # atno 10718 bound_to 10713
  154.6678  135.2934  154.9783 H   0  0  0  0  0  0  0  0  0  0  0  0  # atno 10763 bound_to 10752
  154.0820  135.6603  153.4843 H   0  0  0  0  0  0  0  0  0  0  0  0  # atno 10764 bound_to 10752
  153.0468  135.5199  154.7659 H   0  0  0  0  0  0  0  0  0  0  0  0  # atno 10765 bound_to 10752
  140.8818  133.7648  156.0312 H   0  0  0  0  0  0  0  0  0  0  0  0  # atno 11005 bound_to 11000
  145.5471  141.0416  143.2298 LP  0  0  0  0  0  0  0  0  0  0  0  0  # atno 17320 bound_to 7965
  144.7595  139.6992  143.7240 LP  0  0  0  0  0  0  0  0  0  0  0  0  # atno 17321 bound_to 7965
  140.6982  143.7697  150.7360 LP  0  0  0  0  0  0  0  0  0  0  0  0  # atno 17342 bound_to 10162
  140.1200  143.4621  152.2319 LP  0  0  0  0  0  0  0  0  0  0  0  0  # atno 17343 bound_to 10162
  155.9739  130.4111  150.3967 LP  0  0  0  0  0  0  0  0  0  0  0  0  # atno 17370 bound_to 10713
  157.2045  131.0446  151.2632 LP  0  0  0  0  0  0  0  0  0  0  0  0  # atno 17371 bound_to 10713
  140.8452  134.3020  157.5298 LP  0  0  0  0  0  0  0  0  0  0  0  0  # atno 17394 bound_to 11000
  139.8720  134.9438  156.3862 LP  0  0  0  0  0  0  0  0  0  0  0  0  # atno 17395 bound_to 11000

$$$$
