AV-unprocessed.smi:686|AV-procd|sdf|3340|dock5
  -GOLD-   22720 0313D 1   1.00000     0.00000
 Structure written by MMmdl.
 41 42  0  0  0  0  0  0  0  0  2 V2000
  144.8774  137.3109  152.5613 C   0  0  0  0  0  0  0  0  0  0  0  0
  145.4022  135.9768  153.1171 C   0  0  1  0  0  0  0  0  0  0  0  0
  145.9857  135.0172  152.0695 C   0  0  0  0  0  0  0  0  0  0  0  0
  147.1017  134.2842  152.7206 N   0  3  2  0  0  0  0  0  0  0  0  0
  147.1506  132.8204  152.4463 C   0  0  0  0  0  0  0  0  0  0  0  0
  145.8273  132.1241  152.8191 C   0  0  0  0  0  0  0  0  0  0  0  0
  148.3113  132.1534  153.2089 C   0  0  0  0  0  0  0  0  0  0  0  0
  147.1063  134.6714  154.1506 C   0  0  0  0  0  0  0  0  0  0  0  0
  146.4767  136.0650  154.2052 C   0  0  1  0  0  0  0  0  0  0  0  0
  147.4759  137.0963  153.9029 N   0  0  0  0  0  0  0  0  0  0  0  0
  148.3123  137.8743  155.1953 S   0  0  0  0  0  0  0  0  0  0  0  0
  147.2940  138.5099  156.0448 O   0  0  0  0  0  0  0  0  0  0  0  0
  149.2460  136.8955  155.7731 O   0  0  0  0  0  0  0  0  0  0  0  0
  149.2614  139.1868  154.3131 C   0  0  0  0  0  0  0  0  0  0  0  0
  150.7308  139.0225  154.5839 C   0  0  0  0  0  0  0  0  0  0  0  0
  151.5209  137.8435  154.4919 C   0  0  0  0  0  0  0  0  0  0  0  0
  152.7714  138.2700  154.8355 C   0  0  0  0  0  0  0  0  0  0  0  0
  152.7602  139.5976  155.1173 O   0  0  0  0  0  0  0  0  0  0  0  0
  151.4523  140.0688  154.9574 N   0  0  0  0  0  0  0  0  0  0  0  0
  145.6560  137.8685  152.0401 H   0  0  0  0  0  0  0  0  0  0  0  0
  144.4925  137.9423  153.3625 H   0  0  0  0  0  0  0  0  0  0  0  0
  144.0656  137.1427  151.8531 H   0  0  0  0  0  0  0  0  0  0  0  0
  144.5516  135.4651  153.5708 H   0  0  0  0  0  0  0  0  0  0  0  0
  145.2050  134.3483  151.7047 H   0  0  0  0  0  0  0  0  0  0  0  0
  146.3852  135.5584  151.2108 H   0  0  0  0  0  0  0  0  0  0  0  0
  147.3153  132.6809  151.3767 H   0  0  0  0  0  0  0  0  0  0  0  0
  145.8964  131.0470  152.6640 H   0  0  0  0  0  0  0  0  0  0  0  0
  144.9935  132.4746  152.2108 H   0  0  0  0  0  0  0  0  0  0  0  0
  145.5721  132.2906  153.8663 H   0  0  0  0  0  0  0  0  0  0  0  0
  148.3327  131.0789  153.0241 H   0  0  0  0  0  0  0  0  0  0  0  0
  148.2128  132.2998  154.2851 H   0  0  0  0  0  0  0  0  0  0  0  0
  149.2827  132.5447  152.9080 H   0  0  0  0  0  0  0  0  0  0  0  0
  146.4802  133.9772  154.7141 H   0  0  0  0  0  0  0  0  0  0  0  0
  148.1090  134.6317  154.5754 H   0  0  0  0  0  0  0  0  0  0  0  0
  146.0358  136.2738  155.1808 H   0  0  0  0  0  0  0  0  0  0  0  0
  148.1108  136.8220  153.1533 H   0  0  0  0  0  0  0  0  0  0  0  0
  149.0326  139.1351  153.2482 H   0  0  0  0  0  0  0  0  0  0  0  0
  148.9134  140.1530  154.6783 H   0  0  0  0  0  0  0  0  0  0  0  0
  151.2194  136.8442  154.2147 H   0  0  0  0  0  0  0  0  0  0  0  0
  153.7271  137.7742  154.9212 H   0  0  0  0  0  0  0  0  0  0  0  0
  147.9475  134.6781  152.3335 H   0  0  0  0  0  0  0  0  0  0  0  0
  1  2  1  0  0  0  0
  1 20  1  0  0  0  0
  1 21  1  0  0  0  0
  1 22  1  0  0  0  0
  2  9  1  0  0  0  0
  2  3  1  0  0  0  0
  2 23  1  0  0  0  0
  3  4  1  0  0  0  0
  3 24  1  0  0  0  0
  3 25  1  0  0  0  0
  4  5  1  0  0  0  0
  4  8  1  0  0  0  0
  4 41  1  0  0  0  0
  5  6  1  0  0  0  0
  5  7  1  0  0  0  0
  5 26  1  0  0  0  0
  6 27  1  0  0  0  0
  6 28  1  0  0  0  0
  6 29  1  0  0  0  0
  7 30  1  0  0  0  0
  7 31  1  0  0  0  0
  7 32  1  0  0  0  0
  8  9  1  0  0  0  0
  8 33  1  0  0  0  0
  8 34  1  0  0  0  0
  9 10  1  0  0  0  0
  9 35  1  0  0  0  0
 10 11  1  0  0  0  0
 10 36  1  0  0  0  0
 11 12  2  0  0  0  0
 11 13  2  0  0  0  0
 11 14  1  0  0  0  0
 14 15  1  0  0  0  0
 14 37  1  0  0  0  0
 14 38  1  0  0  0  0
 15 19  2  0  0  0  0
 15 16  1  0  0  0  0
 16 17  2  0  0  0  0
 16 39  1  0  0  0  0
 17 18  1  0  0  0  0
 17 40  1  0  0  0  0
 18 19  1  0  0  0  0
M  CHG  1   4   1
M  END
> <s_m_source_file>
AV-unprocessed.smi

> <i_m_source_file_index>
686

> <i_lp_mmshare_version>
43012

> <i_f3d_flags>
0

> <s_epik_input>
W0NIM11bQ0BASF0xW0NIMl1OKFtDSF0oW0NIM10pW0NIM10pW0NIMl1bQ0BIXTFbTkhdUyg9TykoPU8pW0NIMl1jMltjSF1bY0hdb24y

> <s_epik_cmdline>
J2VwaWtfcHl0aG9uJywgJy1waCcsICc3LjAnLCAnLXRuJywgJzgnLCAnLW1hJywgJzIwMCcsICctbWV0YWxfYmluZGluZycsICctaW1hZScsICc8aW5maWxlLm1hZT4nLCAnLW9tYWUnLCAnPG91dGZpbGUubWFlPic=

> <r_epik_Ionization_Penalty>
0.00200818

> <r_epik_Ionization_Penalty_Charging>
0.000701289

> <r_epik_Ionization_Penalty_Neutral>
0.00130689

> <r_epik_State_Penalty>
0.00131314

> <r_epik_Charging_Adjusted_Penalty>
0.00201443

> <i_epik_Tot_Q>
1

> <i_epik_Tot_abs_Q>
1

> <r_epik_Metal_State_Penalty>
0.310831

> <b_epik_Metal_Only>
0

> <s_lp_Force_Field>
OPLS_2005

> <r_lp_Energy>
21.9273

> <b_lp_Chiralities_Consistent>
1

> <s_lp_Variant>
AV-unprocessed.smi:686-4

> <Gold.Version>
5.8.1

> <Gold.Id.Protein>
6NUR|6NUR_protein|mol2

> <Gold.PLP.Fitness>
42.5013

> <Gold.PLP.PLP>
-28.7036

> <Gold.PLP.part.hbond>
-4.9909

> <Gold.PLP.part.metal>
0.0000

> <Gold.PLP.part.buried>
-1.6124

> <Gold.PLP.part.nonpolar>
-22.2091

> <Gold.PLP.part.repulsive>
0.1411

> <Gold.PLP.ligand.clash>
0.0000

> <Gold.PLP.ligand.torsion>
0.6935

> <Gold.PLP.Chemscore.Hbond>
5.0000

> <Gold.PLP.Chemscore.CHOScore>
0.0000

> <Gold.PLP.Chemscore.Metal>
0.0000

> <Gold.Chemscore.Hbonds>
donor molecule, donor type, donor heavy atom, donor atom, acceptor molecule, acceptor atom, score
      L1  H     4    41       P1  7948  2.00
      L1  H    10    36       P1  7948  1.00
      P1  H  7989  7998       L1    19  0.90
      P1  H  7997  8009       L1    18  1.00

> <Gold.PLP.Chemscore.Internal.Correction>
0.1846

> <Gold.Rescore>
     Score         DG    S(hbond)    S(metal)    S(lipo)     H(rot)  DE(clash)    DE(int)     intcor
     15.62     -17.63       2.91        0.00      62.47       1.91       0.24       1.77       ----

> <Gold.Chemscore.Fitness>
15.6185

> <Gold.Chemscore.DG>
-17.6314

> <Gold.Chemscore.ZeroCoef>
-5.4800

> <Gold.Chemscore.Hbond>
2.9149

> <Gold.Chemscore.Metal>
0.0000

> <Gold.Chemscore.Lipo>
62.4701

> <Gold.Chemscore.Internal_Hbond>
0.0000

> <Gold.Chemscore.DEClash>
0.2447

> <Gold.Chemscore.DEInternal>
1.7682

> <Gold.Chemscore.Rot>
1.9115

> <Gold.Chemscore.Internal.Correction>
   9.000000E+99

> <Gold.Chemscore.Hbonds>
donor molecule, donor type, donor heavy atom, donor atom, acceptor molecule, acceptor atom, score
      L1  H     4    41       P1  7948  0.52
      L1  H    10    36       P1  7948  1.00
      P1  H  7989  7998       L1    19  0.06
      P1  H  7997  8009       L1    18  0.81

> <Gold.Chemscore.Hbond.Weighted>
-9.7359

> <Gold.Chemscore.Metal.Weighted>
-0.0000

> <Gold.Chemscore.Lipo.Weighted>
-7.3090

> <Gold.Chemscore.Internal_Hbond.Weighted>
0.0000

> <Gold.Chemscore.DEClash.Weighted>
0.2447

> <Gold.Chemscore.DEInternal.Weighted>
1.7682

> <Gold.Chemscore.Rot.Weighted>
4.8935

> <Gold.Chemscore.Internal.Correction.Weighted>
   9.000000E+99

> <Gold.Protein.RotatedTorsions>
[ 6907 6896 6895 6894 ] final    5.55 input  -60.11 | X-H torsion
[ 7974 7965 7964 7962 ] final  -48.71 input  175.53 | X-H torsion
[ 8008 7997 7996 7995 ] final -135.71 input   59.86 | X-H torsion
[ 10167 10162 10161 10158 ] final   38.61 input  -65.29 | X-H torsion
[ 10718 10713 10712 10709 ] final  -48.07 input   66.30 | X-H torsion
[ 10763 10752 10751 10750 ] final   43.31 input  -60.55 | X-H torsion
[ 11005 11000 10999 10996 ] final  -63.67 input  -57.11 | X-H torsion

> <Gold.Protein.ActiveResidues>
 VAL166  LYS551  ARG553  GLY616  TRP617  ASP618  TYR619  PRO620  LYS621  CYS622 
 ASP623  PHE694  ASN695  SER759  ASP760  ASP761  ALA762  ILE779  LEU786  VAL792 
 PHE793  MET794  SER795  GLU796  ALA797  LYS798  CYS799  TRP800  GLU811  SER814 

> <Gold.Protein.RotatedAtoms>
  151.6593  135.0991  160.0176 H   0  0  0  0  0  0  0  0  0  0  0  0  # atno 6907 bound_to 6896
  152.3956  133.6737  159.6282 H   0  0  0  0  0  0  0  0  0  0  0  0  # atno 6908 bound_to 6896
  150.7863  133.8797  159.3323 H   0  0  0  0  0  0  0  0  0  0  0  0  # atno 6909 bound_to 6896
  145.9483  140.7596  142.9517 H   0  0  0  0  0  0  0  0  0  0  0  0  # atno 7974 bound_to 7965
  155.3832  140.0495  157.3043 H   0  0  0  0  0  0  0  0  0  0  0  0  # atno 8008 bound_to 7997
  154.5072  140.2178  155.9189 H   0  0  0  0  0  0  0  0  0  0  0  0  # atno 8009 bound_to 7997
  156.1540  140.3130  155.8700 H   0  0  0  0  0  0  0  0  0  0  0  0  # atno 8010 bound_to 7997
  140.3919  144.1840  150.6131 H   0  0  0  0  0  0  0  0  0  0  0  0  # atno 10167 bound_to 10162
  156.2023  130.4157  149.9224 H   0  0  0  0  0  0  0  0  0  0  0  0  # atno 10718 bound_to 10713
  152.9863  135.6105  154.3091 H   0  0  0  0  0  0  0  0  0  0  0  0  # atno 10763 bound_to 10752
  154.2807  135.2777  155.2700 H   0  0  0  0  0  0  0  0  0  0  0  0  # atno 10764 bound_to 10752
  154.5040  135.5859  153.6609 H   0  0  0  0  0  0  0  0  0  0  0  0  # atno 10765 bound_to 10752
  141.1400  133.6655  156.5715 H   0  0  0  0  0  0  0  0  0  0  0  0  # atno 11005 bound_to 11000
  144.6791  140.2393  143.7345 LP  0  0  0  0  0  0  0  0  0  0  0  0  # atno 17320 bound_to 7965
  145.8206  139.2042  143.1940 LP  0  0  0  0  0  0  0  0  0  0  0  0  # atno 17321 bound_to 7965
  140.4830  143.2372  151.8928 LP  0  0  0  0  0  0  0  0  0  0  0  0  # atno 17342 bound_to 10162
  139.4788  144.5248  151.8750 LP  0  0  0  0  0  0  0  0  0  0  0  0  # atno 17343 bound_to 10162
  156.6929  130.8903  151.3590 LP  0  0  0  0  0  0  0  0  0  0  0  0  # atno 17370 bound_to 10713
  157.6993  130.9315  150.0737 LP  0  0  0  0  0  0  0  0  0  0  0  0  # atno 17371 bound_to 10713
  140.3909  134.7441  157.4721 LP  0  0  0  0  0  0  0  0  0  0  0  0  # atno 17394 bound_to 11000
  140.0567  134.6054  155.8797 LP  0  0  0  0  0  0  0  0  0  0  0  0  # atno 17395 bound_to 11000

$$$$
