AV-unprocessed.smi:1864|AV-procd|sdf|7552|dock8
  -GOLD-   22720 9273D 1   1.00000     0.00000
 Structure written by MMmdl.
 34 35  0  0  0  0  0  0  0  0  1 V2000
  147.4074  141.3622  153.3177 C   0  0  0  0  0  0  0  0  0  0  0  0
  148.6548  140.6699  153.7486 C   0  0  0  0  0  0  0  0  0  0  0  0
  149.7473  141.3570  154.0583 N   0  0  0  0  0  0  0  0  0  0  0  0
  150.6676  140.3591  154.4099 O   0  0  0  0  0  0  0  0  0  0  0  0
  150.0160  139.1821  154.2501 C   0  0  0  0  0  0  0  0  0  0  0  0
  150.7214  137.9139  154.5967 C   0  0  0  0  0  0  0  0  0  0  0  0
  150.8986  137.7395  156.1134 C   0  0  0  0  0  0  0  0  0  0  0  0
  151.0612  139.0218  156.7888 N   0  0  0  0  0  0  0  0  0  0  0  0
  152.1107  139.3649  157.5578 C   0  0  0  0  0  0  0  0  0  0  0  0
  153.0561  138.6065  157.7758 O   0  0  0  0  0  0  0  0  0  0  0  0
  152.0721  140.7324  158.1423 C   0  0  0  0  0  0  0  0  0  0  0  0
  152.6386  140.9666  159.2848 N   0  0  0  0  0  0  0  0  0  0  0  0
  152.6373  142.2215  159.8593 N   0  0  0  0  0  0  0  0  0  0  0  0
  153.5411  142.3760  160.9976 C   0  0  0  0  0  0  0  0  0  0  0  0
  151.8526  143.2527  159.4582 C   0  0  0  0  0  0  0  0  0  0  0  0
  151.8718  144.3691  159.9763 O   0  0  0  0  0  0  0  0  0  0  0  0
  150.8780  142.9629  158.3130 C   0  0  0  0  0  0  0  0  0  0  0  0
  151.3913  141.8501  157.3775 C   0  0  0  0  0  0  0  0  0  0  0  0
  148.7517  139.3162  153.8564 N   0  0  0  0  0  0  0  0  0  0  0  0
  147.5909  141.9432  152.4137 H   0  0  0  0  0  0  0  0  0  0  0  0
  147.0602  142.0368  154.1007 H   0  0  0  0  0  0  0  0  0  0  0  0
  146.6173  140.6403  153.1092 H   0  0  0  0  0  0  0  0  0  0  0  0
  150.1552  137.0771  154.1858 H   0  0  0  0  0  0  0  0  0  0  0  0
  151.6907  137.9112  154.0966 H   0  0  0  0  0  0  0  0  0  0  0  0
  150.0517  137.1975  156.5380 H   0  0  0  0  0  0  0  0  0  0  0  0
  151.7851  137.1376  156.3157 H   0  0  0  0  0  0  0  0  0  0  0  0
  150.3269  139.7034  156.6604 H   0  0  0  0  0  0  0  0  0  0  0  0
  154.2627  143.1727  160.8104 H   0  0  0  0  0  0  0  0  0  0  0  0
  154.1042  141.4633  161.2004 H   0  0  0  0  0  0  0  0  0  0  0  0
  152.9824  142.6252  161.9011 H   0  0  0  0  0  0  0  0  0  0  0  0
  149.9303  142.6593  158.7594 H   0  0  0  0  0  0  0  0  0  0  0  0
  150.6814  143.8741  157.7469 H   0  0  0  0  0  0  0  0  0  0  0  0
  152.0915  142.2671  156.6527 H   0  0  0  0  0  0  0  0  0  0  0  0
  150.5472  141.4657  156.8036 H   0  0  0  0  0  0  0  0  0  0  0  0
  1  2  1  0  0  0  0
  1 20  1  0  0  0  0
  1 21  1  0  0  0  0
  1 22  1  0  0  0  0
  2 19  1  0  0  0  0
  2  3  2  0  0  0  0
  3  4  1  0  0  0  0
  4  5  1  0  0  0  0
  5  6  1  0  0  0  0
  5 19  2  0  0  0  0
  6  7  1  0  0  0  0
  6 23  1  0  0  0  0
  6 24  1  0  0  0  0
  7  8  1  0  0  0  0
  7 25  1  0  0  0  0
  7 26  1  0  0  0  0
  8  9  1  0  0  0  0
  8 27  1  0  0  0  0
  9 10  2  0  0  0  0
  9 11  1  0  0  0  0
 11 18  1  0  0  0  0
 11 12  2  0  0  0  0
 12 13  1  0  0  0  0
 13 14  1  0  0  0  0
 13 15  1  0  0  0  0
 14 28  1  0  0  0  0
 14 29  1  0  0  0  0
 14 30  1  0  0  0  0
 15 16  2  0  0  0  0
 15 17  1  0  0  0  0
 17 18  1  0  0  0  0
 17 31  1  0  0  0  0
 17 32  1  0  0  0  0
 18 33  1  0  0  0  0
 18 34  1  0  0  0  0
M  END
> <s_m_source_file>
AV-unprocessed.smi

> <i_m_source_file_index>
1864

> <i_lp_mmshare_version>
43012

> <i_f3d_flags>
0

> <s_epik_input>
W0NIM11jMW5vYyhuMSlbQ0gyXVtDSDJdW05IXUMoPU8pQzI9Tk4oW0NIM10pQyg9TylbQ0gyXVtDSDJdMg==

> <s_epik_cmdline>
J2VwaWtfcHl0aG9uJywgJy1waCcsICc3LjAnLCAnLXRuJywgJzgnLCAnLW1hJywgJzIwMCcsICctbWV0YWxfYmluZGluZycsICctaW1hZScsICc8aW5maWxlLm1hZT4nLCAnLW9tYWUnLCAnPG91dGZpbGUubWFlPic=

> <r_lp_tautomer_probability>
1

> <r_epik_Ionization_Penalty>
0.00011851

> <r_epik_Ionization_Penalty_Charging>
0

> <r_epik_Ionization_Penalty_Neutral>
0.00011851

> <r_epik_State_Penalty>
-0

> <r_epik_Charging_Adjusted_Penalty>
0

> <i_epik_Tot_Q>
0

> <i_epik_Tot_abs_Q>
0

> <r_epik_Metal_State_Penalty>
0.091363

> <b_epik_Metal_Only>
0

> <s_epik_Chemistry_Notes>
This compound has an imine and may undergo hydrolysis.

> <s_lp_Force_Field>
OPLS_2005

> <r_lp_Energy>
12.468

> <b_lp_Chiralities_Consistent>
1

> <s_lp_Variant>
AV-unprocessed.smi:1864-1

> <Gold.Version>
5.8.1

> <Gold.Id.Protein>
6NUR|6NUR_protein|mol2

> <Gold.PLP.Fitness>
39.3912

> <Gold.PLP.PLP>
-33.4051

> <Gold.PLP.part.hbond>
-3.7272

> <Gold.PLP.part.metal>
0.0000

> <Gold.PLP.part.buried>
-3.0498

> <Gold.PLP.part.nonpolar>
-25.7271

> <Gold.PLP.part.repulsive>
1.3173

> <Gold.PLP.ligand.clash>
0.0000

> <Gold.PLP.ligand.torsion>
0.7332

> <Gold.PLP.Chemscore.Hbond>
2.4797

> <Gold.PLP.Chemscore.CHOScore>
0.0000

> <Gold.PLP.Chemscore.Metal>
0.0000

> <Gold.Chemscore.Hbonds>
donor molecule, donor type, donor heavy atom, donor atom, acceptor molecule, acceptor atom, score
      P1  H  7989  7998       L1     4  0.39
      P1  H  7997  8008       L1    10  0.32
      P1  H  8011  8017       L1     3  0.55

> <Gold.PLP.Chemscore.Internal.Correction>
0.0135

> <Gold.Rescore>
     Score         DG    S(hbond)    S(metal)    S(lipo)     H(rot)  DE(clash)    DE(int)     intcor
     11.77     -12.59       1.67        0.00      52.68       1.80       0.01       0.81       ----

> <Gold.Chemscore.Fitness>
11.7746

> <Gold.Chemscore.DG>
-12.5921

> <Gold.Chemscore.ZeroCoef>
-5.4800

> <Gold.Chemscore.Hbond>
1.6662

> <Gold.Chemscore.Metal>
0.0000

> <Gold.Chemscore.Lipo>
52.6826

> <Gold.Chemscore.Internal_Hbond>
0.0000

> <Gold.Chemscore.DEClash>
0.0086

> <Gold.Chemscore.DEInternal>
0.8089

> <Gold.Chemscore.Rot>
1.8034

> <Gold.Chemscore.Internal.Correction>
   9.000000E+99

> <Gold.Chemscore.Hbonds>
donor molecule, donor type, donor heavy atom, donor atom, acceptor molecule, acceptor atom, score
      P1  H  7989  7998       L1     4  0.02
      P1  H  7997  8008       L1    10  0.02
      P1  H  8011  8017       L1     3  0.08

> <Gold.Chemscore.Hbond.Weighted>
-5.5650

> <Gold.Chemscore.Metal.Weighted>
-0.0000

> <Gold.Chemscore.Lipo.Weighted>
-6.1639

> <Gold.Chemscore.Internal_Hbond.Weighted>
0.0000

> <Gold.Chemscore.DEClash.Weighted>
0.0086

> <Gold.Chemscore.DEInternal.Weighted>
0.8089

> <Gold.Chemscore.Rot.Weighted>
4.6167

> <Gold.Chemscore.Internal.Correction.Weighted>
   9.000000E+99

> <Gold.Protein.RotatedTorsions>
[ 6907 6896 6895 6894 ] final   93.25 input  -60.11 | X-H torsion
[ 7974 7965 7964 7962 ] final   93.76 input  175.53 | X-H torsion
[ 8008 7997 7996 7995 ] final  -74.91 input   59.86 | X-H torsion
[ 10167 10162 10161 10158 ] final -129.99 input  -65.29 | X-H torsion
[ 10718 10713 10712 10709 ] final   31.53 input   66.30 | X-H torsion
[ 10763 10752 10751 10750 ] final  101.29 input  -60.55 | X-H torsion
[ 11005 11000 10999 10996 ] final  -65.31 input  -57.11 | X-H torsion

> <Gold.Protein.ActiveResidues>
 VAL166  LYS551  ARG553  GLY616  TRP617  ASP618  TYR619  PRO620  LYS621  CYS622 
 ASP623  PHE694  ASN695  SER759  ASP760  ASP761  ALA762  ILE779  LEU786  VAL792 
 PHE793  MET794  SER795  GLU796  ALA797  LYS798  CYS799  TRP800  GLU811  SER814 

> <Gold.Protein.RotatedAtoms>
  152.5452  134.1376  159.8465 H   0  0  0  0  0  0  0  0  0  0  0  0  # atno 6907 bound_to 6896
  151.1415  133.4961  159.2604 H   0  0  0  0  0  0  0  0  0  0  0  0  # atno 6908 bound_to 6896
  151.1568  135.0264  159.8747 H   0  0  0  0  0  0  0  0  0  0  0  0  # atno 6909 bound_to 6896
  145.4746  139.2280  143.2916 H   0  0  0  0  0  0  0  0  0  0  0  0  # atno 7974 bound_to 7965
  154.5371  140.0753  156.8446 H   0  0  0  0  0  0  0  0  0  0  0  0  # atno 8008 bound_to 7997
  155.3256  140.3398  155.4222 H   0  0  0  0  0  0  0  0  0  0  0  0  # atno 8009 bound_to 7997
  156.1838  140.1662  156.8210 H   0  0  0  0  0  0  0  0  0  0  0  0  # atno 8010 bound_to 7997
  139.9340  143.6239  152.2522 H   0  0  0  0  0  0  0  0  0  0  0  0  # atno 10167 bound_to 10162
  157.2736  130.7220  149.6518 H   0  0  0  0  0  0  0  0  0  0  0  0  # atno 10718 bound_to 10713
  153.3248  135.4049  155.1447 H   0  0  0  0  0  0  0  0  0  0  0  0  # atno 10763 bound_to 10752
  154.8609  135.3596  154.5548 H   0  0  0  0  0  0  0  0  0  0  0  0  # atno 10764 bound_to 10752
  153.5983  135.7072  153.5454 H   0  0  0  0  0  0  0  0  0  0  0  0  # atno 10765 bound_to 10752
  141.1450  133.6679  156.5966 H   0  0  0  0  0  0  0  0  0  0  0  0  # atno 11005 bound_to 11000
  146.2377  140.5527  142.8948 LP  0  0  0  0  0  0  0  0  0  0  0  0  # atno 17320 bound_to 7965
  144.7925  140.6059  143.6532 LP  0  0  0  0  0  0  0  0  0  0  0  0  # atno 17321 bound_to 7965
  139.6759  144.7658  151.1698 LP  0  0  0  0  0  0  0  0  0  0  0  0  # atno 17342 bound_to 10162
  140.7629  143.5796  150.8908 LP  0  0  0  0  0  0  0  0  0  0  0  0  # atno 17343 bound_to 10162
  155.9663  130.4360  150.5115 LP  0  0  0  0  0  0  0  0  0  0  0  0  # atno 17370 bound_to 10713
  157.3044  131.0651  151.2045 LP  0  0  0  0  0  0  0  0  0  0  0  0  # atno 17371 bound_to 10713
  140.3721  134.7596  157.4605 LP  0  0  0  0  0  0  0  0  0  0  0  0  # atno 17394 bound_to 11000
  140.0702  134.5873  155.8650 LP  0  0  0  0  0  0  0  0  0  0  0  0  # atno 17395 bound_to 11000

$$$$
