AV-unprocessed.smi:3348|AV-procd|sdf|12917|dock7
  -GOLD-   2272019333D 1   1.00000     0.00000
 Structure written by MMmdl.
 47 48  0  0  0  0  0  0  0  0  2 V2000
  151.1125  137.6467  155.4577 C   0  0  0  0  0  0  0  0  0  0  0  0
  150.2554  138.8997  155.6843 C   0  0  2  0  0  0  0  0  0  0  0  0
  150.0371  139.6470  154.3487 C   0  0  0  0  0  0  0  0  0  0  0  0
  148.8231  140.4423  154.3136 N   0  0  0  0  0  0  0  0  0  0  0  0
  148.6450  141.7507  154.7124 C   0  0  0  0  0  0  0  0  0  0  0  0
  147.3396  142.0734  154.4752 C   0  0  0  0  0  0  0  0  0  0  0  0
  146.7941  140.8858  153.9123 C   0  0  0  0  0  0  0  0  0  0  0  0
  147.6859  139.9131  153.8120 N   0  0  0  0  0  0  0  0  0  0  0  0
  150.9153  139.7584  156.6955 N   0  3  0  0  0  0  0  0  0  0  0  0
  150.0931  140.8656  157.2291 C   0  0  0  0  0  0  0  0  0  0  0  0
  150.9035  142.1622  157.3060 C   0  0  0  0  0  0  0  0  0  0  0  0
  151.4418  142.2769  158.6140 O   0  0  0  0  0  0  0  0  0  0  0  0
  152.6884  142.9611  158.6859 C   0  0  1  0  0  0  0  0  0  0  0  0
  152.5455  144.3949  158.1311 C   0  0  0  0  0  0  0  0  0  0  0  0
  151.5945  145.2437  158.9906 C   0  0  0  0  0  0  0  0  0  0  0  0
  152.0438  145.2669  160.4593 C   0  0  0  0  0  0  0  0  0  0  0  0
  152.1917  143.8442  161.0224 C   0  0  0  0  0  0  0  0  0  0  0  0
  153.1449  142.9901  160.1618 C   0  0  1  0  0  0  0  0  0  0  0  0
  153.3251  141.5766  160.7376 C   0  0  0  0  0  0  0  0  0  0  0  0
  150.6334  136.9654  154.7540 H   0  0  0  0  0  0  0  0  0  0  0  0
  151.2649  137.1000  156.3890 H   0  0  0  0  0  0  0  0  0  0  0  0
  152.0939  137.9024  155.0566 H   0  0  0  0  0  0  0  0  0  0  0  0
  149.2955  138.5596  156.0763 H   0  0  0  0  0  0  0  0  0  0  0  0
  150.8870  140.2957  154.1327 H   0  0  0  0  0  0  0  0  0  0  0  0
  149.9808  138.9316  153.5270 H   0  0  0  0  0  0  0  0  0  0  0  0
  149.4512  142.3363  155.1293 H   0  0  0  0  0  0  0  0  0  0  0  0
  146.8503  143.0164  154.6692 H   0  0  0  0  0  0  0  0  0  0  0  0
  145.7845  140.7036  153.5743 H   0  0  0  0  0  0  0  0  0  0  0  0
  151.1460  139.1697  157.4835 H   0  0  0  0  0  0  0  0  0  0  0  0
  149.2273  141.0247  156.5888 H   0  0  0  0  0  0  0  0  0  0  0  0
  149.7164  140.6059  158.2192 H   0  0  0  0  0  0  0  0  0  0  0  0
  151.7006  142.1607  156.5609 H   0  0  0  0  0  0  0  0  0  0  0  0
  150.2517  143.0078  157.0868 H   0  0  0  0  0  0  0  0  0  0  0  0
  153.4397  142.4215  158.1062 H   0  0  0  0  0  0  0  0  0  0  0  0
  153.5272  144.8698  158.1112 H   0  0  0  0  0  0  0  0  0  0  0  0
  152.2006  144.3821  157.0976 H   0  0  0  0  0  0  0  0  0  0  0  0
  151.5491  146.2611  158.6008 H   0  0  0  0  0  0  0  0  0  0  0  0
  150.5822  144.8432  158.9236 H   0  0  0  0  0  0  0  0  0  0  0  0
  152.9958  145.7929  160.5412 H   0  0  0  0  0  0  0  0  0  0  0  0
  151.3275  145.8311  161.0572 H   0  0  0  0  0  0  0  0  0  0  0  0
  152.5608  143.8969  162.0472 H   0  0  0  0  0  0  0  0  0  0  0  0
  151.2111  143.3691  161.0740 H   0  0  0  0  0  0  0  0  0  0  0  0
  154.1251  143.4688  160.1893 H   0  0  0  0  0  0  0  0  0  0  0  0
  152.3796  141.0345  160.7722 H   0  0  0  0  0  0  0  0  0  0  0  0
  153.7211  141.6157  161.7528 H   0  0  0  0  0  0  0  0  0  0  0  0
  154.0221  140.9932  160.1353 H   0  0  0  0  0  0  0  0  0  0  0  0
  151.7748  140.1242  156.3117 H   0  0  0  0  0  0  0  0  0  0  0  0
  1  2  1  0  0  0  0
  1 20  1  0  0  0  0
  1 21  1  0  0  0  0
  1 22  1  0  0  0  0
  2  3  1  0  0  0  0
  2  9  1  0  0  0  0
  2 23  1  0  0  0  0
  3  4  1  0  0  0  0
  3 24  1  0  0  0  0
  3 25  1  0  0  0  0
  4  8  1  0  0  0  0
  4  5  1  0  0  0  0
  5  6  2  0  0  0  0
  5 26  1  0  0  0  0
  6  7  1  0  0  0  0
  6 27  1  0  0  0  0
  7  8  2  0  0  0  0
  7 28  1  0  0  0  0
  9 10  1  0  0  0  0
  9 29  1  0  0  0  0
  9 47  1  0  0  0  0
 10 11  1  0  0  0  0
 10 30  1  0  0  0  0
 10 31  1  0  0  0  0
 11 12  1  0  0  0  0
 11 32  1  0  0  0  0
 11 33  1  0  0  0  0
 12 13  1  0  0  0  0
 13 18  1  0  0  0  0
 13 14  1  0  0  0  0
 13 34  1  0  0  0  0
 14 15  1  0  0  0  0
 14 35  1  0  0  0  0
 14 36  1  0  0  0  0
 15 16  1  0  0  0  0
 15 37  1  0  0  0  0
 15 38  1  0  0  0  0
 16 17  1  0  0  0  0
 16 39  1  0  0  0  0
 16 40  1  0  0  0  0
 17 18  1  0  0  0  0
 17 41  1  0  0  0  0
 17 42  1  0  0  0  0
 18 19  1  0  0  0  0
 18 43  1  0  0  0  0
 19 44  1  0  0  0  0
 19 45  1  0  0  0  0
 19 46  1  0  0  0  0
M  CHG  1   9   1
M  END
> <s_m_source_file>
AV-unprocessed.smi

> <i_m_source_file_index>
3348

> <i_lp_mmshare_version>
43012

> <i_f3d_flags>
0

> <s_epik_input>
bjFbY0hdW2NIXVtjSF1uMVtDSDJdW0NAQEhdKFtDSDNdKVtOSF1bQ0gyXVtDSDJdT1tDQEBIXTJbQ0gyXVtDSDJdW0NIMl1bQ0gyXVtDQEhdMltDSDNd

> <s_epik_cmdline>
J2VwaWtfcHl0aG9uJywgJy1waCcsICc3LjAnLCAnLXRuJywgJzgnLCAnLW1hJywgJzIwMCcsICctbWV0YWxfYmluZGluZycsICctaW1hZScsICc8aW5maWxlLm1hZT4nLCAnLW9tYWUnLCAnPG91dGZpbGUubWFlPic=

> <r_lp_tautomer_probability>
1

> <r_epik_Ionization_Penalty>
0.00925088

> <r_epik_Ionization_Penalty_Charging>
0.00924645

> <r_epik_Ionization_Penalty_Neutral>
4.42413e-06

> <r_epik_State_Penalty>
0.0070118

> <r_epik_Charging_Adjusted_Penalty>
0.0162583

> <i_epik_Tot_Q>
1

> <i_epik_Tot_abs_Q>
1

> <r_epik_Metal_State_Penalty>
0.00701222

> <b_epik_Metal_Only>
0

> <s_lp_Force_Field>
OPLS_2005

> <r_lp_Energy>
17.627

> <b_lp_Chiralities_Consistent>
1

> <s_lp_Variant>
AV-unprocessed.smi:3348-3

> <Gold.Version>
5.8.1

> <Gold.Id.Protein>
6NUR|6NUR_protein|mol2

> <Gold.PLP.Fitness>
50.0930

> <Gold.PLP.PLP>
-47.6125

> <Gold.PLP.part.hbond>
0.0000

> <Gold.PLP.part.metal>
0.0000

> <Gold.PLP.part.buried>
-3.2084

> <Gold.PLP.part.nonpolar>
-44.5316

> <Gold.PLP.part.repulsive>
0.2566

> <Gold.PLP.ligand.clash>
0.0000

> <Gold.PLP.ligand.torsion>
1.4507

> <Gold.PLP.Chemscore.Hbond>
0.0000

> <Gold.PLP.Chemscore.CHOScore>
1.7409

> <Gold.PLP.Chemscore.Metal>
0.0000

> <Gold.Chemscore.Hbonds>
donor molecule, donor type, donor heavy atom, donor atom, acceptor molecule, acceptor atom, score
      L1  C     5    26       P1  8028  0.70
      L1  C     7    28       P1 10175  1.00

> <Gold.PLP.Chemscore.Internal.Correction>
0.1593

> <Gold.Rescore>
     Score         DG    S(hbond)    S(metal)    S(lipo)     H(rot)  DE(clash)    DE(int)     intcor
     15.29     -16.89       0.00        0.00     137.29       1.82       0.06       1.54       ----

> <Gold.Chemscore.Fitness>
15.2932

> <Gold.Chemscore.DG>
-16.8935

> <Gold.Chemscore.ZeroCoef>
-5.4800

> <Gold.Chemscore.Hbond>
0.0000

> <Gold.Chemscore.Metal>
0.0000

> <Gold.Chemscore.Lipo>
137.2928

> <Gold.Chemscore.Internal_Hbond>
0.0000

> <Gold.Chemscore.DEClash>
0.0618

> <Gold.Chemscore.DEInternal>
1.5385

> <Gold.Chemscore.Rot>
1.8163

> <Gold.Chemscore.Internal.Correction>
   9.000000E+99

> <Gold.Chemscore.Hbond.Weighted>
-0.0000

> <Gold.Chemscore.Metal.Weighted>
-0.0000

> <Gold.Chemscore.Lipo.Weighted>
-16.0633

> <Gold.Chemscore.Internal_Hbond.Weighted>
0.0000

> <Gold.Chemscore.DEClash.Weighted>
0.0618

> <Gold.Chemscore.DEInternal.Weighted>
1.5385

> <Gold.Chemscore.Rot.Weighted>
4.6497

> <Gold.Chemscore.Internal.Correction.Weighted>
   9.000000E+99

> <Gold.Protein.RotatedTorsions>
[ 6907 6896 6895 6894 ] final   41.07 input  -60.11 | X-H torsion
[ 7974 7965 7964 7962 ] final  121.96 input  175.53 | X-H torsion
[ 8008 7997 7996 7995 ] final  -44.17 input   59.86 | X-H torsion
[ 10167 10162 10161 10158 ] final   71.95 input  -65.29 | X-H torsion
[ 10718 10713 10712 10709 ] final -157.30 input   66.30 | X-H torsion
[ 10763 10752 10751 10750 ] final -148.15 input  -60.55 | X-H torsion
[ 11005 11000 10999 10996 ] final  174.14 input  -57.11 | X-H torsion

> <Gold.Protein.ActiveResidues>
 VAL166  LYS551  ARG553  GLY616  TRP617  ASP618  TYR619  PRO620  LYS621  CYS622 
 ASP623  PHE694  ASN695  SER759  ASP760  ASP761  ALA762  ILE779  LEU786  VAL792 
 PHE793  MET794  SER795  GLU796  ALA797  LYS798  CYS799  TRP800  GLU811  SER814 

> <Gold.Protein.RotatedAtoms>
  152.1906  134.8675  160.0517 H   0  0  0  0  0  0  0  0  0  0  0  0  # atno 6907 bound_to 6896
  151.9565  133.3677  159.4027 H   0  0  0  0  0  0  0  0  0  0  0  0  # atno 6908 bound_to 6896
  150.6934  134.4209  159.5248 H   0  0  0  0  0  0  0  0  0  0  0  0  # atno 6909 bound_to 6896
  145.1132  139.3439  143.4752 H   0  0  0  0  0  0  0  0  0  0  0  0  # atno 7974 bound_to 7965
  154.3997  140.1429  156.3639 H   0  0  0  0  0  0  0  0  0  0  0  0  # atno 8008 bound_to 7997
  155.8155  140.3471  155.5462 H   0  0  0  0  0  0  0  0  0  0  0  0  # atno 8009 bound_to 7997
  155.8342  140.0917  157.1764 H   0  0  0  0  0  0  0  0  0  0  0  0  # atno 8010 bound_to 7997
  140.0405  144.5393  150.7437 H   0  0  0  0  0  0  0  0  0  0  0  0  # atno 10167 bound_to 10162
  156.5384  130.8552  151.2740 H   0  0  0  0  0  0  0  0  0  0  0  0  # atno 10718 bound_to 10713
  154.8248  135.3342  154.6928 H   0  0  0  0  0  0  0  0  0  0  0  0  # atno 10763 bound_to 10752
  153.7556  135.6936  153.4941 H   0  0  0  0  0  0  0  0  0  0  0  0  # atno 10764 bound_to 10752
  153.2146  135.4470  155.0369 H   0  0  0  0  0  0  0  0  0  0  0  0  # atno 10765 bound_to 10752
  140.3481  134.7219  157.4249 H   0  0  0  0  0  0  0  0  0  0  0  0  # atno 11005 bound_to 11000
  146.3525  140.1059  142.8606 LP  0  0  0  0  0  0  0  0  0  0  0  0  # atno 17320 bound_to 7965
  145.0824  140.9230  143.4817 LP  0  0  0  0  0  0  0  0  0  0  0  0  # atno 17321 bound_to 7965
  140.7262  143.2639  151.4112 LP  0  0  0  0  0  0  0  0  0  0  0  0  # atno 17342 bound_to 10162
  139.6017  144.1282  152.2205 LP  0  0  0  0  0  0  0  0  0  0  0  0  # atno 17343 bound_to 10162
  157.7410  130.9860  150.2413 LP  0  0  0  0  0  0  0  0  0  0  0  0  # atno 17370 bound_to 10713
  156.2995  130.3756  149.7764 LP  0  0  0  0  0  0  0  0  0  0  0  0  # atno 17371 bound_to 10713
  140.0726  134.5842  155.8626 LP  0  0  0  0  0  0  0  0  0  0  0  0  # atno 17394 bound_to 11000
  141.2020  133.6622  156.5981 LP  0  0  0  0  0  0  0  0  0  0  0  0  # atno 17395 bound_to 11000

$$$$
