AV-unprocessed.smi:2751|AV-procd|sdf|10598|dock2
  -GOLD-   2272015 53D 1   1.00000     0.00000
 Structure written by MMmdl.
 35 36  0  0  0  0  0  0  0  0  2 V2000
  144.8107  137.7847  153.1750 O   0  0  0  0  0  0  0  0  0  0  0  0
  145.8973  137.4224  152.7225 C   0  0  0  0  0  0  0  0  0  0  0  0
  146.1116  136.2107  152.1883 N   0  0  0  0  0  0  0  0  0  0  0  0
  145.1066  135.1594  152.0743 C   0  0  0  0  0  0  0  0  0  0  0  0
  145.2700  134.0990  153.1770 C   0  0  0  0  0  0  0  0  0  0  0  0
  145.8730  132.7837  152.6589 C   0  0  1  0  0  0  0  0  0  0  0  0
  146.0473  131.7492  153.7878 C   0  0  0  0  0  0  0  0  0  0  0  0
  146.5699  130.4211  153.2291 C   0  0  0  0  0  0  0  0  0  0  0  0
  145.6677  129.9528  152.0829 C   0  0  0  0  0  0  0  0  0  0  0  0
  145.5051  131.0708  151.0412 C   0  0  0  0  0  0  0  0  0  0  0  0
  145.0006  132.2474  151.6658 O   0  0  0  0  0  0  0  0  0  0  0  0
  147.0097  138.1760  152.7010 N   0  0  0  0  0  0  0  0  0  0  0  0
  147.1554  139.5005  153.1861 C   0  0  0  0  0  0  0  0  0  0  0  0
  146.2417  140.4735  153.1575 N   0  3  0  0  0  0  0  0  0  0  0  0
  146.7760  141.6027  153.7252 C   0  0  0  0  0  0  0  0  0  0  0  0
  148.0539  141.2621  154.0972 C   0  0  0  0  0  0  0  0  0  0  0  0
  148.3053  139.9453  153.7648 O   0  0  0  0  0  0  0  0  0  0  0  0
  147.0338  135.9945  151.8384 H   0  0  0  0  0  0  0  0  0  0  0  0
  144.1060  135.5941  152.1013 H   0  0  0  0  0  0  0  0  0  0  0  0
  145.2148  134.6942  151.0942 H   0  0  0  0  0  0  0  0  0  0  0  0
  145.9115  134.5016  153.9621 H   0  0  0  0  0  0  0  0  0  0  0  0
  144.3058  133.8936  153.6438 H   0  0  0  0  0  0  0  0  0  0  0  0
  146.8448  132.9939  152.2083 H   0  0  0  0  0  0  0  0  0  0  0  0
  146.7327  132.1277  154.5466 H   0  0  0  0  0  0  0  0  0  0  0  0
  145.0908  131.5829  154.2853 H   0  0  0  0  0  0  0  0  0  0  0  0
  147.5897  130.5509  152.8649 H   0  0  0  0  0  0  0  0  0  0  0  0
  146.6103  129.6666  154.0151 H   0  0  0  0  0  0  0  0  0  0  0  0
  146.0819  129.0583  151.6169 H   0  0  0  0  0  0  0  0  0  0  0  0
  144.6885  129.6766  152.4761 H   0  0  0  0  0  0  0  0  0  0  0  0
  146.4548  131.2861  150.5493 H   0  0  0  0  0  0  0  0  0  0  0  0
  144.8081  130.7590  150.2634 H   0  0  0  0  0  0  0  0  0  0  0  0
  145.3004  140.4228  152.7867 H   0  0  0  0  0  0  0  0  0  0  0  0
  146.2051  142.5167  153.8061 H   0  0  0  0  0  0  0  0  0  0  0  0
  148.8595  141.7998  154.5760 H   0  0  0  0  0  0  0  0  0  0  0  0
  147.8372  137.7601  152.2997 H   0  0  0  0  0  0  0  0  0  0  0  0
  1  2  2  0  0  0  0
  2 12  1  0  0  0  0
  2  3  1  0  0  0  0
  3  4  1  0  0  0  0
  3 18  1  0  0  0  0
  4  5  1  0  0  0  0
  4 19  1  0  0  0  0
  4 20  1  0  0  0  0
  5  6  1  0  0  0  0
  5 21  1  0  0  0  0
  5 22  1  0  0  0  0
  6 11  1  0  0  0  0
  6  7  1  0  0  0  0
  6 23  1  0  0  0  0
  7  8  1  0  0  0  0
  7 24  1  0  0  0  0
  7 25  1  0  0  0  0
  8  9  1  0  0  0  0
  8 26  1  0  0  0  0
  8 27  1  0  0  0  0
  9 10  1  0  0  0  0
  9 28  1  0  0  0  0
  9 29  1  0  0  0  0
 10 11  1  0  0  0  0
 10 30  1  0  0  0  0
 10 31  1  0  0  0  0
 12 13  1  0  0  0  0
 12 35  1  0  0  0  0
 13 17  1  0  0  0  0
 13 14  2  0  0  0  0
 14 32  1  0  0  0  0
 14 15  1  0  0  0  0
 15 33  1  0  0  0  0
 15 16  2  0  0  0  0
 16 34  1  0  0  0  0
 16 17  1  0  0  0  0
M  CHG  1  14   1
M  END
> <s_m_source_file>
AV-unprocessed.smi

> <i_m_source_file_index>
2751

> <i_lp_mmshare_version>
43012

> <i_f3d_flags>
0

> <s_epik_input>
bzFbY0hdW2NIXW5jMVtOSF1DKD1PKVtOSF1bQ0gyXVtDSDJdW0NAQEhdMltDSDJdW0NIMl1bQ0gyXVtDSDJdTzI=

> <s_epik_cmdline>
J2VwaWtfcHl0aG9uJywgJy1waCcsICc3LjAnLCAnLXRuJywgJzgnLCAnLW1hJywgJzIwMCcsICctbWV0YWxfYmluZGluZycsICctaW1hZScsICc8aW5maWxlLm1hZT4nLCAnLW9tYWUnLCAnPG91dGZpbGUubWFlPic=

> <r_epik_Ionization_Penalty>
6.63408

> <r_epik_Ionization_Penalty_Charging>
6.57733

> <r_epik_Ionization_Penalty_Neutral>
0.0567487

> <r_epik_State_Penalty>
1.8175

> <r_epik_Charging_Adjusted_Penalty>
8.39483

> <i_epik_Tot_Q>
1

> <i_epik_Tot_abs_Q>
1

> <r_epik_Metal_State_Penalty>
1.83396

> <b_epik_Metal_Only>
0

> <s_lp_Force_Field>
OPLS_2005

> <r_lp_Energy>
17.5714

> <b_lp_Chiralities_Consistent>
1

> <s_lp_Variant>
AV-unprocessed.smi:2751-4

> <Gold.Version>
5.8.1

> <Gold.Id.Protein>
6NUR|6NUR_protein|mol2

> <Gold.PLP.Fitness>
36.6018

> <Gold.PLP.PLP>
-26.0082

> <Gold.PLP.part.hbond>
-3.0000

> <Gold.PLP.part.metal>
0.0000

> <Gold.PLP.part.buried>
-6.5239

> <Gold.PLP.part.nonpolar>
-19.4960

> <Gold.PLP.part.repulsive>
2.7863

> <Gold.PLP.ligand.clash>
0.0000

> <Gold.PLP.ligand.torsion>
0.7045

> <Gold.PLP.Chemscore.Hbond>
3.9920

> <Gold.PLP.Chemscore.CHOScore>
0.0000

> <Gold.PLP.Chemscore.Metal>
0.0000

> <Gold.Chemscore.Hbonds>
donor molecule, donor type, donor heavy atom, donor atom, acceptor molecule, acceptor atom, score
      L1  H     3    18       P1  7948  1.00
      L1  H    12    35       P1  7948  1.00
      L1  H    14    32       P1 10175  2.00

> <Gold.PLP.Chemscore.Internal.Correction>
0.0266

> <Gold.Rescore>
     Score         DG    S(hbond)    S(metal)    S(lipo)     H(rot)  DE(clash)    DE(int)     intcor
     16.71     -17.60       2.92        0.00      56.61       1.66       0.02       0.86       ----

> <Gold.Chemscore.Fitness>
16.7128

> <Gold.Chemscore.DG>
-17.6003

> <Gold.Chemscore.ZeroCoef>
-5.4800

> <Gold.Chemscore.Hbond>
2.9161

> <Gold.Chemscore.Metal>
0.0000

> <Gold.Chemscore.Lipo>
56.6104

> <Gold.Chemscore.Internal_Hbond>
0.0000

> <Gold.Chemscore.DEClash>
0.0240

> <Gold.Chemscore.DEInternal>
0.8634

> <Gold.Chemscore.Rot>
1.6575

> <Gold.Chemscore.Internal.Correction>
   9.000000E+99

> <Gold.Chemscore.Hbonds>
donor molecule, donor type, donor heavy atom, donor atom, acceptor molecule, acceptor atom, score
      L1  H     3    18       P1  7948  0.97
      L1  H    12    35       P1  7948  0.96
      L1  H    14    32       P1 10175  0.85

> <Gold.Chemscore.Hbond.Weighted>
-9.7399

> <Gold.Chemscore.Metal.Weighted>
-0.0000

> <Gold.Chemscore.Lipo.Weighted>
-6.6234

> <Gold.Chemscore.Internal_Hbond.Weighted>
0.0000

> <Gold.Chemscore.DEClash.Weighted>
0.0240

> <Gold.Chemscore.DEInternal.Weighted>
0.8634

> <Gold.Chemscore.Rot.Weighted>
4.2431

> <Gold.Chemscore.Internal.Correction.Weighted>
   9.000000E+99

> <Gold.Protein.RotatedTorsions>
[ 6907 6896 6895 6894 ] final   83.54 input  -60.11 | X-H torsion
[ 7974 7965 7964 7962 ] final  164.60 input  175.53 | X-H torsion
[ 8008 7997 7996 7995 ] final  138.51 input   59.86 | X-H torsion
[ 10167 10162 10161 10158 ] final -144.05 input  -65.29 | X-H torsion
[ 10718 10713 10712 10709 ] final   41.93 input   66.30 | X-H torsion
[ 10763 10752 10751 10750 ] final  -30.21 input  -60.55 | X-H torsion
[ 11005 11000 10999 10996 ] final -157.55 input  -57.11 | X-H torsion

> <Gold.Protein.ActiveResidues>
 VAL166  LYS551  ARG553  GLY616  TRP617  ASP618  TYR619  PRO620  LYS621  CYS622 
 ASP623  PHE694  ASN695  SER759  ASP760  ASP761  ALA762  ILE779  LEU786  VAL792 
 PHE793  MET794  SER795  GLU796  ALA797  LYS798  CYS799  TRP800  GLU811  SER814 

> <Gold.Protein.RotatedAtoms>
  152.5330  134.2880  159.9032 H   0  0  0  0  0  0  0  0  0  0  0  0  # atno 6907 bound_to 6896
  151.2833  133.4193  159.2636 H   0  0  0  0  0  0  0  0  0  0  0  0  # atno 6908 bound_to 6896
  151.0265  134.9523  159.8144 H   0  0  0  0  0  0  0  0  0  0  0  0  # atno 6909 bound_to 6896
  144.7538  139.8349  143.6357 H   0  0  0  0  0  0  0  0  0  0  0  0  # atno 7974 bound_to 7965
  156.2997  140.2392  156.4085 H   0  0  0  0  0  0  0  0  0  0  0  0  # atno 8008 bound_to 7997
  154.8462  140.0426  157.1594 H   0  0  0  0  0  0  0  0  0  0  0  0  # atno 8009 bound_to 7997
  154.9048  140.2982  155.5302 H   0  0  0  0  0  0  0  0  0  0  0  0  # atno 8010 bound_to 7997
  139.7935  143.7932  152.2652 H   0  0  0  0  0  0  0  0  0  0  0  0  # atno 10167 bound_to 10162
  157.3991  130.7850  149.7333 H   0  0  0  0  0  0  0  0  0  0  0  0  # atno 10718 bound_to 10713
  153.7772  135.6908  153.4895 H   0  0  0  0  0  0  0  0  0  0  0  0  # atno 10763 bound_to 10752
  153.1835  135.4497  155.0058 H   0  0  0  0  0  0  0  0  0  0  0  0  # atno 10764 bound_to 10752
  154.8095  135.3371  154.7277 H   0  0  0  0  0  0  0  0  0  0  0  0  # atno 10765 bound_to 10752
  140.6634  134.4325  157.5234 H   0  0  0  0  0  0  0  0  0  0  0  0  # atno 11005 bound_to 11000
  146.1523  139.4610  143.0041 LP  0  0  0  0  0  0  0  0  0  0  0  0  # atno 17320 bound_to 7965
  145.6850  141.0180  143.1586 LP  0  0  0  0  0  0  0  0  0  0  0  0  # atno 17321 bound_to 7965
  139.8031  144.7366  150.9798 LP  0  0  0  0  0  0  0  0  0  0  0  0  # atno 17342 bound_to 10162
  140.7820  143.4325  151.0673 LP  0  0  0  0  0  0  0  0  0  0  0  0  # atno 17343 bound_to 10162
  155.9818  130.4015  150.3449 LP  0  0  0  0  0  0  0  0  0  0  0  0  # atno 17370 bound_to 10713
  157.1575  131.0336  151.2856 LP  0  0  0  0  0  0  0  0  0  0  0  0  # atno 17371 bound_to 10713
  139.9005  134.8567  156.1916 LP  0  0  0  0  0  0  0  0  0  0  0  0  # atno 17394 bound_to 11000
  141.0448  133.6919  156.1662 LP  0  0  0  0  0  0  0  0  0  0  0  0  # atno 17395 bound_to 11000

$$$$
