AV-unprocessed.smi:2568|AV-procd|sdf|10094|dock10
  -GOLD-   2272014113D 1   1.00000     0.00000
 Structure written by MMmdl.
 25 26  0  0  0  0  0  0  0  0  2 V2000
  155.4140  139.4562  160.7661 C   0  0  0  0  0  0  0  0  0  0  0  0
  154.3647  140.1433  159.9595 C   0  0  0  0  0  0  0  0  0  0  0  0
  154.0495  139.8429  158.6964 N   0  0  0  0  0  0  0  0  0  0  0  0
  153.0367  140.7212  158.3506 N   0  0  0  0  0  0  0  0  0  0  0  0
  152.8313  141.4756  159.4356 C   0  0  0  0  0  0  0  0  0  0  0  0
  151.8133  142.5671  159.5427 C   0  0  2  0  0  0  0  0  0  0  0  0
  151.1750  142.9114  158.1830 C   0  0  0  0  0  0  0  0  0  0  0  0
  150.2586  144.0588  158.3311 N   0  3  0  0  0  0  0  0  0  0  0  0
  150.9390  145.2180  158.9417 C   0  0  0  0  0  0  0  0  0  0  0  0
  151.5913  144.8081  160.2739 C   0  0  0  0  0  0  0  0  0  0  0  0
  152.4803  143.7168  160.0583 O   0  0  0  0  0  0  0  0  0  0  0  0
  153.6321  141.1479  160.4607 N   0  0  0  0  0  0  0  0  0  0  0  0
  153.6772  141.5575  161.3826 H   0  0  0  0  0  0  0  0  0  0  0  0
  155.9942  138.7782  160.1392 H   0  0  0  0  0  0  0  0  0  0  0  0
  154.9519  138.8800  161.5678 H   0  0  0  0  0  0  0  0  0  0  0  0
  156.0921  140.1892  161.2042 H   0  0  0  0  0  0  0  0  0  0  0  0
  151.0424  142.2536  160.2496 H   0  0  0  0  0  0  0  0  0  0  0  0
  151.9451  143.1656  157.4529 H   0  0  0  0  0  0  0  0  0  0  0  0
  150.6253  142.0572  157.7868 H   0  0  0  0  0  0  0  0  0  0  0  0
  149.8979  144.3202  157.4243 H   0  0  0  0  0  0  0  0  0  0  0  0
  151.6963  145.5931  158.2518 H   0  0  0  0  0  0  0  0  0  0  0  0
  150.2186  146.0213  159.0970 H   0  0  0  0  0  0  0  0  0  0  0  0
  152.1525  145.6445  160.6911 H   0  0  0  0  0  0  0  0  0  0  0  0
  150.8342  144.5344  161.0106 H   0  0  0  0  0  0  0  0  0  0  0  0
  149.4888  143.7853  158.9251 H   0  0  0  0  0  0  0  0  0  0  0  0
  1 14  1  0  0  0  0
  1 15  1  0  0  0  0
  1 16  1  0  0  0  0
  1  2  1  0  0  0  0
  2  3  2  0  0  0  0
  2 12  1  0  0  0  0
  3  4  1  0  0  0  0
  4  5  2  0  0  0  0
  5 12  1  0  0  0  0
  5  6  1  0  0  0  0
  6 11  1  0  0  0  0
  6  7  1  0  0  0  0
  6 17  1  0  0  0  0
  7  8  1  0  0  0  0
  7 18  1  0  0  0  0
  7 19  1  0  0  0  0
  8  9  1  0  0  0  0
  8 20  1  0  0  0  0
  8 25  1  0  0  0  0
  9 10  1  0  0  0  0
  9 21  1  0  0  0  0
  9 22  1  0  0  0  0
 10 11  1  0  0  0  0
 10 23  1  0  0  0  0
 10 24  1  0  0  0  0
 12 13  1  0  0  0  0
M  CHG  1   8   1
M  END
> <s_m_source_file>
AV-unprocessed.smi

> <i_m_source_file_index>
2568

> <i_lp_mmshare_version>
43012

> <i_f3d_flags>
0

> <s_epik_input>
W0NIM11jMW5bbkhdYyhuMSlbQ0BASF0yW0NIMl1bTkhdW0NIMl1bQ0gyXU8y

> <s_epik_cmdline>
J2VwaWtfcHl0aG9uJywgJy1waCcsICc3LjAnLCAnLXRuJywgJzgnLCAnLW1hJywgJzIwMCcsICctbWV0YWxfYmluZGluZycsICctaW1hZScsICc8aW5maWxlLm1hZT4nLCAnLW9tYWUnLCAnPG91dGZpbGUubWFlPic=

> <r_lp_tautomer_probability>
0.0517155

> <r_epik_Ionization_Penalty>
0.290065

> <r_epik_Ionization_Penalty_Charging>
0.125708

> <r_epik_Ionization_Penalty_Neutral>
0.164357

> <r_epik_State_Penalty>
2.14308

> <r_epik_Charging_Adjusted_Penalty>
2.26879

> <i_epik_Tot_Q>
1

> <i_epik_Tot_abs_Q>
1

> <r_epik_Metal_State_Penalty>
2.44434

> <b_epik_Metal_Only>
0

> <s_lp_Force_Field>
OPLS_2005

> <r_lp_Energy>
13.5699

> <b_lp_Chiralities_Consistent>
1

> <s_lp_Variant>
AV-unprocessed.smi:2568-7

> <Gold.Version>
5.8.1

> <Gold.Id.Protein>
6NUR|6NUR_protein|mol2

> <Gold.PLP.Fitness>
31.5355

> <Gold.PLP.PLP>
-22.8909

> <Gold.PLP.part.hbond>
-3.4772

> <Gold.PLP.part.metal>
0.0000

> <Gold.PLP.part.buried>
-3.2318

> <Gold.PLP.part.nonpolar>
-16.1907

> <Gold.PLP.part.repulsive>
0.1448

> <Gold.PLP.ligand.clash>
0.0000

> <Gold.PLP.ligand.torsion>
0.1781

> <Gold.PLP.Chemscore.Hbond>
3.0000

> <Gold.PLP.Chemscore.CHOScore>
0.0000

> <Gold.PLP.Chemscore.Metal>
0.0000

> <Gold.Chemscore.Hbonds>
donor molecule, donor type, donor heavy atom, donor atom, acceptor molecule, acceptor atom, score
      L1  H     8    20       P1  8028  1.95
      P1  H  7997  8009       L1     3  0.85

> <Gold.PLP.Chemscore.Internal.Correction>
0.0009

> <Gold.Rescore>
     Score         DG    S(hbond)    S(metal)    S(lipo)     H(rot)  DE(clash)    DE(int)     intcor
     11.64     -11.80       0.99        0.00      47.56       1.00       0.04       0.12       ----

> <Gold.Chemscore.Fitness>
11.6400

> <Gold.Chemscore.DG>
-11.8002

> <Gold.Chemscore.ZeroCoef>
-5.4800

> <Gold.Chemscore.Hbond>
0.9929

> <Gold.Chemscore.Metal>
0.0000

> <Gold.Chemscore.Lipo>
47.5557

> <Gold.Chemscore.Internal_Hbond>
0.0000

> <Gold.Chemscore.DEClash>
0.0354

> <Gold.Chemscore.DEInternal>
0.1248

> <Gold.Chemscore.Rot>
1.0000

> <Gold.Chemscore.Internal.Correction>
   9.000000E+99

> <Gold.Chemscore.Hbonds>
donor molecule, donor type, donor heavy atom, donor atom, acceptor molecule, acceptor atom, score
      L1  H     8    20       P1  8028  0.32
      P1  H  7997  8009       L1     3  0.14

> <Gold.Chemscore.Hbond.Weighted>
-3.3162

> <Gold.Chemscore.Metal.Weighted>
-0.0000

> <Gold.Chemscore.Lipo.Weighted>
-5.5640

> <Gold.Chemscore.Internal_Hbond.Weighted>
0.0000

> <Gold.Chemscore.DEClash.Weighted>
0.0354

> <Gold.Chemscore.DEInternal.Weighted>
0.1248

> <Gold.Chemscore.Rot.Weighted>
2.5600

> <Gold.Chemscore.Internal.Correction.Weighted>
   9.000000E+99

> <Gold.Protein.RotatedTorsions>
[ 6907 6896 6895 6894 ] final -104.76 input  -60.11 | X-H torsion
[ 7974 7965 7964 7962 ] final -169.23 input  175.53 | X-H torsion
[ 8008 7997 7996 7995 ] final  127.72 input   59.86 | X-H torsion
[ 10167 10162 10161 10158 ] final  -76.80 input  -65.29 | X-H torsion
[ 10718 10713 10712 10709 ] final -152.42 input   66.30 | X-H torsion
[ 10763 10752 10751 10750 ] final -140.78 input  -60.55 | X-H torsion
[ 11005 11000 10999 10996 ] final  159.81 input  -57.11 | X-H torsion

> <Gold.Protein.ActiveResidues>
 VAL166  LYS551  ARG553  GLY616  TRP617  ASP618  TYR619  PRO620  LYS621  CYS622 
 ASP623  PHE694  ASN695  SER759  ASP760  ASP761  ALA762  ILE779  LEU786  VAL792 
 PHE793  MET794  SER795  GLU796  ALA797  LYS798  CYS799  TRP800  GLU811  SER814 

> <Gold.Protein.RotatedAtoms>
  150.7303  134.0229  159.3707 H   0  0  0  0  0  0  0  0  0  0  0  0  # atno 6907 bound_to 6896
  151.8194  135.0654  160.0432 H   0  0  0  0  0  0  0  0  0  0  0  0  # atno 6908 bound_to 6896
  152.3014  133.5623  159.5657 H   0  0  0  0  0  0  0  0  0  0  0  0  # atno 6909 bound_to 6896
  144.7189  140.2253  143.6311 H   0  0  0  0  0  0  0  0  0  0  0  0  # atno 7974 bound_to 7965
  156.2898  140.2662  156.2319 H   0  0  0  0  0  0  0  0  0  0  0  0  # atno 8008 bound_to 7997
  155.0064  140.0387  157.2399 H   0  0  0  0  0  0  0  0  0  0  0  0  # atno 8009 bound_to 7997
  154.7556  140.2751  155.6261 H   0  0  0  0  0  0  0  0  0  0  0  0  # atno 8010 bound_to 7997
  140.4825  143.2399  151.8035 H   0  0  0  0  0  0  0  0  0  0  0  0  # atno 10167 bound_to 10162
  156.4723  130.8264  151.2493 H   0  0  0  0  0  0  0  0  0  0  0  0  # atno 10718 bound_to 10713
  154.8567  135.3543  154.5762 H   0  0  0  0  0  0  0  0  0  0  0  0  # atno 10763 bound_to 10752
  153.6373  135.7000  153.5258 H   0  0  0  0  0  0  0  0  0  0  0  0  # atno 10764 bound_to 10752
  153.3000  135.4209  155.1203 H   0  0  0  0  0  0  0  0  0  0  0  0  # atno 10765 bound_to 10752
  140.1998  134.8346  157.3005 H   0  0  0  0  0  0  0  0  0  0  0  0  # atno 11005 bound_to 11000
  145.8463  139.2153  143.1798 LP  0  0  0  0  0  0  0  0  0  0  0  0  # atno 17320 bound_to 7965
  146.0301  140.8266  142.9880 LP  0  0  0  0  0  0  0  0  0  0  0  0  # atno 17321 bound_to 7965
  139.4836  144.4754  151.9373 LP  0  0  0  0  0  0  0  0  0  0  0  0  # atno 17342 bound_to 10162
  140.3840  144.2701  150.5906 LP  0  0  0  0  0  0  0  0  0  0  0  0  # atno 17343 bound_to 10162
  157.7490  131.0072  150.3181 LP  0  0  0  0  0  0  0  0  0  0  0  0  # atno 17370 bound_to 10713
  156.3606  130.3846  149.7255 LP  0  0  0  0  0  0  0  0  0  0  0  0  # atno 17371 bound_to 10713
  140.2067  134.4188  155.7634 LP  0  0  0  0  0  0  0  0  0  0  0  0  # atno 17394 bound_to 11000
  141.2227  133.7098  156.8272 LP  0  0  0  0  0  0  0  0  0  0  0  0  # atno 17395 bound_to 11000

$$$$
