AV-unprocessed.smi:625|AV-procd|sdf|3105|dock3
  -GOLD-   22720 0 23D 1   1.00000     0.00000
 Structure written by MMmdl.
 49 51  0  0  0  0  0  0  0  0  1 V2000
  143.9257  147.5676  153.4096 C   0  0  0  0  0  0  0  0  0  0  0  0
  144.4703  146.3043  153.8820 N   0  0  0  0  0  0  0  0  0  0  0  0
  145.3079  145.5212  153.1796 C   0  0  0  0  0  0  0  0  0  0  0  0
  145.6756  145.8238  152.0438 O   0  0  0  0  0  0  0  0  0  0  0  0
  145.7387  144.3141  153.8906 C   0  0  0  0  0  0  0  0  0  0  0  0
  144.9648  143.8379  155.0203 C   0  0  0  0  0  0  0  0  0  0  0  0
  145.3108  142.7060  155.6650 C   0  0  0  0  0  0  0  0  0  0  0  0
  146.4749  141.9117  155.2600 C   0  0  0  0  0  0  0  0  0  0  0  0
  146.7784  140.8632  155.8289 O   0  0  0  0  0  0  0  0  0  0  0  0
  147.1958  142.4102  154.2107 N   0  0  0  0  0  0  0  0  0  0  0  0
  148.3659  141.6998  153.6707 C   0  0  0  0  0  0  0  0  0  0  0  0
  149.3003  141.2582  154.8017 C   0  0  0  0  0  0  0  0  0  0  0  0
  149.8299  140.1472  154.7713 O   0  0  0  0  0  0  0  0  0  0  0  0
  149.5093  142.1582  155.7747 N   0  0  0  0  0  0  0  0  0  0  0  0
  150.4972  142.0497  156.8461 C   0  0  2  0  0  0  0  0  0  0  0  0
  150.2374  140.7462  157.6189 C   0  0  0  0  0  0  0  0  0  0  0  0
  150.4138  143.3127  157.7418 C   0  0  2  0  0  0  0  0  0  0  0  0
  151.7592  144.0703  157.8961 C   0  0  0  0  0  0  0  0  0  0  0  0
  151.9255  144.1959  159.4193 C   0  0  1  0  0  0  0  0  0  0  0  0
  150.8733  145.1720  159.9754 C   0  0  0  0  0  0  0  0  0  0  0  0
  149.5692  144.3593  159.8671 C   0  0  0  0  0  0  0  0  0  0  0  0
  150.0402  143.0416  159.2208 C   0  0  2  0  0  0  0  0  0  0  0  0
  151.3971  142.8481  159.8912 C   0  0  0  0  0  0  0  0  0  0  0  0
  146.8256  143.5936  153.5401 C   0  0  0  0  0  0  0  0  0  0  0  0
  143.2885  148.0061  154.1776 H   0  0  0  0  0  0  0  0  0  0  0  0
  143.3262  147.4201  152.5104 H   0  0  0  0  0  0  0  0  0  0  0  0
  144.7247  148.2752  153.1850 H   0  0  0  0  0  0  0  0  0  0  0  0
  144.2067  146.0080  154.8105 H   0  0  0  0  0  0  0  0  0  0  0  0
  144.0971  144.3862  155.3586 H   0  0  0  0  0  0  0  0  0  0  0  0
  144.7150  142.3729  156.5021 H   0  0  0  0  0  0  0  0  0  0  0  0
  148.0272  140.8330  153.1000 H   0  0  0  0  0  0  0  0  0  0  0  0
  148.9353  142.3054  152.9641 H   0  0  0  0  0  0  0  0  0  0  0  0
  149.0069  143.0321  155.7170 H   0  0  0  0  0  0  0  0  0  0  0  0
  151.5014  141.9915  156.4235 H   0  0  0  0  0  0  0  0  0  0  0  0
  150.9908  140.5737  158.3866 H   0  0  0  0  0  0  0  0  0  0  0  0
  150.2611  139.8854  156.9497 H   0  0  0  0  0  0  0  0  0  0  0  0
  149.2618  140.7603  158.1060 H   0  0  0  0  0  0  0  0  0  0  0  0
  149.6753  143.9837  157.2997 H   0  0  0  0  0  0  0  0  0  0  0  0
  152.5954  143.5002  157.4893 H   0  0  0  0  0  0  0  0  0  0  0  0
  151.7492  145.0395  157.3965 H   0  0  0  0  0  0  0  0  0  0  0  0
  152.9453  144.4262  159.7292 H   0  0  0  0  0  0  0  0  0  0  0  0
  151.0842  145.4216  161.0161 H   0  0  0  0  0  0  0  0  0  0  0  0
  150.8337  146.1025  159.4078 H   0  0  0  0  0  0  0  0  0  0  0  0
  149.1520  144.1747  160.8580 H   0  0  0  0  0  0  0  0  0  0  0  0
  148.8072  144.8686  159.2760 H   0  0  0  0  0  0  0  0  0  0  0  0
  149.3375  142.2231  159.3719 H   0  0  0  0  0  0  0  0  0  0  0  0
  151.9613  141.9999  159.4999 H   0  0  0  0  0  0  0  0  0  0  0  0
  151.3353  142.7643  160.9777 H   0  0  0  0  0  0  0  0  0  0  0  0
  147.4790  143.8434  152.7160 H   0  0  0  0  0  0  0  0  0  0  0  0
  1  2  1  0  0  0  0
  1 25  1  0  0  0  0
  1 26  1  0  0  0  0
  1 27  1  0  0  0  0
  2  3  1  0  0  0  0
  2 28  1  0  0  0  0
  3  4  2  0  0  0  0
  3  5  1  0  0  0  0
  5 24  2  0  0  0  0
  5  6  1  0  0  0  0
  6  7  2  0  0  0  0
  6 29  1  0  0  0  0
  7  8  1  0  0  0  0
  7 30  1  0  0  0  0
  8  9  2  0  0  0  0
  8 10  1  0  0  0  0
 10 11  1  0  0  0  0
 10 24  1  0  0  0  0
 11 12  1  0  0  0  0
 11 31  1  0  0  0  0
 11 32  1  0  0  0  0
 12 13  2  0  0  0  0
 12 14  1  0  0  0  0
 14 15  1  0  0  0  0
 14 33  1  0  0  0  0
 15 16  1  0  0  0  0
 15 17  1  0  0  0  0
 15 34  1  0  0  0  0
 16 35  1  0  0  0  0
 16 36  1  0  0  0  0
 16 37  1  0  0  0  0
 17 22  1  0  0  0  0
 17 18  1  0  0  0  0
 17 38  1  0  0  0  0
 18 19  1  0  0  0  0
 18 39  1  0  0  0  0
 18 40  1  0  0  0  0
 19 23  1  0  0  0  0
 19 20  1  0  0  0  0
 19 41  1  0  0  0  0
 20 21  1  0  0  0  0
 20 42  1  0  0  0  0
 20 43  1  0  0  0  0
 21 22  1  0  0  0  0
 21 44  1  0  0  0  0
 21 45  1  0  0  0  0
 22 23  1  0  0  0  0
 22 46  1  0  0  0  0
 23 47  1  0  0  0  0
 23 48  1  0  0  0  0
 24 49  1  0  0  0  0
M  END
> <s_m_source_file>
AV-unprocessed.smi

> <i_m_source_file_index>
625

> <i_lp_mmshare_version>
43012

> <i_f3d_flags>
0

> <s_epik_input>
W0NIM11bTkhdQyg9TyljMVtjSF1bY0hdYyg9TyluKFtjSF0xKVtDSDJdQyg9TylbTkhdW0NASF0oW0NIM10pW0NASF0oW0NIMl1bQ0BIXTIzKVtDQEhdKFtDSDJdMylbQ0gyXVtDSDJdMg==

> <s_epik_cmdline>
J2VwaWtfcHl0aG9uJywgJy1waCcsICc3LjAnLCAnLXRuJywgJzgnLCAnLW1hJywgJzIwMCcsICctbWV0YWxfYmluZGluZycsICctaW1hZScsICc8aW5maWxlLm1hZT4nLCAnLW9tYWUnLCAnPG91dGZpbGUubWFlPic=

> <r_lp_tautomer_probability>
1

> <r_epik_Ionization_Penalty>
3.7129e-07

> <r_epik_Ionization_Penalty_Charging>
5.04114e-08

> <r_epik_Ionization_Penalty_Neutral>
3.20879e-07

> <r_epik_State_Penalty>
-0

> <r_epik_Charging_Adjusted_Penalty>
5.04114e-08

> <i_epik_Tot_Q>
0

> <i_epik_Tot_abs_Q>
0

> <r_epik_Metal_State_Penalty>
-0

> <b_epik_Metal_Only>
0

> <s_lp_Force_Field>
OPLS_2005

> <r_lp_Energy>
64.2087

> <b_lp_Chiralities_Consistent>
1

> <s_lp_Variant>
AV-unprocessed.smi:625-5

> <Gold.Version>
5.8.1

> <Gold.Id.Protein>
6NUR|6NUR_protein|mol2

> <Gold.PLP.Fitness>
55.8755

> <Gold.PLP.PLP>
-54.1207

> <Gold.PLP.part.hbond>
-2.7513

> <Gold.PLP.part.metal>
0.0000

> <Gold.PLP.part.buried>
-5.3712

> <Gold.PLP.part.nonpolar>
-46.7814

> <Gold.PLP.part.repulsive>
0.4699

> <Gold.PLP.ligand.clash>
0.0000

> <Gold.PLP.ligand.torsion>
2.0584

> <Gold.PLP.Chemscore.Hbond>
1.9280

> <Gold.PLP.Chemscore.CHOScore>
0.0000

> <Gold.PLP.Chemscore.Metal>
0.0000

> <Gold.Chemscore.Hbonds>
donor molecule, donor type, donor heavy atom, donor atom, acceptor molecule, acceptor atom, score
      L1  H    14    33       P1  8028  1.00
      P1  H  7989  7998       L1    13  0.19

> <Gold.PLP.Chemscore.Internal.Correction>
0.0876

> <Gold.Rescore>
     Score         DG    S(hbond)    S(metal)    S(lipo)     H(rot)  DE(clash)    DE(int)     intcor
     14.03     -20.36       1.52        0.00     120.28       1.67       1.21       5.12       ----

> <Gold.Chemscore.Fitness>
14.0312

> <Gold.Chemscore.DG>
-20.3621

> <Gold.Chemscore.ZeroCoef>
-5.4800

> <Gold.Chemscore.Hbond>
1.5229

> <Gold.Chemscore.Metal>
0.0000

> <Gold.Chemscore.Lipo>
120.2832

> <Gold.Chemscore.Internal_Hbond>
0.0000

> <Gold.Chemscore.DEClash>
1.2077

> <Gold.Chemscore.DEInternal>
5.1233

> <Gold.Chemscore.Rot>
1.6709

> <Gold.Chemscore.Internal.Correction>
   9.000000E+99

> <Gold.Chemscore.Hbonds>
donor molecule, donor type, donor heavy atom, donor atom, acceptor molecule, acceptor atom, score
      L1  H    14    33       P1  8028  0.98
      P1  H  7989  7998       L1    13  0.02

> <Gold.Chemscore.Hbond.Weighted>
-5.0864

> <Gold.Chemscore.Metal.Weighted>
-0.0000

> <Gold.Chemscore.Lipo.Weighted>
-14.0731

> <Gold.Chemscore.Internal_Hbond.Weighted>
0.0000

> <Gold.Chemscore.DEClash.Weighted>
1.2077

> <Gold.Chemscore.DEInternal.Weighted>
5.1233

> <Gold.Chemscore.Rot.Weighted>
4.2774

> <Gold.Chemscore.Internal.Correction.Weighted>
   9.000000E+99

> <Gold.Protein.RotatedTorsions>
[ 6907 6896 6895 6894 ] final  157.05 input  -60.11 | X-H torsion
[ 7974 7965 7964 7962 ] final  -83.55 input  175.53 | X-H torsion
[ 8008 7997 7996 7995 ] final -172.38 input   59.86 | X-H torsion
[ 10167 10162 10161 10158 ] final  140.90 input  -65.29 | X-H torsion
[ 10718 10713 10712 10709 ] final  -72.93 input   66.30 | X-H torsion
[ 10763 10752 10751 10750 ] final   53.41 input  -60.55 | X-H torsion
[ 11005 11000 10999 10996 ] final    1.60 input  -57.11 | X-H torsion

> <Gold.Protein.ActiveResidues>
 VAL166  LYS551  ARG553  GLY616  TRP617  ASP618  TYR619  PRO620  LYS621  CYS622 
 ASP623  PHE694  ASN695  SER759  ASP760  ASP761  ALA762  ILE779  LEU786  VAL792 
 PHE793  MET794  SER795  GLU796  ALA797  LYS798  CYS799  TRP800  GLU811  SER814 

> <Gold.Protein.RotatedAtoms>
  152.0208  133.3898  159.4256 H   0  0  0  0  0  0  0  0  0  0  0  0  # atno 6907 bound_to 6896
  150.6890  134.3628  159.4967 H   0  0  0  0  0  0  0  0  0  0  0  0  # atno 6908 bound_to 6896
  152.1402  134.9068  160.0605 H   0  0  0  0  0  0  0  0  0  0  0  0  # atno 6909 bound_to 6896
  145.5185  140.9533  143.1668 H   0  0  0  0  0  0  0  0  0  0  0  0  # atno 7974 bound_to 7965
  155.9438  140.1113  157.1033 H   0  0  0  0  0  0  0  0  0  0  0  0  # atno 8008 bound_to 7997
  154.4095  140.1214  156.5028 H   0  0  0  0  0  0  0  0  0  0  0  0  # atno 8009 bound_to 7997
  155.6928  140.3472  155.4903 H   0  0  0  0  0  0  0  0  0  0  0  0  # atno 8010 bound_to 7997
  139.5036  144.6205  151.6061 H   0  0  0  0  0  0  0  0  0  0  0  0  # atno 10167 bound_to 10162
  156.0300  130.4383  150.2667 H   0  0  0  0  0  0  0  0  0  0  0  0  # atno 10718 bound_to 10713
  152.9795  135.5780  154.4737 H   0  0  0  0  0  0  0  0  0  0  0  0  # atno 10763 bound_to 10752
  154.4296  135.2773  155.1923 H   0  0  0  0  0  0  0  0  0  0  0  0  # atno 10764 bound_to 10752
  154.3637  135.6183  153.5758 H   0  0  0  0  0  0  0  0  0  0  0  0  # atno 10765 bound_to 10752
  140.6136  133.9725  155.8189 H   0  0  0  0  0  0  0  0  0  0  0  0  # atno 11005 bound_to 11000
  144.7689  139.6781  143.7203 LP  0  0  0  0  0  0  0  0  0  0  0  0  # atno 17320 bound_to 7965
  146.2121  139.5485  142.9674 LP  0  0  0  0  0  0  0  0  0  0  0  0  # atno 17321 bound_to 7965
  140.5906  143.9786  150.6322 LP  0  0  0  0  0  0  0  0  0  0  0  0  # atno 17342 bound_to 10162
  140.2965  143.3289  152.1013 LP  0  0  0  0  0  0  0  0  0  0  0  0  # atno 17343 bound_to 10162
  157.0769  131.0132  151.3170 LP  0  0  0  0  0  0  0  0  0  0  0  0  # atno 17370 bound_to 10713
  157.4957  130.7849  149.7553 LP  0  0  0  0  0  0  0  0  0  0  0  0  # atno 17371 bound_to 10713
  141.0791  134.0090  157.3413 LP  0  0  0  0  0  0  0  0  0  0  0  0  # atno 17394 bound_to 11000
  139.9182  135.0198  156.7963 LP  0  0  0  0  0  0  0  0  0  0  0  0  # atno 17395 bound_to 11000

$$$$
