#       Name:                AV-unprocessed.smi:2196
#       Creating user name   scv26
#       Creation time:       Fri Mar 27 12:12:35 2020


#       File generated by GOLD software.
#

@<TRIPOS>MOLECULE
AV-unprocessed.smi:2196
    51    52     1
SMALL
NO_CHARGES


@<TRIPOS>ATOM
      1 ****        -3.4335  -2.3497   2.2291 C.3            1 S1                 0.0000
      2 ****        -2.6852  -1.0350   1.9729 C.3            1 S1                 0.0000
      3 ****        -1.8801  -1.0855   0.7554 N.pl3          1 S1                 0.0000
      4 ****        -2.6140  -1.1339  -0.5095 C.3            1 S1                 0.0000
      5 ****        -1.9834  -0.3086  -1.6176 C.ar           1 S1                 0.0000
      6 ****        -2.0659   1.0990  -1.5829 C.ar           1 S1                 0.0000
      7 ****        -1.4568   1.8685  -2.5931 C.ar           1 S1                 0.0000
      8 ****        -0.7620   1.2327  -3.6401 C.ar           1 S1                 0.0000
      9 ****        -0.6764  -0.1724  -3.6769 C.ar           1 S1                 0.0000
     10 ****        -1.2859  -0.9423  -2.6674 C.ar           1 S1                 0.0000
     11 ****        -0.4894  -1.1869   0.8058 C.2            1 S1                 0.0000
     12 ****         0.3098  -1.1905  -0.3016 C.2            1 S1                 0.0000
     13 ****        -0.2562  -1.1305  -1.5654 N.pl3          1 S1                 0.0000
     14 ****         1.7032  -1.2489  -0.2080 N.am           1 S1                 0.0000
     15 ****         2.5862  -1.2287  -1.3566 C.3            1 S1                 0.0000
     16 ****         2.9814   0.1973  -1.7668 C.3            1 S1                 0.0000
     17 ****         3.7978   0.1302  -2.9232 O.3            1 S1                 0.0000
     18 ****         4.2048   1.4103  -3.3736 C.3            1 S1                 0.0000
     19 ****         2.3283  -1.2650   1.0612 C.2            1 S1                 0.0000
     20 ****         3.5496  -1.2691   1.2191 O.2            1 S1                 0.0000
     21 ****         1.4971  -1.2711   2.1749 N.am           1 S1                 0.0000
     22 ****         0.1054  -1.2390   2.1477 C.2            1 S1                 0.0000
     23 ****        -0.5167  -1.2411   3.2096 O.2            1 S1                 0.0000
     24 ****         1.9402  -1.2891   3.0817 H              1 S1                 0.0000
     25 ****        -4.0058  -2.2937   3.1552 H              1 S1                 0.0000
     26 ****        -2.7387  -3.1852   2.3183 H              1 S1                 0.0000
     27 ****        -4.1319  -2.5776   1.4236 H              1 S1                 0.0000
     28 ****        -3.3918  -0.2070   1.9046 H              1 S1                 0.0000
     29 ****        -2.0473  -0.8169   2.8305 H              1 S1                 0.0000
     30 ****        -2.7148  -2.1705  -0.8310 H              1 S1                 0.0000
     31 ****        -3.6320  -0.7690  -0.3658 H              1 S1                 0.0000
     32 ****        -2.5887   1.5907  -0.7755 H              1 S1                 0.0000
     33 ****        -1.5189   2.9462  -2.5620 H              1 S1                 0.0000
     34 ****        -0.2928   1.8230  -4.4132 H              1 S1                 0.0000
     35 ****        -0.1404  -0.6599  -4.4777 H              1 S1                 0.0000
     36 ****        -1.2079  -2.0193  -2.6960 H              1 S1                 0.0000
     37 ****        -1.2567  -1.0835  -1.6937 H              1 S1                 0.0000
     38 ****         0.3015  -1.2022  -2.4042 H              1 S1                 0.0000
     39 ****         3.4564  -1.8480  -1.1319 H              1 S1                 0.0000
     40 ****         2.0718  -1.7481  -2.1645 H              1 S1                 0.0000
     41 ****         2.0885   0.7892  -1.9751 H              1 S1                 0.0000
     42 ****         3.5216   0.6899  -0.9567 H              1 S1                 0.0000
     43 ****         4.8285   1.3054  -4.2612 H              1 S1                 0.0000
     44 ****         4.7883   1.9292  -2.6120 H              1 S1                 0.0000
     45 ****         3.3448   2.0274  -3.6371 H              1 S1                 0.0000
     46 ****         3.2831  -0.3183  -3.6538 LP             1 S1                 0.0000
     47 ****         4.6125  -0.4090  -2.7099 LP             1 S1                 0.0000
     48 ****         4.1565  -1.2608   0.4244 LP             1 S1                 0.0000
     49 ****         3.9344  -1.2807   2.1421 LP             1 S1                 0.0000
     50 ****        -1.5160  -1.2052   3.2037 LP             1 S1                 0.0000
     51 ****        -0.0228  -1.2787   4.0784 LP             1 S1                 0.0000
@<TRIPOS>BOND
    1    1    2 1     
    2    1   25 1     
    3    1   26 1     
    4    1   27 1     
    5    2    3 1     
    6    2   28 1     
    7    2   29 1     
    8    3    4 1     
    9    3   11 1     
   10    4    5 1     
   11    4   30 1     
   12    4   31 1     
   13    5   10 ar    
   14    5    6 ar    
   15    6    7 ar    
   16    6   32 1     
   17    7    8 ar    
   18    7   33 1     
   19    8    9 ar    
   20    8   34 1     
   21    9   10 ar    
   22    9   35 1     
   23   10   36 1     
   24   11   22 1     
   25   11   12 2     
   26   12   13 1     
   27   12   14 1     
   28   13   37 1     
   29   13   38 1     
   30   14   15 1     
   31   14   19 1     
   32   15   16 1     
   33   15   39 1     
   34   15   40 1     
   35   16   17 1     
   36   16   41 1     
   37   16   42 1     
   38   17   18 1     
   39   18   43 1     
   40   18   44 1     
   41   18   45 1     
   42   19   20 2     
   43   19   21 1     
   44   21   24 1     
   45   21   22 1     
   46   22   23 2     
   47   17   46 1     
   48   17   47 1     
   49   20   48 1     
   50   20   49 1     
   51   23   50 1     
   52   23   51 1     
@<TRIPOS>SUBSTRUCTURE
      1 S1             1
@<TRIPOS>SET
LONE_PAIRS      STATIC     ATOMS    <user>   **** ""
6 46 47 48 49 50 51
DONOR_HYDROGENS      STATIC     ATOMS    <user>   **** ""
3 37 38 24
ATOM$BLUE        STATIC     ATOMS    COLORGROUP SYSTEM
6 46 47 48 49 50 51
ATOM$RED        STATIC     ATOMS    COLORGROUP SYSTEM
3 37 38 24
