AV-unprocessed.smi:1311|AV-procd|sdf|5446|dock5
  -GOLD-   22720 5 13D 1   1.00000     0.00000
 Structure written by MMmdl.
 46 47  0  0  0  0  0  0  0  0  2 V2000
  143.4970  136.6194  153.5671 C   0  0  0  0  0  0  0  0  0  0  0  0
  144.5726  135.7683  154.2615 C   0  0  0  0  0  0  0  0  0  0  0  0
  146.0260  136.0409  153.7857 C   0  0  2  0  0  0  0  0  0  0  0  0
  146.3884  137.5502  153.8040 C   0  0  0  0  0  0  0  0  0  0  0  0
  147.8203  137.7824  153.6312 N   0  0  0  0  0  0  0  0  0  0  0  0
  148.6284  138.4005  154.5068 C   0  0  0  0  0  0  0  0  0  0  0  0
  148.2473  138.8481  155.5877 O   0  0  0  0  0  0  0  0  0  0  0  0
  150.0950  138.5386  154.0989 C   0  0  0  0  0  0  0  0  0  0  0  0
  150.8455  139.2993  155.1603 C   0  0  0  0  0  0  0  0  0  0  0  0
  152.0922  138.9632  155.7621 C   0  0  0  0  0  0  0  0  0  0  0  0
  152.9677  137.7734  155.4905 C   0  0  0  0  0  0  0  0  0  0  0  0
  152.4631  139.8578  156.6629 N   0  0  0  0  0  0  0  0  0  0  0  0
  151.4537  140.8249  156.6803 O   0  0  0  0  0  0  0  0  0  0  0  0
  150.5036  140.4707  155.7781 C   0  0  0  0  0  0  0  0  0  0  0  0
  149.3307  141.3820  155.6449 C   0  0  0  0  0  0  0  0  0  0  0  0
  146.2776  135.4224  152.4497 N   0  3  0  0  0  0  0  0  0  0  0  0
  146.2054  133.9457  152.3945 C   0  0  0  0  0  0  0  0  0  0  0  0
  146.0042  133.6140  150.9205 C   0  0  0  0  0  0  0  0  0  0  0  0
  145.0904  134.7347  150.4397 C   0  0  0  0  0  0  0  0  0  0  0  0
  145.4243  135.9291  151.3440 C   0  0  0  0  0  0  0  0  0  0  0  0
  142.5083  136.3796  153.9587 H   0  0  0  0  0  0  0  0  0  0  0  0
  143.4746  136.4393  152.4924 H   0  0  0  0  0  0  0  0  0  0  0  0
  143.6581  137.6850  153.7238 H   0  0  0  0  0  0  0  0  0  0  0  0
  144.5009  135.9233  155.3380 H   0  0  0  0  0  0  0  0  0  0  0  0
  144.3238  134.7165  154.1225 H   0  0  0  0  0  0  0  0  0  0  0  0
  146.6950  135.5464  154.4921 H   0  0  0  0  0  0  0  0  0  0  0  0
  145.9051  138.0700  152.9774 H   0  0  0  0  0  0  0  0  0  0  0  0
  146.0138  138.0234  154.7129 H   0  0  0  0  0  0  0  0  0  0  0  0
  148.2312  137.4555  152.7684 H   0  0  0  0  0  0  0  0  0  0  0  0
  150.5130  137.5418  153.9546 H   0  0  0  0  0  0  0  0  0  0  0  0
  150.1623  139.0357  153.1301 H   0  0  0  0  0  0  0  0  0  0  0  0
  153.3770  137.8151  154.4811 H   0  0  0  0  0  0  0  0  0  0  0  0
  152.4031  136.8455  155.5808 H   0  0  0  0  0  0  0  0  0  0  0  0
  153.8056  137.7188  156.1865 H   0  0  0  0  0  0  0  0  0  0  0  0
  148.3997  140.8389  155.8058 H   0  0  0  0  0  0  0  0  0  0  0  0
  149.2976  141.8229  154.6489 H   0  0  0  0  0  0  0  0  0  0  0  0
  149.3772  142.1931  156.3719 H   0  0  0  0  0  0  0  0  0  0  0  0
  147.1035  133.4767  152.7972 H   0  0  0  0  0  0  0  0  0  0  0  0
  145.3466  133.5959  152.9702 H   0  0  0  0  0  0  0  0  0  0  0  0
  146.9588  133.6618  150.3950 H   0  0  0  0  0  0  0  0  0  0  0  0
  145.5804  132.6220  150.7620 H   0  0  0  0  0  0  0  0  0  0  0  0
  145.2267  134.9580  149.3812 H   0  0  0  0  0  0  0  0  0  0  0  0
  144.0489  134.4453  150.5852 H   0  0  0  0  0  0  0  0  0  0  0  0
  144.4999  136.3729  151.7159 H   0  0  0  0  0  0  0  0  0  0  0  0
  145.9674  136.7008  150.7975 H   0  0  0  0  0  0  0  0  0  0  0  0
  147.2267  135.6564  152.1947 H   0  0  0  0  0  0  0  0  0  0  0  0
  1  2  1  0  0  0  0
  1 21  1  0  0  0  0
  1 22  1  0  0  0  0
  1 23  1  0  0  0  0
  2  3  1  0  0  0  0
  2 24  1  0  0  0  0
  2 25  1  0  0  0  0
  3  4  1  0  0  0  0
  3 16  1  0  0  0  0
  3 26  1  0  0  0  0
  4  5  1  0  0  0  0
  4 27  1  0  0  0  0
  4 28  1  0  0  0  0
  5  6  1  0  0  0  0
  5 29  1  0  0  0  0
  6  7  2  0  0  0  0
  6  8  1  0  0  0  0
  8  9  1  0  0  0  0
  8 30  1  0  0  0  0
  8 31  1  0  0  0  0
  9 14  2  0  0  0  0
  9 10  1  0  0  0  0
 10 11  1  0  0  0  0
 10 12  2  0  0  0  0
 11 32  1  0  0  0  0
 11 33  1  0  0  0  0
 11 34  1  0  0  0  0
 12 13  1  0  0  0  0
 13 14  1  0  0  0  0
 14 15  1  0  0  0  0
 15 35  1  0  0  0  0
 15 36  1  0  0  0  0
 15 37  1  0  0  0  0
 16 20  1  0  0  0  0
 16 17  1  0  0  0  0
 16 46  1  0  0  0  0
 17 18  1  0  0  0  0
 17 38  1  0  0  0  0
 17 39  1  0  0  0  0
 18 19  1  0  0  0  0
 18 40  1  0  0  0  0
 18 41  1  0  0  0  0
 19 20  1  0  0  0  0
 19 42  1  0  0  0  0
 19 43  1  0  0  0  0
 20 44  1  0  0  0  0
 20 45  1  0  0  0  0
M  CHG  1  16   1
M  END
> <s_m_source_file>
AV-unprocessed.smi

> <i_m_source_file_index>
1311

> <i_lp_mmshare_version>
43012

> <i_f3d_flags>
0

> <s_epik_input>
W0NIMl0xW0NIMl1bQ0gyXVtDSDJdTjFbQ0BIXShbQ0gyXVtDSDNdKVtDSDJdW05IXUMoPU8pW0NIMl1jMmMoW0NIM10pbm9jMltDSDNd

> <s_epik_cmdline>
J2VwaWtfcHl0aG9uJywgJy1waCcsICc3LjAnLCAnLXRuJywgJzgnLCAnLW1hJywgJzIwMCcsICctbWV0YWxfYmluZGluZycsICctaW1hZScsICc8aW5maWxlLm1hZT4nLCAnLW9tYWUnLCAnPG91dGZpbGUubWFlPic=

> <r_epik_Ionization_Penalty>
0.00366311

> <r_epik_Ionization_Penalty_Charging>
0.00366302

> <r_epik_Ionization_Penalty_Neutral>
9.25085e-08

> <r_epik_State_Penalty>
0.00260703

> <r_epik_Charging_Adjusted_Penalty>
0.00627005

> <i_epik_Tot_Q>
1

> <i_epik_Tot_abs_Q>
1

> <r_epik_Metal_State_Penalty>
-0

> <b_epik_Metal_Only>
0

> <s_lp_Force_Field>
OPLS_2005

> <r_lp_Energy>
28.3188

> <b_lp_Chiralities_Consistent>
1

> <s_lp_Variant>
AV-unprocessed.smi:1311-1

> <Gold.Version>
5.8.1

> <Gold.Id.Protein>
6NUR|6NUR_protein|mol2

> <Gold.PLP.Fitness>
40.5093

> <Gold.PLP.PLP>
-29.1015

> <Gold.PLP.part.hbond>
-3.0000

> <Gold.PLP.part.metal>
0.0000

> <Gold.PLP.part.buried>
0.3237

> <Gold.PLP.part.nonpolar>
-26.7989

> <Gold.PLP.part.repulsive>
0.0806

> <Gold.PLP.ligand.clash>
0.0000

> <Gold.PLP.ligand.torsion>
0.3069

> <Gold.PLP.Chemscore.Hbond>
3.9440

> <Gold.PLP.Chemscore.CHOScore>
0.0000

> <Gold.PLP.Chemscore.Metal>
0.0000

> <Gold.Chemscore.Hbonds>
donor molecule, donor type, donor heavy atom, donor atom, acceptor molecule, acceptor atom, score
      L1  H     5    29       P1  7948  1.00
      L1  H    16    46       P1  7948  2.00
      P1  H  7997  8010       L1    12  1.00

> <Gold.PLP.Chemscore.Internal.Correction>
0.1896

> <Gold.Rescore>
     Score         DG    S(hbond)    S(metal)    S(lipo)     H(rot)  DE(clash)    DE(int)     intcor
     15.66     -18.43       2.69        0.00      73.37       1.80       0.53       2.24       ----

> <Gold.Chemscore.Fitness>
15.6603

> <Gold.Chemscore.DG>
-18.4297

> <Gold.Chemscore.ZeroCoef>
-5.4800

> <Gold.Chemscore.Hbond>
2.6870

> <Gold.Chemscore.Metal>
0.0000

> <Gold.Chemscore.Lipo>
73.3693

> <Gold.Chemscore.Internal_Hbond>
0.0000

> <Gold.Chemscore.DEClash>
0.5252

> <Gold.Chemscore.DEInternal>
2.2442

> <Gold.Chemscore.Rot>
1.8004

> <Gold.Chemscore.Internal.Correction>
   9.000000E+99

> <Gold.Chemscore.Hbonds>
donor molecule, donor type, donor heavy atom, donor atom, acceptor molecule, acceptor atom, score
      L1  H     5    29       P1  7948  0.95
      L1  H    16    46       P1  7948  1.00
      P1  H  7997  8010       L1    12  0.65

> <Gold.Chemscore.Hbond.Weighted>
-8.9744

> <Gold.Chemscore.Metal.Weighted>
-0.0000

> <Gold.Chemscore.Lipo.Weighted>
-8.5842

> <Gold.Chemscore.Internal_Hbond.Weighted>
0.0000

> <Gold.Chemscore.DEClash.Weighted>
0.5252

> <Gold.Chemscore.DEInternal.Weighted>
2.2442

> <Gold.Chemscore.Rot.Weighted>
4.6090

> <Gold.Chemscore.Internal.Correction.Weighted>
   9.000000E+99

> <Gold.Protein.RotatedTorsions>
[ 6907 6896 6895 6894 ] final  -53.77 input  -60.11 | X-H torsion
[ 7974 7965 7964 7962 ] final   80.96 input  175.53 | X-H torsion
[ 8008 7997 7996 7995 ] final   69.21 input   59.86 | X-H torsion
[ 10167 10162 10161 10158 ] final -133.51 input  -65.29 | X-H torsion
[ 10718 10713 10712 10709 ] final -117.98 input   66.30 | X-H torsion
[ 10763 10752 10751 10750 ] final   69.14 input  -60.55 | X-H torsion
[ 11005 11000 10999 10996 ] final  114.67 input  -57.11 | X-H torsion

> <Gold.Protein.ActiveResidues>
 VAL166  LYS551  ARG553  GLY616  TRP617  ASP618  TYR619  PRO620  LYS621  CYS622 
 ASP623  PHE694  ASN695  SER759  ASP760  ASP761  ALA762  ILE779  LEU786  VAL792 
 PHE793  MET794  SER795  GLU796  ALA797  LYS798  CYS799  TRP800  GLU811  SER814 

> <Gold.Protein.RotatedAtoms>
  150.8397  134.7684  159.6921 H   0  0  0  0  0  0  0  0  0  0  0  0  # atno 6907 bound_to 6896
  152.4486  134.5438  159.9856 H   0  0  0  0  0  0  0  0  0  0  0  0  # atno 6908 bound_to 6896
  151.5580  133.3369  159.3001 H   0  0  0  0  0  0  0  0  0  0  0  0  # atno 6909 bound_to 6896
  145.6444  139.2433  143.2012 H   0  0  0  0  0  0  0  0  0  0  0  0  # atno 7974 bound_to 7965
  155.7201  140.3493  155.5012 H   0  0  0  0  0  0  0  0  0  0  0  0  # atno 8008 bound_to 7997
  155.9277  140.1078  157.1179 H   0  0  0  0  0  0  0  0  0  0  0  0  # atno 8009 bound_to 7997
  154.4080  140.1237  156.4749 H   0  0  0  0  0  0  0  0  0  0  0  0  # atno 8010 bound_to 7997
  139.8975  143.6648  152.2601 H   0  0  0  0  0  0  0  0  0  0  0  0  # atno 10167 bound_to 10162
  156.1073  130.6220  150.9233 H   0  0  0  0  0  0  0  0  0  0  0  0  # atno 10718 bound_to 10713
  153.0271  135.5221  154.7243 H   0  0  0  0  0  0  0  0  0  0  0  0  # atno 10763 bound_to 10752
  154.6289  135.2898  155.0242 H   0  0  0  0  0  0  0  0  0  0  0  0  # atno 10764 bound_to 10752
  154.1201  135.6609  153.4954 H   0  0  0  0  0  0  0  0  0  0  0  0  # atno 10765 bound_to 10752
  139.8987  134.9571  156.6928 H   0  0  0  0  0  0  0  0  0  0  0  0  # atno 11005 bound_to 11000
  146.1255  140.7254  142.9437 LP  0  0  0  0  0  0  0  0  0  0  0  0  # atno 17320 bound_to 7965
  144.7145  140.4161  143.7054 LP  0  0  0  0  0  0  0  0  0  0  0  0  # atno 17321 bound_to 7965
  139.7055  144.7628  151.1201 LP  0  0  0  0  0  0  0  0  0  0  0  0  # atno 17342 bound_to 10162
  140.7714  143.5401  150.9323 LP  0  0  0  0  0  0  0  0  0  0  0  0  # atno 17343 bound_to 10162
  157.6251  131.0926  150.8549 LP  0  0  0  0  0  0  0  0  0  0  0  0  # atno 17370 bound_to 10713
  156.8666  130.5131  149.5299 LP  0  0  0  0  0  0  0  0  0  0  0  0  # atno 17371 bound_to 10713
  140.7212  133.9139  155.8148 LP  0  0  0  0  0  0  0  0  0  0  0  0  # atno 17394 bound_to 11000
  141.0226  134.0868  157.4104 LP  0  0  0  0  0  0  0  0  0  0  0  0  # atno 17395 bound_to 11000

$$$$
