AV-unprocessed.smi:1768|AV-procd|sdf|7145|dock10
  -GOLD-   22720 8383D 1   1.00000     0.00000
 Structure written by MMmdl.
 33 34  0  0  0  0  0  0  0  0  1 V2000
  150.9874  142.2079  156.6461 C   0  0  0  0  0  0  0  0  0  0  0  0
  150.6186  141.0751  155.7501 C   0  0  0  0  0  0  0  0  0  0  0  0
  151.5113  140.1859  155.2979 N   0  0  0  0  0  0  0  0  0  0  0  0
  150.9301  139.2250  154.4825 N   0  0  0  0  0  0  0  0  0  0  0  0
  149.6114  139.4190  154.3427 C   0  0  0  0  0  0  0  0  0  0  0  0
  148.7681  138.5842  153.5630 N   0  0  0  0  0  0  0  0  0  0  0  0
  147.4253  138.5841  153.4961 C   0  0  0  0  0  0  0  0  0  0  0  0
  146.6825  139.3381  154.1251 O   0  0  0  0  0  0  0  0  0  0  0  0
  146.9864  137.6458  152.6441 N   0  0  0  0  0  0  0  0  0  0  0  0
  145.5895  137.3800  152.3067 C   0  0  2  0  0  0  0  0  0  0  0  0
  144.7825  137.2464  153.6072 C   0  0  0  0  0  0  0  0  0  0  0  0
  145.5092  136.1143  151.4316 C   0  0  1  0  0  0  0  0  0  0  0  0
  146.1089  134.8578  152.0660 C   0  0  0  0  0  0  0  0  0  0  0  0
  145.3462  133.7171  151.4083 C   0  0  0  0  0  0  0  0  0  0  0  0
  144.1671  134.4049  150.7156 C   0  0  0  0  0  0  0  0  0  0  0  0
  144.1580  135.7264  151.2345 O   0  0  0  0  0  0  0  0  0  0  0  0
  148.9679  140.8066  155.2044 S   0  0  0  0  0  0  0  0  0  0  0  0
  152.0492  142.1750  156.8929 H   0  0  0  0  0  0  0  0  0  0  0  0
  150.4127  142.1532  157.5708 H   0  0  0  0  0  0  0  0  0  0  0  0
  150.7720  143.1567  156.1544 H   0  0  0  0  0  0  0  0  0  0  0  0
  149.2442  137.9085  152.9843 H   0  0  0  0  0  0  0  0  0  0  0  0
  147.6757  137.0768  152.1754 H   0  0  0  0  0  0  0  0  0  0  0  0
  145.1722  138.2141  151.7398 H   0  0  0  0  0  0  0  0  0  0  0  0
  143.7236  137.0876  153.4032 H   0  0  0  0  0  0  0  0  0  0  0  0
  144.8640  138.1500  154.2125 H   0  0  0  0  0  0  0  0  0  0  0  0
  145.1353  136.4086  154.2096 H   0  0  0  0  0  0  0  0  0  0  0  0
  145.9688  136.2925  150.4570 H   0  0  0  0  0  0  0  0  0  0  0  0
  147.1865  134.7866  151.9158 H   0  0  0  0  0  0  0  0  0  0  0  0
  145.9183  134.8489  153.1402 H   0  0  0  0  0  0  0  0  0  0  0  0
  145.9628  133.1835  150.6843 H   0  0  0  0  0  0  0  0  0  0  0  0
  145.0079  132.9987  152.1558 H   0  0  0  0  0  0  0  0  0  0  0  0
  144.3257  134.4449  149.6368 H   0  0  0  0  0  0  0  0  0  0  0  0
  143.2183  133.9018  150.9020 H   0  0  0  0  0  0  0  0  0  0  0  0
  1  2  1  0  0  0  0
  1 18  1  0  0  0  0
  1 19  1  0  0  0  0
  1 20  1  0  0  0  0
  2 17  1  0  0  0  0
  2  3  2  0  0  0  0
  3  4  1  0  0  0  0
  4  5  2  0  0  0  0
  5  6  1  0  0  0  0
  5 17  1  0  0  0  0
  6  7  1  0  0  0  0
  6 21  1  0  0  0  0
  7  8  2  0  0  0  0
  7  9  1  0  0  0  0
  9 10  1  0  0  0  0
  9 22  1  0  0  0  0
 10 11  1  0  0  0  0
 10 12  1  0  0  0  0
 10 23  1  0  0  0  0
 11 24  1  0  0  0  0
 11 25  1  0  0  0  0
 11 26  1  0  0  0  0
 12 16  1  0  0  0  0
 12 13  1  0  0  0  0
 12 27  1  0  0  0  0
 13 14  1  0  0  0  0
 13 28  1  0  0  0  0
 13 29  1  0  0  0  0
 14 15  1  0  0  0  0
 14 30  1  0  0  0  0
 14 31  1  0  0  0  0
 15 16  1  0  0  0  0
 15 32  1  0  0  0  0
 15 33  1  0  0  0  0
M  END
> <s_m_source_file>
AV-unprocessed.smi

> <i_m_source_file_index>
1768

> <i_lp_mmshare_version>
43012

> <i_f3d_flags>
0

> <s_epik_input>
W0NIM11jMW5uYyhzMSlbTkhdQyg9TylbTkhdW0NASF0oW0NIM10pW0NAQEhdMltDSDJdW0NIMl1bQ0gyXU8y

> <s_epik_cmdline>
J2VwaWtfcHl0aG9uJywgJy1waCcsICc3LjAnLCAnLXRuJywgJzgnLCAnLW1hJywgJzIwMCcsICctbWV0YWxfYmluZGluZycsICctaW1hZScsICc8aW5maWxlLm1hZT4nLCAnLW9tYWUnLCAnPG91dGZpbGUubWFlPic=

> <r_lp_tautomer_probability>
1

> <r_epik_Ionization_Penalty>
0.000523083

> <r_epik_Ionization_Penalty_Charging>
0

> <r_epik_Ionization_Penalty_Neutral>
0.000523083

> <r_epik_State_Penalty>
-0

> <r_epik_Charging_Adjusted_Penalty>
0

> <i_epik_Tot_Q>
0

> <i_epik_Tot_abs_Q>
0

> <r_epik_Metal_State_Penalty>
0.223408

> <b_epik_Metal_Only>
0

> <s_lp_Force_Field>
OPLS_2005

> <r_lp_Energy>
16.8898

> <b_lp_Chiralities_Consistent>
1

> <s_lp_Variant>
AV-unprocessed.smi:1768-3

> <Gold.Version>
5.8.1

> <Gold.Id.Protein>
6NUR|6NUR_protein|mol2

> <Gold.PLP.Fitness>
33.1728

> <Gold.PLP.PLP>
-27.7282

> <Gold.PLP.part.hbond>
-4.9879

> <Gold.PLP.part.metal>
0.0000

> <Gold.PLP.part.buried>
-2.9057

> <Gold.PLP.part.nonpolar>
-20.3351

> <Gold.PLP.part.repulsive>
0.6352

> <Gold.PLP.ligand.clash>
0.0000

> <Gold.PLP.ligand.torsion>
0.1322

> <Gold.PLP.Chemscore.Hbond>
1.8960

> <Gold.PLP.Chemscore.CHOScore>
0.0000

> <Gold.PLP.Chemscore.Metal>
0.0000

> <Gold.Chemscore.Hbonds>
donor molecule, donor type, donor heavy atom, donor atom, acceptor molecule, acceptor atom, score
      L1  H     6    21       P1  7948  0.90
      L1  H     9    22       P1  7948  1.00

> <Gold.PLP.Chemscore.Internal.Correction>
0.0210

> <Gold.Rescore>
     Score         DG    S(hbond)    S(metal)    S(lipo)     H(rot)  DE(clash)    DE(int)     intcor
     12.38     -14.86       1.95        0.00      52.68       1.29       0.08       2.40       ----

> <Gold.Chemscore.Fitness>
12.3834

> <Gold.Chemscore.DG>
-14.8590

> <Gold.Chemscore.ZeroCoef>
-5.4800

> <Gold.Chemscore.Hbond>
1.9529

> <Gold.Chemscore.Metal>
0.0000

> <Gold.Chemscore.Lipo>
52.6779

> <Gold.Chemscore.Internal_Hbond>
0.0000

> <Gold.Chemscore.DEClash>
0.0781

> <Gold.Chemscore.DEInternal>
2.3975

> <Gold.Chemscore.Rot>
1.2919

> <Gold.Chemscore.Internal.Correction>
   9.000000E+99

> <Gold.Chemscore.Hbonds>
donor molecule, donor type, donor heavy atom, donor atom, acceptor molecule, acceptor atom, score
      L1  H     6    21       P1  7948  0.82
      L1  H     9    22       P1  7948  0.95

> <Gold.Chemscore.Hbond.Weighted>
-6.5228

> <Gold.Chemscore.Metal.Weighted>
-0.0000

> <Gold.Chemscore.Lipo.Weighted>
-6.1633

> <Gold.Chemscore.Internal_Hbond.Weighted>
0.0000

> <Gold.Chemscore.DEClash.Weighted>
0.0781

> <Gold.Chemscore.DEInternal.Weighted>
2.3975

> <Gold.Chemscore.Rot.Weighted>
3.3072

> <Gold.Chemscore.Internal.Correction.Weighted>
   9.000000E+99

> <Gold.Protein.RotatedTorsions>
[ 6907 6896 6895 6894 ] final    4.40 input  -60.11 | X-H torsion
[ 7974 7965 7964 7962 ] final  172.30 input  175.53 | X-H torsion
[ 8008 7997 7996 7995 ] final   89.44 input   59.86 | X-H torsion
[ 10167 10162 10161 10158 ] final -100.18 input  -65.29 | X-H torsion
[ 10718 10713 10712 10709 ] final   -1.77 input   66.30 | X-H torsion
[ 10763 10752 10751 10750 ] final -115.77 input  -60.55 | X-H torsion
[ 11005 11000 10999 10996 ] final   11.54 input  -57.11 | X-H torsion

> <Gold.Protein.ActiveResidues>
 VAL166  LYS551  ARG553  GLY616  TRP617  ASP618  TYR619  PRO620  LYS621  CYS622 
 ASP623  PHE694  ASN695  SER759  ASP760  ASP761  ALA762  ILE779  LEU786  VAL792 
 PHE793  MET794  SER795  GLU796  ALA797  LYS798  CYS799  TRP800  GLU811  SER814 

> <Gold.Protein.RotatedAtoms>
  151.6406  135.1013  160.0140 H   0  0  0  0  0  0  0  0  0  0  0  0  # atno 6907 bound_to 6896
  152.4056  133.6880  159.6362 H   0  0  0  0  0  0  0  0  0  0  0  0  # atno 6908 bound_to 6896
  150.7951  133.8632  159.3278 H   0  0  0  0  0  0  0  0  0  0  0  0  # atno 6909 bound_to 6896
  144.7272  139.9478  143.6431 H   0  0  0  0  0  0  0  0  0  0  0  0  # atno 7974 bound_to 7965
  156.0000  140.3360  155.6836 H   0  0  0  0  0  0  0  0  0  0  0  0  # atno 8008 bound_to 7997
  155.6303  140.0684  157.2669 H   0  0  0  0  0  0  0  0  0  0  0  0  # atno 8009 bound_to 7997
  154.4246  140.1761  156.1453 H   0  0  0  0  0  0  0  0  0  0  0  0  # atno 8010 bound_to 7997
  140.2546  143.3449  152.0683 H   0  0  0  0  0  0  0  0  0  0  0  0  # atno 10167 bound_to 10162
  156.8006  130.5392  149.5722 H   0  0  0  0  0  0  0  0  0  0  0  0  # atno 10718 bound_to 10713
  154.8494  135.4369  154.1716 H   0  0  0  0  0  0  0  0  0  0  0  0  # atno 10763 bound_to 10752
  153.2828  135.6955  153.7375 H   0  0  0  0  0  0  0  0  0  0  0  0  # atno 10764 bound_to 10752
  153.6572  135.3441  155.3092 H   0  0  0  0  0  0  0  0  0  0  0  0  # atno 10765 bound_to 10752
  140.5021  134.0736  155.7796 H   0  0  0  0  0  0  0  0  0  0  0  0  # atno 11005 bound_to 11000
  146.0735  139.3723  143.0508 LP  0  0  0  0  0  0  0  0  0  0  0  0  # atno 17320 bound_to 7965
  145.7937  140.9803  143.1035 LP  0  0  0  0  0  0  0  0  0  0  0  0  # atno 17321 bound_to 7965
  139.5035  144.6757  151.6133 LP  0  0  0  0  0  0  0  0  0  0  0  0  # atno 17342 bound_to 10162
  140.6014  143.9604  150.6388 LP  0  0  0  0  0  0  0  0  0  0  0  0  # atno 17343 bound_to 10162
  156.1103  130.6035  151.0037 LP  0  0  0  0  0  0  0  0  0  0  0  0  # atno 17370 bound_to 10713
  157.6555  131.0890  150.7956 LP  0  0  0  0  0  0  0  0  0  0  0  0  # atno 17371 bound_to 10713
  141.1430  133.9104  157.2281 LP  0  0  0  0  0  0  0  0  0  0  0  0  # atno 17394 bound_to 11000
  139.9707  135.0129  156.9505 LP  0  0  0  0  0  0  0  0  0  0  0  0  # atno 17395 bound_to 11000

$$$$
