#       Name:                AV-unprocessed.smi:1231
#       Creating user name   scv26
#       Creation time:       Fri Mar 27 04:23:53 2020


#       File generated by GOLD software.
#

@<TRIPOS>MOLECULE
AV-unprocessed.smi:1231
    48    49     1
SMALL
NO_CHARGES


@<TRIPOS>ATOM
      1 ****        -4.4970  -2.7900   2.0890 C.3            1 S1                 0.0000
      2 ****        -3.9339  -1.9477   0.9392 C.3            1 S1                 0.0000
      3 ****        -2.4003  -1.8229   1.0058 C.3            1 S1                 0.0000
      4 ****        -1.9015  -0.9458  -0.0797 N.4            1 S1                 1.0000
      5 ****        -0.4208  -0.8466  -0.0889 C.3            1 S1                 0.0000
      6 ****         0.1300  -0.3861  -1.4527 C.3            1 S1                 0.0000
      7 ****         1.5874  -0.3407  -1.4546 N.am           1 S1                 0.0000
      8 ****         2.3236   0.6179  -0.8737 C.2            1 S1                 0.0000
      9 ****         1.8331   1.5697  -0.2653 O.2            1 S1                 0.0000
     10 ****         3.6386   0.3963  -1.0458 N.am           1 S1                 0.0000
     11 ****         4.7283   1.1722  -0.5682 C.ar           1 S1                 0.0000
     12 ****         6.0071   0.7047  -0.9469 C.ar           1 S1                 0.0000
     13 ****         7.1535   1.4049  -0.5242 C.ar           1 S1                 0.0000
     14 ****         6.9914   2.5546   0.2691 C.ar           1 S1                 0.0000
     15 ****         5.6833   2.9508   0.6033 C.ar           1 S1                 0.0000
     16 ****         4.5831   2.2819   0.1983 N.ar           1 S1                 0.0000
     17 ****        -2.5837   0.3712  -0.0313 C.3            1 S1                 0.0000
     18 ****        -4.1133   0.1896  -0.0646 C.3            1 S1                 0.0000
     19 ****        -4.8570   1.5231   0.0676 C.3            1 S1                 0.0000
     20 ****        -4.5075  -0.6476   1.0170 O.3            1 S1                 0.0000
     21 ****        -4.0967  -3.8038   2.0653 H              1 S1                 0.0000
     22 ****        -5.5830  -2.8613   2.0241 H              1 S1                 0.0000
     23 ****        -4.2492  -2.3545   3.0575 H              1 S1                 0.0000
     24 ****        -4.2248  -2.4128  -0.0045 H              1 S1                 0.0000
     25 ****        -2.0952  -1.4153   1.9714 H              1 S1                 0.0000
     26 ****        -1.9479  -2.8115   0.9171 H              1 S1                 0.0000
     27 ****        -0.0964  -0.1824   0.7136 H              1 S1                 0.0000
     28 ****         0.0043  -1.8266   0.1334 H              1 S1                 0.0000
     29 ****        -0.1887  -1.0761  -2.2343 H              1 S1                 0.0000
     30 ****        -0.2544   0.5960  -1.7294 H              1 S1                 0.0000
     31 ****         2.0681  -1.0856  -1.9380 H              1 S1                 0.0000
     32 ****         3.8911  -0.4222  -1.5794 H              1 S1                 0.0000
     33 ****         6.1140  -0.1806  -1.5569 H              1 S1                 0.0000
     34 ****         8.1397   1.0651  -0.8045 H              1 S1                 0.0000
     35 ****         7.8464   3.1180   0.6124 H              1 S1                 0.0000
     36 ****         5.5151   3.8274   1.2112 H              1 S1                 0.0000
     37 ****        -2.2876   0.9012   0.8757 H              1 S1                 0.0000
     38 ****        -2.2777   0.9889  -0.8747 H              1 S1                 0.0000
     39 ****        -4.4072  -0.2782  -1.0060 H              1 S1                 0.0000
     40 ****        -4.5996   2.1992  -0.7481 H              1 S1                 0.0000
     41 ****        -4.6109   2.0218   1.0055 H              1 S1                 0.0000
     42 ****        -5.9366   1.3711   0.0447 H              1 S1                 0.0000
     43 ****        -2.1689  -1.3883  -0.9474 H              1 S1                 0.0000
     44 ****         0.8399   1.6545  -0.1866 LP             1 S1                 0.0000
     45 ****         2.4281   2.2579   0.1499 LP             1 S1                 0.0000
     46 ****         3.6721   2.6005   0.4601 LP             1 S1                 0.0000
     47 ****        -4.2189  -0.2209   1.8741 LP             1 S1                 0.0000
     48 ****        -5.5035  -0.7358   1.0073 LP             1 S1                 0.0000
@<TRIPOS>BOND
    1    1    2 1     
    2    1   21 1     
    3    1   22 1     
    4    1   23 1     
    5    2   20 1     
    6    2    3 1     
    7    2   24 1     
    8    3    4 1     
    9    3   25 1     
   10    3   26 1     
   11    4    5 1     
   12    4   17 1     
   13    4   43 1     
   14    5    6 1     
   15    5   27 1     
   16    5   28 1     
   17    6    7 1     
   18    6   29 1     
   19    6   30 1     
   20    7    8 am    
   21    7   31 1     
   22    8    9 2     
   23    8   10 am    
   24   10   11 1     
   25   10   32 1     
   26   11   16 ar    
   27   11   12 ar    
   28   12   13 ar    
   29   12   33 1     
   30   13   14 ar    
   31   13   34 1     
   32   14   15 ar    
   33   14   35 1     
   34   15   16 ar    
   35   15   36 1     
   36   17   18 1     
   37   17   37 1     
   38   17   38 1     
   39   18   19 1     
   40   18   20 1     
   41   18   39 1     
   42   19   40 1     
   43   19   41 1     
   44   19   42 1     
   45    9   44 1     
   46    9   45 1     
   47   16   46 1     
   48   20   47 1     
   49   20   48 1     
@<TRIPOS>SUBSTRUCTURE
      1 S1             1
@<TRIPOS>SET
LONE_PAIRS      STATIC     ATOMS    <user>   **** ""
5 44 45 46 47 48
DONOR_HYDROGENS      STATIC     ATOMS    <user>   **** ""
3 43 31 32
ATOM$BLUE        STATIC     ATOMS    COLORGROUP SYSTEM
5 44 45 46 47 48
ATOM$RED        STATIC     ATOMS    COLORGROUP SYSTEM
3 43 31 32
