AV-unprocessed.smi:1870|AV-procd|sdf|7594|dock5
  -GOLD-   22720 9303D 1   1.00000     0.00000
 Structure written by MMmdl.
 48 50  0  0  0  0  0  0  0  0  2 V2000
  146.8343  135.7038  154.5710 C   0  0  0  0  0  0  0  0  0  0  0  0
  148.0315  136.6123  154.6512 C   0  0  0  0  0  0  0  0  0  0  0  0
  147.8458  137.8466  154.3152 N   0  0  0  0  0  0  0  0  0  0  0  0
  148.8768  138.7654  154.3489 N   0  0  0  0  0  0  0  0  0  0  0  0
  148.4833  140.1226  153.9470 C   0  0  0  0  0  0  0  0  0  0  0  0
  149.0252  141.2149  154.8967 C   0  0  1  0  0  0  0  0  0  0  0  0
  149.0334  142.4320  154.1772 O   0  0  0  0  0  0  0  0  0  0  0  0
  148.1697  141.3888  156.1722 C   0  0  0  0  0  0  0  0  0  0  0  0
  148.7823  142.3007  157.1730 N   0  3  1  0  0  0  0  0  0  0  0  0
  148.0841  142.2507  158.4791 C   0  0  0  0  0  0  0  0  0  0  0  0
  148.5221  143.4295  159.3571 C   0  0  0  0  0  0  0  0  0  0  0  0
  150.0321  143.5589  159.4350 C   0  0  0  0  0  0  0  0  0  0  0  0
  150.6173  144.3232  160.4654 C   0  0  0  0  0  0  0  0  0  0  0  0
  152.0155  144.4773  160.5248 C   0  0  0  0  0  0  0  0  0  0  0  0
  152.8322  143.8691  159.5529 C   0  0  0  0  0  0  0  0  0  0  0  0
  152.2515  143.1063  158.5216 C   0  0  0  0  0  0  0  0  0  0  0  0
  150.8513  142.9475  158.4553 C   0  0  0  0  0  0  0  0  0  0  0  0
  150.2476  142.1007  157.3401 C   0  0  0  0  0  0  0  0  0  0  0  0
  150.1610  138.4774  154.7057 C   0  0  0  0  0  0  0  0  0  0  0  0
  151.0543  139.3252  154.7031 O   0  0  0  0  0  0  0  0  0  0  0  0
  150.3628  137.0800  155.0946 C   0  0  0  0  0  0  0  0  0  0  0  0
  151.6912  136.7388  155.4901 C   0  0  0  0  0  0  0  0  0  0  0  0
  152.7651  136.4429  155.8050 N   0  0  0  0  0  0  0  0  0  0  0  0
  149.3548  136.1723  155.0814 C   0  0  0  0  0  0  0  0  0  0  0  0
  149.5157  134.7100  155.4739 C   0  0  0  0  0  0  0  0  0  0  0  0
  147.0610  134.8127  153.9851 H   0  0  0  0  0  0  0  0  0  0  0  0
  145.9814  136.1955  154.1004 H   0  0  0  0  0  0  0  0  0  0  0  0
  146.5244  135.3853  155.5666 H   0  0  0  0  0  0  0  0  0  0  0  0
  148.8295  140.3100  152.9286 H   0  0  0  0  0  0  0  0  0  0  0  0
  147.3946  140.1930  153.8966 H   0  0  0  0  0  0  0  0  0  0  0  0
  150.0556  140.9736  155.1528 H   0  0  0  0  0  0  0  0  0  0  0  0
  149.2487  143.1377  154.7676 H   0  0  0  0  0  0  0  0  0  0  0  0
  147.1911  141.7709  155.8775 H   0  0  0  0  0  0  0  0  0  0  0  0
  147.9876  140.4264  156.6521 H   0  0  0  0  0  0  0  0  0  0  0  0
  147.0027  142.2941  158.3426 H   0  0  0  0  0  0  0  0  0  0  0  0
  148.3045  141.3018  158.9712 H   0  0  0  0  0  0  0  0  0  0  0  0
  148.1228  144.3605  158.9532 H   0  0  0  0  0  0  0  0  0  0  0  0
  148.1105  143.3182  160.3610 H   0  0  0  0  0  0  0  0  0  0  0  0
  149.9950  144.7988  161.2097 H   0  0  0  0  0  0  0  0  0  0  0  0
  152.4611  145.0643  161.3146 H   0  0  0  0  0  0  0  0  0  0  0  0
  153.9050  143.9876  159.5992 H   0  0  0  0  0  0  0  0  0  0  0  0
  152.8861  142.6395  157.7821 H   0  0  0  0  0  0  0  0  0  0  0  0
  150.4538  141.0523  157.5605 H   0  0  0  0  0  0  0  0  0  0  0  0
  150.7655  142.3423  156.4125 H   0  0  0  0  0  0  0  0  0  0  0  0
  150.4832  134.5118  155.9345 H   0  0  0  0  0  0  0  0  0  0  0  0
  149.4288  134.0710  154.5947 H   0  0  0  0  0  0  0  0  0  0  0  0
  148.7512  134.4131  156.1925 H   0  0  0  0  0  0  0  0  0  0  0  0
  148.6480  143.2393  156.8253 H   0  0  0  0  0  0  0  0  0  0  0  0
  1  2  1  0  0  0  0
  1 26  1  0  0  0  0
  1 27  1  0  0  0  0
  1 28  1  0  0  0  0
  2 24  1  0  0  0  0
  2  3  2  0  0  0  0
  3  4  1  0  0  0  0
  4  5  1  0  0  0  0
  4 19  1  0  0  0  0
  5  6  1  0  0  0  0
  5 29  1  0  0  0  0
  5 30  1  0  0  0  0
  6  7  1  0  0  0  0
  6  8  1  0  0  0  0
  6 31  1  0  0  0  0
  7 32  1  0  0  0  0
  8  9  1  0  0  0  0
  8 33  1  0  0  0  0
  8 34  1  0  0  0  0
  9 18  1  0  0  0  0
  9 10  1  0  0  0  0
  9 48  1  0  0  0  0
 10 11  1  0  0  0  0
 10 35  1  0  0  0  0
 10 36  1  0  0  0  0
 11 12  1  0  0  0  0
 11 37  1  0  0  0  0
 11 38  1  0  0  0  0
 12 17  2  0  0  0  0
 12 13  1  0  0  0  0
 13 14  2  0  0  0  0
 13 39  1  0  0  0  0
 14 15  1  0  0  0  0
 14 40  1  0  0  0  0
 15 16  2  0  0  0  0
 15 41  1  0  0  0  0
 16 17  1  0  0  0  0
 16 42  1  0  0  0  0
 17 18  1  0  0  0  0
 18 43  1  0  0  0  0
 18 44  1  0  0  0  0
 19 20  2  0  0  0  0
 19 21  1  0  0  0  0
 21 22  1  0  0  0  0
 21 24  2  0  0  0  0
 22 23  3  0  0  0  0
 24 25  1  0  0  0  0
 25 45  1  0  0  0  0
 25 46  1  0  0  0  0
 25 47  1  0  0  0  0
M  CHG  1   9   1
M  END
> <s_m_source_file>
AV-unprocessed.smi

> <i_m_source_file_index>
1870

> <i_lp_mmshare_version>
43012

> <i_f3d_flags>
0

> <s_epik_input>
TiNDYyhjMVtDSDNdKWMoPU8pbihuYzFbQ0gzXSlbQ0gyXVtDQEhdKFtPSF0pW0NIMl1OKFtDSDJdW0NIMl0yKVtDSDJdYyhjMjMpW2NIXVtjSF1bY0hdW2NIXTM=

> <s_epik_cmdline>
J2VwaWtfcHl0aG9uJywgJy1waCcsICc3LjAnLCAnLXRuJywgJzgnLCAnLW1hJywgJzIwMCcsICctbWV0YWxfYmluZGluZycsICctaW1hZScsICc8aW5maWxlLm1hZT4nLCAnLW9tYWUnLCAnPG91dGZpbGUubWFlPic=

> <r_epik_Ionization_Penalty>
0.0122865

> <r_epik_Ionization_Penalty_Charging>
0.0122864

> <r_epik_Ionization_Penalty_Neutral>
1.48087e-07

> <r_epik_State_Penalty>
0.00950248

> <r_epik_Charging_Adjusted_Penalty>
0.0217889

> <i_epik_Tot_Q>
1

> <i_epik_Tot_abs_Q>
1

> <r_epik_Metal_State_Penalty>
0.00950248

> <b_epik_Metal_Only>
0

> <s_lp_Force_Field>
OPLS_2005

> <r_lp_Energy>
36.9803

> <b_lp_Chiralities_Consistent>
1

> <s_lp_Variant>
AV-unprocessed.smi:1870-2

> <Gold.Version>
5.8.1

> <Gold.Id.Protein>
6NUR|6NUR_protein|mol2

> <Gold.PLP.Fitness>
52.7688

> <Gold.PLP.PLP>
-39.1175

> <Gold.PLP.part.hbond>
-5.0000

> <Gold.PLP.part.metal>
0.0000

> <Gold.PLP.part.buried>
-1.1509

> <Gold.PLP.part.nonpolar>
-33.7577

> <Gold.PLP.part.repulsive>
0.1997

> <Gold.PLP.ligand.clash>
0.0000

> <Gold.PLP.ligand.torsion>
0.5241

> <Gold.PLP.Chemscore.Hbond>
4.8800

> <Gold.PLP.Chemscore.CHOScore>
0.0000

> <Gold.PLP.Chemscore.Metal>
0.0000

> <Gold.Chemscore.Hbonds>
donor molecule, donor type, donor heavy atom, donor atom, acceptor molecule, acceptor atom, score
      L1  H     7    32       P1  8028  1.00
      L1  H     9    48       P1  8028  2.00
      P1  H  7989  7998       L1    20  0.98
      P1  H  8011  8017       L1     7  0.16
      P1  H 10752 10765       L1    23  0.39

> <Gold.PLP.Chemscore.Internal.Correction>
0.0596

> <Gold.Rescore>
     Score         DG    S(hbond)    S(metal)    S(lipo)     H(rot)  DE(clash)    DE(int)     intcor
     21.80     -23.88       3.58        0.00     102.39       2.16       0.53       1.56       ----

> <Gold.Chemscore.Fitness>
21.7987

> <Gold.Chemscore.DG>
-23.8799

> <Gold.Chemscore.ZeroCoef>
-5.4800

> <Gold.Chemscore.Hbond>
3.5800

> <Gold.Chemscore.Metal>
0.0000

> <Gold.Chemscore.Lipo>
102.3894

> <Gold.Chemscore.Internal_Hbond>
0.0000

> <Gold.Chemscore.DEClash>
0.5257

> <Gold.Chemscore.DEInternal>
1.5555

> <Gold.Chemscore.Rot>
2.1628

> <Gold.Chemscore.Internal.Correction>
   9.000000E+99

> <Gold.Chemscore.Hbonds>
donor molecule, donor type, donor heavy atom, donor atom, acceptor molecule, acceptor atom, score
      L1  H     7    32       P1  8028  0.96
      L1  H     9    48       P1  8028  0.60
      P1  H  7989  7998       L1    20  0.92
      P1  H  8011  8017       L1     7  0.15
      P1  H 10752 10765       L1    23  0.39

> <Gold.Chemscore.Hbond.Weighted>
-11.9571

> <Gold.Chemscore.Metal.Weighted>
-0.0000

> <Gold.Chemscore.Lipo.Weighted>
-11.9796

> <Gold.Chemscore.Internal_Hbond.Weighted>
0.0000

> <Gold.Chemscore.DEClash.Weighted>
0.5257

> <Gold.Chemscore.DEInternal.Weighted>
1.5555

> <Gold.Chemscore.Rot.Weighted>
5.5367

> <Gold.Chemscore.Internal.Correction.Weighted>
   9.000000E+99

> <Gold.Protein.RotatedTorsions>
[ 6907 6896 6895 6894 ] final -140.51 input  -60.11 | X-H torsion
[ 7974 7965 7964 7962 ] final   -6.98 input  175.53 | X-H torsion
[ 8008 7997 7996 7995 ] final   75.17 input   59.86 | X-H torsion
[ 10167 10162 10161 10158 ] final  164.50 input  -65.29 | X-H torsion
[ 10718 10713 10712 10709 ] final  135.05 input   66.30 | X-H torsion
[ 10763 10752 10751 10750 ] final -120.74 input  -60.55 | X-H torsion
[ 11005 11000 10999 10996 ] final  148.34 input  -57.11 | X-H torsion

> <Gold.Protein.ActiveResidues>
 VAL166  LYS551  ARG553  GLY616  TRP617  ASP618  TYR619  PRO620  LYS621  CYS622 
 ASP623  PHE694  ASN695  SER759  ASP760  ASP761  ALA762  ILE779  LEU786  VAL792 
 PHE793  MET794  SER795  GLU796  ALA797  LYS798  CYS799  TRP800  GLU811  SER814 

> <Gold.Protein.RotatedAtoms>
  151.0616  133.5539  159.2633 H   0  0  0  0  0  0  0  0  0  0  0  0  # atno 6907 bound_to 6896
  151.2512  135.0622  159.9072 H   0  0  0  0  0  0  0  0  0  0  0  0  # atno 6908 bound_to 6896
  152.5398  134.0377  159.8107 H   0  0  0  0  0  0  0  0  0  0  0  0  # atno 6909 bound_to 6896
  146.2318  140.2251  142.8338 H   0  0  0  0  0  0  0  0  0  0  0  0  # atno 7974 bound_to 7965
  155.8091  140.3474  155.5447 H   0  0  0  0  0  0  0  0  0  0  0  0  # atno 8008 bound_to 7997
  155.8459  140.0949  157.1725 H   0  0  0  0  0  0  0  0  0  0  0  0  # atno 8009 bound_to 7997
  154.4006  140.1385  156.3773 H   0  0  0  0  0  0  0  0  0  0  0  0  # atno 8010 bound_to 7997
  139.4890  144.4228  151.9165 H   0  0  0  0  0  0  0  0  0  0  0  0  # atno 10167 bound_to 10162
  157.4610  131.1073  150.9919 H   0  0  0  0  0  0  0  0  0  0  0  0  # atno 10718 bound_to 10713
  154.8652  135.4192  154.2508 H   0  0  0  0  0  0  0  0  0  0  0  0  # atno 10763 bound_to 10752
  153.3455  135.6996  153.6837 H   0  0  0  0  0  0  0  0  0  0  0  0  # atno 10764 bound_to 10752
  153.5798  135.3575  155.2843 H   0  0  0  0  0  0  0  0  0  0  0  0  # atno 10765 bound_to 10752
  140.0951  134.9017  157.1711 H   0  0  0  0  0  0  0  0  0  0  0  0  # atno 11005 bound_to 11000
  144.9601  140.8267  143.5518 LP  0  0  0  0  0  0  0  0  0  0  0  0  # atno 17320 bound_to 7965
  145.2221  139.2154  143.5087 LP  0  0  0  0  0  0  0  0  0  0  0  0  # atno 17321 bound_to 7965
  140.3673  144.2899  150.5925 LP  0  0  0  0  0  0  0  0  0  0  0  0  # atno 17342 bound_to 10162
  140.5350  143.2235  151.8178 LP  0  0  0  0  0  0  0  0  0  0  0  0  # atno 17343 bound_to 10162
  157.0716  130.5866  149.5403 LP  0  0  0  0  0  0  0  0  0  0  0  0  # atno 17370 bound_to 10713
  156.0029  130.5111  150.7727 LP  0  0  0  0  0  0  0  0  0  0  0  0  # atno 17371 bound_to 10713
  140.3298  134.2823  155.7230 LP  0  0  0  0  0  0  0  0  0  0  0  0  # atno 17394 bound_to 11000
  141.2089  133.7763  157.0027 LP  0  0  0  0  0  0  0  0  0  0  0  0  # atno 17395 bound_to 11000

$$$$
