AV-unprocessed.smi:1254|AV-procd|sdf|5278|dock4
  -GOLD-   22720 4393D 1   1.00000     0.00000
 Structure written by MMmdl.
 45 46  0  0  0  0  0  0  0  0  3 V2000
  153.3955  142.5348  160.8674 C   0  0  0  0  0  0  0  0  0  0  0  0
  152.5280  142.2886  159.6806 C   0  0  0  0  0  0  0  0  0  0  0  0
  151.6656  143.0844  158.9813 C   0  0  0  0  0  0  0  0  0  0  0  0
  151.1641  142.2143  157.9750 C   0  0  0  0  0  0  0  0  0  0  0  0
  150.2798  142.5415  157.0200 N   0  5  0  0  0  0  0  0  0  0  0  0
  149.8427  141.6050  156.1474 C   0  0  0  0  0  0  0  0  0  0  0  0
  150.0866  140.3968  156.1837 O   0  0  0  0  0  0  0  0  0  0  0  0
  149.0728  142.0995  155.1703 N   0  0  0  0  0  0  0  0  0  0  0  0
  148.4695  141.3161  154.1010 C   0  0  0  0  0  0  0  0  0  0  0  0
  147.0167  141.7509  153.8670 C   0  0  1  0  0  0  0  0  0  0  0  0
  146.1204  141.4377  155.0812 C   0  0  0  0  0  0  0  0  0  0  0  0
  144.7405  141.9339  154.8532 N   0  3  1  0  0  0  0  0  0  0  0  0
  143.8032  141.6253  155.9636 C   0  0  0  0  0  0  0  0  0  0  0  0
  142.4265  142.3058  155.8042 C   0  0  0  0  0  0  0  0  0  0  0  0
  141.6846  142.4229  157.1465 C   0  0  0  0  0  0  0  0  0  0  0  0
  141.5666  141.5482  154.7816 C   0  0  0  0  0  0  0  0  0  0  0  0
  144.7605  143.3768  154.5161 C   0  0  0  0  0  0  0  0  0  0  0  0
  145.6994  143.6378  153.3277 C   0  0  0  0  0  0  0  0  0  0  0  0
  146.9997  143.1569  153.6390 O   0  0  0  0  0  0  0  0  0  0  0  0
  151.6901  141.0026  158.0458 N   0  0  0  0  0  0  0  0  0  0  0  0
  152.5603  141.0398  159.1418 O   0  0  0  0  0  0  0  0  0  0  0  0
  153.9920  143.4363  160.7287 H   0  0  0  0  0  0  0  0  0  0  0  0
  154.0775  141.7011  161.0359 H   0  0  0  0  0  0  0  0  0  0  0  0
  152.7909  142.6638  161.7651 H   0  0  0  0  0  0  0  0  0  0  0  0
  151.4274  144.1218  159.1620 H   0  0  0  0  0  0  0  0  0  0  0  0
  148.8923  143.0926  155.1757 H   0  0  0  0  0  0  0  0  0  0  0  0
  149.0546  141.4593  153.1913 H   0  0  0  0  0  0  0  0  0  0  0  0
  148.5108  140.2539  154.3481 H   0  0  0  0  0  0  0  0  0  0  0  0
  146.6293  141.2334  152.9867 H   0  0  0  0  0  0  0  0  0  0  0  0
  146.1127  140.3618  155.2517 H   0  0  0  0  0  0  0  0  0  0  0  0
  146.5310  141.9002  155.9804 H   0  0  0  0  0  0  0  0  0  0  0  0
  143.6908  140.5431  156.0461 H   0  0  0  0  0  0  0  0  0  0  0  0
  144.2401  141.9566  156.9071 H   0  0  0  0  0  0  0  0  0  0  0  0
  142.5673  143.3117  155.4098 H   0  0  0  0  0  0  0  0  0  0  0  0
  141.5198  141.4429  157.5957 H   0  0  0  0  0  0  0  0  0  0  0  0
  140.7102  142.8949  157.0158 H   0  0  0  0  0  0  0  0  0  0  0  0
  142.2436  143.0274  157.8610 H   0  0  0  0  0  0  0  0  0  0  0  0
  141.3704  140.5258  155.1066 H   0  0  0  0  0  0  0  0  0  0  0  0
  142.0606  141.4995  153.8105 H   0  0  0  0  0  0  0  0  0  0  0  0
  140.6046  142.0400  154.6343 H   0  0  0  0  0  0  0  0  0  0  0  0
  143.7539  143.7149  154.2669 H   0  0  0  0  0  0  0  0  0  0  0  0
  145.0872  143.9514  155.3844 H   0  0  0  0  0  0  0  0  0  0  0  0
  145.3262  143.1591  152.4207 H   0  0  0  0  0  0  0  0  0  0  0  0
  145.7584  144.7067  153.1222 H   0  0  0  0  0  0  0  0  0  0  0  0
  144.3856  141.4581  154.0359 H   0  0  0  0  0  0  0  0  0  0  0  0
  1  2  1  0  0  0  0
  1 22  1  0  0  0  0
  1 23  1  0  0  0  0
  1 24  1  0  0  0  0
  2 21  1  0  0  0  0
  2  3  2  0  0  0  0
  3  4  1  0  0  0  0
  3 25  1  0  0  0  0
  4  5  1  0  0  0  0
  4 20  2  0  0  0  0
  5  6  1  0  0  0  0
  6  7  2  0  0  0  0
  6  8  1  0  0  0  0
  8  9  1  0  0  0  0
  8 26  1  0  0  0  0
  9 10  1  0  0  0  0
  9 27  1  0  0  0  0
  9 28  1  0  0  0  0
 10 19  1  0  0  0  0
 10 11  1  0  0  0  0
 10 29  1  0  0  0  0
 11 12  1  0  0  0  0
 11 30  1  0  0  0  0
 11 31  1  0  0  0  0
 12 13  1  0  0  0  0
 12 17  1  0  0  0  0
 12 45  1  0  0  0  0
 13 14  1  0  0  0  0
 13 32  1  0  0  0  0
 13 33  1  0  0  0  0
 14 15  1  0  0  0  0
 14 16  1  0  0  0  0
 14 34  1  0  0  0  0
 15 35  1  0  0  0  0
 15 36  1  0  0  0  0
 15 37  1  0  0  0  0
 16 38  1  0  0  0  0
 16 39  1  0  0  0  0
 16 40  1  0  0  0  0
 17 18  1  0  0  0  0
 17 41  1  0  0  0  0
 17 42  1  0  0  0  0
 18 19  1  0  0  0  0
 18 43  1  0  0  0  0
 18 44  1  0  0  0  0
 20 21  1  0  0  0  0
M  CHG  1   5  -1
M  CHG  1  12   1
M  END
> <s_m_source_file>
AV-unprocessed.smi

> <i_m_source_file_index>
1254

> <i_lp_mmshare_version>
43012

> <i_f3d_flags>
0

> <s_epik_input>
W0NIM11jMVtjSF1jKG5vMSlbTkhdQyg9TylbTkhdW0NIMl1bQ0BASF0yW0NIMl1OKFtDSDJdW0NIMl1PMilbQ0gyXVtDSF0oW0NIM10pW0NIM10=

> <s_epik_cmdline>
J2VwaWtfcHl0aG9uJywgJy1waCcsICc3LjAnLCAnLXRuJywgJzgnLCAnLW1hJywgJzIwMCcsICctbWV0YWxfYmluZGluZycsICctaW1hZScsICc8aW5maWxlLm1hZT4nLCAnLW9tYWUnLCAnPG91dGZpbGUubWFlPic=

> <r_epik_Ionization_Penalty>
6.33139

> <r_epik_Ionization_Penalty_Charging>
6.33128

> <r_epik_Ionization_Penalty_Neutral>
0.000104968

> <r_epik_State_Penalty>
6.32522

> <r_epik_Charging_Adjusted_Penalty>
12.6565

> <i_epik_Tot_Q>
0

> <i_epik_Tot_abs_Q>
2

> <r_epik_Metal_State_Penalty>
2.26285

> <b_epik_Metal_Only>
1

> <s_lp_Force_Field>
OPLS_2005

> <r_lp_Energy>
6.3285

> <b_lp_Chiralities_Consistent>
1

> <s_lp_Variant>
AV-unprocessed.smi:1254-10

> <Gold.Version>
5.8.1

> <Gold.Id.Protein>
6NUR|6NUR_protein|mol2

> <Gold.PLP.Fitness>
41.4469

> <Gold.PLP.PLP>
-32.5450

> <Gold.PLP.part.hbond>
-3.0000

> <Gold.PLP.part.metal>
0.0000

> <Gold.PLP.part.buried>
-4.4213

> <Gold.PLP.part.nonpolar>
-26.3403

> <Gold.PLP.part.repulsive>
1.3459

> <Gold.PLP.ligand.clash>
0.0000

> <Gold.PLP.ligand.torsion>
0.3856

> <Gold.PLP.Chemscore.Hbond>
3.1685

> <Gold.PLP.Chemscore.CHOScore>
0.0000

> <Gold.PLP.Chemscore.Metal>
0.0000

> <Gold.Chemscore.Hbonds>
donor molecule, donor type, donor heavy atom, donor atom, acceptor molecule, acceptor atom, score
      L1  H     8    26       P1  8028  1.00
      L1  H    12    45       P1 10175  2.00
      P1  H  8022  8030       L1    19  0.16

> <Gold.PLP.Chemscore.Internal.Correction>
0.1676

> <Gold.Rescore>
     Score         DG    S(hbond)    S(metal)    S(lipo)     H(rot)  DE(clash)    DE(int)     intcor
     12.47     -14.67       1.90        0.00      61.37       1.69       0.29       1.91       ----

> <Gold.Chemscore.Fitness>
12.4685

> <Gold.Chemscore.DG>
-14.6712

> <Gold.Chemscore.ZeroCoef>
-5.4800

> <Gold.Chemscore.Hbond>
1.8992

> <Gold.Chemscore.Metal>
0.0000

> <Gold.Chemscore.Lipo>
61.3738

> <Gold.Chemscore.Internal_Hbond>
0.0000

> <Gold.Chemscore.DEClash>
0.2880

> <Gold.Chemscore.DEInternal>
1.9146

> <Gold.Chemscore.Rot>
1.6926

> <Gold.Chemscore.Internal.Correction>
   9.000000E+99

> <Gold.Chemscore.Hbonds>
donor molecule, donor type, donor heavy atom, donor atom, acceptor molecule, acceptor atom, score
      L1  H     8    26       P1  8028  1.00
      L1  H    12    45       P1 10175  0.25
      P1  H  8022  8030       L1    19  0.14

> <Gold.Chemscore.Hbond.Weighted>
-6.3435

> <Gold.Chemscore.Metal.Weighted>
-0.0000

> <Gold.Chemscore.Lipo.Weighted>
-7.1807

> <Gold.Chemscore.Internal_Hbond.Weighted>
0.0000

> <Gold.Chemscore.DEClash.Weighted>
0.2880

> <Gold.Chemscore.DEInternal.Weighted>
1.9146

> <Gold.Chemscore.Rot.Weighted>
4.3330

> <Gold.Chemscore.Internal.Correction.Weighted>
   9.000000E+99

> <Gold.Protein.RotatedTorsions>
[ 6907 6896 6895 6894 ] final   17.71 input  -60.11 | X-H torsion
[ 7974 7965 7964 7962 ] final  -35.94 input  175.53 | X-H torsion
[ 8008 7997 7996 7995 ] final  164.81 input   59.86 | X-H torsion
[ 10167 10162 10161 10158 ] final  107.58 input  -65.29 | X-H torsion
[ 10718 10713 10712 10709 ] final   92.23 input   66.30 | X-H torsion
[ 10763 10752 10751 10750 ] final  -50.78 input  -60.55 | X-H torsion
[ 11005 11000 10999 10996 ] final  110.88 input  -57.11 | X-H torsion

> <Gold.Protein.ActiveResidues>
 VAL166  LYS551  ARG553  GLY616  TRP617  ASP618  TYR619  PRO620  LYS621  CYS622 
 ASP623  PHE694  ASN695  SER759  ASP760  ASP761  ALA762  ILE779  LEU786  VAL792 
 PHE793  MET794  SER795  GLU796  ALA797  LYS798  CYS799  TRP800  GLU811  SER814 

> <Gold.Protein.RotatedAtoms>
  151.8539  135.0548  160.0461 H   0  0  0  0  0  0  0  0  0  0  0  0  # atno 6907 bound_to 6896
  152.2715  133.5382  159.5450 H   0  0  0  0  0  0  0  0  0  0  0  0  # atno 6908 bound_to 6896
  150.7153  134.0607  159.3872 H   0  0  0  0  0  0  0  0  0  0  0  0  # atno 6909 bound_to 6896
  146.0704  140.6219  142.8955 H   0  0  0  0  0  0  0  0  0  0  0  0  # atno 7974 bound_to 7965
  156.1851  140.1687  156.8201 H   0  0  0  0  0  0  0  0  0  0  0  0  # atno 8008 bound_to 7997
  154.5404  140.0738  156.8533 H   0  0  0  0  0  0  0  0  0  0  0  0  # atno 8009 bound_to 7997
  155.3226  140.3374  155.4243 H   0  0  0  0  0  0  0  0  0  0  0  0  # atno 8010 bound_to 7997
  139.6915  144.7107  151.1340 H   0  0  0  0  0  0  0  0  0  0  0  0  # atno 10167 bound_to 10162
  157.6959  131.0436  150.3850 H   0  0  0  0  0  0  0  0  0  0  0  0  # atno 10718 bound_to 10713
  154.1159  135.6542  153.4894 H   0  0  0  0  0  0  0  0  0  0  0  0  # atno 10763 bound_to 10752
  153.0241  135.5259  154.7145 H   0  0  0  0  0  0  0  0  0  0  0  0  # atno 10764 bound_to 10752
  154.6339  135.2979  155.0154 H   0  0  0  0  0  0  0  0  0  0  0  0  # atno 10765 bound_to 10752
  139.8891  134.9495  156.6347 H   0  0  0  0  0  0  0  0  0  0  0  0  # atno 11005 bound_to 11000
  144.7228  140.4428  143.6995 LP  0  0  0  0  0  0  0  0  0  0  0  0  # atno 17320 bound_to 7965
  145.6402  139.1549  143.2920 LP  0  0  0  0  0  0  0  0  0  0  0  0  # atno 17321 bound_to 7965
  140.7684  143.5552  150.9160 LP  0  0  0  0  0  0  0  0  0  0  0  0  # atno 17342 bound_to 10162
  139.9230  143.6583  152.3093 LP  0  0  0  0  0  0  0  0  0  0  0  0  # atno 17343 bound_to 10162
  156.4259  130.3962  149.6793 LP  0  0  0  0  0  0  0  0  0  0  0  0  # atno 17370 bound_to 10713
  156.4027  130.7683  151.2691 LP  0  0  0  0  0  0  0  0  0  0  0  0  # atno 17371 bound_to 10713
  140.7640  133.8794  155.8440 LP  0  0  0  0  0  0  0  0  0  0  0  0  # atno 17394 bound_to 11000
  140.9898  134.1293  157.4418 LP  0  0  0  0  0  0  0  0  0  0  0  0  # atno 17395 bound_to 11000

$$$$
