AV-unprocessed.smi:2671|AV-procd|sdf|10349|dock1
  -GOLD-   2272014373D 1   1.00000     0.00000
 Structure written by MMmdl.
 29 30  0  0  0  0  0  0  0  0  1 V2000
  154.5227  140.4753  159.6336 O   0  0  0  0  0  0  0  0  0  0  0  0
  153.4529  141.0031  159.3391 C   0  0  0  0  0  0  0  0  0  0  0  0
  153.0424  142.3316  159.7913 C   0  0  0  0  0  0  0  0  0  0  0  0
  151.8430  142.8437  159.4224 C   0  0  0  0  0  0  0  0  0  0  0  0
  151.3998  144.2232  159.8824 C   0  0  0  0  0  0  0  0  0  0  0  0
  150.0897  144.3736  159.6901 F   0  0  0  0  0  0  0  0  0  0  0  0
  151.6484  144.3778  161.1827 F   0  0  0  0  0  0  0  0  0  0  0  0
  152.0335  145.1909  159.2179 F   0  0  0  0  0  0  0  0  0  0  0  0
  150.9753  142.1101  158.5991 N   0  0  0  0  0  0  0  0  0  0  0  0
  151.3169  140.9296  158.1857 C   0  0  0  0  0  0  0  0  0  0  0  0
  150.3991  139.7744  157.1275 S   0  0  0  0  0  0  0  0  0  0  0  0
  150.2438  140.7410  155.5980 C   0  0  0  0  0  0  0  0  0  0  0  0
  148.8223  140.6771  155.0230 C   0  0  1  0  0  0  0  0  0  0  0  0
  147.7828  141.4915  155.7960 C   0  0  0  0  0  0  0  0  0  0  0  0
  146.7584  141.8766  154.7378 C   0  0  0  0  0  0  0  0  0  0  0  0
  147.4160  141.4782  153.4143 C   0  0  0  0  0  0  0  0  0  0  0  0
  148.7834  141.2727  153.7365 O   0  0  0  0  0  0  0  0  0  0  0  0
  152.5486  140.3761  158.5521 N   0  0  0  0  0  0  0  0  0  0  0  0
  152.7832  139.4549  158.2120 H   0  0  0  0  0  0  0  0  0  0  0  0
  153.7030  142.9061  160.4244 H   0  0  0  0  0  0  0  0  0  0  0  0
  150.9521  140.3480  154.8680 H   0  0  0  0  0  0  0  0  0  0  0  0
  150.5280  141.7758  155.7932 H   0  0  0  0  0  0  0  0  0  0  0  0
  148.4965  139.6390  154.9333 H   0  0  0  0  0  0  0  0  0  0  0  0
  147.3462  140.9298  156.6222 H   0  0  0  0  0  0  0  0  0  0  0  0
  148.2357  142.3943  156.2083 H   0  0  0  0  0  0  0  0  0  0  0  0
  145.8119  141.3530  154.8766 H   0  0  0  0  0  0  0  0  0  0  0  0
  146.5576  142.9479  154.7737 H   0  0  0  0  0  0  0  0  0  0  0  0
  146.9921  140.5447  153.0411 H   0  0  0  0  0  0  0  0  0  0  0  0
  147.3003  142.2378  152.6408 H   0  0  0  0  0  0  0  0  0  0  0  0
  1  2  2  0  0  0  0
  2 18  1  0  0  0  0
  2  3  1  0  0  0  0
  3 20  1  0  0  0  0
  3  4  2  0  0  0  0
  4  5  1  0  0  0  0
  4  9  1  0  0  0  0
  5  6  1  0  0  0  0
  5  7  1  0  0  0  0
  5  8  1  0  0  0  0
  9 10  2  0  0  0  0
 10 11  1  0  0  0  0
 10 18  1  0  0  0  0
 11 12  1  0  0  0  0
 12 13  1  0  0  0  0
 12 21  1  0  0  0  0
 12 22  1  0  0  0  0
 13 17  1  0  0  0  0
 13 14  1  0  0  0  0
 13 23  1  0  0  0  0
 14 15  1  0  0  0  0
 14 24  1  0  0  0  0
 14 25  1  0  0  0  0
 15 16  1  0  0  0  0
 15 26  1  0  0  0  0
 15 27  1  0  0  0  0
 16 17  1  0  0  0  0
 16 28  1  0  0  0  0
 16 29  1  0  0  0  0
 18 19  1  0  0  0  0
M  END
> <s_m_source_file>
AV-unprocessed.smi

> <i_m_source_file_index>
2671

> <i_lp_mmshare_version>
43012

> <i_f3d_flags>
0

> <s_epik_input>
W09IXWMxW2NIXWMoQyhGKShGKUYpbmMobjEpU1tDSDJdW0NAQEhdMltDSDJdW0NIMl1bQ0gyXU8y

> <s_epik_cmdline>
J2VwaWtfcHl0aG9uJywgJy1waCcsICc3LjAnLCAnLXRuJywgJzgnLCAnLW1hJywgJzIwMCcsICctbWV0YWxfYmluZGluZycsICctaW1hZScsICc8aW5maWxlLm1hZT4nLCAnLW9tYWUnLCAnPG91dGZpbGUubWFlPic=

> <r_lp_tautomer_probability>
0.660323

> <r_epik_Ionization_Penalty>
0.14469

> <r_epik_Ionization_Penalty_Charging>
0.14469

> <r_epik_Ionization_Penalty_Neutral>
3.1007e-10

> <r_epik_State_Penalty>
0.804349

> <r_epik_Charging_Adjusted_Penalty>
0.949039

> <i_epik_Tot_Q>
0

> <i_epik_Tot_abs_Q>
0

> <r_epik_Metal_State_Penalty>
1.52783

> <b_epik_Metal_Only>
0

> <s_lp_Force_Field>
OPLS_2005

> <r_lp_Energy>
21.2292

> <b_lp_Chiralities_Consistent>
1

> <s_lp_Variant>
AV-unprocessed.smi:2671-4

> <Gold.Version>
5.8.1

> <Gold.Id.Protein>
6NUR|6NUR_protein|mol2

> <Gold.PLP.Fitness>
39.6584

> <Gold.PLP.PLP>
-38.2702

> <Gold.PLP.part.hbond>
-1.9509

> <Gold.PLP.part.metal>
0.0000

> <Gold.PLP.part.buried>
-5.2696

> <Gold.PLP.part.nonpolar>
-30.9665

> <Gold.PLP.part.repulsive>
0.5662

> <Gold.PLP.ligand.clash>
0.0000

> <Gold.PLP.ligand.torsion>
0.9649

> <Gold.PLP.Chemscore.Hbond>
1.0855

> <Gold.PLP.Chemscore.CHOScore>
0.0000

> <Gold.PLP.Chemscore.Metal>
0.0000

> <Gold.Chemscore.Hbonds>
donor molecule, donor type, donor heavy atom, donor atom, acceptor molecule, acceptor atom, score
      P1  H  8011  8017       L1    17  0.74

> <Gold.PLP.Chemscore.Internal.Correction>
0.0616

> <Gold.Rescore>
     Score         DG    S(hbond)    S(metal)    S(lipo)     H(rot)  DE(clash)    DE(int)     intcor
     10.46     -11.25       0.74        0.00      65.20       1.69       0.21       0.57       ----

> <Gold.Chemscore.Fitness>
10.4647

> <Gold.Chemscore.DG>
-11.2512

> <Gold.Chemscore.ZeroCoef>
-5.4800

> <Gold.Chemscore.Hbond>
0.7412

> <Gold.Chemscore.Metal>
0.0000

> <Gold.Chemscore.Lipo>
65.1959

> <Gold.Chemscore.Internal_Hbond>
0.0000

> <Gold.Chemscore.DEClash>
0.2130

> <Gold.Chemscore.DEInternal>
0.5735

> <Gold.Chemscore.Rot>
1.6924

> <Gold.Chemscore.Internal.Correction>
   9.000000E+99

> <Gold.Chemscore.Hbonds>
donor molecule, donor type, donor heavy atom, donor atom, acceptor molecule, acceptor atom, score
      P1  H  7997  8008       L1     1  0.01
      P1  H  8011  8017       L1    17  0.29

> <Gold.Chemscore.Hbond.Weighted>
-2.4757

> <Gold.Chemscore.Metal.Weighted>
-0.0000

> <Gold.Chemscore.Lipo.Weighted>
-7.6279

> <Gold.Chemscore.Internal_Hbond.Weighted>
0.0000

> <Gold.Chemscore.DEClash.Weighted>
0.2130

> <Gold.Chemscore.DEInternal.Weighted>
0.5735

> <Gold.Chemscore.Rot.Weighted>
4.3324

> <Gold.Chemscore.Internal.Correction.Weighted>
   9.000000E+99

> <Gold.Protein.RotatedTorsions>
[ 6907 6896 6895 6894 ] final -131.86 input  -60.11 | X-H torsion
[ 7974 7965 7964 7962 ] final -141.54 input  175.53 | X-H torsion
[ 8008 7997 7996 7995 ] final -133.53 input   59.86 | X-H torsion
[ 10167 10162 10161 10158 ] final  -33.94 input  -65.29 | X-H torsion
[ 10718 10713 10712 10709 ] final  -32.66 input   66.30 | X-H torsion
[ 10763 10752 10751 10750 ] final -113.47 input  -60.55 | X-H torsion
[ 11005 11000 10999 10996 ] final   94.54 input  -57.11 | X-H torsion

> <Gold.Protein.ActiveResidues>
 VAL166  LYS551  ARG553  GLY616  TRP617  ASP618  TYR619  PRO620  LYS621  CYS622 
 ASP623  PHE694  ASN695  SER759  ASP760  ASP761  ALA762  ILE779  LEU786  VAL792 
 PHE793  MET794  SER795  GLU796  ALA797  LYS798  CYS799  TRP800  GLU811  SER814 

> <Gold.Protein.RotatedAtoms>
  150.9557  133.6500  159.2763 H   0  0  0  0  0  0  0  0  0  0  0  0  # atno 6907 bound_to 6896
  151.3840  135.0943  159.9515 H   0  0  0  0  0  0  0  0  0  0  0  0  # atno 6908 bound_to 6896
  152.5128  133.9086  159.7531 H   0  0  0  0  0  0  0  0  0  0  0  0  # atno 6909 bound_to 6896
  144.8511  140.6067  143.5389 H   0  0  0  0  0  0  0  0  0  0  0  0  # atno 7974 bound_to 7965
  155.3471  140.0475  157.3045 H   0  0  0  0  0  0  0  0  0  0  0  0  # atno 8008 bound_to 7997
  154.5247  140.2237  155.8877 H   0  0  0  0  0  0  0  0  0  0  0  0  # atno 8009 bound_to 7997
  156.1726  140.3092  155.9008 H   0  0  0  0  0  0  0  0  0  0  0  0  # atno 8010 bound_to 7997
  140.7195  143.3584  151.2013 H   0  0  0  0  0  0  0  0  0  0  0  0  # atno 10167 bound_to 10162
  156.3722  130.4341  149.7536 H   0  0  0  0  0  0  0  0  0  0  0  0  # atno 10718 bound_to 10713
  154.8397  135.4453  154.1354 H   0  0  0  0  0  0  0  0  0  0  0  0  # atno 10763 bound_to 10752
  153.2554  135.6931  153.7641 H   0  0  0  0  0  0  0  0  0  0  0  0  # atno 10764 bound_to 10752
  153.6938  135.3383  155.3184 H   0  0  0  0  0  0  0  0  0  0  0  0  # atno 10765 bound_to 10752
  139.8797  134.8851  156.3879 H   0  0  0  0  0  0  0  0  0  0  0  0  # atno 11005 bound_to 11000
  145.4497  139.1525  143.3925 LP  0  0  0  0  0  0  0  0  0  0  0  0  # atno 17320 bound_to 7965
  146.2786  140.4623  142.8785 LP  0  0  0  0  0  0  0  0  0  0  0  0  # atno 17321 bound_to 7965
  139.7130  143.9346  152.2955 LP  0  0  0  0  0  0  0  0  0  0  0  0  # atno 17342 bound_to 10162
  139.9077  144.6875  150.8596 LP  0  0  0  0  0  0  0  0  0  0  0  0  # atno 17343 bound_to 10162
  156.4659  130.7974  151.2993 LP  0  0  0  0  0  0  0  0  0  0  0  0  # atno 17370 bound_to 10713
  157.7485  131.0051  150.3101 LP  0  0  0  0  0  0  0  0  0  0  0  0  # atno 17371 bound_to 10713
  140.9353  133.7551  156.0077 LP  0  0  0  0  0  0  0  0  0  0  0  0  # atno 17394 bound_to 11000
  140.8283  134.3209  157.5358 LP  0  0  0  0  0  0  0  0  0  0  0  0  # atno 17395 bound_to 11000

$$$$
