AV-unprocessed.smi:692|AV-procd|sdf|3370|dock6
  -GOLD-   22720 0343D 1   1.00000     0.00000
 Structure written by MMmdl.
 36 37  0  0  0  0  0  0  0  0  2 V2000
  151.6802  145.1236  159.7980 C   0  0  0  0  0  0  0  0  0  0  0  0
  151.7994  144.0084  160.8427 C   0  0  0  0  0  0  0  0  0  0  0  0
  152.6067  142.8477  160.3468 C   0  0  0  0  0  0  0  0  0  0  0  0
  153.7439  142.3332  160.9133 C   0  0  0  0  0  0  0  0  0  0  0  0
  154.3551  140.9767  160.0103 S   0  0  0  0  0  0  0  0  0  0  0  0
  153.0258  141.1559  158.8631 C   0  0  0  0  0  0  0  0  0  0  0  0
  152.8228  140.3728  157.7913 N   0  5  0  0  0  0  0  0  0  0  0  0
  151.5726  139.9585  157.4840 C   0  0  0  0  0  0  0  0  0  0  0  0
  150.8290  139.2851  158.2011 O   0  0  0  0  0  0  0  0  0  0  0  0
  151.1572  140.3520  156.2715 N   0  0  0  0  0  0  0  0  0  0  0  0
  149.8582  140.0589  155.6721 C   0  0  2  0  0  0  0  0  0  0  0  0
  150.0483  139.2111  154.4133 C   0  0  0  0  0  0  0  0  0  0  0  0
  148.6901  138.8587  153.7954 C   0  0  0  0  0  0  0  0  0  0  0  0
  147.7419  140.0604  153.6644 C   0  0  0  0  0  0  0  0  0  0  0  0
  146.7934  139.9681  152.8842 O   0  0  0  0  0  0  0  0  0  0  0  0
  147.9544  141.1619  154.4247 N   0  0  0  0  0  0  0  0  0  0  0  0
  147.0425  142.3040  154.3417 C   0  0  0  0  0  0  0  0  0  0  0  0
  149.1098  141.3577  155.3141 C   0  0  0  0  0  0  0  0  0  0  0  0
  152.2131  142.1659  159.1923 N   0  0  0  0  0  0  0  0  0  0  0  0
  151.0870  145.9538  160.1816 H   0  0  0  0  0  0  0  0  0  0  0  0
  151.1989  144.7606  158.8895 H   0  0  0  0  0  0  0  0  0  0  0  0
  152.6613  145.5135  159.5248 H   0  0  0  0  0  0  0  0  0  0  0  0
  152.2477  144.4128  161.7509 H   0  0  0  0  0  0  0  0  0  0  0  0
  150.8007  143.6748  161.1258 H   0  0  0  0  0  0  0  0  0  0  0  0
  154.2563  142.6657  161.8032 H   0  0  0  0  0  0  0  0  0  0  0  0
  151.8002  140.9007  155.7198 H   0  0  0  0  0  0  0  0  0  0  0  0
  149.2604  139.4831  156.3818 H   0  0  0  0  0  0  0  0  0  0  0  0
  150.6575  139.7493  153.6855 H   0  0  0  0  0  0  0  0  0  0  0  0
  150.5884  138.2946  154.6540 H   0  0  0  0  0  0  0  0  0  0  0  0
  148.8363  138.4029  152.8155 H   0  0  0  0  0  0  0  0  0  0  0  0
  148.1917  138.1120  154.4144 H   0  0  0  0  0  0  0  0  0  0  0  0
  146.0485  142.0247  154.6936 H   0  0  0  0  0  0  0  0  0  0  0  0
  146.9547  142.6563  153.3128 H   0  0  0  0  0  0  0  0  0  0  0  0
  147.3825  143.1471  154.9448 H   0  0  0  0  0  0  0  0  0  0  0  0
  148.7879  141.8510  156.2326 H   0  0  0  0  0  0  0  0  0  0  0  0
  149.7913  142.0477  154.8142 H   0  0  0  0  0  0  0  0  0  0  0  0
  1  2  1  0  0  0  0
  1 20  1  0  0  0  0
  1 21  1  0  0  0  0
  1 22  1  0  0  0  0
  2  3  1  0  0  0  0
  2 23  1  0  0  0  0
  2 24  1  0  0  0  0
  3 19  1  0  0  0  0
  3  4  2  0  0  0  0
  4  5  1  0  0  0  0
  4 25  1  0  0  0  0
  5  6  1  0  0  0  0
  6  7  1  0  0  0  0
  6 19  2  0  0  0  0
  7  8  1  0  0  0  0
  8  9  2  0  0  0  0
  8 10  1  0  0  0  0
 10 11  1  0  0  0  0
 10 26  1  0  0  0  0
 11 18  1  0  0  0  0
 11 12  1  0  0  0  0
 11 27  1  0  0  0  0
 12 13  1  0  0  0  0
 12 28  1  0  0  0  0
 12 29  1  0  0  0  0
 13 14  1  0  0  0  0
 13 30  1  0  0  0  0
 13 31  1  0  0  0  0
 14 15  2  0  0  0  0
 14 16  1  0  0  0  0
 16 17  1  0  0  0  0
 16 18  1  0  0  0  0
 17 32  1  0  0  0  0
 17 33  1  0  0  0  0
 17 34  1  0  0  0  0
 18 35  1  0  0  0  0
 18 36  1  0  0  0  0
M  CHG  1   7  -1
M  END
> <s_m_source_file>
AV-unprocessed.smi

> <i_m_source_file_index>
692

> <i_lp_mmshare_version>
43012

> <i_f3d_flags>
0

> <s_epik_input>
W0NIM11bQ0gyXWMxW2NIXXNjKG4xKVtOSF1DKD1PKVtOSF1bQ0BASF0yW0NIMl1bQ0gyXUMoPU8pTihbQ0gzXSlbQ0gyXTI=

> <s_epik_cmdline>
J2VwaWtfcHl0aG9uJywgJy1waCcsICc3LjAnLCAnLXRuJywgJzgnLCAnLW1hJywgJzIwMCcsICctbWV0YWxfYmluZGluZycsICctaW1hZScsICc8aW5maWxlLm1hZT4nLCAnLW9tYWUnLCAnPG91dGZpbGUubWFlPic=

> <r_lp_tautomer_probability>
1

> <r_epik_Ionization_Penalty>
7.06728

> <r_epik_Ionization_Penalty_Charging>
5.78908

> <r_epik_Ionization_Penalty_Neutral>
1.2782

> <r_epik_State_Penalty>
5.78905

> <r_epik_Charging_Adjusted_Penalty>
11.5781

> <i_epik_Tot_Q>
-1

> <i_epik_Tot_abs_Q>
1

> <r_epik_Metal_State_Penalty>
1.76044

> <b_epik_Metal_Only>
1

> <s_lp_Force_Field>
OPLS_2005

> <r_lp_Energy>
4.23382

> <b_lp_Chiralities_Consistent>
1

> <s_lp_Variant>
AV-unprocessed.smi:692-3

> <Gold.Version>
5.8.1

> <Gold.Id.Protein>
6NUR|6NUR_protein|mol2

> <Gold.PLP.Fitness>
42.3596

> <Gold.PLP.PLP>
-38.2463

> <Gold.PLP.part.hbond>
-1.0000

> <Gold.PLP.part.metal>
0.0000

> <Gold.PLP.part.buried>
-3.2393

> <Gold.PLP.part.nonpolar>
-33.8109

> <Gold.PLP.part.repulsive>
0.3598

> <Gold.PLP.ligand.clash>
0.0000

> <Gold.PLP.ligand.torsion>
0.9015

> <Gold.PLP.Chemscore.Hbond>
1.9666

> <Gold.PLP.Chemscore.CHOScore>
0.0000

> <Gold.PLP.Chemscore.Metal>
0.0000

> <Gold.Chemscore.Hbonds>
donor molecule, donor type, donor heavy atom, donor atom, acceptor molecule, acceptor atom, score
      P1  H  7997  8008       L1     7  1.73

> <Gold.PLP.Chemscore.Internal.Correction>
0.0165

> <Gold.Rescore>
     Score         DG    S(hbond)    S(metal)    S(lipo)     H(rot)  DE(clash)    DE(int)     intcor
     13.99     -15.13       0.85        0.00      85.03       1.23       0.23       0.92       ----

> <Gold.Chemscore.Fitness>
13.9907

> <Gold.Chemscore.DG>
-15.1329

> <Gold.Chemscore.ZeroCoef>
-5.4800

> <Gold.Chemscore.Hbond>
0.8505

> <Gold.Chemscore.Metal>
0.0000

> <Gold.Chemscore.Lipo>
85.0292

> <Gold.Chemscore.Internal_Hbond>
0.0000

> <Gold.Chemscore.DEClash>
0.2257

> <Gold.Chemscore.DEInternal>
0.9166

> <Gold.Chemscore.Rot>
1.2251

> <Gold.Chemscore.Internal.Correction>
   9.000000E+99

> <Gold.Chemscore.Hbonds>
donor molecule, donor type, donor heavy atom, donor atom, acceptor molecule, acceptor atom, score
      P1  H  7997  8008       L1     7  0.55

> <Gold.Chemscore.Hbond.Weighted>
-2.8407

> <Gold.Chemscore.Metal.Weighted>
-0.0000

> <Gold.Chemscore.Lipo.Weighted>
-9.9484

> <Gold.Chemscore.Internal_Hbond.Weighted>
0.0000

> <Gold.Chemscore.DEClash.Weighted>
0.2257

> <Gold.Chemscore.DEInternal.Weighted>
0.9166

> <Gold.Chemscore.Rot.Weighted>
3.1362

> <Gold.Chemscore.Internal.Correction.Weighted>
   9.000000E+99

> <Gold.Protein.RotatedTorsions>
[ 6907 6896 6895 6894 ] final  148.61 input  -60.11 | X-H torsion
[ 7974 7965 7964 7962 ] final  103.80 input  175.53 | X-H torsion
[ 8008 7997 7996 7995 ] final  -80.19 input   59.86 | X-H torsion
[ 10167 10162 10161 10158 ] final  -23.62 input  -65.29 | X-H torsion
[ 10718 10713 10712 10709 ] final  116.98 input   66.30 | X-H torsion
[ 10763 10752 10751 10750 ] final -154.33 input  -60.55 | X-H torsion
[ 11005 11000 10999 10996 ] final  -37.49 input  -57.11 | X-H torsion

> <Gold.Protein.ActiveResidues>
 VAL166  LYS551  ARG553  GLY616  TRP617  ASP618  TYR619  PRO620  LYS621  CYS622 
 ASP623  PHE694  ASN695  SER759  ASP760  ASP761  ALA762  ILE779  LEU786  VAL792 
 PHE793  MET794  SER795  GLU796  ALA797  LYS798  CYS799  TRP800  GLU811  SER814 

> <Gold.Protein.RotatedAtoms>
  152.1392  133.4454  159.4758 H   0  0  0  0  0  0  0  0  0  0  0  0  # atno 6907 bound_to 6896
  150.6884  134.2326  159.4449 H   0  0  0  0  0  0  0  0  0  0  0  0  # atno 6908 bound_to 6896
  152.0215  134.9819  160.0621 H   0  0  0  0  0  0  0  0  0  0  0  0  # atno 6909 bound_to 6896
  145.3412  139.2462  143.3608 H   0  0  0  0  0  0  0  0  0  0  0  0  # atno 7974 bound_to 7965
  154.5859  140.0666  156.9170 H   0  0  0  0  0  0  0  0  0  0  0  0  # atno 8008 bound_to 7997
  155.2380  140.3342  155.4277 H   0  0  0  0  0  0  0  0  0  0  0  0  # atno 8009 bound_to 7997
  156.2222  140.1804  156.7433 H   0  0  0  0  0  0  0  0  0  0  0  0  # atno 8010 bound_to 7997
  140.7288  143.4426  151.0634 H   0  0  0  0  0  0  0  0  0  0  0  0  # atno 10167 bound_to 10162
  157.6126  131.1032  150.7549 H   0  0  0  0  0  0  0  0  0  0  0  0  # atno 10718 bound_to 10713
  154.7866  135.3192  154.7872 H   0  0  0  0  0  0  0  0  0  0  0  0  # atno 10763 bound_to 10752
  153.8570  135.6857  153.4791 H   0  0  0  0  0  0  0  0  0  0  0  0  # atno 10764 bound_to 10752
  153.1520  135.4695  154.9590 H   0  0  0  0  0  0  0  0  0  0  0  0  # atno 10765 bound_to 10752
  140.9956  133.6982  156.1928 H   0  0  0  0  0  0  0  0  0  0  0  0  # atno 11005 bound_to 11000
  146.3006  140.4010  142.8705 LP  0  0  0  0  0  0  0  0  0  0  0  0  # atno 17320 bound_to 7965
  144.8789  140.7373  143.5999 LP  0  0  0  0  0  0  0  0  0  0  0  0  # atno 17321 bound_to 7965
  139.8095  143.7971  152.3170 LP  0  0  0  0  0  0  0  0  0  0  0  0  # atno 17342 bound_to 10162
  139.8016  144.7372  150.9818 LP  0  0  0  0  0  0  0  0  0  0  0  0  # atno 17343 bound_to 10162
  156.7923  130.4894  149.5383 LP  0  0  0  0  0  0  0  0  0  0  0  0  # atno 17370 bound_to 10713
  156.1235  130.6127  151.0229 LP  0  0  0  0  0  0  0  0  0  0  0  0  # atno 17371 bound_to 10713
  140.6971  134.4603  157.5587 LP  0  0  0  0  0  0  0  0  0  0  0  0  # atno 17394 bound_to 11000
  139.9013  134.8550  156.1885 LP  0  0  0  0  0  0  0  0  0  0  0  0  # atno 17395 bound_to 11000

$$$$
