AV-unprocessed.smi:188|AV-procd|sdf|1474|dock5
  -GOLD-   2262019293D 1   1.00000     0.00000
 Structure written by MMmdl.
 48 52  0  0  0  0  0  0  0  0  2 V2000
  148.1150  136.7408  161.9520 O   0  0  0  0  0  0  0  0  0  0  0  0
  147.5507  136.4594  160.8972 C   0  0  0  0  0  0  0  0  0  0  0  0
  147.6602  135.2470  160.3469 N   0  0  0  0  0  0  0  0  0  0  0  0
  146.9746  135.1557  159.2120 C   0  0  0  0  0  0  0  0  0  0  0  0
  146.8827  134.1685  158.4832 O   0  0  0  0  0  0  0  0  0  0  0  0
  146.3141  136.5113  158.9743 C   0  0  0  0  0  0  0  0  0  0  0  0
  146.8059  137.2009  157.6784 C   0  0  0  0  0  0  0  0  0  0  0  0
  146.2139  136.5623  156.4083 C   0  0  0  0  0  0  0  0  0  0  0  0
  144.7530  136.5002  156.4826 N   0  0  0  0  0  0  0  0  0  0  0  0
  144.0775  136.2534  155.3311 C   0  0  0  0  0  0  0  0  0  0  0  0
  142.7264  136.4076  155.2895 N   0  0  0  0  0  0  0  0  0  0  0  0
  142.0540  136.1795  154.1580 C   0  0  0  0  0  0  0  0  0  0  0  0
  142.5249  135.7913  152.9717 N   0  0  0  0  0  0  0  0  0  0  0  0
  143.8770  135.6217  153.0073 C   0  0  0  0  0  0  0  0  0  0  0  0
  144.7232  135.8324  154.1337 C   0  0  0  0  0  0  0  0  0  0  0  0
  146.0414  135.5551  153.7909 N   0  0  0  0  0  0  0  0  0  0  0  0
  145.9795  135.2111  152.5341 C   0  0  0  0  0  0  0  0  0  0  0  0
  144.7167  135.2126  151.9852 N   0  0  0  0  0  0  0  0  0  0  0  0
  144.3680  134.8670  150.6148 C   0  0  0  0  0  0  0  0  0  0  0  0
  144.5431  133.3749  150.2656 C   0  0  0  0  0  0  0  0  0  0  0  0
  146.0003  132.9549  150.5512 C   0  0  0  0  0  0  0  0  0  0  0  0
  146.2812  131.6401  150.1141 O   0  0  0  0  0  0  0  0  0  0  0  0
  143.4556  132.4222  150.7846 C   0  0  0  0  0  0  0  0  0  0  0  0
  143.2100  131.8906  149.4641 O   0  0  0  0  0  0  0  0  0  0  0  0
  143.9798  132.9718  148.8947 C   0  0  0  0  0  0  0  0  0  0  0  0
  144.2177  135.8153  157.6588 C   0  0  0  0  0  0  0  0  0  0  0  0
  144.7678  136.4326  158.9588 C   0  0  0  0  0  0  0  0  0  0  0  0
  146.7651  137.2592  160.1383 N   0  5  0  0  0  0  0  0  0  0  0  0
  148.1981  134.4925  160.7457 H   0  0  0  0  0  0  0  0  0  0  0  0
  146.5258  138.2555  157.7002 H   0  0  0  0  0  0  0  0  0  0  0  0
  147.8954  137.1815  157.6206 H   0  0  0  0  0  0  0  0  0  0  0  0
  146.5159  137.1496  155.5400 H   0  0  0  0  0  0  0  0  0  0  0  0
  146.6136  135.5578  156.2663 H   0  0  0  0  0  0  0  0  0  0  0  0
  140.9859  136.3283  154.2123 H   0  0  0  0  0  0  0  0  0  0  0  0
  146.8595  134.9353  151.9713 H   0  0  0  0  0  0  0  0  0  0  0  0
  143.3385  135.1840  150.4438 H   0  0  0  0  0  0  0  0  0  0  0  0
  144.9765  135.4795  149.9480 H   0  0  0  0  0  0  0  0  0  0  0  0
  146.7020  133.6312  150.0619 H   0  0  0  0  0  0  0  0  0  0  0  0
  146.2185  132.9885  151.6189 H   0  0  0  0  0  0  0  0  0  0  0  0
  147.2174  131.5437  150.0289 H   0  0  0  0  0  0  0  0  0  0  0  0
  143.8180  131.6670  151.4830 H   0  0  0  0  0  0  0  0  0  0  0  0
  142.5716  132.9234  151.1798 H   0  0  0  0  0  0  0  0  0  0  0  0
  143.3366  133.7279  148.4413 H   0  0  0  0  0  0  0  0  0  0  0  0
  144.7289  132.6267  148.1811 H   0  0  0  0  0  0  0  0  0  0  0  0
  143.1295  135.8592  157.6811 H   0  0  0  0  0  0  0  0  0  0  0  0
  144.4789  134.7586  157.5991 H   0  0  0  0  0  0  0  0  0  0  0  0
  144.4032  135.8612  159.8139 H   0  0  0  0  0  0  0  0  0  0  0  0
  144.3522  137.4355  159.0700 H   0  0  0  0  0  0  0  0  0  0  0  0
  1  2  2  0  0  0  0
  2 28  1  0  0  0  0
  2  3  1  0  0  0  0
  3  4  1  0  0  0  0
  3 29  1  0  0  0  0
  4  5  2  0  0  0  0
  4  6  1  0  0  0  0
  6 27  1  0  0  0  0
  6  7  1  0  0  0  0
  6 28  1  0  0  0  0
  7  8  1  0  0  0  0
  7 30  1  0  0  0  0
  7 31  1  0  0  0  0
  8  9  1  0  0  0  0
  8 32  1  0  0  0  0
  8 33  1  0  0  0  0
  9 10  1  0  0  0  0
  9 26  1  0  0  0  0
 10 15  1  0  0  0  0
 10 11  2  0  0  0  0
 11 12  1  0  0  0  0
 12 13  2  0  0  0  0
 12 34  1  0  0  0  0
 13 14  1  0  0  0  0
 14 18  1  0  0  0  0
 14 15  2  0  0  0  0
 15 16  1  0  0  0  0
 16 17  2  0  0  0  0
 17 18  1  0  0  0  0
 17 35  1  0  0  0  0
 18 19  1  0  0  0  0
 19 20  1  0  0  0  0
 19 36  1  0  0  0  0
 19 37  1  0  0  0  0
 20 25  1  0  0  0  0
 20 21  1  0  0  0  0
 20 23  1  0  0  0  0
 21 22  1  0  0  0  0
 21 38  1  0  0  0  0
 21 39  1  0  0  0  0
 22 40  1  0  0  0  0
 23 24  1  0  0  0  0
 23 41  1  0  0  0  0
 23 42  1  0  0  0  0
 24 25  1  0  0  0  0
 25 43  1  0  0  0  0
 25 44  1  0  0  0  0
 26 27  1  0  0  0  0
 26 45  1  0  0  0  0
 26 46  1  0  0  0  0
 27 47  1  0  0  0  0
 27 48  1  0  0  0  0
M  CHG  1  28  -1
M  END
> <s_m_source_file>
AV-unprocessed.smi

> <i_m_source_file_index>
188

> <i_lp_mmshare_version>
43012

> <i_f3d_flags>
0

> <s_epik_input>
Tz1DKFtOSF0xKVtOSF1DKD1PKUMxMltDSDJdW0NIMl1OKFtDSDJdW0NIMl0yKWMobltjSF1uMyljKGMzNCluW2NIXW40W0NIMl1DNShbQ0gyXVtPSF0pW0NIMl1PW0NIMl01

> <s_epik_cmdline>
J2VwaWtfcHl0aG9uJywgJy1waCcsICc3LjAnLCAnLXRuJywgJzgnLCAnLW1hJywgJzIwMCcsICctbWV0YWxfYmluZGluZycsICctaW1hZScsICc8aW5maWxlLm1hZT4nLCAnLW9tYWUnLCAnPG91dGZpbGUubWFlPic=

> <r_lp_tautomer_probability>
1

> <r_epik_Ionization_Penalty>
5.87904

> <r_epik_Ionization_Penalty_Charging>
5.87677

> <r_epik_Ionization_Penalty_Neutral>
0.00227107

> <r_epik_State_Penalty>
5.88193

> <r_epik_Charging_Adjusted_Penalty>
11.7587

> <i_epik_Tot_Q>
-1

> <i_epik_Tot_abs_Q>
1

> <r_epik_Metal_State_Penalty>
2.21794

> <b_epik_Metal_Only>
1

> <s_lp_Force_Field>
OPLS_2005

> <r_lp_Energy>
46.2215

> <b_lp_Chiralities_Consistent>
1

> <s_lp_Variant>
AV-unprocessed.smi:188-3

> <Gold.Version>
5.8.1

> <Gold.Id.Protein>
6NUR|6NUR_protein|mol2

> <Gold.PLP.Fitness>
47.1993

> <Gold.PLP.PLP>
-29.3874

> <Gold.PLP.part.hbond>
-4.0000

> <Gold.PLP.part.metal>
0.0000

> <Gold.PLP.part.buried>
-6.2644

> <Gold.PLP.part.nonpolar>
-20.7693

> <Gold.PLP.part.repulsive>
1.5429

> <Gold.PLP.ligand.clash>
0.0000

> <Gold.PLP.ligand.torsion>
0.4485

> <Gold.PLP.Chemscore.Hbond>
5.0000

> <Gold.PLP.Chemscore.CHOScore>
1.0000

> <Gold.PLP.Chemscore.Metal>
0.0000

> <Gold.Chemscore.Hbonds>
donor molecule, donor type, donor heavy atom, donor atom, acceptor molecule, acceptor atom, score
      L1  H    22    40       P1 10747  1.00
      P1  H  6931  6943       L1     1  1.00
      P1  H  6934  6947       L1    28  2.00
      P1  H 10785 10796       L1    24  1.00
      L1  C    17    35       P1  7948  0.94

> <Gold.PLP.Chemscore.Internal.Correction>
0.7089

> <Gold.Rescore>
     Score         DG    S(hbond)    S(metal)    S(lipo)     H(rot)  DE(clash)    DE(int)     intcor
     10.78     -14.57       3.28        0.00      46.44       2.84       1.17       2.62       ----

> <Gold.Chemscore.Fitness>
10.7767

> <Gold.Chemscore.DG>
-14.5689

> <Gold.Chemscore.ZeroCoef>
-5.4800

> <Gold.Chemscore.Hbond>
3.2752

> <Gold.Chemscore.Metal>
0.0000

> <Gold.Chemscore.Lipo>
46.4351

> <Gold.Chemscore.Internal_Hbond>
0.0000

> <Gold.Chemscore.DEClash>
1.1680

> <Gold.Chemscore.DEInternal>
2.6242

> <Gold.Chemscore.Rot>
2.8450

> <Gold.Chemscore.Internal.Correction>
   9.000000E+99

> <Gold.Chemscore.Hbonds>
donor molecule, donor type, donor heavy atom, donor atom, acceptor molecule, acceptor atom, score
      L1  H    22    40       P1 10747  1.00
      P1  H  6931  6943       L1     1  0.91
      P1  H  6934  6947       L1    28  0.29
      P1  H 10785 10796       L1    24  0.98

> <Gold.Chemscore.Hbond.Weighted>
-10.9391

> <Gold.Chemscore.Metal.Weighted>
-0.0000

> <Gold.Chemscore.Lipo.Weighted>
-5.4329

> <Gold.Chemscore.Internal_Hbond.Weighted>
0.0000

> <Gold.Chemscore.DEClash.Weighted>
1.1680

> <Gold.Chemscore.DEInternal.Weighted>
2.6242

> <Gold.Chemscore.Rot.Weighted>
7.2831

> <Gold.Chemscore.Internal.Correction.Weighted>
   9.000000E+99

> <Gold.Protein.RotatedTorsions>
[ 6907 6896 6895 6894 ] final  -18.06 input  -60.11 | X-H torsion
[ 7974 7965 7964 7962 ] final  105.26 input  175.53 | X-H torsion
[ 8008 7997 7996 7995 ] final -147.13 input   59.86 | X-H torsion
[ 10167 10162 10161 10158 ] final  131.90 input  -65.29 | X-H torsion
[ 10718 10713 10712 10709 ] final -116.86 input   66.30 | X-H torsion
[ 10763 10752 10751 10750 ] final  149.06 input  -60.55 | X-H torsion
[ 11005 11000 10999 10996 ] final  156.50 input  -57.11 | X-H torsion

> <Gold.Protein.ActiveResidues>
 VAL166  LYS551  ARG553  GLY616  TRP617  ASP618  TYR619  PRO620  LYS621  CYS622 
 ASP623  PHE694  ASN695  SER759  ASP760  ASP761  ALA762  ILE779  LEU786  VAL792 
 PHE793  MET794  SER795  GLU796  ALA797  LYS798  CYS799  TRP800  GLU811  SER814 

> <Gold.Protein.RotatedAtoms>
  151.2838  135.0722  159.9178 H   0  0  0  0  0  0  0  0  0  0  0  0  # atno 6907 bound_to 6896
  152.5329  134.0003  159.7902 H   0  0  0  0  0  0  0  0  0  0  0  0  # atno 6908 bound_to 6896
  151.0261  133.5782  159.2696 H   0  0  0  0  0  0  0  0  0  0  0  0  # atno 6909 bound_to 6896
  145.3220  139.2510  143.3707 H   0  0  0  0  0  0  0  0  0  0  0  0  # atno 7974 bound_to 7965
  155.5706  140.0634  157.2807 H   0  0  0  0  0  0  0  0  0  0  0  0  # atno 8008 bound_to 7997
  154.4362  140.1869  156.0921 H   0  0  0  0  0  0  0  0  0  0  0  0  # atno 8009 bound_to 7997
  156.0379  140.3299  155.7215 H   0  0  0  0  0  0  0  0  0  0  0  0  # atno 8010 bound_to 7997
  139.5363  144.6686  151.4775 H   0  0  0  0  0  0  0  0  0  0  0  0  # atno 10167 bound_to 10162
  156.0993  130.6158  150.9089 H   0  0  0  0  0  0  0  0  0  0  0  0  # atno 10718 bound_to 10713
  154.0650  135.2871  155.3318 H   0  0  0  0  0  0  0  0  0  0  0  0  # atno 10763 bound_to 10752
  154.6783  135.5273  153.8233 H   0  0  0  0  0  0  0  0  0  0  0  0  # atno 10764 bound_to 10752
  153.0507  135.6575  154.0836 H   0  0  0  0  0  0  0  0  0  0  0  0  # atno 10765 bound_to 10752
  140.1681  134.8562  157.2657 H   0  0  0  0  0  0  0  0  0  0  0  0  # atno 11005 bound_to 11000
  146.3079  140.3779  142.8681 LP  0  0  0  0  0  0  0  0  0  0  0  0  # atno 17320 bound_to 7965
  144.8932  140.7549  143.5914 LP  0  0  0  0  0  0  0  0  0  0  0  0  # atno 17321 bound_to 7965
  140.6571  143.8576  150.6847 LP  0  0  0  0  0  0  0  0  0  0  0  0  # atno 17342 bound_to 10162
  140.1959  143.3998  152.1828 LP  0  0  0  0  0  0  0  0  0  0  0  0  # atno 17343 bound_to 10162
  157.6160  131.0933  150.8710 LP  0  0  0  0  0  0  0  0  0  0  0  0  # atno 17370 bound_to 10713
  156.8841  130.5189  149.5289 LP  0  0  0  0  0  0  0  0  0  0  0  0  # atno 17371 bound_to 10713
  140.2409  134.3796  155.7481 LP  0  0  0  0  0  0  0  0  0  0  0  0  # atno 17394 bound_to 11000
  141.2215  133.7265  156.8788 LP  0  0  0  0  0  0  0  0  0  0  0  0  # atno 17395 bound_to 11000

$$$$
