AV-unprocessed.smi:515|AV-procd|sdf|2782|dock1
  -GOLD-   2262023253D 1   1.00000     0.00000
 Structure written by MMmdl.
 46 48  0  0  0  0  0  0  0  0  2 V2000
  151.7103  145.7565  159.1730 C   0  0  0  0  0  0  0  0  0  0  0  0
  151.3322  144.3276  159.5696 C   0  0  0  0  0  0  0  0  0  0  0  0
  152.3997  143.4585  159.2314 O   0  0  0  0  0  0  0  0  0  0  0  0
  152.6554  142.4910  160.2355 C   0  0  0  0  0  0  0  0  0  0  0  0
  153.9221  141.7110  159.8631 C   0  0  0  0  0  0  0  0  0  0  0  0
  154.1407  140.5846  160.7646 N   0  0  0  0  0  0  0  0  0  0  0  0
  154.4402  140.6328  162.0897 C   0  0  0  0  0  0  0  0  0  0  0  0
  154.6018  141.9298  162.8394 C   0  0  0  0  0  0  0  0  0  0  0  0
  154.9103  141.7884  164.2632 N   0  0  0  0  0  0  0  0  0  0  0  0
  156.1553  141.0562  164.4636 C   0  0  0  0  0  0  0  0  0  0  0  0
  156.4897  140.8950  165.9567 C   0  0  0  0  0  0  0  0  0  0  0  0
  156.5506  142.1772  166.5736 O   0  0  0  0  0  0  0  0  0  0  0  0
  155.3390  142.9129  166.4355 C   0  0  0  0  0  0  0  0  0  0  0  0
  155.0054  143.0794  164.9433 C   0  0  0  0  0  0  0  0  0  0  0  0
  154.6164  139.4299  162.6481 N   0  0  0  0  0  0  0  0  0  0  0  0
  154.3974  138.5520  161.5984 C   0  0  0  0  0  0  0  0  0  0  0  0
  154.1180  139.2229  160.4507 C   0  0  0  0  0  0  0  0  0  0  0  0
  153.8658  138.5627  159.1511 C   0  0  0  0  0  0  0  0  0  0  0  0
  153.6434  139.2213  158.1370 O   0  0  0  0  0  0  0  0  0  0  0  0
  153.9212  137.1963  159.2470 N   0  5  0  0  0  0  0  0  0  0  0  0
  154.1922  136.4747  160.3901 C   0  0  0  0  0  0  0  0  0  0  0  0
  154.2212  135.2432  160.3900 O   0  0  0  0  0  0  0  0  0  0  0  0
  154.4380  137.1315  161.5676 N   0  0  0  0  0  0  0  0  0  0  0  0
  154.7333  136.3917  162.7978 C   0  0  0  0  0  0  0  0  0  0  0  0
  150.9115  146.4547  159.4234 H   0  0  0  0  0  0  0  0  0  0  0  0
  151.8945  145.8286  158.1009 H   0  0  0  0  0  0  0  0  0  0  0  0
  152.6131  146.0807  159.6914 H   0  0  0  0  0  0  0  0  0  0  0  0
  151.1322  144.2793  160.6412 H   0  0  0  0  0  0  0  0  0  0  0  0
  150.4219  144.0259  159.0492 H   0  0  0  0  0  0  0  0  0  0  0  0
  152.7844  142.9788  161.2028 H   0  0  0  0  0  0  0  0  0  0  0  0
  151.8070  141.8099  160.3198 H   0  0  0  0  0  0  0  0  0  0  0  0
  153.8537  141.3572  158.8364 H   0  0  0  0  0  0  0  0  0  0  0  0
  154.7952  142.3617  159.8804 H   0  0  0  0  0  0  0  0  0  0  0  0
  155.4022  142.4832  162.3467 H   0  0  0  0  0  0  0  0  0  0  0  0
  153.6989  142.5299  162.7337 H   0  0  0  0  0  0  0  0  0  0  0  0
  156.0833  140.0705  164.0027 H   0  0  0  0  0  0  0  0  0  0  0  0
  156.9748  141.5750  163.9640 H   0  0  0  0  0  0  0  0  0  0  0  0
  155.7402  140.2792  166.4562 H   0  0  0  0  0  0  0  0  0  0  0  0
  157.4499  140.3934  166.0788 H   0  0  0  0  0  0  0  0  0  0  0  0
  154.5303  142.3977  166.9561 H   0  0  0  0  0  0  0  0  0  0  0  0
  155.4563  143.8872  166.9095 H   0  0  0  0  0  0  0  0  0  0  0  0
  155.7742  143.6914  164.4694 H   0  0  0  0  0  0  0  0  0  0  0  0
  154.0705  143.6310  164.8491 H   0  0  0  0  0  0  0  0  0  0  0  0
  153.8919  135.7525  163.0691 H   0  0  0  0  0  0  0  0  0  0  0  0
  154.9318  137.0473  163.6455 H   0  0  0  0  0  0  0  0  0  0  0  0
  155.6128  135.7604  162.6632 H   0  0  0  0  0  0  0  0  0  0  0  0
  1  2  1  0  0  0  0
  1 25  1  0  0  0  0
  1 26  1  0  0  0  0
  1 27  1  0  0  0  0
  2  3  1  0  0  0  0
  2 28  1  0  0  0  0
  2 29  1  0  0  0  0
  3  4  1  0  0  0  0
  4  5  1  0  0  0  0
  4 30  1  0  0  0  0
  4 31  1  0  0  0  0
  5  6  1  0  0  0  0
  5 32  1  0  0  0  0
  5 33  1  0  0  0  0
  6 17  1  0  0  0  0
  6  7  1  0  0  0  0
  7  8  1  0  0  0  0
  7 15  2  0  0  0  0
  8  9  1  0  0  0  0
  8 34  1  0  0  0  0
  8 35  1  0  0  0  0
  9 14  1  0  0  0  0
  9 10  1  0  0  0  0
 10 11  1  0  0  0  0
 10 36  1  0  0  0  0
 10 37  1  0  0  0  0
 11 12  1  0  0  0  0
 11 38  1  0  0  0  0
 11 39  1  0  0  0  0
 12 13  1  0  0  0  0
 13 14  1  0  0  0  0
 13 40  1  0  0  0  0
 13 41  1  0  0  0  0
 14 42  1  0  0  0  0
 14 43  1  0  0  0  0
 15 16  1  0  0  0  0
 16 23  1  0  0  0  0
 16 17  2  0  0  0  0
 17 18  1  0  0  0  0
 18 19  2  0  0  0  0
 18 20  1  0  0  0  0
 20 21  1  0  0  0  0
 21 22  2  0  0  0  0
 21 23  1  0  0  0  0
 23 24  1  0  0  0  0
 24 44  1  0  0  0  0
 24 45  1  0  0  0  0
 24 46  1  0  0  0  0
M  CHG  1  20  -1
M  END
> <s_m_source_file>
AV-unprocessed.smi

> <i_m_source_file_index>
515

> <i_lp_mmshare_version>
43012

> <i_f3d_flags>
0

> <s_epik_input>
W0NIM11uMWMoPU8pW25IXWMoPU8pYyhjMTIpbihbQ0gyXVtDSDJdT1tDSDJdW0NIM10pYyhuMilbQ0gyXU4zW0NIMl1bQ0gyXU9bQ0gyXVtDSDJdMw==

> <s_epik_cmdline>
J2VwaWtfcHl0aG9uJywgJy1waCcsICc3LjAnLCAnLXRuJywgJzgnLCAnLW1hJywgJzIwMCcsICctbWV0YWxfYmluZGluZycsICctaW1hZScsICc8aW5maWxlLm1hZT4nLCAnLW9tYWUnLCAnPG91dGZpbGUubWFlPic=

> <r_epik_Ionization_Penalty>
4.8833

> <r_epik_Ionization_Penalty_Charging>
0.035962

> <r_epik_Ionization_Penalty_Neutral>
4.84734

> <r_epik_State_Penalty>
4.83718

> <r_epik_Charging_Adjusted_Penalty>
4.87314

> <i_epik_Tot_Q>
-1

> <i_epik_Tot_abs_Q>
1

> <r_epik_Metal_State_Penalty>
1.06056

> <b_epik_Metal_Only>
1

> <s_lp_Force_Field>
OPLS_2005

> <r_lp_Energy>
45.1348

> <b_lp_Chiralities_Consistent>
1

> <s_lp_Variant>
AV-unprocessed.smi:515-3

> <Gold.Version>
5.8.1

> <Gold.Id.Protein>
6NUR|6NUR_protein|mol2

> <Gold.PLP.Fitness>
43.9122

> <Gold.PLP.PLP>
-38.5563

> <Gold.PLP.part.hbond>
-2.0826

> <Gold.PLP.part.metal>
0.0000

> <Gold.PLP.part.buried>
-0.0424

> <Gold.PLP.part.nonpolar>
-36.4569

> <Gold.PLP.part.repulsive>
0.0000

> <Gold.PLP.ligand.clash>
0.0000

> <Gold.PLP.ligand.torsion>
0.3590

> <Gold.PLP.Chemscore.Hbond>
2.0000

> <Gold.PLP.Chemscore.CHOScore>
0.0000

> <Gold.PLP.Chemscore.Metal>
0.0000

> <Gold.Chemscore.Hbonds>
donor molecule, donor type, donor heavy atom, donor atom, acceptor molecule, acceptor atom, score
      P1  H  6896  6909       L1    22  1.00
      P1  H  7997  8009       L1    19  1.00

> <Gold.PLP.Chemscore.Internal.Correction>
0.0739

> <Gold.Rescore>
     Score         DG    S(hbond)    S(metal)    S(lipo)     H(rot)  DE(clash)    DE(int)     intcor
     13.99     -17.10       1.73        0.00      95.79       2.10       1.49       1.63       ----

> <Gold.Chemscore.Fitness>
13.9854

> <Gold.Chemscore.DG>
-17.0968

> <Gold.Chemscore.ZeroCoef>
-5.4800

> <Gold.Chemscore.Hbond>
1.7315

> <Gold.Chemscore.Metal>
0.0000

> <Gold.Chemscore.Lipo>
95.7893

> <Gold.Chemscore.Internal_Hbond>
0.0000

> <Gold.Chemscore.DEClash>
1.4852

> <Gold.Chemscore.DEInternal>
1.6262

> <Gold.Chemscore.Rot>
2.0991

> <Gold.Chemscore.Internal.Correction>
   9.000000E+99

> <Gold.Chemscore.Hbonds>
donor molecule, donor type, donor heavy atom, donor atom, acceptor molecule, acceptor atom, score
      P1  H  6896  6909       L1    22  0.50
      P1  H  7997  8009       L1    19  1.00

> <Gold.Chemscore.Hbond.Weighted>
-5.7832

> <Gold.Chemscore.Metal.Weighted>
-0.0000

> <Gold.Chemscore.Lipo.Weighted>
-11.2073

> <Gold.Chemscore.Internal_Hbond.Weighted>
0.0000

> <Gold.Chemscore.DEClash.Weighted>
1.4852

> <Gold.Chemscore.DEInternal.Weighted>
1.6262

> <Gold.Chemscore.Rot.Weighted>
5.3737

> <Gold.Chemscore.Internal.Correction.Weighted>
   9.000000E+99

> <Gold.Protein.RotatedTorsions>
[ 6907 6896 6895 6894 ] final  175.64 input  -60.11 | X-H torsion
[ 7974 7965 7964 7962 ] final  178.51 input  175.53 | X-H torsion
[ 8008 7997 7996 7995 ] final  157.24 input   59.86 | X-H torsion
[ 10167 10162 10161 10158 ] final  171.47 input  -65.29 | X-H torsion
[ 10718 10713 10712 10709 ] final  -67.26 input   66.30 | X-H torsion
[ 10763 10752 10751 10750 ] final  -72.58 input  -60.55 | X-H torsion
[ 11005 11000 10999 10996 ] final  143.63 input  -57.11 | X-H torsion

> <Gold.Protein.ActiveResidues>
 VAL166  LYS551  ARG553  GLY616  TRP617  ASP618  TYR619  PRO620  LYS621  CYS622 
 ASP623  PHE694  ASN695  SER759  ASP760  ASP761  ALA762  ILE779  LEU786  VAL792 
 PHE793  MET794  SER795  GLU796  ALA797  LYS798  CYS799  TRP800  GLU811  SER814 

> <Gold.Protein.RotatedAtoms>
  151.7330  133.3318  159.3345 H   0  0  0  0  0  0  0  0  0  0  0  0  # atno 6907 bound_to 6896
  150.7605  134.6346  159.6214 H   0  0  0  0  0  0  0  0  0  0  0  0  # atno 6908 bound_to 6896
  152.3580  134.6915  160.0268 H   0  0  0  0  0  0  0  0  0  0  0  0  # atno 6909 bound_to 6896
  144.7155  140.0408  143.6437 H   0  0  0  0  0  0  0  0  0  0  0  0  # atno 7974 bound_to 7965
  156.2375  140.1890  156.7078 H   0  0  0  0  0  0  0  0  0  0  0  0  # atno 8008 bound_to 7997
  154.6134  140.0618  156.9551 H   0  0  0  0  0  0  0  0  0  0  0  0  # atno 8009 bound_to 7997
  155.1978  140.3290  155.4350 H   0  0  0  0  0  0  0  0  0  0  0  0  # atno 8010 bound_to 7997
  139.5048  144.3482  151.9950 H   0  0  0  0  0  0  0  0  0  0  0  0  # atno 10167 bound_to 10162
  156.0567  130.4275  150.1828 H   0  0  0  0  0  0  0  0  0  0  0  0  # atno 10718 bound_to 10713
  154.4477  135.5925  153.6170 H   0  0  0  0  0  0  0  0  0  0  0  0  # atno 10763 bound_to 10752
  152.9811  135.6013  154.3644 H   0  0  0  0  0  0  0  0  0  0  0  0  # atno 10764 bound_to 10752
  154.3502  135.2841  155.2355 H   0  0  0  0  0  0  0  0  0  0  0  0  # atno 10765 bound_to 10752
  140.0569  134.9226  157.1116 H   0  0  0  0  0  0  0  0  0  0  0  0  # atno 11005 bound_to 11000
  146.0025  139.3103  143.0919 LP  0  0  0  0  0  0  0  0  0  0  0  0  # atno 17320 bound_to 7965
  145.8777  140.9382  143.0618 LP  0  0  0  0  0  0  0  0  0  0  0  0  # atno 17321 bound_to 7965
  140.2919  144.3744  150.6086 LP  0  0  0  0  0  0  0  0  0  0  0  0  # atno 17342 bound_to 10162
  140.5940  143.2167  151.7199 LP  0  0  0  0  0  0  0  0  0  0  0  0  # atno 17343 bound_to 10162
  156.9903  130.9891  151.3416 LP  0  0  0  0  0  0  0  0  0  0  0  0  # atno 17370 bound_to 10713
  157.5543  130.8203  149.8185 LP  0  0  0  0  0  0  0  0  0  0  0  0  # atno 17371 bound_to 10713
  140.3830  134.2266  155.7170 LP  0  0  0  0  0  0  0  0  0  0  0  0  # atno 17394 bound_to 11000
  141.1956  133.8102  157.0709 LP  0  0  0  0  0  0  0  0  0  0  0  0  # atno 17395 bound_to 11000

$$$$
