#       Name:                AV-unprocessed.smi:1399
#       Creating user name   scv26
#       Creation time:       Fri Mar 27 05:31:09 2020


#       File generated by GOLD software.
#

@<TRIPOS>MOLECULE
AV-unprocessed.smi:1399
    43    44     1
SMALL
NO_CHARGES


@<TRIPOS>ATOM
      1 ****        -4.4068   2.7870  -2.0738 N.pl3          1 S1                -1.0000
      2 ****        -3.5637   2.1055  -2.8732 C.2            1 S1                 0.0000
      3 ****        -3.2227   2.3809  -4.0217 O.2            1 S1                 0.0000
      4 ****        -2.9830   0.8626  -2.1903 C.3            1 S1                 0.0000
      5 ****        -1.5124   0.9983  -2.0387 N.4            1 S1                 1.0000
      6 ****        -0.8334  -0.3193  -1.9483 C.3            1 S1                 0.0000
      7 ****         0.6970  -0.1587  -1.9362 C.3            1 S1                 0.0000
      8 ****         1.1712   0.7758  -0.8056 C.3            1 S1                 0.0000
      9 ****         1.0045   0.1655   0.5132 N.am           1 S1                 0.0000
     10 ****         1.8134  -0.7611   1.0469 C.2            1 S1                 0.0000
     11 ****         2.7973  -1.2203   0.4673 O.2            1 S1                 0.0000
     12 ****         1.4060  -1.1136   2.2767 N.am           1 S1                 0.0000
     13 ****         2.0128  -2.0563   3.1436 C.2            1 S1                 0.0000
     14 ****         3.1851  -2.8433   2.9434 C.2            1 S1                 0.0000
     15 ****         3.4323  -3.6108   3.9954 N.2            1 S1                 0.0000
     16 ****         2.4348  -3.3227   4.8613 N.pl3          1 S1                 0.0000
     17 ****         1.5494  -2.3822   4.3832 C.2            1 S1                 0.0000
     18 ****         0.4053   2.1076  -0.8819 C.3            1 S1                 0.0000
     19 ****        -1.1190   1.8965  -0.9193 C.3            1 S1                 0.0000
     20 ****         2.3727  -3.7719   5.7640 H              1 S1                 0.0000
     21 ****        -4.5944   2.4307  -1.1289 H              1 S1                 0.0000
     22 ****        -3.4486   0.6527  -1.2248 H              1 S1                 0.0000
     23 ****        -3.2139   0.0134  -2.8351 H              1 S1                 0.0000
     24 ****        -1.1682  -0.8431  -1.0517 H              1 S1                 0.0000
     25 ****        -1.1179  -0.9381  -2.8002 H              1 S1                 0.0000
     26 ****         1.1753  -1.1354  -1.8557 H              1 S1                 0.0000
     27 ****         1.0168   0.2522  -2.8946 H              1 S1                 0.0000
     28 ****         2.2327   0.9880  -0.9454 H              1 S1                 0.0000
     29 ****         0.2226   0.4845   1.0664 H              1 S1                 0.0000
     30 ****         0.5772  -0.6598   2.6318 H              1 S1                 0.0000
     31 ****         3.8536  -2.8900   2.0967 H              1 S1                 0.0000
     32 ****         0.6958  -2.0405   4.9501 H              1 S1                 0.0000
     33 ****         0.6749   2.7488  -0.0417 H              1 S1                 0.0000
     34 ****         0.7102   2.6446  -1.7813 H              1 S1                 0.0000
     35 ****        -1.6046   2.8668  -1.0254 H              1 S1                 0.0000
     36 ****        -1.4669   1.4760   0.0254 H              1 S1                 0.0000
     37 ****        -1.1872   1.4304  -2.8921 H              1 S1                 0.0000
     38 ****        -4.8434   3.6271  -2.3954 LP             1 S1                 0.0000
     39 ****        -3.5840   3.1997  -4.4678 LP             1 S1                 0.0000
     40 ****        -2.5839   1.7861  -4.5098 LP             1 S1                 0.0000
     41 ****         3.0292  -0.9030  -0.4522 LP             1 S1                 0.0000
     42 ****         3.3649  -1.9107   0.9159 LP             1 S1                 0.0000
     43 ****         4.1857  -4.2565   4.1203 LP             1 S1                 0.0000
@<TRIPOS>BOND
    1    1    2 1     
    2    1   21 1     
    3    2    3 2     
    4    2    4 1     
    5    4    5 1     
    6    4   22 1     
    7    4   23 1     
    8    5   19 1     
    9    5    6 1     
   10    5   37 1     
   11    6    7 1     
   12    6   24 1     
   13    6   25 1     
   14    7    8 1     
   15    7   26 1     
   16    7   27 1     
   17    8    9 1     
   18    8   18 1     
   19    8   28 1     
   20    9   10 am    
   21    9   29 1     
   22   10   11 2     
   23   10   12 am    
   24   12   13 1     
   25   12   30 1     
   26   13   17 2     
   27   13   14 1     
   28   14   15 2     
   29   14   31 1     
   30   15   16 1     
   31   16   20 1     
   32   16   17 1     
   33   17   32 1     
   34   18   19 1     
   35   18   33 1     
   36   18   34 1     
   37   19   35 1     
   38   19   36 1     
   39    1   38 1     
   40    3   39 1     
   41    3   40 1     
   42   11   41 1     
   43   11   42 1     
   44   15   43 1     
@<TRIPOS>SUBSTRUCTURE
      1 S1             1
@<TRIPOS>SET
LONE_PAIRS      STATIC     ATOMS    <user>   **** ""
6 38 39 40 41 42 43
DONOR_HYDROGENS      STATIC     ATOMS    <user>   **** ""
5 21 37 29 30 20
ATOM$BLUE        STATIC     ATOMS    COLORGROUP SYSTEM
6 38 39 40 41 42 43
ATOM$RED        STATIC     ATOMS    COLORGROUP SYSTEM
5 21 37 29 30 20
