#       Name:                AV-unprocessed.smi:1703
#       Creating user name   scv26
#       Creation time:       Fri Mar 27 08:07:49 2020


#       File generated by GOLD software.
#

@<TRIPOS>MOLECULE
AV-unprocessed.smi:1703
    56    58     1
SMALL
NO_CHARGES


@<TRIPOS>ATOM
      1 ****        -0.2492   2.9117  -2.5231 C.3            1 S1                 0.0000
      2 ****        -0.6844   2.1794  -1.2493 C.3            1 S1                 0.0000
      3 ****         0.1985   2.5548  -0.0397 C.3            1 S1                 0.0000
      4 ****        -0.2973   1.9358   1.2173 N.4            1 S1                 1.0000
      5 ****         0.0178   0.4895   1.3699 C.3            1 S1                 0.0000
      6 ****         1.5027   0.2254   1.7085 C.3            1 S1                 0.0000
      7 ****         1.7693   0.6810   3.0191 O.3            1 S1                 0.0000
      8 ****         1.8932  -1.2649   1.6472 C.3            1 S1                 0.0000
      9 ****         1.6046  -1.8815   0.3399 N.pl3          1 S1                 0.0000
     10 ****         2.2372  -1.7243  -0.8598 C.2            1 S1                 0.0000
     11 ****         3.4055  -0.8427  -1.1555 C.3            1 S1                 0.0000
     12 ****         3.0096   0.4261  -1.6299 O.3            1 S1                 0.0000
     13 ****         1.5897  -2.5098  -1.7651 N.pl3          1 S1                 1.0000
     14 ****         0.5344  -3.1771  -1.1438 C.ar           1 S1                 0.0000
     15 ****        -0.3982  -4.0745  -1.6548 C.ar           1 S1                 0.0000
     16 ****        -1.3575  -4.5740  -0.7504 C.ar           1 S1                 0.0000
     17 ****        -1.3666  -4.1766   0.6019 C.ar           1 S1                 0.0000
     18 ****        -0.4161  -3.2657   1.1085 C.ar           1 S1                 0.0000
     19 ****         0.5344  -2.7784   0.2095 C.ar           1 S1                 0.0000
     20 ****        -1.7344   2.2488   1.4087 C.3            1 S1                 0.0000
     21 ****        -2.5633   1.8606   0.1664 C.3            1 S1                 0.0000
     22 ****        -4.0371   2.2544   0.3107 C.3            1 S1                 0.0000
     23 ****        -2.0345   2.5349  -0.9708 O.3            1 S1                 0.0000
     24 ****         0.7790   2.6617  -2.7865 H              1 S1                 0.0000
     25 ****        -0.3097   3.9933  -2.3984 H              1 S1                 0.0000
     26 ****        -0.8835   2.6379  -3.3664 H              1 S1                 0.0000
     27 ****        -0.6292   1.1075  -1.4436 H              1 S1                 0.0000
     28 ****         1.2380   2.2929  -0.2301 H              1 S1                 0.0000
     29 ****         0.1828   3.6374   0.0935 H              1 S1                 0.0000
     30 ****        -0.5966   0.0582   2.1618 H              1 S1                 0.0000
     31 ****        -0.2706  -0.0309   0.4584 H              1 S1                 0.0000
     32 ****         2.1564   0.7707   1.0304 H              1 S1                 0.0000
     33 ****         1.6985   1.6231   3.0392 H              1 S1                 0.0000
     34 ****         2.9626  -1.3791   1.8290 H              1 S1                 0.0000
     35 ****         1.3975  -1.8274   2.4371 H              1 S1                 0.0000
     36 ****         4.0126  -0.7172  -0.2589 H              1 S1                 0.0000
     37 ****         4.0372  -1.3211  -1.9045 H              1 S1                 0.0000
     38 ****         3.7864   0.9318  -1.8171 H              1 S1                 0.0000
     39 ****        -0.3947  -4.3791  -2.6914 H              1 S1                 0.0000
     40 ****        -2.1015  -5.2749  -1.1013 H              1 S1                 0.0000
     41 ****        -2.1181  -4.5801   1.2654 H              1 S1                 0.0000
     42 ****        -0.4416  -2.9732   2.1473 H              1 S1                 0.0000
     43 ****        -2.1167   1.7563   2.3037 H              1 S1                 0.0000
     44 ****        -1.8281   3.3208   1.5884 H              1 S1                 0.0000
     45 ****        -2.5123   0.7831   0.0021 H              1 S1                 0.0000
     46 ****        -4.4950   1.7565   1.1658 H              1 S1                 0.0000
     47 ****        -4.6040   1.9755  -0.5779 H              1 S1                 0.0000
     48 ****        -4.1473   3.3300   0.4510 H              1 S1                 0.0000
     49 ****         0.1865   2.3930   1.9769 H              1 S1                 0.0000
     50 ****         1.8524  -2.5805  -2.7400 H              1 S1                 0.0000
     51 ****         2.6936   0.4088   3.2868 LP             1 S1                 0.0000
     52 ****         1.1074   0.2818   3.6536 LP             1 S1                 0.0000
     53 ****         2.4637   0.8916  -0.9332 LP             1 S1                 0.0000
     54 ****         2.4668   0.3205  -2.4631 LP             1 S1                 0.0000
     55 ****        -2.5951   2.3058  -1.7665 LP             1 S1                 0.0000
     56 ****        -2.0771   3.5203  -0.8056 LP             1 S1                 0.0000
@<TRIPOS>BOND
    1    1    2 1     
    2    1   24 1     
    3    1   25 1     
    4    1   26 1     
    5    2   23 1     
    6    2    3 1     
    7    2   27 1     
    8    3    4 1     
    9    3   28 1     
   10    3   29 1     
   11    4    5 1     
   12    4   20 1     
   13    4   49 1     
   14    5    6 1     
   15    5   30 1     
   16    5   31 1     
   17    6    7 1     
   18    6    8 1     
   19    6   32 1     
   20    7   33 1     
   21    8    9 1     
   22    8   34 1     
   23    8   35 1     
   24    9   19 1     
   25    9   10 1     
   26   10   11 1     
   27   10   13 2     
   28   11   12 1     
   29   11   36 1     
   30   11   37 1     
   31   12   38 1     
   32   13   14 1     
   33   13   50 1     
   34   14   19 ar    
   35   14   15 ar    
   36   15   16 ar    
   37   15   39 1     
   38   16   17 ar    
   39   16   40 1     
   40   17   18 ar    
   41   17   41 1     
   42   18   19 ar    
   43   18   42 1     
   44   20   21 1     
   45   20   43 1     
   46   20   44 1     
   47   21   22 1     
   48   21   23 1     
   49   21   45 1     
   50   22   46 1     
   51   22   47 1     
   52   22   48 1     
   53    7   51 1     
   54    7   52 1     
   55   12   53 1     
   56   12   54 1     
   57   23   55 1     
   58   23   56 1     
@<TRIPOS>SUBSTRUCTURE
      1 S1             1
@<TRIPOS>SET
LONE_PAIRS      STATIC     ATOMS    <user>   **** ""
6 51 52 53 54 55 56
DONOR_HYDROGENS      STATIC     ATOMS    <user>   **** ""
4 49 33 38 50
ATOM$BLUE        STATIC     ATOMS    COLORGROUP SYSTEM
6 51 52 53 54 55 56
ATOM$RED        STATIC     ATOMS    COLORGROUP SYSTEM
4 49 33 38 50
