AV-unprocessed.smi:1871|AV-procd|sdf|7602|dock1
  -GOLD-   22720 9323D 1   1.00000     0.00000
 Structure written by MMmdl.
 41 43  0  0  0  0  0  0  0  0  2 V2000
  142.7990  132.4645  148.4736 O   0  0  0  0  0  0  0  0  0  0  0  0
  144.1142  132.4545  148.9879 C   0  0  0  0  0  0  0  0  0  0  0  0
  144.3119  133.4119  150.1207 C   0  0  0  0  0  0  0  0  0  0  0  0
  143.4301  134.3692  150.5284 N   0  3  0  0  0  0  0  0  0  0  0  0
  143.9615  135.0767  151.6067 C   0  0  0  0  0  0  0  0  0  0  0  0
  143.4420  136.1317  152.3502 C   0  0  0  0  0  0  0  0  0  0  0  0
  144.2506  136.6287  153.3936 C   0  0  0  0  0  0  0  0  0  0  0  0
  145.5203  136.0781  153.6644 C   0  0  0  0  0  0  0  0  0  0  0  0
  146.0365  135.0091  152.9027 C   0  0  0  0  0  0  0  0  0  0  0  0
  145.2307  134.5248  151.8726 C   0  0  0  0  0  0  0  0  0  0  0  0
  145.4078  133.5065  150.9295 N   0  0  0  0  0  0  0  0  0  0  0  0
  146.6635  132.7393  150.9333 C   0  0  0  0  0  0  0  0  0  0  0  0
  146.6946  131.6531  152.0280 C   0  0  1  0  0  0  0  0  0  0  0  0
  146.8294  130.3967  151.3967 O   0  0  0  0  0  0  0  0  0  0  0  0
  147.7872  131.9050  153.0574 C   0  0  0  0  0  0  0  0  0  0  0  0
  148.5556  133.0882  153.0209 C   0  0  0  0  0  0  0  0  0  0  0  0
  149.5446  133.3220  153.9953 C   0  0  0  0  0  0  0  0  0  0  0  0
  149.7863  132.3786  155.0142 C   0  0  0  0  0  0  0  0  0  0  0  0
  150.7539  132.6742  155.9475 O   0  0  0  0  0  0  0  0  0  0  0  0
  151.7680  131.7935  156.1585 C   0  0  0  0  0  0  0  0  0  0  0  0
  152.7634  132.3984  156.8508 F   0  0  0  0  0  0  0  0  0  0  0  0
  151.3364  130.7423  156.8979 F   0  0  0  0  0  0  0  0  0  0  0  0
  149.0071  131.1974  155.0554 C   0  0  0  0  0  0  0  0  0  0  0  0
  148.0182  130.9626  154.0812 C   0  0  0  0  0  0  0  0  0  0  0  0
  142.8382  132.6762  147.5530 H   0  0  0  0  0  0  0  0  0  0  0  0
  144.3516  131.4439  149.3208 H   0  0  0  0  0  0  0  0  0  0  0  0
  144.8058  132.7051  148.1840 H   0  0  0  0  0  0  0  0  0  0  0  0
  142.4696  136.5544  152.1437 H   0  0  0  0  0  0  0  0  0  0  0  0
  143.8897  137.4480  153.9984 H   0  0  0  0  0  0  0  0  0  0  0  0
  146.1110  136.4841  154.4730 H   0  0  0  0  0  0  0  0  0  0  0  0
  147.0107  134.5950  153.1171 H   0  0  0  0  0  0  0  0  0  0  0  0
  146.7910  132.2984  149.9435 H   0  0  0  0  0  0  0  0  0  0  0  0
  147.4897  133.4387  151.0638 H   0  0  0  0  0  0  0  0  0  0  0  0
  145.7342  131.6331  152.5439 H   0  0  0  0  0  0  0  0  0  0  0  0
  147.5478  130.4438  150.7841 H   0  0  0  0  0  0  0  0  0  0  0  0
  148.3834  133.8266  152.2514 H   0  0  0  0  0  0  0  0  0  0  0  0
  150.1230  134.2337  153.9604 H   0  0  0  0  0  0  0  0  0  0  0  0
  152.1883  131.4301  155.2204 H   0  0  0  0  0  0  0  0  0  0  0  0
  149.1516  130.4650  155.8355 H   0  0  0  0  0  0  0  0  0  0  0  0
  147.4272  130.0597  154.1309 H   0  0  0  0  0  0  0  0  0  0  0  0
  142.5288  134.5207  150.0937 H   0  0  0  0  0  0  0  0  0  0  0  0
  1  2  1  0  0  0  0
  1 25  1  0  0  0  0
  2  3  1  0  0  0  0
  2 26  1  0  0  0  0
  2 27  1  0  0  0  0
  3 11  1  0  0  0  0
  3  4  2  0  0  0  0
  4  5  1  0  0  0  0
  4 41  1  0  0  0  0
  5 10  2  0  0  0  0
  5  6  1  0  0  0  0
  6  7  2  0  0  0  0
  6 28  1  0  0  0  0
  7  8  1  0  0  0  0
  7 29  1  0  0  0  0
  8  9  2  0  0  0  0
  8 30  1  0  0  0  0
  9 10  1  0  0  0  0
  9 31  1  0  0  0  0
 10 11  1  0  0  0  0
 11 12  1  0  0  0  0
 12 13  1  0  0  0  0
 12 32  1  0  0  0  0
 12 33  1  0  0  0  0
 13 14  1  0  0  0  0
 13 15  1  0  0  0  0
 13 34  1  0  0  0  0
 14 35  1  0  0  0  0
 15 24  1  0  0  0  0
 15 16  2  0  0  0  0
 16 17  1  0  0  0  0
 16 36  1  0  0  0  0
 17 18  2  0  0  0  0
 17 37  1  0  0  0  0
 18 19  1  0  0  0  0
 18 23  1  0  0  0  0
 19 20  1  0  0  0  0
 20 21  1  0  0  0  0
 20 22  1  0  0  0  0
 20 38  1  0  0  0  0
 23 24  2  0  0  0  0
 23 39  1  0  0  0  0
 24 40  1  0  0  0  0
M  CHG  1   4   1
M  END
> <s_m_source_file>
AV-unprocessed.smi

> <i_m_source_file_index>
1871

> <i_lp_mmshare_version>
43012

> <i_f3d_flags>
0

> <s_epik_input>
W2NIXTFbY0hdW2NIXVtjSF1jKGMxMiluKGMobjIpW0NIMl1bT0hdKVtDSDJdW0NASF0oW09IXSljM1tjSF1bY0hdYyhPW0NIXShGKUYpW2NIXVtjSF0z

> <s_epik_cmdline>
J2VwaWtfcHl0aG9uJywgJy1waCcsICc3LjAnLCAnLXRuJywgJzgnLCAnLW1hJywgJzIwMCcsICctbWV0YWxfYmluZGluZycsICctaW1hZScsICc8aW5maWxlLm1hZT4nLCAnLW9tYWUnLCAnPG91dGZpbGUubWFlPic=

> <r_lp_tautomer_probability>
1

> <r_epik_Ionization_Penalty>
1.35642

> <r_epik_Ionization_Penalty_Charging>
1.35557

> <r_epik_Ionization_Penalty_Neutral>
0.000856035

> <r_epik_State_Penalty>
1.43401

> <r_epik_Charging_Adjusted_Penalty>
2.78958

> <i_epik_Tot_Q>
1

> <i_epik_Tot_abs_Q>
1

> <r_epik_Metal_State_Penalty>
5.47166

> <b_epik_Metal_Only>
0

> <s_lp_Force_Field>
OPLS_2005

> <r_lp_Energy>
14.8195

> <b_lp_Chiralities_Consistent>
1

> <s_lp_Variant>
AV-unprocessed.smi:1871-4

> <Gold.Version>
5.8.1

> <Gold.Id.Protein>
6NUR|6NUR_protein|mol2

> <Gold.PLP.Fitness>
49.8462

> <Gold.PLP.PLP>
-40.9341

> <Gold.PLP.part.hbond>
-4.3873

> <Gold.PLP.part.metal>
0.0000

> <Gold.PLP.part.buried>
-2.8709

> <Gold.PLP.part.nonpolar>
-34.7207

> <Gold.PLP.part.repulsive>
0.0497

> <Gold.PLP.ligand.clash>
0.0000

> <Gold.PLP.ligand.torsion>
1.3100

> <Gold.PLP.Chemscore.Hbond>
3.7899

> <Gold.PLP.Chemscore.CHOScore>
0.0000

> <Gold.PLP.Chemscore.Metal>
0.0000

> <Gold.Chemscore.Hbonds>
donor molecule, donor type, donor heavy atom, donor atom, acceptor molecule, acceptor atom, score
      L1  H     1    25       P1 10195  0.26
      L1  H     4    41       P1 10186  2.00
      L1  H    14    35       P1 10747  1.00

> <Gold.PLP.Chemscore.Internal.Correction>
0.1625

> <Gold.Rescore>
     Score         DG    S(hbond)    S(metal)    S(lipo)     H(rot)  DE(clash)    DE(int)     intcor
     12.97     -14.31       2.25        0.00      84.87       3.37       0.09       1.25       ----

> <Gold.Chemscore.Fitness>
12.9731

> <Gold.Chemscore.DG>
-14.3136

> <Gold.Chemscore.ZeroCoef>
-5.4800

> <Gold.Chemscore.Hbond>
2.2515

> <Gold.Chemscore.Metal>
0.0000

> <Gold.Chemscore.Lipo>
84.8746

> <Gold.Chemscore.Internal_Hbond>
0.0000

> <Gold.Chemscore.DEClash>
0.0923

> <Gold.Chemscore.DEInternal>
1.2483

> <Gold.Chemscore.Rot>
3.3659

> <Gold.Chemscore.Internal.Correction>
   9.000000E+99

> <Gold.Chemscore.Hbonds>
donor molecule, donor type, donor heavy atom, donor atom, acceptor molecule, acceptor atom, score
      L1  H     1    25       P1 10195  0.26
      L1  H     4    41       P1 10186  0.69
      L1  H    14    35       P1 10747  0.95

> <Gold.Chemscore.Hbond.Weighted>
-7.5200

> <Gold.Chemscore.Metal.Weighted>
-0.0000

> <Gold.Chemscore.Lipo.Weighted>
-9.9303

> <Gold.Chemscore.Internal_Hbond.Weighted>
0.0000

> <Gold.Chemscore.DEClash.Weighted>
0.0923

> <Gold.Chemscore.DEInternal.Weighted>
1.2483

> <Gold.Chemscore.Rot.Weighted>
8.6167

> <Gold.Chemscore.Internal.Correction.Weighted>
   9.000000E+99

> <Gold.Protein.RotatedTorsions>
[ 6907 6896 6895 6894 ] final   32.90 input  -60.11 | X-H torsion
[ 7974 7965 7964 7962 ] final  -79.00 input  175.53 | X-H torsion
[ 8008 7997 7996 7995 ] final  154.72 input   59.86 | X-H torsion
[ 10167 10162 10161 10158 ] final  175.55 input  -65.29 | X-H torsion
[ 10718 10713 10712 10709 ] final -114.87 input   66.30 | X-H torsion
[ 10763 10752 10751 10750 ] final   89.92 input  -60.55 | X-H torsion
[ 11005 11000 10999 10996 ] final   21.27 input  -57.11 | X-H torsion

> <Gold.Protein.ActiveResidues>
 VAL166  LYS551  ARG553  GLY616  TRP617  ASP618  TYR619  PRO620  LYS621  CYS622 
 ASP623  PHE694  ASN695  SER759  ASP760  ASP761  ALA762  ILE779  LEU786  VAL792 
 PHE793  MET794  SER795  GLU796  ALA797  LYS798  CYS799  TRP800  GLU811  SER814 

> <Gold.Protein.RotatedAtoms>
  152.0810  134.9471  160.0573 H   0  0  0  0  0  0  0  0  0  0  0  0  # atno 6907 bound_to 6896
  152.0759  133.4124  159.4488 H   0  0  0  0  0  0  0  0  0  0  0  0  # atno 6908 bound_to 6896
  150.6836  134.2957  159.4729 H   0  0  0  0  0  0  0  0  0  0  0  0  # atno 6909 bound_to 6896
  145.5791  140.9452  143.1354 H   0  0  0  0  0  0  0  0  0  0  0  0  # atno 7974 bound_to 7965
  156.2516  140.1959  156.6690 H   0  0  0  0  0  0  0  0  0  0  0  0  # atno 8008 bound_to 7997
  154.6407  140.0584  156.9868 H   0  0  0  0  0  0  0  0  0  0  0  0  # atno 8009 bound_to 7997
  155.1567  140.3256  155.4422 H   0  0  0  0  0  0  0  0  0  0  0  0  # atno 8010 bound_to 7997
  139.5181  144.3018  152.0372 H   0  0  0  0  0  0  0  0  0  0  0  0  # atno 10167 bound_to 10162
  156.0858  130.6050  150.8831 H   0  0  0  0  0  0  0  0  0  0  0  0  # atno 10718 bound_to 10713
  153.1921  135.4453  155.0162 H   0  0  0  0  0  0  0  0  0  0  0  0  # atno 10763 bound_to 10752
  154.8096  135.3289  154.7342 H   0  0  0  0  0  0  0  0  0  0  0  0  # atno 10764 bound_to 10752
  153.7795  135.6978  153.4946 H   0  0  0  0  0  0  0  0  0  0  0  0  # atno 10765 bound_to 10752
  140.3934  134.1794  155.7663 H   0  0  0  0  0  0  0  0  0  0  0  0  # atno 11005 bound_to 11000
  144.7402  139.7470  143.7313 LP  0  0  0  0  0  0  0  0  0  0  0  0  # atno 17320 bound_to 7965
  146.1729  139.4888  142.9916 LP  0  0  0  0  0  0  0  0  0  0  0  0  # atno 17321 bound_to 7965
  140.2465  144.4214  150.6239 LP  0  0  0  0  0  0  0  0  0  0  0  0  # atno 17342 bound_to 10162
  140.6254  143.2181  151.6607 LP  0  0  0  0  0  0  0  0  0  0  0  0  # atno 17343 bound_to 10162
  157.5992  131.0942  150.8990 LP  0  0  0  0  0  0  0  0  0  0  0  0  # atno 17370 bound_to 10713
  156.9150  130.5294  149.5280 LP  0  0  0  0  0  0  0  0  0  0  0  0  # atno 17371 bound_to 10713
  141.1882  133.8264  157.1001 LP  0  0  0  0  0  0  0  0  0  0  0  0  # atno 17394 bound_to 11000
  140.0389  134.9864  157.0925 LP  0  0  0  0  0  0  0  0  0  0  0  0  # atno 17395 bound_to 11000

$$$$
