#       Name:                AV-unprocessed.smi:45
#       Creating user name   scv26
#       Creation time:       Thu Mar 26 16:26:27 2020


#       File generated by GOLD software.
#

@<TRIPOS>MOLECULE
AV-unprocessed.smi:45
    70    73     1
SMALL
NO_CHARGES


@<TRIPOS>ATOM
      1 ****        -7.6441   0.3142   2.1569 C.3            1 S1                 0.0000
      2 ****        -7.1636   1.1002   1.0762 O.3            1 S1                 0.0000
      3 ****        -5.8012   1.1586   0.8665 C.ar           1 S1                 0.0000
      4 ****        -4.8498   0.4735   1.6645 C.ar           1 S1                 0.0000
      5 ****        -3.4731   0.5822   1.3892 C.ar           1 S1                 0.0000
      6 ****        -3.0230   1.3735   0.3133 C.ar           1 S1                 0.0000
      7 ****        -1.5405   1.4989   0.0189 C.3            1 S1                 0.0000
      8 ****        -0.8771   0.2172  -0.1756 N.pl3          1 S1                 0.0000
      9 ****         0.5066   0.1448  -0.4094 C.ar           1 S1                 0.0000
     10 ****         1.1800   1.3098  -0.5609 N.ar           1 S1                 0.0000
     11 ****         2.4956   1.2629  -0.7924 C.ar           1 S1                 0.0000
     12 ****         3.1683   2.4745  -0.9534 N.pl3          1 S1                 0.0000
     13 ****         4.3697   2.5758  -1.7757 C.3            1 S1                 0.0000
     14 ****         4.3565   3.9827  -2.3702 C.3            1 S1                 0.0000
     15 ****         3.6039   4.7885  -1.3203 C.3            1 S1                 0.0000
     16 ****         2.5582   3.7962  -0.7919 C.3            1 S1                 0.0000
     17 ****         2.1344   4.1001   0.6608 C.3            1 S1                 0.0000
     18 ****         1.4785   5.3484   0.7232 O.3            1 S1                 0.0000
     19 ****         3.2218   0.1457  -0.8956 N.ar           1 S1                 0.0000
     20 ****         2.5749  -1.0290  -0.7507 C.ar           1 S1                 0.0000
     21 ****         1.1839  -1.1015  -0.5074 C.ar           1 S1                 0.0000
     22 ****         0.5053  -2.4332  -0.3271 C.2            1 S1                 0.0000
     23 ****        -0.3728  -2.5962   0.5206 O.2            1 S1                 0.0000
     24 ****         0.9081  -3.3971  -1.1705 N.am           1 S1                 0.0000
     25 ****         0.4109  -4.7677  -1.1710 C.3            1 S1                 0.0000
     26 ****         1.0408  -5.6155  -0.0799 C.ar           1 S1                 0.0000
     27 ****         2.3295  -5.9360  -0.2393 N.ar           1 S1                 0.0000
     28 ****         2.8973  -6.6829   0.7324 C.ar           1 S1                 0.0000
     29 ****         2.1701  -7.1066   1.8629 C.ar           1 S1                 0.0000
     30 ****         0.8195  -6.7077   1.9209 C.ar           1 S1                 0.0000
     31 ****         0.2564  -5.9615   0.9460 N.ar           1 S1                 0.0000
     32 ****        -3.9623   2.0587  -0.4819 C.ar           1 S1                 0.0000
     33 ****        -5.3399   1.9510  -0.2083 C.ar           1 S1                 0.0000
     34 ****        -6.4643   2.8037  -1.2049 Cl             1 S1                 0.0000
     35 ****         1.6818   3.8307  -1.4412 H              1 S1                 0.0000
     36 ****        -8.7316   0.3765   2.1908 H              1 S1                 0.0000
     37 ****        -7.2640   0.6759   3.1131 H              1 S1                 0.0000
     38 ****        -7.3780  -0.7366   2.0349 H              1 S1                 0.0000
     39 ****        -5.1508  -0.1427   2.4979 H              1 S1                 0.0000
     40 ****        -2.7621   0.0557   2.0093 H              1 S1                 0.0000
     41 ****        -1.3980   2.1128  -0.8714 H              1 S1                 0.0000
     42 ****        -1.0690   2.0254   0.8496 H              1 S1                 0.0000
     43 ****        -1.4007  -0.6320  -0.0162 H              1 S1                 0.0000
     44 ****         5.2425   2.4346  -1.1372 H              1 S1                 0.0000
     45 ****         4.3995   1.8218  -2.5632 H              1 S1                 0.0000
     46 ****         5.3560   4.3683  -2.5735 H              1 S1                 0.0000
     47 ****         3.7955   3.9840  -3.3059 H              1 S1                 0.0000
     48 ****         4.2939   5.0775  -0.5258 H              1 S1                 0.0000
     49 ****         3.1569   5.6977  -1.7230 H              1 S1                 0.0000
     50 ****         1.4489   3.3481   1.0488 H              1 S1                 0.0000
     51 ****         2.9996   4.1138   1.3242 H              1 S1                 0.0000
     52 ****         1.2286   5.5116   1.6198 H              1 S1                 0.0000
     53 ****         3.1829  -1.9189  -0.8258 H              1 S1                 0.0000
     54 ****         1.6268  -3.1755  -1.8439 H              1 S1                 0.0000
     55 ****        -0.6771  -4.7737  -1.0806 H              1 S1                 0.0000
     56 ****         0.6382  -5.2141  -2.1396 H              1 S1                 0.0000
     57 ****         3.9378  -6.9435   0.6075 H              1 S1                 0.0000
     58 ****         2.6225  -7.7037   2.6409 H              1 S1                 0.0000
     59 ****         0.1893  -6.9875   2.7520 H              1 S1                 0.0000
     60 ****        -3.6285   2.6705  -1.3072 H              1 S1                 0.0000
     61 ****        -7.4806   2.0365   1.2269 LP             1 S1                 0.0000
     62 ****        -7.5768   0.7388   0.2403 LP             1 S1                 0.0000
     63 ****         0.7031   2.1867  -0.5009 LP             1 S1                 0.0000
     64 ****         0.6636   5.3305   0.1439 LP             1 S1                 0.0000
     65 ****         2.0955   6.0696   0.4084 LP             1 S1                 0.0000
     66 ****         4.2054   0.1793  -1.0731 LP             1 S1                 0.0000
     67 ****        -0.6490  -1.8349   1.1072 LP             1 S1                 0.0000
     68 ****        -0.8097  -3.4900   0.6224 LP             1 S1                 0.0000
     69 ****         2.8482  -5.6368  -1.0402 LP             1 S1                 0.0000
     70 ****        -0.7024  -5.6810   0.9895 LP             1 S1                 0.0000
@<TRIPOS>BOND
    1    1    2 1     
    2    1   36 1     
    3    1   37 1     
    4    1   38 1     
    5    2    3 1     
    6    3   33 ar    
    7    3    4 ar    
    8    4    5 ar    
    9    4   39 1     
   10    5    6 ar    
   11    5   40 1     
   12    6    7 1     
   13    6   32 ar    
   14    7    8 1     
   15    7   41 1     
   16    7   42 1     
   17    8    9 1     
   18    8   43 1     
   19    9   21 ar    
   20    9   10 ar    
   21   10   11 ar    
   22   11   12 1     
   23   11   19 ar    
   24   12   16 1     
   25   12   13 1     
   26   13   14 1     
   27   13   44 1     
   28   13   45 1     
   29   14   15 1     
   30   14   46 1     
   31   14   47 1     
   32   15   16 1     
   33   15   48 1     
   34   15   49 1     
   35   16   35 1     
   36   16   17 1     
   37   17   18 1     
   38   17   50 1     
   39   17   51 1     
   40   18   52 1     
   41   19   20 ar    
   42   20   21 ar    
   43   20   53 1     
   44   21   22 1     
   45   22   23 2     
   46   22   24 am    
   47   24   25 1     
   48   24   54 1     
   49   25   26 1     
   50   25   55 1     
   51   25   56 1     
   52   26   31 ar    
   53   26   27 ar    
   54   27   28 ar    
   55   28   29 ar    
   56   28   57 1     
   57   29   30 ar    
   58   29   58 1     
   59   30   31 ar    
   60   30   59 1     
   61   32   33 ar    
   62   32   60 1     
   63   33   34 1     
   64    2   61 1     
   65    2   62 1     
   66   10   63 1     
   67   18   64 1     
   68   18   65 1     
   69   19   66 1     
   70   23   67 1     
   71   23   68 1     
   72   27   69 1     
   73   31   70 1     
@<TRIPOS>SUBSTRUCTURE
      1 S1             1
@<TRIPOS>SET
LONE_PAIRS      STATIC     ATOMS    <user>   **** ""
10 61 62 63 64 65 66 67 68 69 70
DONOR_HYDROGENS      STATIC     ATOMS    <user>   **** ""
3 43 52 54
ATOM$BLUE        STATIC     ATOMS    COLORGROUP SYSTEM
10 61 62 63 64 65 66 67 68 69 70
ATOM$RED        STATIC     ATOMS    COLORGROUP SYSTEM
3 43 52 54
