AV-unprocessed.smi:1051|AV-procd|sdf|4614|dock7
  -GOLD-   22720 3113D 1   1.00000     0.00000
 Structure written by MMmdl.
 45 47  0  0  0  0  0  0  0  0  1 V2000
  145.4680  145.3696  152.2622 C   0  0  0  0  0  0  0  0  0  0  0  0
  144.8520  144.9648  153.6006 C   0  0  0  0  0  0  0  0  0  0  0  0
  143.8732  145.5869  154.0117 O   0  0  0  0  0  0  0  0  0  0  0  0
  145.4758  143.8294  154.3387 C   0  0  0  0  0  0  0  0  0  0  0  0
  144.8469  143.2348  155.4571 C   0  0  0  0  0  0  0  0  0  0  0  0
  145.4622  142.1643  156.1314 C   0  0  0  0  0  0  0  0  0  0  0  0
  146.7090  141.6754  155.7005 C   0  0  0  0  0  0  0  0  0  0  0  0
  147.3563  142.2572  154.5832 C   0  0  0  0  0  0  0  0  0  0  0  0
  148.5771  141.8447  154.0935 O   0  0  0  0  0  0  0  0  0  0  0  0
  149.1611  140.6674  154.6394 C   0  0  0  0  0  0  0  0  0  0  0  0
  150.2983  141.0389  155.6064 C   0  0  2  0  0  0  0  0  0  0  0  0
  151.4591  140.3440  155.1971 O   0  0  0  0  0  0  0  0  0  0  0  0
  149.9719  140.7192  157.0793 C   0  0  0  0  0  0  0  0  0  0  0  0
  151.0926  141.0403  157.9606 N   0  0  0  0  0  0  0  0  0  0  0  0
  152.0636  140.1908  158.3713 C   0  0  0  0  0  0  0  0  0  0  0  0
  152.1599  139.0025  158.0655 O   0  0  0  0  0  0  0  0  0  0  0  0
  152.9177  140.8816  159.1623 N   0  0  0  0  0  0  0  0  0  0  0  0
  154.1134  140.3695  159.8205 C   0  0  0  0  0  0  0  0  0  0  0  0
  152.4952  142.2145  159.2408 C   0  0  0  0  0  0  0  0  0  0  0  0
  153.0453  143.3185  159.9144 C   0  0  0  0  0  0  0  0  0  0  0  0
  152.3707  144.5553  159.7848 C   0  0  0  0  0  0  0  0  0  0  0  0
  151.1911  144.6617  159.0027 C   0  0  0  0  0  0  0  0  0  0  0  0
  150.6595  143.5335  158.3348 C   0  0  0  0  0  0  0  0  0  0  0  0
  151.3476  142.3165  158.4833 C   0  0  0  0  0  0  0  0  0  0  0  0
  146.7285  143.3285  153.9148 C   0  0  0  0  0  0  0  0  0  0  0  0
  146.5041  145.6804  152.3968 H   0  0  0  0  0  0  0  0  0  0  0  0
  144.9168  146.2025  151.8249 H   0  0  0  0  0  0  0  0  0  0  0  0
  145.4386  144.5361  151.5601 H   0  0  0  0  0  0  0  0  0  0  0  0
  143.8904  143.5834  155.8168 H   0  0  0  0  0  0  0  0  0  0  0  0
  144.9749  141.7158  156.9847 H   0  0  0  0  0  0  0  0  0  0  0  0
  147.1472  140.8530  156.2449 H   0  0  0  0  0  0  0  0  0  0  0  0
  148.4142  140.0553  155.1485 H   0  0  0  0  0  0  0  0  0  0  0  0
  149.5776  140.0711  153.8258 H   0  0  0  0  0  0  0  0  0  0  0  0
  150.4979  142.1053  155.4913 H   0  0  0  0  0  0  0  0  0  0  0  0
  151.5481  139.5666  155.7274 H   0  0  0  0  0  0  0  0  0  0  0  0
  149.1162  141.3122  157.4041 H   0  0  0  0  0  0  0  0  0  0  0  0
  149.6671  139.6777  157.1976 H   0  0  0  0  0  0  0  0  0  0  0  0
  154.1095  140.6405  160.8766 H   0  0  0  0  0  0  0  0  0  0  0  0
  155.0065  140.7942  159.3609 H   0  0  0  0  0  0  0  0  0  0  0  0
  154.1824  139.2827  159.7557 H   0  0  0  0  0  0  0  0  0  0  0  0
  153.9452  143.2299  160.5047 H   0  0  0  0  0  0  0  0  0  0  0  0
  152.7593  145.4296  160.2860 H   0  0  0  0  0  0  0  0  0  0  0  0
  150.6932  145.6164  158.9156 H   0  0  0  0  0  0  0  0  0  0  0  0
  149.7641  143.6095  157.7358 H   0  0  0  0  0  0  0  0  0  0  0  0
  147.2288  143.7668  153.0631 H   0  0  0  0  0  0  0  0  0  0  0  0
  1  2  1  0  0  0  0
  1 26  1  0  0  0  0
  1 27  1  0  0  0  0
  1 28  1  0  0  0  0
  2  3  2  0  0  0  0
  2  4  1  0  0  0  0
  4 25  1  0  0  0  0
  4  5  2  0  0  0  0
  5  6  1  0  0  0  0
  5 29  1  0  0  0  0
  6  7  2  0  0  0  0
  6 30  1  0  0  0  0
  7  8  1  0  0  0  0
  7 31  1  0  0  0  0
  8  9  1  0  0  0  0
  8 25  2  0  0  0  0
  9 10  1  0  0  0  0
 10 11  1  0  0  0  0
 10 32  1  0  0  0  0
 10 33  1  0  0  0  0
 11 12  1  0  0  0  0
 11 13  1  0  0  0  0
 11 34  1  0  0  0  0
 12 35  1  0  0  0  0
 13 14  1  0  0  0  0
 13 36  1  0  0  0  0
 13 37  1  0  0  0  0
 14 24  1  0  0  0  0
 14 15  1  0  0  0  0
 15 16  2  0  0  0  0
 15 17  1  0  0  0  0
 17 18  1  0  0  0  0
 17 19  1  0  0  0  0
 18 38  1  0  0  0  0
 18 39  1  0  0  0  0
 18 40  1  0  0  0  0
 19 24  2  0  0  0  0
 19 20  1  0  0  0  0
 20 21  2  0  0  0  0
 20 41  1  0  0  0  0
 21 22  1  0  0  0  0
 21 42  1  0  0  0  0
 22 23  2  0  0  0  0
 22 43  1  0  0  0  0
 23 24  1  0  0  0  0
 23 44  1  0  0  0  0
 25 45  1  0  0  0  0
M  END
> <s_m_source_file>
AV-unprocessed.smi

> <i_m_source_file_index>
1051

> <i_lp_mmshare_version>
43012

> <i_f3d_flags>
0

> <s_epik_input>
W0NIM11DKD1PKWMxW2NIXVtjSF1bY0hdYyhbY0hdMSlPW0NIMl1bQ0BIXShbT0hdKVtDSDJdbihjKD1PKW4yW0NIM10pYyhjMjMpW2NIXVtjSF1bY0hdW2NIXTM=

> <s_epik_cmdline>
J2VwaWtfcHl0aG9uJywgJy1waCcsICc3LjAnLCAnLXRuJywgJzgnLCAnLW1hJywgJzIwMCcsICctbWV0YWxfYmluZGluZycsICctaW1hZScsICc8aW5maWxlLm1hZT4nLCAnLW9tYWUnLCAnPG91dGZpbGUubWFlPic=

> <r_lp_tautomer_probability>
1

> <r_epik_Ionization_Penalty>
2.40143e-06

> <r_epik_Ionization_Penalty_Charging>
2.1343e-09

> <r_epik_Ionization_Penalty_Neutral>
2.3993e-06

> <r_epik_State_Penalty>
-0

> <r_epik_Charging_Adjusted_Penalty>
2.1343e-09

> <i_epik_Tot_Q>
0

> <i_epik_Tot_abs_Q>
0

> <r_epik_Metal_State_Penalty>
-0

> <b_epik_Metal_Only>
0

> <s_lp_Force_Field>
OPLS_2005

> <r_lp_Energy>
56.3875

> <b_lp_Chiralities_Consistent>
1

> <s_lp_Variant>
AV-unprocessed.smi:1051-1

> <Gold.Version>
5.8.1

> <Gold.Id.Protein>
6NUR|6NUR_protein|mol2

> <Gold.PLP.Fitness>
56.6964

> <Gold.PLP.PLP>
-56.0581

> <Gold.PLP.part.hbond>
-2.1459

> <Gold.PLP.part.metal>
0.0000

> <Gold.PLP.part.buried>
-6.1819

> <Gold.PLP.part.nonpolar>
-48.0812

> <Gold.PLP.part.repulsive>
0.2564

> <Gold.PLP.ligand.clash>
0.0000

> <Gold.PLP.ligand.torsion>
1.4980

> <Gold.PLP.Chemscore.Hbond>
1.2004

> <Gold.PLP.Chemscore.CHOScore>
0.0000

> <Gold.PLP.Chemscore.Metal>
0.0000

> <Gold.Chemscore.Hbonds>
donor molecule, donor type, donor heavy atom, donor atom, acceptor molecule, acceptor atom, score
      P1  H  7989  7998       L1    12  0.94
      P1  H  8011  8017       L1     9  0.27

> <Gold.PLP.Chemscore.Internal.Correction>
0.0333

> <Gold.Rescore>
     Score         DG    S(hbond)    S(metal)    S(lipo)     H(rot)  DE(clash)    DE(int)     intcor
     15.72     -17.21       0.90        0.00     124.90       2.30       0.05       1.43       ----

> <Gold.Chemscore.Fitness>
15.7234

> <Gold.Chemscore.DG>
-17.2076

> <Gold.Chemscore.ZeroCoef>
-5.4800

> <Gold.Chemscore.Hbond>
0.8976

> <Gold.Chemscore.Metal>
0.0000

> <Gold.Chemscore.Lipo>
124.9025

> <Gold.Chemscore.Internal_Hbond>
0.0000

> <Gold.Chemscore.DEClash>
0.0528

> <Gold.Chemscore.DEInternal>
1.4314

> <Gold.Chemscore.Rot>
2.2984

> <Gold.Chemscore.Internal.Correction>
   9.000000E+99

> <Gold.Chemscore.Hbonds>
donor molecule, donor type, donor heavy atom, donor atom, acceptor molecule, acceptor atom, score
      P1  H  7989  7998       L1    12  0.32
      P1  H  8011  8017       L1     9  0.18

> <Gold.Chemscore.Hbond.Weighted>
-2.9979

> <Gold.Chemscore.Metal.Weighted>
-0.0000

> <Gold.Chemscore.Lipo.Weighted>
-14.6136

> <Gold.Chemscore.Internal_Hbond.Weighted>
0.0000

> <Gold.Chemscore.DEClash.Weighted>
0.0528

> <Gold.Chemscore.DEInternal.Weighted>
1.4314

> <Gold.Chemscore.Rot.Weighted>
5.8839

> <Gold.Chemscore.Internal.Correction.Weighted>
   9.000000E+99

> <Gold.Protein.RotatedTorsions>
[ 6907 6896 6895 6894 ] final  -51.50 input  -60.11 | X-H torsion
[ 7974 7965 7964 7962 ] final  -10.80 input  175.53 | X-H torsion
[ 8008 7997 7996 7995 ] final  -43.44 input   59.86 | X-H torsion
[ 10167 10162 10161 10158 ] final   -9.70 input  -65.29 | X-H torsion
[ 10718 10713 10712 10709 ] final  -54.31 input   66.30 | X-H torsion
[ 10763 10752 10751 10750 ] final   21.31 input  -60.55 | X-H torsion
[ 11005 11000 10999 10996 ] final    4.12 input  -57.11 | X-H torsion

> <Gold.Protein.ActiveResidues>
 VAL166  LYS551  ARG553  GLY616  TRP617  ASP618  TYR619  PRO620  LYS621  CYS622 
 ASP623  PHE694  ASN695  SER759  ASP760  ASP761  ALA762  ILE779  LEU786  VAL792 
 PHE793  MET794  SER795  GLU796  ALA797  LYS798  CYS799  TRP800  GLU811  SER814 

> <Gold.Protein.RotatedAtoms>
  150.8606  134.7956  159.7079 H   0  0  0  0  0  0  0  0  0  0  0  0  # atno 6907 bound_to 6896
  152.4644  134.5107  159.9762 H   0  0  0  0  0  0  0  0  0  0  0  0  # atno 6908 bound_to 6896
  151.5211  133.3428  159.2937 H   0  0  0  0  0  0  0  0  0  0  0  0  # atno 6909 bound_to 6896
  146.2209  140.2817  142.8362 H   0  0  0  0  0  0  0  0  0  0  0  0  # atno 7974 bound_to 7965
  154.3997  140.1448  156.3519 H   0  0  0  0  0  0  0  0  0  0  0  0  # atno 8008 bound_to 7997
  155.8261  140.3467  155.5522 H   0  0  0  0  0  0  0  0  0  0  0  0  # atno 8009 bound_to 7997
  155.8237  140.0902  157.1824 H   0  0  0  0  0  0  0  0  0  0  0  0  # atno 8010 bound_to 7997
  140.7094  143.5829  150.8973 H   0  0  0  0  0  0  0  0  0  0  0  0  # atno 10167 bound_to 10162
  156.1461  130.4153  150.0022 H   0  0  0  0  0  0  0  0  0  0  0  0  # atno 10718 bound_to 10713
  153.1006  135.6671  153.9681 H   0  0  0  0  0  0  0  0  0  0  0  0  # atno 10763 bound_to 10752
  153.9252  135.3010  155.3448 H   0  0  0  0  0  0  0  0  0  0  0  0  # atno 10764 bound_to 10752
  154.7426  135.5072  153.9224 H   0  0  0  0  0  0  0  0  0  0  0  0  # atno 10765 bound_to 10752
  140.5855  133.9973  155.8066 H   0  0  0  0  0  0  0  0  0  0  0  0  # atno 11005 bound_to 11000
  144.9192  140.7848  143.5759 LP  0  0  0  0  0  0  0  0  0  0  0  0  # atno 17320 bound_to 7965
  145.2752  139.1939  143.4820 LP  0  0  0  0  0  0  0  0  0  0  0  0  # atno 17321 bound_to 7965
  139.9555  143.6223  152.3017 LP  0  0  0  0  0  0  0  0  0  0  0  0  # atno 17342 bound_to 10162
  139.6757  144.7658  151.1700 LP  0  0  0  0  0  0  0  0  0  0  0  0  # atno 17343 bound_to 10162
  156.7893  130.9250  151.3646 LP  0  0  0  0  0  0  0  0  0  0  0  0  # atno 17370 bound_to 10713
  157.6618  130.8972  149.9845 LP  0  0  0  0  0  0  0  0  0  0  0  0  # atno 17371 bound_to 10713
  141.0969  133.9830  157.3146 LP  0  0  0  0  0  0  0  0  0  0  0  0  # atno 17394 bound_to 11000
  139.9297  135.0200  156.8359 LP  0  0  0  0  0  0  0  0  0  0  0  0  # atno 17395 bound_to 11000

$$$$
