AV-unprocessed.smi:69|AV-procd|sdf|658|dock10
  -GOLD-   2262016563D 1   1.00000     0.00000
 Structure written by MMmdl.
 32 34  0  0  0  0  0  0  0  0  1 V2000
  153.4024  138.3569  157.3068 N   0  0  0  0  0  0  0  0  0  0  0  0
  152.5754  138.6521  156.2943 C   0  0  0  0  0  0  0  0  0  0  0  0
  152.7445  138.0059  155.1169 N   0  0  0  0  0  0  0  0  0  0  0  0
  151.9336  138.2840  154.0908 C   0  0  0  0  0  0  0  0  0  0  0  0
  150.9189  139.1509  154.0391 N   0  0  0  0  0  0  0  0  0  0  0  0
  150.7489  139.8010  155.2277 C   0  0  0  0  0  0  0  0  0  0  0  0
  151.5339  139.6087  156.3982 C   0  0  0  0  0  0  0  0  0  0  0  0
  151.0792  140.4381  157.4143 N   0  0  0  0  0  0  0  0  0  0  0  0
  150.0821  141.0832  156.8703 C   0  0  0  0  0  0  0  0  0  0  0  0
  149.8116  140.7589  155.5583 N   0  0  0  0  0  0  0  0  0  0  0  0
  148.7439  141.3258  154.6783 C   0  0  1  0  0  0  0  0  0  0  0  0
  148.5231  140.4260  153.6366 O   0  0  0  0  0  0  0  0  0  0  0  0
  147.1277  140.3160  153.3841 C   0  0  1  0  0  0  0  0  0  0  0  0
  146.8281  138.9676  152.7115 C   0  0  0  0  0  0  0  0  0  0  0  0
  147.4341  138.9160  151.4376 O   0  0  0  0  0  0  0  0  0  0  0  0
  146.5262  140.4481  154.7844 C   0  0  2  0  0  0  0  0  0  0  0  0
  145.1581  140.8122  154.7606 O   0  0  0  0  0  0  0  0  0  0  0  0
  147.4227  141.4912  155.4500 C   0  0  2  0  0  0  0  0  0  0  0  0
  146.9127  142.8050  155.3064 O   0  0  0  0  0  0  0  0  0  0  0  0
  149.1574  142.2622  154.2994 H   0  0  0  0  0  0  0  0  0  0  0  0
  146.8045  141.1539  152.7628 H   0  0  0  0  0  0  0  0  0  0  0  0
  146.6217  139.5010  155.3156 H   0  0  0  0  0  0  0  0  0  0  0  0
  147.5583  141.2854  156.5128 H   0  0  0  0  0  0  0  0  0  0  0  0
  153.2970  138.8259  158.1950 H   0  0  0  0  0  0  0  0  0  0  0  0
  154.1304  137.6691  157.1790 H   0  0  0  0  0  0  0  0  0  0  0  0
  152.1240  137.7328  153.1818 H   0  0  0  0  0  0  0  0  0  0  0  0
  149.5101  141.8183  157.4178 H   0  0  0  0  0  0  0  0  0  0  0  0
  147.1641  138.1332  153.3285 H   0  0  0  0  0  0  0  0  0  0  0  0
  145.7538  138.8507  152.5666 H   0  0  0  0  0  0  0  0  0  0  0  0
  148.0499  139.6295  151.3686 H   0  0  0  0  0  0  0  0  0  0  0  0
  144.8629  140.8068  153.8627 H   0  0  0  0  0  0  0  0  0  0  0  0
  147.6420  143.4008  155.2256 H   0  0  0  0  0  0  0  0  0  0  0  0
  1  2  1  0  0  0  0
  1 24  1  0  0  0  0
  1 25  1  0  0  0  0
  2  7  1  0  0  0  0
  2  3  2  0  0  0  0
  3  4  1  0  0  0  0
  4  5  2  0  0  0  0
  4 26  1  0  0  0  0
  5  6  1  0  0  0  0
  6 10  1  0  0  0  0
  6  7  2  0  0  0  0
  7  8  1  0  0  0  0
  8  9  2  0  0  0  0
  9 10  1  0  0  0  0
  9 27  1  0  0  0  0
 10 11  1  0  0  0  0
 11 20  1  0  0  0  0
 11 18  1  0  0  0  0
 11 12  1  0  0  0  0
 12 13  1  0  0  0  0
 13 21  1  0  0  0  0
 13 14  1  0  0  0  0
 13 16  1  0  0  0  0
 14 15  1  0  0  0  0
 14 28  1  0  0  0  0
 14 29  1  0  0  0  0
 15 30  1  0  0  0  0
 16 22  1  0  0  0  0
 16 17  1  0  0  0  0
 16 18  1  0  0  0  0
 17 31  1  0  0  0  0
 18 23  1  0  0  0  0
 18 19  1  0  0  0  0
 19 32  1  0  0  0  0
M  END
> <s_m_source_file>
AV-unprocessed.smi

> <i_m_source_file_index>
69

> <i_lp_mmshare_version>
43012

> <i_f3d_flags>
0

> <s_epik_input>
bjFbY0hdbmMoW05IMl0pYyhjMTIpbltjSF1uMltDQEBIXTNPW0NASF0oW0NIMl1bT0hdKVtDQEBIXShbT0hdKVtDQEhdM1tPSF0=

> <s_epik_cmdline>
J2VwaWtfcHl0aG9uJywgJy1waCcsICc3LjAnLCAnLXRuJywgJzgnLCAnLW1hJywgJzIwMCcsICctbWV0YWxfYmluZGluZycsICctaW1hZScsICc8aW5maWxlLm1hZT4nLCAnLW9tYWUnLCAnPG91dGZpbGUubWFlPic=

> <r_lp_tautomer_probability>
1

> <r_epik_Ionization_Penalty>
0.000428445

> <r_epik_Ionization_Penalty_Charging>
0

> <r_epik_Ionization_Penalty_Neutral>
0.000428445

> <r_epik_State_Penalty>
-0

> <r_epik_Charging_Adjusted_Penalty>
0

> <i_epik_Tot_Q>
0

> <i_epik_Tot_abs_Q>
0

> <r_epik_Metal_State_Penalty>
-0

> <b_epik_Metal_Only>
0

> <s_epik_Chemistry_Notes>
This compound contains an acetal/aminal-like group ( X-CH(R)-Y where X, Y are N, S, or O) that may be acid/base labile, releasing an aldehyde.

> <s_lp_Force_Field>
OPLS_2005

> <r_lp_Energy>
38.6546

> <b_lp_Chiralities_Consistent>
1

> <s_lp_Variant>
AV-unprocessed.smi:69-16

> <Gold.Version>
5.8.1

> <Gold.Id.Protein>
6NUR|6NUR_protein|mol2

> <Gold.PLP.Fitness>
40.6094

> <Gold.PLP.PLP>
-27.0840

> <Gold.PLP.part.hbond>
-6.5026

> <Gold.PLP.part.metal>
0.0000

> <Gold.PLP.part.buried>
-3.4554

> <Gold.PLP.part.nonpolar>
-19.5143

> <Gold.PLP.part.repulsive>
2.8823

> <Gold.PLP.ligand.clash>
0.0000

> <Gold.PLP.ligand.torsion>
0.5582

> <Gold.PLP.Chemscore.Hbond>
3.8763

> <Gold.PLP.Chemscore.CHOScore>
1.0000

> <Gold.PLP.Chemscore.Metal>
0.0000

> <Gold.Chemscore.Hbonds>
donor molecule, donor type, donor heavy atom, donor atom, acceptor molecule, acceptor atom, score
      L1  H    15    30       P1  7957  0.91
      L1  H    17    31       P1 10175  1.00
      L1  H    19    32       P1  8028  1.00
      P1  H  7954  7966       L1    15  0.65
      P1  H  7989  7998       L1     5  0.15
      L1  C     4    26       P1  7949  0.82

> <Gold.PLP.Chemscore.Internal.Correction>
0.0131

> <Gold.Rescore>
     Score         DG    S(hbond)    S(metal)    S(lipo)     H(rot)  DE(clash)    DE(int)     intcor
      5.00      -6.32       2.45        0.00      25.36       4.03       1.30       0.02       ----

> <Gold.Chemscore.Fitness>
4.9968

> <Gold.Chemscore.DG>
-6.3203

> <Gold.Chemscore.ZeroCoef>
-5.4800

> <Gold.Chemscore.Hbond>
2.4505

> <Gold.Chemscore.Metal>
0.0000

> <Gold.Chemscore.Lipo>
25.3568

> <Gold.Chemscore.Internal_Hbond>
0.0000

> <Gold.Chemscore.DEClash>
1.2994

> <Gold.Chemscore.DEInternal>
0.0241

> <Gold.Chemscore.Rot>
4.0277

> <Gold.Chemscore.Internal.Correction>
   9.000000E+99

> <Gold.Chemscore.Hbonds>
donor molecule, donor type, donor heavy atom, donor atom, acceptor molecule, acceptor atom, score
      L1  H    15    30       P1  7957  0.84
      L1  H    17    31       P1 10175  0.94
      L1  H    19    32       P1  8028  0.25
      P1  H  7954  7966       L1    15  0.08

> <Gold.Chemscore.Hbond.Weighted>
-8.1845

> <Gold.Chemscore.Metal.Weighted>
-0.0000

> <Gold.Chemscore.Lipo.Weighted>
-2.9667

> <Gold.Chemscore.Internal_Hbond.Weighted>
0.0000

> <Gold.Chemscore.DEClash.Weighted>
1.2994

> <Gold.Chemscore.DEInternal.Weighted>
0.0241

> <Gold.Chemscore.Rot.Weighted>
10.3110

> <Gold.Chemscore.Internal.Correction.Weighted>
   9.000000E+99

> <Gold.Protein.RotatedTorsions>
[ 6907 6896 6895 6894 ] final  -64.27 input  -60.11 | X-H torsion
[ 7974 7965 7964 7962 ] final  -39.61 input  175.53 | X-H torsion
[ 8008 7997 7996 7995 ] final  140.84 input   59.86 | X-H torsion
[ 10167 10162 10161 10158 ] final  140.02 input  -65.29 | X-H torsion
[ 10718 10713 10712 10709 ] final   48.24 input   66.30 | X-H torsion
[ 10763 10752 10751 10750 ] final  -47.45 input  -60.55 | X-H torsion
[ 11005 11000 10999 10996 ] final   36.39 input  -57.11 | X-H torsion

> <Gold.Protein.ActiveResidues>
 VAL166  LYS551  ARG553  GLY616  TRP617  ASP618  TYR619  PRO620  LYS621  CYS622 
 ASP623  PHE694  ASN695  SER759  ASP760  ASP761  ALA762  ILE779  LEU786  VAL792 
 PHE793  MET794  SER795  GLU796  ALA797  LYS798  CYS799  TRP800  GLU811  SER814 

> <Gold.Protein.RotatedAtoms>
  150.7596  134.6321  159.6191 H   0  0  0  0  0  0  0  0  0  0  0  0  # atno 6907 bound_to 6896
  152.3595  134.6889  160.0220 H   0  0  0  0  0  0  0  0  0  0  0  0  # atno 6908 bound_to 6896
  151.7283  133.3280  159.3370 H   0  0  0  0  0  0  0  0  0  0  0  0  # atno 6909 bound_to 6896
  146.0381  140.6645  142.9100 H   0  0  0  0  0  0  0  0  0  0  0  0  # atno 7974 bound_to 7965
  156.2974  140.2331  156.4467 H   0  0  0  0  0  0  0  0  0  0  0  0  # atno 8008 bound_to 7997
  154.8138  140.0441  157.1382 H   0  0  0  0  0  0  0  0  0  0  0  0  # atno 8009 bound_to 7997
  154.9393  140.3027  155.5132 H   0  0  0  0  0  0  0  0  0  0  0  0  # atno 8010 bound_to 7997
  139.5061  144.6259  151.5937 H   0  0  0  0  0  0  0  0  0  0  0  0  # atno 10167 bound_to 10162
  157.4667  130.8230  149.7944 H   0  0  0  0  0  0  0  0  0  0  0  0  # atno 10718 bound_to 10713
  154.0616  135.6617  153.4812 H   0  0  0  0  0  0  0  0  0  0  0  0  # atno 10763 bound_to 10752
  153.0425  135.5136  154.7654 H   0  0  0  0  0  0  0  0  0  0  0  0  # atno 10764 bound_to 10752
  154.6692  135.3027  154.9732 H   0  0  0  0  0  0  0  0  0  0  0  0  # atno 10765 bound_to 10752
  140.2330  134.3504  155.7956 H   0  0  0  0  0  0  0  0  0  0  0  0  # atno 11005 bound_to 11000
  144.7061  140.3857  143.7117 LP  0  0  0  0  0  0  0  0  0  0  0  0  # atno 17320 bound_to 7965
  145.6930  139.1643  143.2636 LP  0  0  0  0  0  0  0  0  0  0  0  0  # atno 17321 bound_to 7965
  140.5976  143.9667  150.6365 LP  0  0  0  0  0  0  0  0  0  0  0  0  # atno 17342 bound_to 10162
  140.2869  143.3351  152.1099 LP  0  0  0  0  0  0  0  0  0  0  0  0  # atno 17343 bound_to 10162
  156.0054  130.3858  150.2452 LP  0  0  0  0  0  0  0  0  0  0  0  0  # atno 17370 bound_to 10713
  157.0632  131.0096  151.3215 LP  0  0  0  0  0  0  0  0  0  0  0  0  # atno 17371 bound_to 10713
  141.2216  133.7256  156.8763 LP  0  0  0  0  0  0  0  0  0  0  0  0  # atno 17394 bound_to 11000
  140.1731  134.9086  157.2857 LP  0  0  0  0  0  0  0  0  0  0  0  0  # atno 17395 bound_to 11000

$$$$
