AV-unprocessed.smi:1420|AV-procd|sdf|5786|dock7
  -GOLD-   22720 5433D 1   1.00000     0.00000
 Structure written by MMmdl.
 38 39  0  0  0  0  0  0  0  0  1 V2000
  146.1096  139.6388  155.1787 C   0  0  0  0  0  0  0  0  0  0  0  0
  147.2313  138.9306  154.3752 C   0  0  2  0  0  0  0  0  0  0  0  0
  146.8741  137.4217  154.2362 C   0  0  0  0  0  0  0  0  0  0  0  0
  146.6136  137.0215  152.8574 N   0  0  0  0  0  0  0  0  0  0  0  0
  145.4690  136.4797  152.4140 C   0  0  0  0  0  0  0  0  0  0  0  0
  144.4709  136.3257  153.1178 O   0  0  0  0  0  0  0  0  0  0  0  0
  145.4597  136.0146  150.9582 C   0  0  0  0  0  0  0  0  0  0  0  0
  145.3259  134.5709  150.8854 N   0  0  0  0  0  0  0  0  0  0  0  0
  144.1704  133.8209  150.8139 C   0  0  0  0  0  0  0  0  0  0  0  0
  144.5400  132.5068  150.7848 C   0  0  0  0  0  0  0  0  0  0  0  0
  145.9610  132.5536  150.8446 C   0  0  0  0  0  0  0  0  0  0  0  0
  146.4290  133.7901  150.9035 N   0  0  0  0  0  0  0  0  0  0  0  0
  148.5798  139.1602  154.9440 N   0  0  0  0  0  0  0  0  0  0  0  0
  148.9187  140.5853  155.0357 C   0  0  0  0  0  0  0  0  0  0  0  0
  150.3293  140.8296  155.5983 C   0  0  0  0  0  0  0  0  0  0  0  0
  151.2874  140.1540  154.7960 O   0  0  0  0  0  0  0  0  0  0  0  0
  151.0444  138.7552  154.7423 C   0  0  0  0  0  0  0  0  0  0  0  0
  149.6381  138.4932  154.1759 C   0  0  0  0  0  0  0  0  0  0  0  0
  145.1163  139.4315  154.7821 H   0  0  0  0  0  0  0  0  0  0  0  0
  146.2017  140.7234  155.1480 H   0  0  0  0  0  0  0  0  0  0  0  0
  146.1167  139.3276  156.2237 H   0  0  0  0  0  0  0  0  0  0  0  0
  147.2171  139.3580  153.3713 H   0  0  0  0  0  0  0  0  0  0  0  0
  147.6657  136.7741  154.6102 H   0  0  0  0  0  0  0  0  0  0  0  0
  145.9865  137.1957  154.8281 H   0  0  0  0  0  0  0  0  0  0  0  0
  147.3807  137.1057  152.2058 H   0  0  0  0  0  0  0  0  0  0  0  0
  144.6265  136.4736  150.4247 H   0  0  0  0  0  0  0  0  0  0  0  0
  146.3760  136.3232  150.4520 H   0  0  0  0  0  0  0  0  0  0  0  0
  143.1929  134.2802  150.7940 H   0  0  0  0  0  0  0  0  0  0  0  0
  143.8934  131.6437  150.7314 H   0  0  0  0  0  0  0  0  0  0  0  0
  146.6614  131.7316  150.8475 H   0  0  0  0  0  0  0  0  0  0  0  0
  148.8349  141.0502  154.0522 H   0  0  0  0  0  0  0  0  0  0  0  0
  148.2222  141.1037  155.6926 H   0  0  0  0  0  0  0  0  0  0  0  0
  150.5562  141.8958  155.6017 H   0  0  0  0  0  0  0  0  0  0  0  0
  150.3985  140.4844  156.6310 H   0  0  0  0  0  0  0  0  0  0  0  0
  151.8001  138.2871  154.1112 H   0  0  0  0  0  0  0  0  0  0  0  0
  151.1464  138.3216  155.7382 H   0  0  0  0  0  0  0  0  0  0  0  0
  149.4958  137.4148  154.1756 H   0  0  0  0  0  0  0  0  0  0  0  0
  149.6008  138.8187  153.1351 H   0  0  0  0  0  0  0  0  0  0  0  0
  1  2  1  0  0  0  0
  1 19  1  0  0  0  0
  1 20  1  0  0  0  0
  1 21  1  0  0  0  0
  2  3  1  0  0  0  0
  2 13  1  0  0  0  0
  2 22  1  0  0  0  0
  3  4  1  0  0  0  0
  3 23  1  0  0  0  0
  3 24  1  0  0  0  0
  4  5  1  0  0  0  0
  4 25  1  0  0  0  0
  5  6  2  0  0  0  0
  5  7  1  0  0  0  0
  7  8  1  0  0  0  0
  7 26  1  0  0  0  0
  7 27  1  0  0  0  0
  8 12  1  0  0  0  0
  8  9  1  0  0  0  0
  9 10  2  0  0  0  0
  9 28  1  0  0  0  0
 10 11  1  0  0  0  0
 10 29  1  0  0  0  0
 11 12  2  0  0  0  0
 11 30  1  0  0  0  0
 13 18  1  0  0  0  0
 13 14  1  0  0  0  0
 14 15  1  0  0  0  0
 14 31  1  0  0  0  0
 14 32  1  0  0  0  0
 15 16  1  0  0  0  0
 15 33  1  0  0  0  0
 15 34  1  0  0  0  0
 16 17  1  0  0  0  0
 17 18  1  0  0  0  0
 17 35  1  0  0  0  0
 17 36  1  0  0  0  0
 18 37  1  0  0  0  0
 18 38  1  0  0  0  0
M  END
> <s_m_source_file>
AV-unprocessed.smi

> <i_m_source_file_index>
1420

> <i_lp_mmshare_version>
43012

> <i_f3d_flags>
0

> <s_epik_input>
W0NIMl0xW0NIMl1PW0NIMl1bQ0gyXU4xW0NASF0oW0NIM10pW0NIMl1bTkhdQyg9TylbQ0gyXW4yW2NIXVtjSF1bY0hdbjI=

> <s_epik_cmdline>
J2VwaWtfcHl0aG9uJywgJy1waCcsICc3LjAnLCAnLXRuJywgJzgnLCAnLW1hJywgJzIwMCcsICctbWV0YWxfYmluZGluZycsICctaW1hZScsICc8aW5maWxlLm1hZT4nLCAnLW9tYWUnLCAnPG91dGZpbGUubWFlPic=

> <r_lp_tautomer_probability>
1

> <r_epik_Ionization_Penalty>
0.196927

> <r_epik_Ionization_Penalty_Charging>
0

> <r_epik_Ionization_Penalty_Neutral>
0.196927

> <r_epik_State_Penalty>
0.186684

> <r_epik_Charging_Adjusted_Penalty>
0.186684

> <i_epik_Tot_Q>
0

> <i_epik_Tot_abs_Q>
0

> <r_epik_Metal_State_Penalty>
0.186682

> <b_epik_Metal_Only>
0

> <s_lp_Force_Field>
OPLS_2005

> <r_lp_Energy>
27.7246

> <b_lp_Chiralities_Consistent>
1

> <s_lp_Variant>
AV-unprocessed.smi:1420-1

> <Gold.Version>
5.8.1

> <Gold.Id.Protein>
6NUR|6NUR_protein|mol2

> <Gold.PLP.Fitness>
38.8053

> <Gold.PLP.PLP>
-29.5987

> <Gold.PLP.part.hbond>
-1.9035

> <Gold.PLP.part.metal>
0.0000

> <Gold.PLP.part.buried>
-4.8432

> <Gold.PLP.part.nonpolar>
-23.6770

> <Gold.PLP.part.repulsive>
0.5423

> <Gold.PLP.ligand.clash>
0.0000

> <Gold.PLP.ligand.torsion>
1.1522

> <Gold.PLP.Chemscore.Hbond>
1.8160

> <Gold.PLP.Chemscore.CHOScore>
2.0000

> <Gold.PLP.Chemscore.Metal>
0.0000

> <Gold.Chemscore.Hbonds>
donor molecule, donor type, donor heavy atom, donor atom, acceptor molecule, acceptor atom, score
      L1  H     4    25       P1  7948  0.77
      P1  H  7989  7998       L1    16  0.98
      L1  C     9    28       P1 10186  1.00
      L1  C    11    30       P1 10747  0.98

> <Gold.PLP.Chemscore.Internal.Correction>
0.0631

> <Gold.Rescore>
     Score         DG    S(hbond)    S(metal)    S(lipo)     H(rot)  DE(clash)    DE(int)     intcor
     13.33     -14.47       1.83        0.00      65.36       1.87       0.09       1.06       ----

> <Gold.Chemscore.Fitness>
13.3276

> <Gold.Chemscore.DG>
-14.4735

> <Gold.Chemscore.ZeroCoef>
-5.4800

> <Gold.Chemscore.Hbond>
1.8338

> <Gold.Chemscore.Metal>
0.0000

> <Gold.Chemscore.Lipo>
65.3641

> <Gold.Chemscore.Internal_Hbond>
0.0000

> <Gold.Chemscore.DEClash>
0.0901

> <Gold.Chemscore.DEInternal>
1.0558

> <Gold.Chemscore.Rot>
1.8669

> <Gold.Chemscore.Internal.Correction>
   9.000000E+99

> <Gold.Chemscore.Hbonds>
donor molecule, donor type, donor heavy atom, donor atom, acceptor molecule, acceptor atom, score
      L1  H     4    25       P1  7948  0.76
      P1  H  7989  7998       L1    16  0.79

> <Gold.Chemscore.Hbond.Weighted>
-6.1251

> <Gold.Chemscore.Metal.Weighted>
-0.0000

> <Gold.Chemscore.Lipo.Weighted>
-7.6476

> <Gold.Chemscore.Internal_Hbond.Weighted>
0.0000

> <Gold.Chemscore.DEClash.Weighted>
0.0901

> <Gold.Chemscore.DEInternal.Weighted>
1.0558

> <Gold.Chemscore.Rot.Weighted>
4.7792

> <Gold.Chemscore.Internal.Correction.Weighted>
   9.000000E+99

> <Gold.Protein.RotatedTorsions>
[ 6907 6896 6895 6894 ] final  -23.98 input  -60.11 | X-H torsion
[ 7974 7965 7964 7962 ] final -140.17 input  175.53 | X-H torsion
[ 8008 7997 7996 7995 ] final  -48.87 input   59.86 | X-H torsion
[ 10167 10162 10161 10158 ] final   -9.08 input  -65.29 | X-H torsion
[ 10718 10713 10712 10709 ] final  -39.68 input   66.30 | X-H torsion
[ 10763 10752 10751 10750 ] final  165.44 input  -60.55 | X-H torsion
[ 11005 11000 10999 10996 ] final  165.00 input  -57.11 | X-H torsion

> <Gold.Protein.ActiveResidues>
 VAL166  LYS551  ARG553  GLY616  TRP617  ASP618  TYR619  PRO620  LYS621  CYS622 
 ASP623  PHE694  ASN695  SER759  ASP760  ASP761  ALA762  ILE779  LEU786  VAL792 
 PHE793  MET794  SER795  GLU796  ALA797  LYS798  CYS799  TRP800  GLU811  SER814 

> <Gold.Protein.RotatedAtoms>
  151.1961  135.0423  159.8852 H   0  0  0  0  0  0  0  0  0  0  0  0  # atno 6907 bound_to 6896
  152.5436  134.0902  159.8283 H   0  0  0  0  0  0  0  0  0  0  0  0  # atno 6908 bound_to 6896
  151.1036  133.5177  159.2641 H   0  0  0  0  0  0  0  0  0  0  0  0  # atno 6909 bound_to 6896
  144.8618  140.6232  143.5323 H   0  0  0  0  0  0  0  0  0  0  0  0  # atno 7974 bound_to 7965
  154.4035  140.1311  156.4410 H   0  0  0  0  0  0  0  0  0  0  0  0  # atno 8008 bound_to 7997
  155.7459  140.3489  155.5106 H   0  0  0  0  0  0  0  0  0  0  0  0  # atno 8009 bound_to 7997
  155.8996  140.1017  157.1350 H   0  0  0  0  0  0  0  0  0  0  0  0  # atno 8010 bound_to 7997
  140.7077  143.5897  150.8906 H   0  0  0  0  0  0  0  0  0  0  0  0  # atno 10167 bound_to 10162
  156.2898  130.4227  149.8251 H   0  0  0  0  0  0  0  0  0  0  0  0  # atno 10718 bound_to 10713
  154.3241  135.2755  155.2505 H   0  0  0  0  0  0  0  0  0  0  0  0  # atno 10763 bound_to 10752
  154.4845  135.5849  153.6417 H   0  0  0  0  0  0  0  0  0  0  0  0  # atno 10764 bound_to 10752
  152.9873  135.6119  154.3428 H   0  0  0  0  0  0  0  0  0  0  0  0  # atno 10765 bound_to 10752
  140.2516  134.7972  157.3507 H   0  0  0  0  0  0  0  0  0  0  0  0  # atno 11005 bound_to 11000
  145.4297  139.1551  143.4029 LP  0  0  0  0  0  0  0  0  0  0  0  0  # atno 17320 bound_to 7965
  146.2866  140.4413  142.8755 LP  0  0  0  0  0  0  0  0  0  0  0  0  # atno 17321 bound_to 7965
  139.9622  143.6150  152.2999 LP  0  0  0  0  0  0  0  0  0  0  0  0  # atno 17342 bound_to 10162
  139.6707  144.7661  151.1788 LP  0  0  0  0  0  0  0  0  0  0  0  0  # atno 17343 bound_to 10162
  156.5668  130.8407  151.3345 LP  0  0  0  0  0  0  0  0  0  0  0  0  # atno 17370 bound_to 10713
  157.7339  130.9737  150.2001 LP  0  0  0  0  0  0  0  0  0  0  0  0  # atno 17371 bound_to 10713
  140.1552  134.4799  155.7933 LP  0  0  0  0  0  0  0  0  0  0  0  0  # atno 17394 bound_to 11000
  141.2200  133.6878  156.7448 LP  0  0  0  0  0  0  0  0  0  0  0  0  # atno 17395 bound_to 11000

$$$$
