AV-unprocessed.smi:1952|AV-procd|sdf|7886|dock5
  -GOLD-   2272010 43D 1   1.00000     0.00000
 Structure written by MMmdl.
 40 41  0  0  0  0  0  0  0  0  2 V2000
  151.7573  140.4311  158.0312 C   0  0  0  0  0  0  0  0  0  0  0  0
  151.4518  140.0056  156.6359 C   0  0  0  0  0  0  0  0  0  0  0  0
  150.2956  139.6372  156.0069 C   0  0  0  0  0  0  0  0  0  0  0  0
  150.7280  139.3526  154.6844 C   0  0  0  0  0  0  0  0  0  0  0  0
  149.8083  138.9280  153.6914 N   0  0  0  0  0  0  0  0  0  0  0  0
  148.4858  139.1616  153.6504 C   0  0  0  0  0  0  0  0  0  0  0  0
  147.8553  139.8170  154.4806 O   0  0  0  0  0  0  0  0  0  0  0  0
  147.9185  138.5788  152.5832 N   0  0  0  0  0  0  0  0  0  0  0  0
  146.5065  138.6624  152.2055 C   0  0  1  0  0  0  0  0  0  0  0  0
  146.3977  138.5895  150.6762 C   0  0  0  0  0  0  0  0  0  0  0  0
  145.6692  137.5491  152.8780 C   0  0  0  0  0  0  0  0  0  0  0  0
  146.0585  136.1819  152.4485 N   0  3  0  0  0  0  0  0  0  0  0  0
  145.9882  135.1770  153.5371 C   0  0  0  0  0  0  0  0  0  0  0  0
  146.4833  133.8121  153.0314 C   0  0  0  0  0  0  0  0  0  0  0  0
  145.7037  133.4104  151.9113 O   0  0  0  0  0  0  0  0  0  0  0  0
  145.8186  134.3239  150.8270 C   0  0  0  0  0  0  0  0  0  0  0  0
  145.3096  135.7096  151.2606 C   0  0  0  0  0  0  0  0  0  0  0  0
  152.0288  139.5365  154.5189 N   0  0  0  0  0  0  0  0  0  0  0  0
  152.4996  139.9543  155.7692 O   0  0  0  0  0  0  0  0  0  0  0  0
  150.8424  140.6556  158.5797 H   0  0  0  0  0  0  0  0  0  0  0  0
  152.3814  141.3250  158.0366 H   0  0  0  0  0  0  0  0  0  0  0  0
  152.2884  139.6439  158.5666 H   0  0  0  0  0  0  0  0  0  0  0  0
  149.3036  139.5792  156.4296 H   0  0  0  0  0  0  0  0  0  0  0  0
  150.2005  138.3883  152.9339 H   0  0  0  0  0  0  0  0  0  0  0  0
  148.5183  138.0590  151.9588 H   0  0  0  0  0  0  0  0  0  0  0  0
  146.1172  139.6375  152.5018 H   0  0  0  0  0  0  0  0  0  0  0  0
  145.3619  138.6911  150.3512 H   0  0  0  0  0  0  0  0  0  0  0  0
  146.7740  137.6397  150.2943 H   0  0  0  0  0  0  0  0  0  0  0  0
  146.9690  139.3886  150.2024 H   0  0  0  0  0  0  0  0  0  0  0  0
  145.7352  137.6199  153.9647 H   0  0  0  0  0  0  0  0  0  0  0  0
  144.6203  137.7174  152.6283 H   0  0  0  0  0  0  0  0  0  0  0  0
  146.5958  135.4900  154.3856 H   0  0  0  0  0  0  0  0  0  0  0  0
  144.9606  135.0921  153.8944 H   0  0  0  0  0  0  0  0  0  0  0  0
  147.5395  133.8562  152.7601 H   0  0  0  0  0  0  0  0  0  0  0  0
  146.3869  133.0623  153.8168 H   0  0  0  0  0  0  0  0  0  0  0  0
  146.8552  134.3777  150.4905 H   0  0  0  0  0  0  0  0  0  0  0  0
  145.2301  133.9521  149.9880 H   0  0  0  0  0  0  0  0  0  0  0  0
  144.2444  135.6644  151.4928 H   0  0  0  0  0  0  0  0  0  0  0  0
  145.4309  136.4166  150.4390 H   0  0  0  0  0  0  0  0  0  0  0  0
  147.0272  136.2379  152.1663 H   0  0  0  0  0  0  0  0  0  0  0  0
  1  2  1  0  0  0  0
  1 20  1  0  0  0  0
  1 21  1  0  0  0  0
  1 22  1  0  0  0  0
  2 19  1  0  0  0  0
  2  3  2  0  0  0  0
  3  4  1  0  0  0  0
  3 23  1  0  0  0  0
  4  5  1  0  0  0  0
  4 18  2  0  0  0  0
  5  6  1  0  0  0  0
  5 24  1  0  0  0  0
  6  7  2  0  0  0  0
  6  8  1  0  0  0  0
  8  9  1  0  0  0  0
  8 25  1  0  0  0  0
  9 10  1  0  0  0  0
  9 11  1  0  0  0  0
  9 26  1  0  0  0  0
 10 27  1  0  0  0  0
 10 28  1  0  0  0  0
 10 29  1  0  0  0  0
 11 12  1  0  0  0  0
 11 30  1  0  0  0  0
 11 31  1  0  0  0  0
 12 17  1  0  0  0  0
 12 13  1  0  0  0  0
 12 40  1  0  0  0  0
 13 14  1  0  0  0  0
 13 32  1  0  0  0  0
 13 33  1  0  0  0  0
 14 15  1  0  0  0  0
 14 34  1  0  0  0  0
 14 35  1  0  0  0  0
 15 16  1  0  0  0  0
 16 17  1  0  0  0  0
 16 36  1  0  0  0  0
 16 37  1  0  0  0  0
 17 38  1  0  0  0  0
 17 39  1  0  0  0  0
 18 19  1  0  0  0  0
M  CHG  1  12   1
M  END
> <s_m_source_file>
AV-unprocessed.smi

> <i_m_source_file_index>
1952

> <i_lp_mmshare_version>
43012

> <i_f3d_flags>
0

> <s_epik_input>
W0NIM11jMVtjSF1jKG5vMSlbTkhdQyg9TylbTkhdW0NASF0oW0NIM10pW0NIMl1OMltDSDJdW0NIMl1PW0NIMl1bQ0gyXTI=

> <s_epik_cmdline>
J2VwaWtfcHl0aG9uJywgJy1waCcsICc3LjAnLCAnLXRuJywgJzgnLCAnLW1hJywgJzIwMCcsICctbWV0YWxfYmluZGluZycsICctaW1hZScsICc8aW5maWxlLm1hZT4nLCAnLW9tYWUnLCAnPG91dGZpbGUubWFlPic=

> <r_epik_Ionization_Penalty>
0.707079

> <r_epik_Ionization_Penalty_Charging>
0.707039

> <r_epik_Ionization_Penalty_Neutral>
4.01892e-05

> <r_epik_State_Penalty>
0.730276

> <r_epik_Charging_Adjusted_Penalty>
1.43732

> <i_epik_Tot_Q>
1

> <i_epik_Tot_abs_Q>
1

> <r_epik_Metal_State_Penalty>
0.744847

> <b_epik_Metal_Only>
0

> <s_lp_Force_Field>
OPLS_2005

> <r_lp_Energy>
19.2195

> <b_lp_Chiralities_Consistent>
1

> <s_lp_Variant>
AV-unprocessed.smi:1952-4

> <Gold.Version>
5.8.1

> <Gold.Id.Protein>
6NUR|6NUR_protein|mol2

> <Gold.PLP.Fitness>
38.7558

> <Gold.PLP.PLP>
-28.0894

> <Gold.PLP.part.hbond>
-6.0000

> <Gold.PLP.part.metal>
0.0000

> <Gold.PLP.part.buried>
2.7717

> <Gold.PLP.part.nonpolar>
-24.7984

> <Gold.PLP.part.repulsive>
0.4318

> <Gold.PLP.ligand.clash>
0.0000

> <Gold.PLP.ligand.torsion>
0.9527

> <Gold.PLP.Chemscore.Hbond>
4.1840

> <Gold.PLP.Chemscore.CHOScore>
0.0000

> <Gold.PLP.Chemscore.Metal>
0.0000

> <Gold.Chemscore.Hbonds>
donor molecule, donor type, donor heavy atom, donor atom, acceptor molecule, acceptor atom, score
      L1  H     8    25       P1  7948  0.67
      L1  H    12    40       P1  7948  2.00
      P1  H  7989  7998       L1    18  0.40
      P1  H  7997  8009       L1    19  1.00

> <Gold.PLP.Chemscore.Internal.Correction>
0.0198

> <Gold.Rescore>
     Score         DG    S(hbond)    S(metal)    S(lipo)     H(rot)  DE(clash)    DE(int)     intcor
     13.86     -16.81       2.83        0.00      51.40       1.61       0.70       2.25       ----

> <Gold.Chemscore.Fitness>
13.8576

> <Gold.Chemscore.DG>
-16.8139

> <Gold.Chemscore.ZeroCoef>
-5.4800

> <Gold.Chemscore.Hbond>
2.8251

> <Gold.Chemscore.Metal>
0.0000

> <Gold.Chemscore.Lipo>
51.4020

> <Gold.Chemscore.Internal_Hbond>
0.0000

> <Gold.Chemscore.DEClash>
0.7050

> <Gold.Chemscore.DEInternal>
2.2514

> <Gold.Chemscore.Rot>
1.6078

> <Gold.Chemscore.Internal.Correction>
   9.000000E+99

> <Gold.Chemscore.Hbonds>
donor molecule, donor type, donor heavy atom, donor atom, acceptor molecule, acceptor atom, score
      L1  H     8    25       P1  7948  0.68
      L1  H    12    40       P1  7948  0.99
      P1  H  7989  7998       L1    18  0.01
      P1  H  7997  8009       L1    19  0.99

> <Gold.Chemscore.Hbond.Weighted>
-9.4358

> <Gold.Chemscore.Metal.Weighted>
-0.0000

> <Gold.Chemscore.Lipo.Weighted>
-6.0140

> <Gold.Chemscore.Internal_Hbond.Weighted>
0.0000

> <Gold.Chemscore.DEClash.Weighted>
0.7050

> <Gold.Chemscore.DEInternal.Weighted>
2.2514

> <Gold.Chemscore.Rot.Weighted>
4.1158

> <Gold.Chemscore.Internal.Correction.Weighted>
   9.000000E+99

> <Gold.Protein.RotatedTorsions>
[ 6907 6896 6895 6894 ] final   48.62 input  -60.11 | X-H torsion
[ 7974 7965 7964 7962 ] final  157.32 input  175.53 | X-H torsion
[ 8008 7997 7996 7995 ] final -153.99 input   59.86 | X-H torsion
[ 10167 10162 10161 10158 ] final  -91.41 input  -65.29 | X-H torsion
[ 10718 10713 10712 10709 ] final  -47.18 input   66.30 | X-H torsion
[ 10763 10752 10751 10750 ] final -105.51 input  -60.55 | X-H torsion
[ 11005 11000 10999 10996 ] final -155.87 input  -57.11 | X-H torsion

> <Gold.Protein.ActiveResidues>
 VAL166  LYS551  ARG553  GLY616  TRP617  ASP618  TYR619  PRO620  LYS621  CYS622 
 ASP623  PHE694  ASN695  SER759  ASP760  ASP761  ALA762  ILE779  LEU786  VAL792 
 PHE793  MET794  SER795  GLU796  ALA797  LYS798  CYS799  TRP800  GLU811  SER814 

> <Gold.Protein.RotatedAtoms>
  152.2816  134.7822  160.0395 H   0  0  0  0  0  0  0  0  0  0  0  0  # atno 6907 bound_to 6896
  151.8400  133.3417  159.3648 H   0  0  0  0  0  0  0  0  0  0  0  0  # atno 6908 bound_to 6896
  150.7192  134.5329  159.5753 H   0  0  0  0  0  0  0  0  0  0  0  0  # atno 6909 bound_to 6896
  144.7910  139.7325  143.6221 H   0  0  0  0  0  0  0  0  0  0  0  0  # atno 7974 bound_to 7965
  155.6794  140.0742  157.2490 H   0  0  0  0  0  0  0  0  0  0  0  0  # atno 8008 bound_to 7997
  154.4108  140.1684  156.2017 H   0  0  0  0  0  0  0  0  0  0  0  0  # atno 8009 bound_to 7997
  155.9548  140.3374  155.6442 H   0  0  0  0  0  0  0  0  0  0  0  0  # atno 8010 bound_to 7997
  140.3451  143.2921  151.9790 H   0  0  0  0  0  0  0  0  0  0  0  0  # atno 10167 bound_to 10162
  156.2110  130.4160  149.9115 H   0  0  0  0  0  0  0  0  0  0  0  0  # atno 10718 bound_to 10713
  154.7951  135.4746  154.0142 H   0  0  0  0  0  0  0  0  0  0  0  0  # atno 10763 bound_to 10752
  153.1691  135.6822  153.8640 H   0  0  0  0  0  0  0  0  0  0  0  0  # atno 10764 bound_to 10752
  153.8229  135.3202  155.3389 H   0  0  0  0  0  0  0  0  0  0  0  0  # atno 10765 bound_to 10752
  140.6817  134.4137  157.5226 H   0  0  0  0  0  0  0  0  0  0  0  0  # atno 11005 bound_to 11000
  146.2162  139.5553  142.9648 LP  0  0  0  0  0  0  0  0  0  0  0  0  # atno 17320 bound_to 7965
  145.5794  141.0384  143.2130 LP  0  0  0  0  0  0  0  0  0  0  0  0  # atno 17321 bound_to 7965
  139.4834  144.6123  151.7410 LP  0  0  0  0  0  0  0  0  0  0  0  0  # atno 17342 bound_to 10162
  140.5272  144.0787  150.6041 LP  0  0  0  0  0  0  0  0  0  0  0  0  # atno 17343 bound_to 10162
  156.6793  130.8851  151.3573 LP  0  0  0  0  0  0  0  0  0  0  0  0  # atno 17370 bound_to 10713
  157.7038  130.9362  150.0868 LP  0  0  0  0  0  0  0  0  0  0  0  0  # atno 17371 bound_to 10713
  139.8950  134.8694  156.2153 LP  0  0  0  0  0  0  0  0  0  0  0  0  # atno 17394 bound_to 11000
  141.0312  133.6988  156.1433 LP  0  0  0  0  0  0  0  0  0  0  0  0  # atno 17395 bound_to 11000

$$$$
