#       Name:                AV-unprocessed.smi:339
#       Creating user name   scv26
#       Creation time:       Thu Mar 26 22:30:13 2020


#       File generated by GOLD software.
#

@<TRIPOS>MOLECULE
AV-unprocessed.smi:339
    53    54     1
SMALL
NO_CHARGES


@<TRIPOS>ATOM
      1 ****        -3.3103   1.8719  -2.2610 C.3            1 S1                 0.0000
      2 ****        -4.0298   1.7455  -0.9307 C.ar           1 S1                 0.0000
      3 ****        -5.4306   1.9000  -0.8831 C.ar           1 S1                 0.0000
      4 ****        -6.1137   1.8001   0.3430 C.ar           1 S1                 0.0000
      5 ****        -5.3984   1.5495   1.5284 C.ar           1 S1                 0.0000
      6 ****        -3.9975   1.3923   1.4931 C.ar           1 S1                 0.0000
      7 ****        -3.2409   1.1317   2.7823 C.3            1 S1                 0.0000
      8 ****        -3.3111   1.4770   0.2588 C.ar           1 S1                 0.0000
      9 ****        -1.9486   1.3287   0.2216 O.3            1 S1                 0.0000
     10 ****        -1.5252  -0.0008  -0.0430 C.3            1 S1                 0.0000
     11 ****        -0.0062   0.0001  -0.2795 C.3            1 S1                 0.0000
     12 ****         0.2089   0.4123  -1.6155 O.3            1 S1                 0.0000
     13 ****         0.6041  -1.4096  -0.1129 C.3            1 S1                 0.0000
     14 ****         2.0590  -1.3617   0.0792 N.am           1 S1                 0.0000
     15 ****         2.7841  -1.6402  -1.0624 N.2            1 S1                 0.0000
     16 ****         4.0764  -1.6182  -1.0613 C.2            1 S1                 0.0000
     17 ****         4.7593  -1.9368  -2.3642 C.3            1 S1                 0.0000
     18 ****         4.7930  -1.2941   0.1681 C.2            1 S1                 0.0000
     19 ****         6.3146  -1.2798   0.1097 C.3            1 S1                 0.0000
     20 ****         4.0696  -1.0332   1.2855 C.2            1 S1                 0.0000
     21 ****         4.6828  -0.7138   2.5343 C.1            1 S1                 0.0000
     22 ****         5.1983  -0.4570   3.5386 N.1            1 S1                 0.0000
     23 ****         2.6050  -1.0576   1.2913 C.2            1 S1                 0.0000
     24 ****         1.9187  -0.8230   2.2871 O.2            1 S1                 0.0000
     25 ****        -3.8997   2.4533  -2.9705 H              1 S1                 0.0000
     26 ****        -3.1348   0.8858  -2.6907 H              1 S1                 0.0000
     27 ****        -2.3487   2.3713  -2.1397 H              1 S1                 0.0000
     28 ****        -5.9866   2.0994  -1.7876 H              1 S1                 0.0000
     29 ****        -7.1865   1.9211   0.3748 H              1 S1                 0.0000
     30 ****        -5.9300   1.4803   2.4663 H              1 S1                 0.0000
     31 ****        -2.3100   1.6985   2.8081 H              1 S1                 0.0000
     32 ****        -3.0024   0.0722   2.8720 H              1 S1                 0.0000
     33 ****        -3.8317   1.4222   3.6511 H              1 S1                 0.0000
     34 ****        -1.7635  -0.6053   0.8331 H              1 S1                 0.0000
     35 ****        -2.0570  -0.4443  -0.8869 H              1 S1                 0.0000
     36 ****         0.4650   0.7045   0.4071 H              1 S1                 0.0000
     37 ****        -0.2177  -0.2026  -2.1921 H              1 S1                 0.0000
     38 ****         0.1596  -1.9076   0.7506 H              1 S1                 0.0000
     39 ****         0.3422  -2.0428  -0.9632 H              1 S1                 0.0000
     40 ****         5.4719  -2.7524  -2.2397 H              1 S1                 0.0000
     41 ****         5.3008  -1.0677  -2.7384 H              1 S1                 0.0000
     42 ****         4.0470  -2.2383  -3.1338 H              1 S1                 0.0000
     43 ****         6.7593  -0.9206   1.0373 H              1 S1                 0.0000
     44 ****         6.6651  -0.6274  -0.6907 H              1 S1                 0.0000
     45 ****         6.6967  -2.2844  -0.0732 H              1 S1                 0.0000
     46 ****        -1.5765   1.6081   1.1067 LP             1 S1                 0.0000
     47 ****        -1.5859   1.9240  -0.4954 LP             1 S1                 0.0000
     48 ****         1.1899   0.4310  -1.8088 LP             1 S1                 0.0000
     49 ****        -0.1752   1.3254  -1.7526 LP             1 S1                 0.0000
     50 ****         2.2991  -1.8636  -1.9079 LP             1 S1                 0.0000
     51 ****         5.6436  -0.2352   4.4061 LP             1 S1                 0.0000
     52 ****         0.9210  -0.8516   2.2248 LP             1 S1                 0.0000
     53 ****         2.3592  -0.6039   3.1577 LP             1 S1                 0.0000
@<TRIPOS>BOND
    1    1    2 1     
    2    1   25 1     
    3    1   26 1     
    4    1   27 1     
    5    2    8 ar    
    6    2    3 ar    
    7    3    4 ar    
    8    3   28 1     
    9    4    5 ar    
   10    4   29 1     
   11    5    6 ar    
   12    5   30 1     
   13    6    7 1     
   14    6    8 ar    
   15    7   31 1     
   16    7   32 1     
   17    7   33 1     
   18    8    9 1     
   19    9   10 1     
   20   10   11 1     
   21   10   34 1     
   22   10   35 1     
   23   11   12 1     
   24   11   13 1     
   25   11   36 1     
   26   12   37 1     
   27   13   14 1     
   28   13   38 1     
   29   13   39 1     
   30   14   23 am    
   31   14   15 1     
   32   15   16 2     
   33   16   17 1     
   34   16   18 1     
   35   17   40 1     
   36   17   41 1     
   37   17   42 1     
   38   18   19 1     
   39   18   20 2     
   40   19   43 1     
   41   19   44 1     
   42   19   45 1     
   43   20   21 1     
   44   20   23 1     
   45   21   22 3     
   46   23   24 2     
   47    9   46 1     
   48    9   47 1     
   49   12   48 1     
   50   12   49 1     
   51   15   50 1     
   52   22   51 1     
   53   24   52 1     
   54   24   53 1     
@<TRIPOS>SUBSTRUCTURE
      1 S1             1
@<TRIPOS>SET
LONE_PAIRS      STATIC     ATOMS    <user>   **** ""
8 46 47 48 49 50 51 52 53
DONOR_HYDROGENS      STATIC     ATOMS    <user>   **** ""
1 37
ATOM$BLUE        STATIC     ATOMS    COLORGROUP SYSTEM
8 46 47 48 49 50 51 52 53
ATOM$RED        STATIC     ATOMS    COLORGROUP SYSTEM
1 37
