AV-unprocessed.smi:2784|AV-procd|sdf|10731|dock2
  -GOLD-   2272015173D 1   1.00000     0.00000
 Structure written by MMmdl.
 32 33  0  0  0  0  0  0  0  0  2 V2000
  149.8806  138.2210  158.4119 C   0  0  0  0  0  0  0  0  0  0  0  0
  149.8531  139.1606  157.3494 O   0  0  0  0  0  0  0  0  0  0  0  0
  150.5441  138.7305  156.1790 C   0  0  1  0  0  0  0  0  0  0  0  0
  149.8136  137.5265  155.5730 C   0  0  0  0  0  0  0  0  0  0  0  0
  148.6786  138.1467  154.7636 C   0  0  0  0  0  0  0  0  0  0  0  0
  149.2792  139.4227  154.1695 C   0  0  0  0  0  0  0  0  0  0  0  0
  150.4556  139.8192  155.0835 C   0  0  1  0  0  0  0  0  0  0  0  0
  150.2708  141.1635  155.6269 N   0  0  0  0  0  0  0  0  0  0  0  0
  150.9021  141.6445  156.7075 C   0  0  0  0  0  0  0  0  0  0  0  0
  151.7324  141.0053  157.3544 O   0  0  0  0  0  0  0  0  0  0  0  0
  150.5094  142.8949  156.9929 N   0  0  0  0  0  0  0  0  0  0  0  0
  150.9953  143.6894  158.0565 C   0  0  0  0  0  0  0  0  0  0  0  0
  150.4617  144.8545  158.4210 N   0  3  0  0  0  0  0  0  0  0  0  0
  151.1789  145.3555  159.4791 C   0  0  0  0  0  0  0  0  0  0  0  0
  152.1681  144.4348  159.7293 C   0  0  0  0  0  0  0  0  0  0  0  0
  152.0653  143.3811  158.8432 O   0  0  0  0  0  0  0  0  0  0  0  0
  149.3350  138.6227  159.2655 H   0  0  0  0  0  0  0  0  0  0  0  0
  150.9036  138.0225  158.7336 H   0  0  0  0  0  0  0  0  0  0  0  0
  149.4137  137.2770  158.1319 H   0  0  0  0  0  0  0  0  0  0  0  0
  151.5872  138.5060  156.4101 H   0  0  0  0  0  0  0  0  0  0  0  0
  150.4875  136.9938  154.9006 H   0  0  0  0  0  0  0  0  0  0  0  0
  149.4568  136.8089  156.3118 H   0  0  0  0  0  0  0  0  0  0  0  0
  148.2902  137.4722  154.0001 H   0  0  0  0  0  0  0  0  0  0  0  0
  147.8540  138.4038  155.4298 H   0  0  0  0  0  0  0  0  0  0  0  0
  149.6524  139.2202  153.1648 H   0  0  0  0  0  0  0  0  0  0  0  0
  148.5249  140.2053  154.0770 H   0  0  0  0  0  0  0  0  0  0  0  0
  151.3673  139.7964  154.4830 H   0  0  0  0  0  0  0  0  0  0  0  0
  149.5976  141.7520  155.1584 H   0  0  0  0  0  0  0  0  0  0  0  0
  149.6634  145.3256  158.0138 H   0  0  0  0  0  0  0  0  0  0  0  0
  150.9202  146.2987  159.9389 H   0  0  0  0  0  0  0  0  0  0  0  0
  152.9715  144.3792  160.4496 H   0  0  0  0  0  0  0  0  0  0  0  0
  149.8102  143.3137  156.3979 H   0  0  0  0  0  0  0  0  0  0  0  0
  1  2  1  0  0  0  0
  1 17  1  0  0  0  0
  1 18  1  0  0  0  0
  1 19  1  0  0  0  0
  2  3  1  0  0  0  0
  3  7  1  0  0  0  0
  3  4  1  0  0  0  0
  3 20  1  0  0  0  0
  4  5  1  0  0  0  0
  4 21  1  0  0  0  0
  4 22  1  0  0  0  0
  5  6  1  0  0  0  0
  5 23  1  0  0  0  0
  5 24  1  0  0  0  0
  6  7  1  0  0  0  0
  6 25  1  0  0  0  0
  6 26  1  0  0  0  0
  7  8  1  0  0  0  0
  7 27  1  0  0  0  0
  8 28  1  0  0  0  0
  8  9  1  0  0  0  0
  9 11  1  0  0  0  0
  9 10  2  0  0  0  0
 11 12  1  0  0  0  0
 11 32  1  0  0  0  0
 12 16  1  0  0  0  0
 12 13  2  0  0  0  0
 13 29  1  0  0  0  0
 13 14  1  0  0  0  0
 14 30  1  0  0  0  0
 14 15  2  0  0  0  0
 15 31  1  0  0  0  0
 15 16  1  0  0  0  0
M  CHG  1  13   1
M  END
> <s_m_source_file>
AV-unprocessed.smi

> <i_m_source_file_index>
2784

> <i_lp_mmshare_version>
43012

> <i_f3d_flags>
0

> <s_epik_input>
W0NIM11PW0NAQEhdMVtDSDJdW0NIMl1bQ0gyXVtDQEhdMVtOSF1DKD1PKVtOSF1jMm5bY0hdW2NIXW8y

> <s_epik_cmdline>
J2VwaWtfcHl0aG9uJywgJy1waCcsICc3LjAnLCAnLXRuJywgJzgnLCAnLW1hJywgJzIwMCcsICctbWV0YWxfYmluZGluZycsICctaW1hZScsICc8aW5maWxlLm1hZT4nLCAnLW9tYWUnLCAnPG91dGZpbGUubWFlPic=

> <r_epik_Ionization_Penalty>
6.73843

> <r_epik_Ionization_Penalty_Charging>
6.66704

> <r_epik_Ionization_Penalty_Neutral>
0.0713889

> <r_epik_State_Penalty>
1.94951

> <r_epik_Charging_Adjusted_Penalty>
8.61656

> <i_epik_Tot_Q>
1

> <i_epik_Tot_abs_Q>
1

> <r_epik_Metal_State_Penalty>
1.97013

> <b_epik_Metal_Only>
0

> <s_lp_Force_Field>
OPLS_2005

> <r_lp_Energy>
28.3285

> <b_lp_Chiralities_Consistent>
1

> <s_lp_Variant>
AV-unprocessed.smi:2784-6

> <Gold.Version>
5.8.1

> <Gold.Id.Protein>
6NUR|6NUR_protein|mol2

> <Gold.PLP.Fitness>
33.9234

> <Gold.PLP.PLP>
-25.4991

> <Gold.PLP.part.hbond>
-2.5421

> <Gold.PLP.part.metal>
0.0000

> <Gold.PLP.part.buried>
-2.8272

> <Gold.PLP.part.nonpolar>
-20.4201

> <Gold.PLP.part.repulsive>
0.3340

> <Gold.PLP.ligand.clash>
0.0000

> <Gold.PLP.ligand.torsion>
0.2939

> <Gold.PLP.Chemscore.Hbond>
3.0000

> <Gold.PLP.Chemscore.CHOScore>
0.0000

> <Gold.PLP.Chemscore.Metal>
0.0000

> <Gold.Chemscore.Hbonds>
donor molecule, donor type, donor heavy atom, donor atom, acceptor molecule, acceptor atom, score
      L1  H    11    32       P1  8028  1.00
      L1  H    13    29       P1  8029  1.90

> <Gold.PLP.Chemscore.Internal.Correction>
0.0120

> <Gold.Rescore>
     Score         DG    S(hbond)    S(metal)    S(lipo)     H(rot)  DE(clash)    DE(int)     intcor
      8.85     -14.44       1.89        0.00      51.92       1.34       0.08       5.51       ----

> <Gold.Chemscore.Fitness>
8.8513

> <Gold.Chemscore.DG>
-14.4397

> <Gold.Chemscore.ZeroCoef>
-5.4800

> <Gold.Chemscore.Hbond>
1.8872

> <Gold.Chemscore.Metal>
0.0000

> <Gold.Chemscore.Lipo>
51.9151

> <Gold.Chemscore.Internal_Hbond>
0.0000

> <Gold.Chemscore.DEClash>
0.0820

> <Gold.Chemscore.DEInternal>
5.5065

> <Gold.Chemscore.Rot>
1.3351

> <Gold.Chemscore.Internal.Correction>
   9.000000E+99

> <Gold.Chemscore.Hbonds>
donor molecule, donor type, donor heavy atom, donor atom, acceptor molecule, acceptor atom, score
      L1  H    11    32       P1  8028  0.98
      L1  H    13    29       P1  8029  0.21

> <Gold.Chemscore.Hbond.Weighted>
-6.3034

> <Gold.Chemscore.Metal.Weighted>
-0.0000

> <Gold.Chemscore.Lipo.Weighted>
-6.0741

> <Gold.Chemscore.Internal_Hbond.Weighted>
0.0000

> <Gold.Chemscore.DEClash.Weighted>
0.0820

> <Gold.Chemscore.DEInternal.Weighted>
5.5065

> <Gold.Chemscore.Rot.Weighted>
3.4177

> <Gold.Chemscore.Internal.Correction.Weighted>
   9.000000E+99

> <Gold.Protein.RotatedTorsions>
[ 6907 6896 6895 6894 ] final  -12.33 input  -60.11 | X-H torsion
[ 7974 7965 7964 7962 ] final  -41.29 input  175.53 | X-H torsion
[ 8008 7997 7996 7995 ] final   33.05 input   59.86 | X-H torsion
[ 10167 10162 10161 10158 ] final   61.77 input  -65.29 | X-H torsion
[ 10718 10713 10712 10709 ] final   11.06 input   66.30 | X-H torsion
[ 10763 10752 10751 10750 ] final -173.74 input  -60.55 | X-H torsion
[ 11005 11000 10999 10996 ] final  151.38 input  -57.11 | X-H torsion

> <Gold.Protein.ActiveResidues>
 VAL166  LYS551  ARG553  GLY616  TRP617  ASP618  TYR619  PRO620  LYS621  CYS622 
 ASP623  PHE694  ASN695  SER759  ASP760  ASP761  ALA762  ILE779  LEU786  VAL792 
 PHE793  MET794  SER795  GLU796  ALA797  LYS798  CYS799  TRP800  GLU811  SER814 

> <Gold.Protein.RotatedAtoms>
  151.3722  135.0924  159.9468 H   0  0  0  0  0  0  0  0  0  0  0  0  # atno 6907 bound_to 6896
  152.5132  133.9154  159.7518 H   0  0  0  0  0  0  0  0  0  0  0  0  # atno 6908 bound_to 6896
  150.9570  133.6432  159.2790 H   0  0  0  0  0  0  0  0  0  0  0  0  # atno 6909 bound_to 6896
  146.0225  140.6832  142.9171 H   0  0  0  0  0  0  0  0  0  0  0  0  # atno 7974 bound_to 7965
  155.1323  140.3258  155.4471 H   0  0  0  0  0  0  0  0  0  0  0  0  # atno 8008 bound_to 7997
  156.2630  140.2008  156.6391 H   0  0  0  0  0  0  0  0  0  0  0  0  # atno 8009 bound_to 7997
  154.6603  140.0548  157.0041 H   0  0  0  0  0  0  0  0  0  0  0  0  # atno 8010 bound_to 7997
  140.1512  144.4461  150.6758 H   0  0  0  0  0  0  0  0  0  0  0  0  # atno 10167 bound_to 10162
  156.9901  130.6039  149.5685 H   0  0  0  0  0  0  0  0  0  0  0  0  # atno 10718 bound_to 10713
  154.6044  135.2858  155.0500 H   0  0  0  0  0  0  0  0  0  0  0  0  # atno 10763 bound_to 10752
  154.1753  135.6465  153.5024 H   0  0  0  0  0  0  0  0  0  0  0  0  # atno 10764 bound_to 10752
  153.0169  135.5410  154.6775 H   0  0  0  0  0  0  0  0  0  0  0  0  # atno 10765 bound_to 10752
  140.1214  134.8861  157.2077 H   0  0  0  0  0  0  0  0  0  0  0  0  # atno 11005 bound_to 11000
  144.6996  140.3591  143.7167 LP  0  0  0  0  0  0  0  0  0  0  0  0  # atno 17320 bound_to 7965
  145.7170  139.1700  143.2506 LP  0  0  0  0  0  0  0  0  0  0  0  0  # atno 17321 bound_to 7965
  140.6701  143.2282  151.5646 LP  0  0  0  0  0  0  0  0  0  0  0  0  # atno 17342 bound_to 10162
  139.5425  144.2609  152.1378 LP  0  0  0  0  0  0  0  0  0  0  0  0  # atno 17343 bound_to 10162
  156.0210  130.5305  150.8276 LP  0  0  0  0  0  0  0  0  0  0  0  0  # atno 17370 bound_to 10713
  157.5465  131.0942  150.9755 LP  0  0  0  0  0  0  0  0  0  0  0  0  # atno 17371 bound_to 10713
  140.2960  134.3185  155.7302 LP  0  0  0  0  0  0  0  0  0  0  0  0  # atno 17394 bound_to 11000
  141.2152  133.7563  156.9572 LP  0  0  0  0  0  0  0  0  0  0  0  0  # atno 17395 bound_to 11000

$$$$
