AV-unprocessed.smi:1586|AV-procd|sdf|6375|dock7
  -GOLD-   22720 7 03D 1   1.00000     0.00000
 Structure written by MMmdl.
 47 48  0  0  0  0  0  0  0  0  2 V2000
  151.5701  139.6624  158.3828 C   0  0  0  0  0  0  0  0  0  0  0  0
  151.3000  138.9483  157.0507 C   0  0  0  0  0  0  0  0  0  0  0  0
  151.7244  139.7514  155.9014 N   0  0  0  0  0  0  0  0  0  0  0  0
  151.6002  139.0264  154.6371 C   0  0  0  0  0  0  0  0  0  0  0  0
  150.1281  138.8279  154.2161 C   0  0  0  0  0  0  0  0  0  0  0  0
  149.4242  140.1346  154.0912 N   0  3  0  0  0  0  0  0  0  0  0  0
  148.0014  140.0671  153.6230 C   0  0  2  0  0  0  0  0  0  0  0  0
  147.2141  141.3830  153.8360 C   0  0  0  0  0  0  0  0  0  0  0  0
  147.2648  138.8887  154.3144 C   0  0  0  0  0  0  0  0  0  0  0  0
  147.1591  137.7040  153.4675 N   0  0  0  0  0  0  0  0  0  0  0  0
  146.0145  137.0590  153.1998 C   0  0  0  0  0  0  0  0  0  0  0  0
  144.9222  137.4071  153.6497 O   0  0  0  0  0  0  0  0  0  0  0  0
  146.2219  136.0031  152.3949 N   0  0  0  0  0  0  0  0  0  0  0  0
  145.2555  135.0845  151.9114 C   0  0  0  0  0  0  0  0  0  0  0  0
  145.5700  134.1781  150.8643 C   0  0  0  0  0  0  0  0  0  0  0  0
  144.4047  133.4837  150.6983 C   0  0  0  0  0  0  0  0  0  0  0  0
  144.0023  132.3806  149.7807 C   0  0  0  0  0  0  0  0  0  0  0  0
  143.4598  133.9287  151.5701 O   0  0  0  0  0  0  0  0  0  0  0  0
  144.0115  134.9553  152.3456 N   0  0  0  0  0  0  0  0  0  0  0  0
  149.5672  140.8884  155.3674 C   0  0  0  0  0  0  0  0  0  0  0  0
  151.0503  141.0447  155.7607 C   0  0  0  0  0  0  0  0  0  0  0  0
  151.3719  138.9929  159.2199 H   0  0  0  0  0  0  0  0  0  0  0  0
  150.9343  140.5374  158.5152 H   0  0  0  0  0  0  0  0  0  0  0  0
  152.6097  139.9827  158.4572 H   0  0  0  0  0  0  0  0  0  0  0  0
  151.8699  138.0182  157.0475 H   0  0  0  0  0  0  0  0  0  0  0  0
  150.2506  138.6654  156.9816 H   0  0  0  0  0  0  0  0  0  0  0  0
  152.1284  139.5845  153.8628 H   0  0  0  0  0  0  0  0  0  0  0  0
  152.1050  138.0628  154.7152 H   0  0  0  0  0  0  0  0  0  0  0  0
  150.1440  138.3117  153.2569 H   0  0  0  0  0  0  0  0  0  0  0  0
  149.6000  138.1811  154.9180 H   0  0  0  0  0  0  0  0  0  0  0  0
  148.0233  139.8891  152.5467 H   0  0  0  0  0  0  0  0  0  0  0  0
  146.1786  141.2906  153.5090 H   0  0  0  0  0  0  0  0  0  0  0  0
  147.6311  142.2080  153.2583 H   0  0  0  0  0  0  0  0  0  0  0  0
  147.1986  141.6735  154.8870 H   0  0  0  0  0  0  0  0  0  0  0  0
  147.7471  138.5926  155.2454 H   0  0  0  0  0  0  0  0  0  0  0  0
  146.2544  139.1959  154.5857 H   0  0  0  0  0  0  0  0  0  0  0  0
  148.0133  137.3547  153.0578 H   0  0  0  0  0  0  0  0  0  0  0  0
  147.1718  135.8350  152.0986 H   0  0  0  0  0  0  0  0  0  0  0  0
  146.4957  134.0543  150.3224 H   0  0  0  0  0  0  0  0  0  0  0  0
  144.7977  132.1539  149.0707 H   0  0  0  0  0  0  0  0  0  0  0  0
  143.1118  132.6540  149.2144 H   0  0  0  0  0  0  0  0  0  0  0  0
  143.7813  131.4726  150.3419 H   0  0  0  0  0  0  0  0  0  0  0  0
  149.1412  141.8853  155.2747 H   0  0  0  0  0  0  0  0  0  0  0  0
  149.0044  140.3936  156.1596 H   0  0  0  0  0  0  0  0  0  0  0  0
  151.1398  141.6238  156.6791 H   0  0  0  0  0  0  0  0  0  0  0  0
  151.5684  141.6224  154.9940 H   0  0  0  0  0  0  0  0  0  0  0  0
  149.9308  140.6503  153.3862 H   0  0  0  0  0  0  0  0  0  0  0  0
  1  2  1  0  0  0  0
  1 22  1  0  0  0  0
  1 23  1  0  0  0  0
  1 24  1  0  0  0  0
  2  3  1  0  0  0  0
  2 25  1  0  0  0  0
  2 26  1  0  0  0  0
  3 21  1  0  0  0  0
  3  4  1  0  0  0  0
  4  5  1  0  0  0  0
  4 27  1  0  0  0  0
  4 28  1  0  0  0  0
  5  6  1  0  0  0  0
  5 29  1  0  0  0  0
  5 30  1  0  0  0  0
  6  7  1  0  0  0  0
  6 20  1  0  0  0  0
  6 47  1  0  0  0  0
  7  8  1  0  0  0  0
  7  9  1  0  0  0  0
  7 31  1  0  0  0  0
  8 32  1  0  0  0  0
  8 33  1  0  0  0  0
  8 34  1  0  0  0  0
  9 10  1  0  0  0  0
  9 35  1  0  0  0  0
  9 36  1  0  0  0  0
 10 11  1  0  0  0  0
 10 37  1  0  0  0  0
 11 12  2  0  0  0  0
 11 13  1  0  0  0  0
 13 14  1  0  0  0  0
 13 38  1  0  0  0  0
 14 19  2  0  0  0  0
 14 15  1  0  0  0  0
 15 16  2  0  0  0  0
 15 39  1  0  0  0  0
 16 17  1  0  0  0  0
 16 18  1  0  0  0  0
 17 40  1  0  0  0  0
 17 41  1  0  0  0  0
 17 42  1  0  0  0  0
 18 19  1  0  0  0  0
 20 21  1  0  0  0  0
 20 43  1  0  0  0  0
 20 44  1  0  0  0  0
 21 45  1  0  0  0  0
 21 46  1  0  0  0  0
M  CHG  1   6   1
M  END
> <s_m_source_file>
AV-unprocessed.smi

> <i_m_source_file_index>
1586

> <i_lp_mmshare_version>
43012

> <i_f3d_flags>
0

> <s_epik_input>
W0NIM11bQ0gyXU4xW0NIMl1bQ0gyXU4oW0NIMl1bQ0gyXTEpW0NASF0oW0NIM10pW0NIMl1bTkhdQyg9TylbTkhdYzJbY0hdYyhbQ0gzXSlvbjI=

> <s_epik_cmdline>
J2VwaWtfcHl0aG9uJywgJy1waCcsICc3LjAnLCAnLXRuJywgJzgnLCAnLW1hJywgJzIwMCcsICctbWV0YWxfYmluZGluZycsICctaW1hZScsICc8aW5maWxlLm1hZT4nLCAnLW9tYWUnLCAnPG91dGZpbGUubWFlPic=

> <r_epik_Ionization_Penalty>
0.153363

> <r_epik_Ionization_Penalty_Charging>
0.151842

> <r_epik_Ionization_Penalty_Neutral>
0.00152029

> <r_epik_State_Penalty>
0.985235

> <r_epik_Charging_Adjusted_Penalty>
1.13708

> <i_epik_Tot_Q>
1

> <i_epik_Tot_abs_Q>
1

> <r_epik_Metal_State_Penalty>
0.996168

> <b_epik_Metal_Only>
0

> <s_lp_Force_Field>
OPLS_2005

> <r_lp_Energy>
18.9403

> <b_lp_Chiralities_Consistent>
1

> <s_lp_Variant>
AV-unprocessed.smi:1586-3

> <Gold.Version>
5.8.1

> <Gold.Id.Protein>
6NUR|6NUR_protein|mol2

> <Gold.PLP.Fitness>
38.2333

> <Gold.PLP.PLP>
-34.1444

> <Gold.PLP.part.hbond>
-3.0000

> <Gold.PLP.part.metal>
0.0000

> <Gold.PLP.part.buried>
-4.3643

> <Gold.PLP.part.nonpolar>
-27.1299

> <Gold.PLP.part.repulsive>
0.6571

> <Gold.PLP.ligand.clash>
0.0000

> <Gold.PLP.ligand.torsion>
1.0398

> <Gold.PLP.Chemscore.Hbond>
2.0328

> <Gold.PLP.Chemscore.CHOScore>
0.0000

> <Gold.PLP.Chemscore.Metal>
0.0000

> <Gold.Chemscore.Hbonds>
donor molecule, donor type, donor heavy atom, donor atom, acceptor molecule, acceptor atom, score
      L1  H     6    47       P1  7957  0.10
      L1  H    10    37       P1  7948  1.00
      L1  H    13    38       P1  7948  1.00

> <Gold.PLP.Chemscore.Internal.Correction>
0.0702

> <Gold.Rescore>
     Score         DG    S(hbond)    S(metal)    S(lipo)     H(rot)  DE(clash)    DE(int)     intcor
     14.55     -17.40       2.12        0.00      79.89       1.76       0.67       2.18       ----

> <Gold.Chemscore.Fitness>
14.5511

> <Gold.Chemscore.DG>
-17.3975

> <Gold.Chemscore.ZeroCoef>
-5.4800

> <Gold.Chemscore.Hbond>
2.1213

> <Gold.Chemscore.Metal>
0.0000

> <Gold.Chemscore.Lipo>
79.8919

> <Gold.Chemscore.Internal_Hbond>
0.0000

> <Gold.Chemscore.DEClash>
0.6654

> <Gold.Chemscore.DEInternal>
2.1810

> <Gold.Chemscore.Rot>
1.7637

> <Gold.Chemscore.Internal.Correction>
   9.000000E+99

> <Gold.Chemscore.Hbonds>
donor molecule, donor type, donor heavy atom, donor atom, acceptor molecule, acceptor atom, score
      L1  H     6    47       P1  7957  0.10
      L1  H    10    37       P1  7948  0.96
      L1  H    13    38       P1  7948  0.99

> <Gold.Chemscore.Hbond.Weighted>
-7.0852

> <Gold.Chemscore.Metal.Weighted>
-0.0000

> <Gold.Chemscore.Lipo.Weighted>
-9.3474

> <Gold.Chemscore.Internal_Hbond.Weighted>
0.0000

> <Gold.Chemscore.DEClash.Weighted>
0.6654

> <Gold.Chemscore.DEInternal.Weighted>
2.1810

> <Gold.Chemscore.Rot.Weighted>
4.5150

> <Gold.Chemscore.Internal.Correction.Weighted>
   9.000000E+99

> <Gold.Protein.RotatedTorsions>
[ 6907 6896 6895 6894 ] final  -56.20 input  -60.11 | X-H torsion
[ 7974 7965 7964 7962 ] final   65.40 input  175.53 | X-H torsion
[ 8008 7997 7996 7995 ] final  -82.27 input   59.86 | X-H torsion
[ 10167 10162 10161 10158 ] final  131.02 input  -65.29 | X-H torsion
[ 10718 10713 10712 10709 ] final  -44.69 input   66.30 | X-H torsion
[ 10763 10752 10751 10750 ] final  122.71 input  -60.55 | X-H torsion
[ 11005 11000 10999 10996 ] final -110.47 input  -57.11 | X-H torsion

> <Gold.Protein.ActiveResidues>
 VAL166  LYS551  ARG553  GLY616  TRP617  ASP618  TYR619  PRO620  LYS621  CYS622 
 ASP623  PHE694  ASN695  SER759  ASP760  ASP761  ALA762  ILE779  LEU786  VAL792 
 PHE793  MET794  SER795  GLU796  ALA797  LYS798  CYS799  TRP800  GLU811  SER814 

> <Gold.Protein.RotatedAtoms>
  150.8187  134.7383  159.6752 H   0  0  0  0  0  0  0  0  0  0  0  0  # atno 6907 bound_to 6896
  152.4304  134.5785  159.9951 H   0  0  0  0  0  0  0  0  0  0  0  0  # atno 6908 bound_to 6896
  151.5975  133.3322  159.3076 H   0  0  0  0  0  0  0  0  0  0  0  0  # atno 6909 bound_to 6896
  145.8389  139.3183  143.0943 H   0  0  0  0  0  0  0  0  0  0  0  0  # atno 7974 bound_to 7965
  154.6068  140.0635  156.9442 H   0  0  0  0  0  0  0  0  0  0  0  0  # atno 8008 bound_to 7997
  155.2039  140.3317  155.4320 H   0  0  0  0  0  0  0  0  0  0  0  0  # atno 8009 bound_to 7997
  156.2353  140.1860  156.7120 H   0  0  0  0  0  0  0  0  0  0  0  0  # atno 8010 bound_to 7997
  139.5403  144.6724  151.4647 H   0  0  0  0  0  0  0  0  0  0  0  0  # atno 10167 bound_to 10162
  156.2360  130.4176  149.8817 H   0  0  0  0  0  0  0  0  0  0  0  0  # atno 10718 bound_to 10713
  153.6340  135.3391  155.3050 H   0  0  0  0  0  0  0  0  0  0  0  0  # atno 10763 bound_to 10752
  154.8574  135.4302  154.2075 H   0  0  0  0  0  0  0  0  0  0  0  0  # atno 10764 bound_to 10752
  153.2978  135.7022  153.7305 H   0  0  0  0  0  0  0  0  0  0  0  0  # atno 10765 bound_to 10752
  141.0790  133.9252  157.2329 H   0  0  0  0  0  0  0  0  0  0  0  0  # atno 11005 bound_to 11000
  145.9487  140.8925  143.0270 LP  0  0  0  0  0  0  0  0  0  0  0  0  # atno 17320 bound_to 7965
  144.6735  140.1650  143.7419 LP  0  0  0  0  0  0  0  0  0  0  0  0  # atno 17321 bound_to 7965
  140.6630  143.8458  150.6909 LP  0  0  0  0  0  0  0  0  0  0  0  0  # atno 17342 bound_to 10162
  140.1859  143.4076  152.1899 LP  0  0  0  0  0  0  0  0  0  0  0  0  # atno 17343 bound_to 10162
  156.6415  130.8706  151.3515 LP  0  0  0  0  0  0  0  0  0  0  0  0  # atno 17370 bound_to 10713
  157.7154  130.9491  150.1238 LP  0  0  0  0  0  0  0  0  0  0  0  0  # atno 17371 bound_to 10713
  139.9603  135.0156  156.9242 LP  0  0  0  0  0  0  0  0  0  0  0  0  # atno 17394 bound_to 11000
  140.5511  134.0627  155.7369 LP  0  0  0  0  0  0  0  0  0  0  0  0  # atno 17395 bound_to 11000

$$$$
