AV-unprocessed.smi:2855|AV-procd|sdf|10990|dock5
  -GOLD-   2272015443D 1   1.00000     0.00000
 Structure written by MMmdl.
 46 47  0  0  0  0  0  0  0  0  2 V2000
  150.8783  136.6781  155.6934 C   0  0  0  0  0  0  0  0  0  0  0  0
  151.6020  137.8021  154.9308 C   0  0  1  0  0  0  0  0  0  0  0  0
  150.7476  138.3999  153.7996 C   0  0  0  0  0  0  0  0  0  0  0  0
  149.6047  139.2774  154.3334 C   0  0  0  0  0  0  0  0  0  0  0  0
  150.1200  140.4125  155.2505 C   0  0  1  0  0  0  0  0  0  0  0  0
  148.9866  141.3670  155.7343 C   0  0  0  0  0  0  0  0  0  0  0  0
  148.2493  140.8796  156.9957 C   0  0  0  0  0  0  0  0  0  0  0  0
  147.9833  141.7016  154.6168 C   0  0  0  0  0  0  0  0  0  0  0  0
  150.9875  139.8264  156.4013 C   0  0  2  0  0  0  0  0  0  0  0  0
  151.6081  140.8933  157.1862 N   0  0  0  0  0  0  0  0  0  0  0  0
  151.4175  141.1319  158.4930 C   0  0  0  0  0  0  0  0  0  0  0  0
  150.6501  140.4761  159.1988 O   0  0  0  0  0  0  0  0  0  0  0  0
  152.2002  142.3188  159.0716 C   0  0  0  0  0  0  0  0  0  0  0  0
  153.0294  141.9626  160.2345 N   0  0  0  0  0  0  0  0  0  0  0  0
  152.8341  142.6878  161.4231 C   0  0  0  0  0  0  0  0  0  0  0  0
  153.5483  142.4336  162.5360 C   0  0  0  0  0  0  0  0  0  0  0  0
  154.5466  141.3724  162.4882 C   0  0  0  0  0  0  0  0  0  0  0  0
  155.2100  141.1286  163.4942 O   0  0  0  0  0  0  0  0  0  0  0  0
  154.6962  140.6945  161.3127 N   0  5  0  0  0  0  0  0  0  0  0  0
  153.9619  140.9635  160.1887 C   0  0  0  0  0  0  0  0  0  0  0  0
  154.1129  140.3395  159.1377 O   0  0  0  0  0  0  0  0  0  0  0  0
  152.1128  138.9196  155.8592 C   0  0  0  0  0  0  0  0  0  0  0  0
  149.9820  137.0346  156.2006 H   0  0  0  0  0  0  0  0  0  0  0  0
  151.5293  136.2375  156.4488 H   0  0  0  0  0  0  0  0  0  0  0  0
  150.5770  135.8788  155.0156 H   0  0  0  0  0  0  0  0  0  0  0  0
  152.4758  137.3418  154.4676 H   0  0  0  0  0  0  0  0  0  0  0  0
  151.3842  139.0038  153.1515 H   0  0  0  0  0  0  0  0  0  0  0  0
  150.3456  137.6045  153.1711 H   0  0  0  0  0  0  0  0  0  0  0  0
  149.0644  139.6904  153.4824 H   0  0  0  0  0  0  0  0  0  0  0  0
  148.8921  138.6515  154.8696 H   0  0  0  0  0  0  0  0  0  0  0  0
  150.7925  141.0198  154.6419 H   0  0  0  0  0  0  0  0  0  0  0  0
  149.4474  142.3198  155.9934 H   0  0  0  0  0  0  0  0  0  0  0  0
  147.6936  139.9606  156.8108 H   0  0  0  0  0  0  0  0  0  0  0  0
  147.5326  141.6271  157.3366 H   0  0  0  0  0  0  0  0  0  0  0  0
  148.9342  140.6965  157.8228 H   0  0  0  0  0  0  0  0  0  0  0  0
  147.3877  140.8350  154.3305 H   0  0  0  0  0  0  0  0  0  0  0  0
  148.4920  142.0695  153.7253 H   0  0  0  0  0  0  0  0  0  0  0  0
  147.2891  142.4784  154.9384 H   0  0  0  0  0  0  0  0  0  0  0  0
  150.3535  139.2134  157.0418 H   0  0  0  0  0  0  0  0  0  0  0  0
  152.2532  141.4943  156.6948 H   0  0  0  0  0  0  0  0  0  0  0  0
  152.8253  142.7584  158.2917 H   0  0  0  0  0  0  0  0  0  0  0  0
  151.4845  143.0978  159.3374 H   0  0  0  0  0  0  0  0  0  0  0  0
  152.0727  143.4524  161.3761 H   0  0  0  0  0  0  0  0  0  0  0  0
  153.3853  142.9992  163.4416 H   0  0  0  0  0  0  0  0  0  0  0  0
  152.6734  138.4840  156.6878 H   0  0  0  0  0  0  0  0  0  0  0  0
  152.8263  139.5311  155.3044 H   0  0  0  0  0  0  0  0  0  0  0  0
  1  2  1  0  0  0  0
  1 23  1  0  0  0  0
  1 24  1  0  0  0  0
  1 25  1  0  0  0  0
  2 22  1  0  0  0  0
  2  3  1  0  0  0  0
  2 26  1  0  0  0  0
  3  4  1  0  0  0  0
  3 27  1  0  0  0  0
  3 28  1  0  0  0  0
  4  5  1  0  0  0  0
  4 29  1  0  0  0  0
  4 30  1  0  0  0  0
  5  6  1  0  0  0  0
  5  9  1  0  0  0  0
  5 31  1  0  0  0  0
  6  7  1  0  0  0  0
  6  8  1  0  0  0  0
  6 32  1  0  0  0  0
  7 33  1  0  0  0  0
  7 34  1  0  0  0  0
  7 35  1  0  0  0  0
  8 36  1  0  0  0  0
  8 37  1  0  0  0  0
  8 38  1  0  0  0  0
  9 10  1  0  0  0  0
  9 22  1  0  0  0  0
  9 39  1  0  0  0  0
 10 11  1  0  0  0  0
 10 40  1  0  0  0  0
 11 12  2  0  0  0  0
 11 13  1  0  0  0  0
 13 14  1  0  0  0  0
 13 41  1  0  0  0  0
 13 42  1  0  0  0  0
 14 20  1  0  0  0  0
 14 15  1  0  0  0  0
 15 16  2  0  0  0  0
 15 43  1  0  0  0  0
 16 17  1  0  0  0  0
 16 44  1  0  0  0  0
 17 18  2  0  0  0  0
 17 19  1  0  0  0  0
 19 20  1  0  0  0  0
 20 21  2  0  0  0  0
 22 45  1  0  0  0  0
 22 46  1  0  0  0  0
M  CHG  1  19  -1
M  END
> <s_m_source_file>
AV-unprocessed.smi

> <i_m_source_file_index>
2855

> <i_lp_mmshare_version>
43012

> <i_f3d_flags>
0

> <s_epik_input>
W0NIM11bQ0BASF0xW0NIMl1bQ0gyXVtDQEBIXShbQ0hdKFtDSDNdKVtDSDNdKVtDQEhdKFtDSDJdMSlbTkhdQyg9TylbQ0gyXW4yW2NIXVtjSF1jKD1PKVtuSF1jMj1P

> <s_epik_cmdline>
J2VwaWtfcHl0aG9uJywgJy1waCcsICc3LjAnLCAnLXRuJywgJzgnLCAnLW1hJywgJzIwMCcsICctbWV0YWxfYmluZGluZycsICctaW1hZScsICc8aW5maWxlLm1hZT4nLCAnLW9tYWUnLCAnPG91dGZpbGUubWFlPic=

> <r_lp_tautomer_probability>
0.999537

> <r_epik_Ionization_Penalty>
3.12102

> <r_epik_Ionization_Penalty_Charging>
2.9581e-08

> <r_epik_Ionization_Penalty_Neutral>
3.12102

> <r_epik_State_Penalty>
3.12011

> <r_epik_Charging_Adjusted_Penalty>
3.12011

> <i_epik_Tot_Q>
-1

> <i_epik_Tot_abs_Q>
1

> <r_epik_Metal_State_Penalty>
0.463583

> <b_epik_Metal_Only>
1

> <s_lp_Force_Field>
OPLS_2005

> <r_lp_Energy>
25.2964

> <b_lp_Chiralities_Consistent>
1

> <s_lp_Variant>
AV-unprocessed.smi:2855-14

> <Gold.Version>
5.8.1

> <Gold.Id.Protein>
6NUR|6NUR_protein|mol2

> <Gold.PLP.Fitness>
44.8525

> <Gold.PLP.PLP>
-43.0635

> <Gold.PLP.part.hbond>
-3.2172

> <Gold.PLP.part.metal>
0.0000

> <Gold.PLP.part.buried>
-0.8002

> <Gold.PLP.part.nonpolar>
-38.6551

> <Gold.PLP.part.repulsive>
0.0958

> <Gold.PLP.ligand.clash>
0.0000

> <Gold.PLP.ligand.torsion>
0.3805

> <Gold.PLP.Chemscore.Hbond>
0.8284

> <Gold.PLP.Chemscore.CHOScore>
0.0000

> <Gold.PLP.Chemscore.Metal>
0.0000

> <Gold.Chemscore.Hbonds>
donor molecule, donor type, donor heavy atom, donor atom, acceptor molecule, acceptor atom, score
      P1  H  7997  8009       L1    21  0.83

> <Gold.PLP.Chemscore.Internal.Correction>
0.0649

> <Gold.Rescore>
     Score         DG    S(hbond)    S(metal)    S(lipo)     H(rot)  DE(clash)    DE(int)     intcor
     12.50     -14.39       0.80        0.00      92.84       1.81       0.56       1.33       ----

> <Gold.Chemscore.Fitness>
12.5012

> <Gold.Chemscore.DG>
-14.3917

> <Gold.Chemscore.ZeroCoef>
-5.4800

> <Gold.Chemscore.Hbond>
0.8034

> <Gold.Chemscore.Metal>
0.0000

> <Gold.Chemscore.Lipo>
92.8376

> <Gold.Chemscore.Internal_Hbond>
0.0000

> <Gold.Chemscore.DEClash>
0.5568

> <Gold.Chemscore.DEInternal>
1.3337

> <Gold.Chemscore.Rot>
1.8100

> <Gold.Chemscore.Internal.Correction>
   9.000000E+99

> <Gold.Chemscore.Hbonds>
donor molecule, donor type, donor heavy atom, donor atom, acceptor molecule, acceptor atom, score
      P1  H  7997  8009       L1    21  0.76

> <Gold.Chemscore.Hbond.Weighted>
-2.6832

> <Gold.Chemscore.Metal.Weighted>
-0.0000

> <Gold.Chemscore.Lipo.Weighted>
-10.8620

> <Gold.Chemscore.Internal_Hbond.Weighted>
0.0000

> <Gold.Chemscore.DEClash.Weighted>
0.5568

> <Gold.Chemscore.DEInternal.Weighted>
1.3337

> <Gold.Chemscore.Rot.Weighted>
4.6335

> <Gold.Chemscore.Internal.Correction.Weighted>
   9.000000E+99

> <Gold.Protein.RotatedTorsions>
[ 6907 6896 6895 6894 ] final  -88.27 input  -60.11 | X-H torsion
[ 7974 7965 7964 7962 ] final  124.37 input  175.53 | X-H torsion
[ 8008 7997 7996 7995 ] final  133.23 input   59.86 | X-H torsion
[ 10167 10162 10161 10158 ] final  -99.99 input  -65.29 | X-H torsion
[ 10718 10713 10712 10709 ] final   64.53 input   66.30 | X-H torsion
[ 10763 10752 10751 10750 ] final  116.78 input  -60.55 | X-H torsion
[ 11005 11000 10999 10996 ] final -108.18 input  -57.11 | X-H torsion

> <Gold.Protein.ActiveResidues>
 VAL166  LYS551  ARG553  GLY616  TRP617  ASP618  TYR619  PRO620  LYS621  CYS622 
 ASP623  PHE694  ASN695  SER759  ASP760  ASP761  ALA762  ILE779  LEU786  VAL792 
 PHE793  MET794  SER795  GLU796  ALA797  LYS798  CYS799  TRP800  GLU811  SER814 

> <Gold.Protein.RotatedAtoms>
  150.6868  134.2768  159.4610 H   0  0  0  0  0  0  0  0  0  0  0  0  # atno 6907 bound_to 6896
  152.0685  134.9546  160.0584 H   0  0  0  0  0  0  0  0  0  0  0  0  # atno 6908 bound_to 6896
  152.0945  133.4183  159.4596 H   0  0  0  0  0  0  0  0  0  0  0  0  # atno 6909 bound_to 6896
  145.0852  139.3627  143.4889 H   0  0  0  0  0  0  0  0  0  0  0  0  # atno 7974 bound_to 7965
  156.2990  140.2526  156.3218 H   0  0  0  0  0  0  0  0  0  0  0  0  # atno 8008 bound_to 7997
  154.9228  140.0400  157.2026 H   0  0  0  0  0  0  0  0  0  0  0  0  # atno 8009 bound_to 7997
  154.8295  140.2873  155.5736 H   0  0  0  0  0  0  0  0  0  0  0  0  # atno 8010 bound_to 7997
  140.2566  143.3436  152.0665 H   0  0  0  0  0  0  0  0  0  0  0  0  # atno 10167 bound_to 10162
  157.6045  130.9165  149.9857 H   0  0  0  0  0  0  0  0  0  0  0  0  # atno 10718 bound_to 10713
  153.5424  135.3556  155.2724 H   0  0  0  0  0  0  0  0  0  0  0  0  # atno 10763 bound_to 10752
  154.8716  135.4094  154.3029 H   0  0  0  0  0  0  0  0  0  0  0  0  # atno 10764 bound_to 10752
  153.3739  135.7065  153.6685 H   0  0  0  0  0  0  0  0  0  0  0  0  # atno 10765 bound_to 10752
  141.0915  133.9046  157.2064 H   0  0  0  0  0  0  0  0  0  0  0  0  # atno 11005 bound_to 11000
  146.3531  140.0660  142.8626 LP  0  0  0  0  0  0  0  0  0  0  0  0  # atno 17320 bound_to 7965
  145.1131  140.9417  143.4644 LP  0  0  0  0  0  0  0  0  0  0  0  0  # atno 17321 bound_to 7965
  139.5029  144.6745  151.6161 LP  0  0  0  0  0  0  0  0  0  0  0  0  # atno 17342 bound_to 10162
  140.5999  143.9629  150.6379 LP  0  0  0  0  0  0  0  0  0  0  0  0  # atno 17343 bound_to 10162
  156.1128  130.3649  150.0020 LP  0  0  0  0  0  0  0  0  0  0  0  0  # atno 17370 bound_to 10713
  156.8115  130.9326  151.3644 LP  0  0  0  0  0  0  0  0  0  0  0  0  # atno 17371 bound_to 10713
  139.9742  135.0119  156.9589 LP  0  0  0  0  0  0  0  0  0  0  0  0  # atno 17394 bound_to 11000
  140.5240  134.0879  155.7299 LP  0  0  0  0  0  0  0  0  0  0  0  0  # atno 17395 bound_to 11000

$$$$
