AV-unprocessed.smi:2641|AV-procd|sdf|10273|dock7
  -GOLD-   2272014283D 1   1.00000     0.00000
 Structure written by MMmdl.
 40 41  0  0  0  0  0  0  0  0  3 V2000
  151.2587  143.4447  157.4148 C   0  0  0  0  0  0  0  0  0  0  0  0
  150.9919  142.1632  156.6538 C   0  0  0  0  0  0  0  0  0  0  0  0
  151.8768  141.0643  156.6938 C   0  0  0  0  0  0  0  0  0  0  0  0
  151.5650  139.9026  155.9571 C   0  0  0  0  0  0  0  0  0  0  0  0
  150.3757  139.8622  155.1961 C   0  0  0  0  0  0  0  0  0  0  0  0
  150.0132  138.6271  154.3911 C   0  0  0  0  0  0  0  0  0  0  0  0
  149.9481  137.3970  155.2982 C   0  0  0  0  0  0  0  0  0  0  0  0
  150.1506  137.5297  156.5043 O   0  0  0  0  0  0  0  0  0  0  0  0
  149.6667  136.2349  154.6797 N   0  0  0  0  0  0  0  0  0  0  0  0
  149.4915  134.8628  155.1835 C   0  0  0  0  0  0  0  0  0  0  0  0
  150.4247  134.7751  156.4184 C   0  0  0  0  0  0  0  0  0  0  0  0
  149.8967  134.5774  157.5360 O   0  0  0  0  0  0  0  0  0  0  0  0
  151.6497  134.9593  156.2423 O   0  5  0  0  0  0  0  0  0  0  0  0
  147.9979  134.7167  155.5938 C   0  0  0  0  0  0  0  0  0  0  0  0
  147.6373  133.3084  156.1076 C   0  0  0  0  0  0  0  0  0  0  0  0
  147.9948  132.2296  155.0752 C   0  0  0  0  0  0  0  0  0  0  0  0
  149.4709  132.3239  154.6636 C   0  0  0  0  0  0  0  0  0  0  0  0
  149.8157  133.7360  154.1504 C   0  0  0  0  0  0  0  0  0  0  0  0
  149.5293  140.9921  155.1940 C   0  0  0  0  0  0  0  0  0  0  0  0
  149.8637  142.0862  155.9124 N   0  3  0  0  0  0  0  0  0  0  0  0
  152.1507  143.3547  158.0356 H   0  0  0  0  0  0  0  0  0  0  0  0
  150.4162  143.6857  158.0639 H   0  0  0  0  0  0  0  0  0  0  0  0
  151.4083  144.2727  156.7214 H   0  0  0  0  0  0  0  0  0  0  0  0
  152.7841  141.1080  157.2790 H   0  0  0  0  0  0  0  0  0  0  0  0
  152.2342  139.0545  155.9742 H   0  0  0  0  0  0  0  0  0  0  0  0
  149.0455  138.7667  153.9077 H   0  0  0  0  0  0  0  0  0  0  0  0
  150.7443  138.4828  153.5937 H   0  0  0  0  0  0  0  0  0  0  0  0
  149.5109  136.3111  153.6850 H   0  0  0  0  0  0  0  0  0  0  0  0
  147.7224  135.4581  156.3452 H   0  0  0  0  0  0  0  0  0  0  0  0
  147.3701  134.9389  154.7296 H   0  0  0  0  0  0  0  0  0  0  0  0
  148.1565  133.1052  157.0448 H   0  0  0  0  0  0  0  0  0  0  0  0
  146.5722  133.2612  156.3351 H   0  0  0  0  0  0  0  0  0  0  0  0
  147.7831  131.2401  155.4811 H   0  0  0  0  0  0  0  0  0  0  0  0
  147.3629  132.3448  154.1938 H   0  0  0  0  0  0  0  0  0  0  0  0
  150.1068  132.0623  155.5098 H   0  0  0  0  0  0  0  0  0  0  0  0
  149.6829  131.5890  153.8868 H   0  0  0  0  0  0  0  0  0  0  0  0
  149.2348  133.8977  153.2416 H   0  0  0  0  0  0  0  0  0  0  0  0
  150.8633  133.7641  153.8470 H   0  0  0  0  0  0  0  0  0  0  0  0
  148.6035  141.0543  154.6403 H   0  0  0  0  0  0  0  0  0  0  0  0
  149.2367  142.8908  155.8933 H   0  0  0  0  0  0  0  0  0  0  0  0
  1  2  1  0  0  0  0
  1 21  1  0  0  0  0
  1 22  1  0  0  0  0
  1 23  1  0  0  0  0
  2 20  1  0  0  0  0
  2  3  2  0  0  0  0
  3  4  1  0  0  0  0
  3 24  1  0  0  0  0
  4  5  2  0  0  0  0
  4 25  1  0  0  0  0
  5  6  1  0  0  0  0
  5 19  1  0  0  0  0
  6  7  1  0  0  0  0
  6 26  1  0  0  0  0
  6 27  1  0  0  0  0
  7  8  2  0  0  0  0
  7  9  1  0  0  0  0
  9 10  1  0  0  0  0
  9 28  1  0  0  0  0
 10 18  1  0  0  0  0
 10 11  1  0  0  0  0
 10 14  1  0  0  0  0
 11 12  2  0  0  0  0
 11 13  1  0  0  0  0
 14 15  1  0  0  0  0
 14 29  1  0  0  0  0
 14 30  1  0  0  0  0
 15 16  1  0  0  0  0
 15 31  1  0  0  0  0
 15 32  1  0  0  0  0
 16 17  1  0  0  0  0
 16 33  1  0  0  0  0
 16 34  1  0  0  0  0
 17 18  1  0  0  0  0
 17 35  1  0  0  0  0
 17 36  1  0  0  0  0
 18 37  1  0  0  0  0
 18 38  1  0  0  0  0
 19 20  2  0  0  0  0
 19 39  1  0  0  0  0
 20 40  1  0  0  0  0
M  CHG  1  13  -1
M  CHG  1  20   1
M  END
> <s_m_source_file>
AV-unprocessed.smi

> <i_m_source_file_index>
2641

> <i_lp_mmshare_version>
43012

> <i_f3d_flags>
0

> <s_epik_input>
W0NIM11jMVtjSF1bY0hdYyhbY0hdbjEpW0NIMl1DKD1PKVtOSF1DMihDKD1PKVtPSF0pW0NIMl1bQ0gyXVtDSDJdW0NIMl1bQ0gyXTI=

> <s_epik_cmdline>
J2VwaWtfcHl0aG9uJywgJy1waCcsICc3LjAnLCAnLXRuJywgJzgnLCAnLW1hJywgJzIwMCcsICctbWV0YWxfYmluZGluZycsICctaW1hZScsICc8aW5maWxlLm1hZT4nLCAnLW9tYWUnLCAnPG91dGZpbGUubWFlPic=

> <r_epik_Ionization_Penalty>
2.05743

> <r_epik_Ionization_Penalty_Charging>
2.05743

> <r_epik_Ionization_Penalty_Neutral>
6.51537e-08

> <r_epik_State_Penalty>
2.19002

> <r_epik_Charging_Adjusted_Penalty>
4.24745

> <i_epik_Tot_Q>
0

> <i_epik_Tot_abs_Q>
2

> <r_epik_Metal_State_Penalty>
2.2083

> <b_epik_Metal_Only>
0

> <s_lp_Force_Field>
OPLS_2005

> <r_lp_Energy>
7.8147

> <b_lp_Chiralities_Consistent>
1

> <s_lp_Variant>
AV-unprocessed.smi:2641-2

> <Gold.Version>
5.8.1

> <Gold.Id.Protein>
6NUR|6NUR_protein|mol2

> <Gold.PLP.Fitness>
48.9827

> <Gold.PLP.PLP>
-29.4935

> <Gold.PLP.part.hbond>
-4.0000

> <Gold.PLP.part.metal>
0.0000

> <Gold.PLP.part.buried>
-3.8948

> <Gold.PLP.part.nonpolar>
-21.7093

> <Gold.PLP.part.repulsive>
0.1633

> <Gold.PLP.ligand.clash>
0.0000

> <Gold.PLP.ligand.torsion>
0.5897

> <Gold.PLP.Chemscore.Hbond>
6.8720

> <Gold.PLP.Chemscore.CHOScore>
0.0000

> <Gold.PLP.Chemscore.Metal>
0.0000

> <Gold.Chemscore.Hbonds>
donor molecule, donor type, donor heavy atom, donor atom, acceptor molecule, acceptor atom, score
      L1  H     9    28       P1  7948  1.00
      L1  H    20    40       P1  8028  2.00
      P1  H  6896  6907       L1    12  1.82
      P1  H 10752 10764       L1    13  1.98

> <Gold.PLP.Chemscore.Internal.Correction>
0.0525

> <Gold.Rescore>
     Score         DG    S(hbond)    S(metal)    S(lipo)     H(rot)  DE(clash)    DE(int)     intcor
     14.90     -21.85       3.68        0.00      76.63       1.91       1.23       5.72       ----

> <Gold.Chemscore.Fitness>
14.8982

> <Gold.Chemscore.DG>
-21.8497

> <Gold.Chemscore.ZeroCoef>
-5.4800

> <Gold.Chemscore.Hbond>
3.6845

> <Gold.Chemscore.Metal>
0.0000

> <Gold.Chemscore.Lipo>
76.6311

> <Gold.Chemscore.Internal_Hbond>
0.0000

> <Gold.Chemscore.DEClash>
1.2277

> <Gold.Chemscore.DEInternal>
5.7238

> <Gold.Chemscore.Rot>
1.9149

> <Gold.Chemscore.Internal.Correction>
   9.000000E+99

> <Gold.Chemscore.Hbonds>
donor molecule, donor type, donor heavy atom, donor atom, acceptor molecule, acceptor atom, score
      L1  H     9    28       P1  7948  0.65
      L1  H    20    40       P1  8028  0.97
      P1  H  6896  6907       L1    12  0.85
      P1  H 10752 10764       L1    13  0.92

> <Gold.Chemscore.Hbond.Weighted>
-12.3061

> <Gold.Chemscore.Metal.Weighted>
-0.0000

> <Gold.Chemscore.Lipo.Weighted>
-8.9658

> <Gold.Chemscore.Internal_Hbond.Weighted>
0.0000

> <Gold.Chemscore.DEClash.Weighted>
1.2277

> <Gold.Chemscore.DEInternal.Weighted>
5.7238

> <Gold.Chemscore.Rot.Weighted>
4.9023

> <Gold.Chemscore.Internal.Correction.Weighted>
   9.000000E+99

> <Gold.Protein.RotatedTorsions>
[ 6907 6896 6895 6894 ] final  -99.29 input  -60.11 | X-H torsion
[ 7974 7965 7964 7962 ] final  -36.65 input  175.53 | X-H torsion
[ 8008 7997 7996 7995 ] final  -82.65 input   59.86 | X-H torsion
[ 10167 10162 10161 10158 ] final    7.92 input  -65.29 | X-H torsion
[ 10718 10713 10712 10709 ] final  -40.97 input   66.30 | X-H torsion
[ 10763 10752 10751 10750 ] final  -26.63 input  -60.55 | X-H torsion
[ 11005 11000 10999 10996 ] final  157.45 input  -57.11 | X-H torsion

> <Gold.Protein.ActiveResidues>
 VAL166  LYS551  ARG553  GLY616  TRP617  ASP618  TYR619  PRO620  LYS621  CYS622 
 ASP623  PHE694  ASN695  SER759  ASP760  ASP761  ALA762  ILE779  LEU786  VAL792 
 PHE793  MET794  SER795  GLU796  ALA797  LYS798  CYS799  TRP800  GLU811  SER814 

> <Gold.Protein.RotatedAtoms>
  150.7075  134.1063  159.3983 H   0  0  0  0  0  0  0  0  0  0  0  0  # atno 6907 bound_to 6896
  151.9050  135.0360  160.0519 H   0  0  0  0  0  0  0  0  0  0  0  0  # atno 6908 bound_to 6896
  152.2383  133.5079  159.5292 H   0  0  0  0  0  0  0  0  0  0  0  0  # atno 6909 bound_to 6896
  146.0643  140.6304  142.8982 H   0  0  0  0  0  0  0  0  0  0  0  0  # atno 7974 bound_to 7965
  154.6108  140.0630  156.9491 H   0  0  0  0  0  0  0  0  0  0  0  0  # atno 8008 bound_to 7997
  155.1976  140.3312  155.4330 H   0  0  0  0  0  0  0  0  0  0  0  0  # atno 8009 bound_to 7997
  156.2375  140.1870  156.7062 H   0  0  0  0  0  0  0  0  0  0  0  0  # atno 8010 bound_to 7997
  140.6344  143.7919  150.7339 H   0  0  0  0  0  0  0  0  0  0  0  0  # atno 10167 bound_to 10162
  156.2754  130.4211  149.8393 H   0  0  0  0  0  0  0  0  0  0  0  0  # atno 10718 bound_to 10713
  153.7191  135.6946  153.5017 H   0  0  0  0  0  0  0  0  0  0  0  0  # atno 10763 bound_to 10752
  153.2217  135.4367  155.0495 H   0  0  0  0  0  0  0  0  0  0  0  0  # atno 10764 bound_to 10752
  154.8290  135.3462  154.6725 H   0  0  0  0  0  0  0  0  0  0  0  0  # atno 10765 bound_to 10752
  140.1771  134.8502  157.2759 H   0  0  0  0  0  0  0  0  0  0  0  0  # atno 11005 bound_to 11000
  144.7193  140.4318  143.7020 LP  0  0  0  0  0  0  0  0  0  0  0  0  # atno 17320 bound_to 7965
  145.6505  139.1564  143.2864 LP  0  0  0  0  0  0  0  0  0  0  0  0  # atno 17321 bound_to 7965
  140.1537  143.4335  152.2114 LP  0  0  0  0  0  0  0  0  0  0  0  0  # atno 17342 bound_to 10162
  139.5556  144.7370  151.4305 LP  0  0  0  0  0  0  0  0  0  0  0  0  # atno 17343 bound_to 10162
  156.5859  130.8485  151.3395 LP  0  0  0  0  0  0  0  0  0  0  0  0  # atno 17370 bound_to 10713
  157.7298  130.9676  150.1802 LP  0  0  0  0  0  0  0  0  0  0  0  0  # atno 17371 bound_to 10713
  140.2310  134.3909  155.7522 LP  0  0  0  0  0  0  0  0  0  0  0  0  # atno 17394 bound_to 11000
  141.2221  133.7215  156.8640 LP  0  0  0  0  0  0  0  0  0  0  0  0  # atno 17395 bound_to 11000

$$$$
