#       Name:                AV-unprocessed.smi:348
#       Creating user name   scv26
#       Creation time:       Thu Mar 26 22:32:34 2020


#       File generated by GOLD software.
#

@<TRIPOS>MOLECULE
AV-unprocessed.smi:348
    45    46     1
SMALL
NO_CHARGES


@<TRIPOS>ATOM
      1 ****        -5.6789   0.8112   0.7227 C.3            1 S1                 0.0000
      2 ****        -5.0708   1.1392   1.9618 O.3            1 S1                 0.0000
      3 ****        -3.6512   1.1622   1.9227 C.3            1 S1                 0.0000
      4 ****        -3.0591  -0.2593   1.9488 C.3            1 S1                 0.0000
      5 ****        -1.6113  -0.2552   2.0216 N.am           1 S1                 0.0000
      6 ****        -0.7789  -0.2444   0.8988 C.2            1 S1                 0.0000
      7 ****        -1.3769  -0.2156  -0.3530 N.pl3          1 S1                 0.0000
      8 ****         0.5832  -0.2450   0.9988 C.2            1 S1                 0.0000
      9 ****         1.3787  -0.2331  -0.1480 N.pl3          1 S1                 0.0000
     10 ****         1.0159  -0.2188  -1.5575 C.3            1 S1                 0.0000
     11 ****         2.2182  -0.1881  -2.4820 C.ar           1 S1                 0.0000
     12 ****         3.2055  -1.1931  -2.3958 C.ar           1 S1                 0.0000
     13 ****         4.3213  -1.1664  -3.2551 C.ar           1 S1                 0.0000
     14 ****         4.4540  -0.1358  -4.2057 C.ar           1 S1                 0.0000
     15 ****         3.4698   0.8673  -4.2972 C.ar           1 S1                 0.0000
     16 ****         2.3536   0.8408  -3.4384 C.ar           1 S1                 0.0000
     17 ****         1.2201  -0.2489   2.3283 C.2            1 S1                 0.0000
     18 ****         2.4267  -0.2603   2.5667 O.2            1 S1                 0.0000
     19 ****         0.3363  -0.2303   3.4046 N.am           1 S1                 0.0000
     20 ****        -1.0497  -0.2199   3.3186 C.2            1 S1                 0.0000
     21 ****        -1.7193  -0.1801   4.3514 O.2            1 S1                 0.0000
     22 ****         0.7393  -0.2173   4.3301 H              1 S1                 0.0000
     23 ****        -6.7627   0.8546   0.8293 H              1 S1                 0.0000
     24 ****        -5.4201  -0.1955   0.3955 H              1 S1                 0.0000
     25 ****        -5.3917   1.5178  -0.0568 H              1 S1                 0.0000
     26 ****        -3.2962   1.7235   1.0568 H              1 S1                 0.0000
     27 ****        -3.3145   1.7096   2.8033 H              1 S1                 0.0000
     28 ****        -3.4416  -0.8429   2.7878 H              1 S1                 0.0000
     29 ****        -3.3254  -0.8343   1.0631 H              1 S1                 0.0000
     30 ****        -2.3804  -0.2026  -0.4645 H              1 S1                 0.0000
     31 ****        -0.8324  -0.1835  -1.2029 H              1 S1                 0.0000
     32 ****         2.3744  -0.1951   0.0119 H              1 S1                 0.0000
     33 ****         0.4333  -1.1109  -1.7898 H              1 S1                 0.0000
     34 ****         0.3805   0.6459  -1.7536 H              1 S1                 0.0000
     35 ****         3.1084  -1.9882  -1.6707 H              1 S1                 0.0000
     36 ****         5.0746  -1.9369  -3.1853 H              1 S1                 0.0000
     37 ****         5.3093  -0.1156  -4.8648 H              1 S1                 0.0000
     38 ****         3.5709   1.6574  -5.0264 H              1 S1                 0.0000
     39 ****         1.6041   1.6147  -3.5164 H              1 S1                 0.0000
     40 ****        -5.3554   0.4620   2.6403 LP             1 S1                 0.0000
     41 ****        -5.3921   2.0446   2.2394 LP             1 S1                 0.0000
     42 ****         3.0850  -0.2680   1.8140 LP             1 S1                 0.0000
     43 ****         2.7493  -0.2618   3.5132 LP             1 S1                 0.0000
     44 ****        -2.7180  -0.1712   4.2998 LP             1 S1                 0.0000
     45 ****        -1.2644  -0.1566   5.2416 LP             1 S1                 0.0000
@<TRIPOS>BOND
    1    1    2 1     
    2    1   23 1     
    3    1   24 1     
    4    1   25 1     
    5    2    3 1     
    6    3    4 1     
    7    3   26 1     
    8    3   27 1     
    9    4    5 1     
   10    4   28 1     
   11    4   29 1     
   12    5   20 1     
   13    5    6 1     
   14    6    7 1     
   15    6    8 2     
   16    7   30 1     
   17    7   31 1     
   18    8    9 1     
   19    8   17 1     
   20    9   10 1     
   21    9   32 1     
   22   10   11 1     
   23   10   33 1     
   24   10   34 1     
   25   11   16 ar    
   26   11   12 ar    
   27   12   13 ar    
   28   12   35 1     
   29   13   14 ar    
   30   13   36 1     
   31   14   15 ar    
   32   14   37 1     
   33   15   16 ar    
   34   15   38 1     
   35   16   39 1     
   36   17   18 2     
   37   17   19 1     
   38   19   22 1     
   39   19   20 1     
   40   20   21 2     
   41    2   40 1     
   42    2   41 1     
   43   18   42 1     
   44   18   43 1     
   45   21   44 1     
   46   21   45 1     
@<TRIPOS>SUBSTRUCTURE
      1 S1             1
@<TRIPOS>SET
LONE_PAIRS      STATIC     ATOMS    <user>   **** ""
6 40 41 42 43 44 45
DONOR_HYDROGENS      STATIC     ATOMS    <user>   **** ""
4 30 31 32 22
ATOM$BLUE        STATIC     ATOMS    COLORGROUP SYSTEM
6 40 41 42 43 44 45
ATOM$RED        STATIC     ATOMS    COLORGROUP SYSTEM
4 30 31 32 22
