AV-unprocessed.smi:757|AV-procd|sdf|3614|dock5
  -GOLD-   22720 1 13D 1   1.00000     0.00000
 Structure written by MMmdl.
 45 46  0  0  0  0  0  0  0  0  2 V2000
  148.6147  126.5430  150.3963 C   0  0  0  0  0  0  0  0  0  0  0  0
  147.8961  127.4005  150.8852 C   0  0  0  0  0  0  0  0  0  0  0  0
  147.0422  128.4437  151.4762 C   0  0  0  0  0  0  0  0  0  0  0  0
  147.4946  128.8665  152.8858 C   0  0  0  0  0  0  0  0  0  0  0  0
  147.9829  130.2682  152.9296 N   0  3  2  0  0  0  0  0  0  0  0  0
  148.6995  130.5710  154.1958 C   0  0  0  0  0  0  0  0  0  0  0  0
  149.3149  131.9801  154.1677 C   0  0  0  0  0  0  0  0  0  0  0  0
  148.2441  133.0470  153.8916 C   0  0  1  0  0  0  0  0  0  0  0  0
  148.8650  134.3654  153.7974 N   0  0  0  0  0  0  0  0  0  0  0  0
  149.6149  134.9329  154.7535 C   0  0  0  0  0  0  0  0  0  0  0  0
  149.8436  134.3990  155.8385 O   0  0  0  0  0  0  0  0  0  0  0  0
  150.0524  136.1460  154.3739 N   0  0  0  0  0  0  0  0  0  0  0  0
  150.8949  137.0470  155.0809 C   0  0  0  0  0  0  0  0  0  0  0  0
  151.7134  138.0251  154.4667 C   0  0  0  0  0  0  0  0  0  0  0  0
  152.4895  138.8722  155.2806 C   0  0  0  0  0  0  0  0  0  0  0  0
  152.4194  138.7257  156.6802 C   0  0  0  0  0  0  0  0  0  0  0  0
  153.1820  139.5616  157.4698 O   0  0  0  0  0  0  0  0  0  0  0  0
  153.0776  139.4368  158.8839 C   0  0  0  0  0  0  0  0  0  0  0  0
  151.6287  137.7994  157.2762 N   0  0  0  0  0  0  0  0  0  0  0  0
  150.8882  136.9900  156.4901 C   0  0  0  0  0  0  0  0  0  0  0  0
  147.4947  132.6949  152.5938 C   0  0  0  0  0  0  0  0  0  0  0  0
  146.9186  131.2702  152.6544 C   0  0  0  0  0  0  0  0  0  0  0  0
  149.2419  125.7948  149.9655 H   0  0  0  0  0  0  0  0  0  0  0  0
  147.0554  129.2990  150.7999 H   0  0  0  0  0  0  0  0  0  0  0  0
  146.0249  128.0539  151.4842 H   0  0  0  0  0  0  0  0  0  0  0  0
  146.6909  128.7318  153.6120 H   0  0  0  0  0  0  0  0  0  0  0  0
  148.3043  128.2034  153.1960 H   0  0  0  0  0  0  0  0  0  0  0  0
  148.0103  130.4774  155.0369 H   0  0  0  0  0  0  0  0  0  0  0  0
  149.4938  129.8405  154.3549 H   0  0  0  0  0  0  0  0  0  0  0  0
  149.8100  132.1836  155.1180 H   0  0  0  0  0  0  0  0  0  0  0  0
  150.0891  132.0213  153.3998 H   0  0  0  0  0  0  0  0  0  0  0  0
  147.5370  133.0458  154.7238 H   0  0  0  0  0  0  0  0  0  0  0  0
  148.7237  134.8774  152.9387 H   0  0  0  0  0  0  0  0  0  0  0  0
  149.7102  136.4840  153.4863 H   0  0  0  0  0  0  0  0  0  0  0  0
  151.7530  138.1541  153.3964 H   0  0  0  0  0  0  0  0  0  0  0  0
  153.1237  139.6259  154.8381 H   0  0  0  0  0  0  0  0  0  0  0  0
  153.7396  140.1601  159.3595 H   0  0  0  0  0  0  0  0  0  0  0  0
  153.3775  138.4435  159.2207 H   0  0  0  0  0  0  0  0  0  0  0  0
  152.0628  139.6416  159.2281 H   0  0  0  0  0  0  0  0  0  0  0  0
  150.2712  136.2689  157.0066 H   0  0  0  0  0  0  0  0  0  0  0  0
  146.6871  133.4067  152.4184 H   0  0  0  0  0  0  0  0  0  0  0  0
  148.1694  132.7776  151.7404 H   0  0  0  0  0  0  0  0  0  0  0  0
  146.4266  131.0528  151.7072 H   0  0  0  0  0  0  0  0  0  0  0  0
  146.1520  131.2100  153.4287 H   0  0  0  0  0  0  0  0  0  0  0  0
  148.6673  130.3539  152.1916 H   0  0  0  0  0  0  0  0  0  0  0  0
  1  2  3  0  0  0  0
  1 23  1  0  0  0  0
  2  3  1  0  0  0  0
  3  4  1  0  0  0  0
  3 24  1  0  0  0  0
  3 25  1  0  0  0  0
  4  5  1  0  0  0  0
  4 26  1  0  0  0  0
  4 27  1  0  0  0  0
  5 22  1  0  0  0  0
  5  6  1  0  0  0  0
  5 45  1  0  0  0  0
  6  7  1  0  0  0  0
  6 28  1  0  0  0  0
  6 29  1  0  0  0  0
  7  8  1  0  0  0  0
  7 30  1  0  0  0  0
  7 31  1  0  0  0  0
  8  9  1  0  0  0  0
  8 21  1  0  0  0  0
  8 32  1  0  0  0  0
  9 10  1  0  0  0  0
  9 33  1  0  0  0  0
 10 11  2  0  0  0  0
 10 12  1  0  0  0  0
 12 13  1  0  0  0  0
 12 34  1  0  0  0  0
 13 20  1  0  0  0  0
 13 14  2  0  0  0  0
 14 15  1  0  0  0  0
 14 35  1  0  0  0  0
 15 16  2  0  0  0  0
 15 36  1  0  0  0  0
 16 17  1  0  0  0  0
 16 19  1  0  0  0  0
 17 18  1  0  0  0  0
 18 37  1  0  0  0  0
 18 38  1  0  0  0  0
 18 39  1  0  0  0  0
 19 20  2  0  0  0  0
 20 40  1  0  0  0  0
 21 22  1  0  0  0  0
 21 41  1  0  0  0  0
 21 42  1  0  0  0  0
 22 43  1  0  0  0  0
 22 44  1  0  0  0  0
M  CHG  1   5   1
M  END
> <s_m_source_file>
AV-unprocessed.smi

> <i_m_source_file_index>
757

> <i_lp_mmshare_version>
43012

> <i_f3d_flags>
0

> <s_epik_input>
W0NIXSNDW0NIMl1bQ0gyXU4xW0NIMl1bQ0gyXVtDSF0oW0NIMl1bQ0gyXTEpW05IXUMoPU8pW05IXWMyW2NIXVtjSF1jKE9bQ0gzXSluW2NIXTI=

> <s_epik_cmdline>
J2VwaWtfcHl0aG9uJywgJy1waCcsICc3LjAnLCAnLXRuJywgJzgnLCAnLW1hJywgJzIwMCcsICctbWV0YWxfYmluZGluZycsICctaW1hZScsICc8aW5maWxlLm1hZT4nLCAnLW9tYWUnLCAnPG91dGZpbGUubWFlPic=

> <r_lp_tautomer_probability>
1

> <r_epik_Ionization_Penalty>
0.0402573

> <r_epik_Ionization_Penalty_Charging>
0.0401786

> <r_epik_Ionization_Penalty_Neutral>
7.86509e-05

> <r_epik_State_Penalty>
0.0338029

> <r_epik_Charging_Adjusted_Penalty>
0.0739815

> <i_epik_Tot_Q>
1

> <i_epik_Tot_abs_Q>
1

> <r_epik_Metal_State_Penalty>
0.0338035

> <b_epik_Metal_Only>
0

> <s_lp_Force_Field>
OPLS_2005

> <r_lp_Energy>
20.3265

> <b_lp_Chiralities_Consistent>
1

> <s_lp_Variant>
AV-unprocessed.smi:757-1

> <Gold.Version>
5.8.1

> <Gold.Id.Protein>
6NUR|6NUR_protein|mol2

> <Gold.PLP.Fitness>
52.6446

> <Gold.PLP.PLP>
-42.0018

> <Gold.PLP.part.hbond>
-4.5462

> <Gold.PLP.part.metal>
0.0000

> <Gold.PLP.part.buried>
-2.2911

> <Gold.PLP.part.nonpolar>
-34.9542

> <Gold.PLP.part.repulsive>
0.0907

> <Gold.PLP.ligand.clash>
0.0000

> <Gold.PLP.ligand.torsion>
0.5762

> <Gold.PLP.Chemscore.Hbond>
3.9200

> <Gold.PLP.Chemscore.CHOScore>
0.0000

> <Gold.PLP.Chemscore.Metal>
0.0000

> <Gold.Chemscore.Hbonds>
donor molecule, donor type, donor heavy atom, donor atom, acceptor molecule, acceptor atom, score
      L1  H     5    45       P1 10747  0.94
      L1  H     9    33       P1  7948  1.00
      L1  H    12    34       P1  7948  1.00
      P1  H  7997  8009       L1    17  0.96

> <Gold.PLP.Chemscore.Internal.Correction>
0.0352

> <Gold.Rescore>
     Score         DG    S(hbond)    S(metal)    S(lipo)     H(rot)  DE(clash)    DE(int)     intcor
     19.01     -21.85       2.80        0.00      94.63       1.59       0.03       2.81       ----

> <Gold.Chemscore.Fitness>
19.0117

> <Gold.Chemscore.DG>
-21.8486

> <Gold.Chemscore.ZeroCoef>
-5.4800

> <Gold.Chemscore.Hbond>
2.8030

> <Gold.Chemscore.Metal>
0.0000

> <Gold.Chemscore.Lipo>
94.6270

> <Gold.Chemscore.Internal_Hbond>
0.0000

> <Gold.Chemscore.DEClash>
0.0299

> <Gold.Chemscore.DEInternal>
2.8070

> <Gold.Chemscore.Rot>
1.5879

> <Gold.Chemscore.Internal.Correction>
   9.000000E+99

> <Gold.Chemscore.Hbonds>
donor molecule, donor type, donor heavy atom, donor atom, acceptor molecule, acceptor atom, score
      L1  H     5    45       P1 10747  0.49
      L1  H     9    33       P1  7948  0.25
      L1  H    12    34       P1  7948  0.38
      P1  H  7997  8009       L1    17  0.82

> <Gold.Chemscore.Hbond.Weighted>
-9.3622

> <Gold.Chemscore.Metal.Weighted>
-0.0000

> <Gold.Chemscore.Lipo.Weighted>
-11.0714

> <Gold.Chemscore.Internal_Hbond.Weighted>
0.0000

> <Gold.Chemscore.DEClash.Weighted>
0.0299

> <Gold.Chemscore.DEInternal.Weighted>
2.8070

> <Gold.Chemscore.Rot.Weighted>
4.0649

> <Gold.Chemscore.Internal.Correction.Weighted>
   9.000000E+99

> <Gold.Protein.RotatedTorsions>
[ 6907 6896 6895 6894 ] final  -16.33 input  -60.11 | X-H torsion
[ 7974 7965 7964 7962 ] final   31.82 input  175.53 | X-H torsion
[ 8008 7997 7996 7995 ] final  161.41 input   59.86 | X-H torsion
[ 10167 10162 10161 10158 ] final  -76.09 input  -65.29 | X-H torsion
[ 10718 10713 10712 10709 ] final   29.54 input   66.30 | X-H torsion
[ 10763 10752 10751 10750 ] final   95.33 input  -60.55 | X-H torsion
[ 11005 11000 10999 10996 ] final   81.66 input  -57.11 | X-H torsion

> <Gold.Protein.ActiveResidues>
 VAL166  LYS551  ARG553  GLY616  TRP617  ASP618  TYR619  PRO620  LYS621  CYS622 
 ASP623  PHE694  ASN695  SER759  ASP760  ASP761  ALA762  ILE779  LEU786  VAL792 
 PHE793  MET794  SER795  GLU796  ALA797  LYS798  CYS799  TRP800  GLU811  SER814 

> <Gold.Protein.RotatedAtoms>
  151.3102  135.0792  159.9269 H   0  0  0  0  0  0  0  0  0  0  0  0  # atno 6907 bound_to 6896
  152.5279  133.9744  159.7787 H   0  0  0  0  0  0  0  0  0  0  0  0  # atno 6908 bound_to 6896
  151.0046  133.5971  159.2721 H   0  0  0  0  0  0  0  0  0  0  0  0  # atno 6909 bound_to 6896
  146.1526  139.6607  142.9088 H   0  0  0  0  0  0  0  0  0  0  0  0  # atno 7974 bound_to 7965
  156.2105  140.1778  156.7705 H   0  0  0  0  0  0  0  0  0  0  0  0  # atno 8008 bound_to 7997
  154.5716  140.0681  156.9002 H   0  0  0  0  0  0  0  0  0  0  0  0  # atno 8009 bound_to 7997
  155.2663  140.3339  155.4271 H   0  0  0  0  0  0  0  0  0  0  0  0  # atno 8010 bound_to 7997
  140.4886  143.2385  151.7943 H   0  0  0  0  0  0  0  0  0  0  0  0  # atno 10167 bound_to 10162
  157.2478  130.7100  149.6390 H   0  0  0  0  0  0  0  0  0  0  0  0  # atno 10718 bound_to 10713
  153.2519  135.4258  155.0806 H   0  0  0  0  0  0  0  0  0  0  0  0  # atno 10763 bound_to 10752
  154.8385  135.3428  154.6500 H   0  0  0  0  0  0  0  0  0  0  0  0  # atno 10764 bound_to 10752
  153.6921  135.7033  153.5144 H   0  0  0  0  0  0  0  0  0  0  0  0  # atno 10765 bound_to 10752
  139.9090  134.8013  156.2071 H   0  0  0  0  0  0  0  0  0  0  0  0  # atno 11005 bound_to 11000
  145.4787  141.0437  143.2658 LP  0  0  0  0  0  0  0  0  0  0  0  0  # atno 17320 bound_to 7965
  144.7923  139.6304  143.7108 LP  0  0  0  0  0  0  0  0  0  0  0  0  # atno 17321 bound_to 7965
  139.4847  144.4678  151.9462 LP  0  0  0  0  0  0  0  0  0  0  0  0  # atno 17342 bound_to 10162
  140.3765  144.2790  150.5913 LP  0  0  0  0  0  0  0  0  0  0  0  0  # atno 17343 bound_to 10162
  155.9667  130.4437  150.5432 LP  0  0  0  0  0  0  0  0  0  0  0  0  # atno 17370 bound_to 10713
  157.3310  131.0699  151.1861 LP  0  0  0  0  0  0  0  0  0  0  0  0  # atno 17371 bound_to 10713
  141.0489  133.6899  156.1734 LP  0  0  0  0  0  0  0  0  0  0  0  0  # atno 17394 bound_to 11000
  140.6842  134.4735  157.5589 LP  0  0  0  0  0  0  0  0  0  0  0  0  # atno 17395 bound_to 11000

$$$$
