AV-unprocessed.smi:1005|AV-procd|sdf|4370|dock9
  -GOLD-   22720 2283D 1   1.00000     0.00000
 Structure written by MMmdl.
 57 59  0  0  0  0  0  0  0  0  3 V2000
  151.8891  145.3504  160.2601 C   0  0  0  0  0  0  0  0  0  0  0  0
  152.3226  143.9059  160.0835 C   0  0  0  0  0  0  0  0  0  0  0  0
  152.9995  143.2575  161.1412 C   0  0  0  0  0  0  0  0  0  0  0  0
  153.4191  141.9149  161.0180 C   0  0  0  0  0  0  0  0  0  0  0  0
  154.0744  141.0901  161.9159 N   0  0  0  0  0  0  0  0  0  0  0  0
  154.1708  139.9590  161.2230 C   0  0  0  0  0  0  0  0  0  0  0  0
  153.6476  139.9510  159.9821 N   0  0  0  0  0  0  0  0  0  0  0  0
  153.6096  138.8325  159.0565 C   0  0  0  0  0  0  0  0  0  0  0  0
  152.2632  138.0776  159.0871 C   0  0  2  0  0  0  0  0  0  0  0  0
  152.3218  137.1375  160.1405 O   0  0  0  0  0  0  0  0  0  0  0  0
  151.9472  137.3389  157.7672 C   0  0  0  0  0  0  0  0  0  0  0  0
  150.5016  137.3210  157.4165 N   0  3  1  0  0  0  0  0  0  0  0  0
  150.0838  138.3325  156.4114 C   0  0  0  0  0  0  0  0  0  0  0  0
  150.4895  137.9164  154.9840 C   0  0  0  0  0  0  0  0  0  0  0  0
  149.9849  136.6162  154.6974 O   0  0  0  0  0  0  0  0  0  0  0  0
  150.4930  135.6235  155.5818 C   0  0  2  0  0  0  0  0  0  0  0  0
  149.9739  134.2550  155.0994 C   0  0  0  0  0  0  0  0  0  0  0  0
  148.8041  134.3522  154.1868 N   0  3  0  0  0  0  0  0  0  0  0  0
  148.7144  133.1861  153.2800 C   0  0  0  0  0  0  0  0  0  0  0  0
  147.5204  134.5918  154.8880 C   0  0  0  0  0  0  0  0  0  0  0  0
  150.0261  135.9743  157.0136 C   0  0  0  0  0  0  0  0  0  0  0  0
  153.1444  141.2351  159.7959 C   0  0  0  0  0  0  0  0  0  0  0  0
  152.4770  141.8717  158.7338 C   0  0  0  0  0  0  0  0  0  0  0  0
  152.0577  143.2104  158.8766 C   0  0  0  0  0  0  0  0  0  0  0  0
  151.3289  143.8851  157.7280 C   0  0  0  0  0  0  0  0  0  0  0  0
  152.1955  145.7428  161.2302 H   0  0  0  0  0  0  0  0  0  0  0  0
  150.8044  145.4350  160.1929 H   0  0  0  0  0  0  0  0  0  0  0  0
  152.3346  145.9804  159.4899 H   0  0  0  0  0  0  0  0  0  0  0  0
  153.2008  143.7874  162.0608 H   0  0  0  0  0  0  0  0  0  0  0  0
  154.6397  139.0819  161.6452 H   0  0  0  0  0  0  0  0  0  0  0  0
  153.8101  139.2146  158.0544 H   0  0  0  0  0  0  0  0  0  0  0  0
  154.4297  138.1548  159.2992 H   0  0  0  0  0  0  0  0  0  0  0  0
  151.4762  138.7953  159.3162 H   0  0  0  0  0  0  0  0  0  0  0  0
  152.5424  137.5894  160.9410 H   0  0  0  0  0  0  0  0  0  0  0  0
  152.5013  137.7822  156.9421 H   0  0  0  0  0  0  0  0  0  0  0  0
  152.3062  136.3128  157.8586 H   0  0  0  0  0  0  0  0  0  0  0  0
  148.9978  138.4227  156.4579 H   0  0  0  0  0  0  0  0  0  0  0  0
  150.4753  139.3198  156.6503 H   0  0  0  0  0  0  0  0  0  0  0  0
  150.0750  138.6185  154.2608 H   0  0  0  0  0  0  0  0  0  0  0  0
  151.5722  137.9393  154.8534 H   0  0  0  0  0  0  0  0  0  0  0  0
  151.5807  135.6396  155.5164 H   0  0  0  0  0  0  0  0  0  0  0  0
  150.7888  133.7372  154.5911 H   0  0  0  0  0  0  0  0  0  0  0  0
  149.7054  133.6336  155.9553 H   0  0  0  0  0  0  0  0  0  0  0  0
  148.5476  132.2659  153.8417 H   0  0  0  0  0  0  0  0  0  0  0  0
  149.6314  133.0720  152.7011 H   0  0  0  0  0  0  0  0  0  0  0  0
  147.8937  133.3084  152.5725 H   0  0  0  0  0  0  0  0  0  0  0  0
  147.3080  133.7938  155.6004 H   0  0  0  0  0  0  0  0  0  0  0  0
  146.6964  134.6354  154.1752 H   0  0  0  0  0  0  0  0  0  0  0  0
  147.5239  135.5398  155.4247 H   0  0  0  0  0  0  0  0  0  0  0  0
  150.3648  135.2266  157.7315 H   0  0  0  0  0  0  0  0  0  0  0  0
  148.9364  135.9661  157.0569 H   0  0  0  0  0  0  0  0  0  0  0  0
  152.2849  141.3331  157.8179 H   0  0  0  0  0  0  0  0  0  0  0  0
  151.1494  143.1902  156.9072 H   0  0  0  0  0  0  0  0  0  0  0  0
  151.9175  144.7173  157.3411 H   0  0  0  0  0  0  0  0  0  0  0  0
  150.3628  144.2678  158.0574 H   0  0  0  0  0  0  0  0  0  0  0  0
  148.9647  135.1516  153.5907 H   0  0  0  0  0  0  0  0  0  0  0  0
  150.0196  137.5495  158.2749 H   0  0  0  0  0  0  0  0  0  0  0  0
  1  2  1  0  0  0  0
  1 26  1  0  0  0  0
  1 27  1  0  0  0  0
  1 28  1  0  0  0  0
  2 24  1  0  0  0  0
  2  3  2  0  0  0  0
  3  4  1  0  0  0  0
  3 29  1  0  0  0  0
  4 22  2  0  0  0  0
  4  5  1  0  0  0  0
  5  6  2  0  0  0  0
  6  7  1  0  0  0  0
  6 30  1  0  0  0  0
  7  8  1  0  0  0  0
  7 22  1  0  0  0  0
  8  9  1  0  0  0  0
  8 31  1  0  0  0  0
  8 32  1  0  0  0  0
  9 10  1  0  0  0  0
  9 11  1  0  0  0  0
  9 33  1  0  0  0  0
 10 34  1  0  0  0  0
 11 12  1  0  0  0  0
 11 35  1  0  0  0  0
 11 36  1  0  0  0  0
 12 21  1  0  0  0  0
 12 13  1  0  0  0  0
 12 57  1  0  0  0  0
 13 14  1  0  0  0  0
 13 37  1  0  0  0  0
 13 38  1  0  0  0  0
 14 15  1  0  0  0  0
 14 39  1  0  0  0  0
 14 40  1  0  0  0  0
 15 16  1  0  0  0  0
 16 17  1  0  0  0  0
 16 21  1  0  0  0  0
 16 41  1  0  0  0  0
 17 18  1  0  0  0  0
 17 42  1  0  0  0  0
 17 43  1  0  0  0  0
 18 19  1  0  0  0  0
 18 20  1  0  0  0  0
 18 56  1  0  0  0  0
 19 44  1  0  0  0  0
 19 45  1  0  0  0  0
 19 46  1  0  0  0  0
 20 47  1  0  0  0  0
 20 48  1  0  0  0  0
 20 49  1  0  0  0  0
 21 50  1  0  0  0  0
 21 51  1  0  0  0  0
 22 23  1  0  0  0  0
 23 24  2  0  0  0  0
 23 52  1  0  0  0  0
 24 25  1  0  0  0  0
 25 53  1  0  0  0  0
 25 54  1  0  0  0  0
 25 55  1  0  0  0  0
M  CHG  1  12   1
M  CHG  1  18   1
M  END
> <s_m_source_file>
AV-unprocessed.smi

> <i_m_source_file_index>
1005

> <i_lp_mmshare_version>
43012

> <i_f3d_flags>
0

> <s_epik_input>
W0NIM11jKFtjSF0xKWMoW0NIM10pW2NIXWMoYzEyKW4oW2NIXW4yKVtDSDJdW0NASF0oW09IXSlbQ0gyXU4zW0NIMl1bQ0gyXU9bQ0BIXShbQ0gyXTMpW0NIMl1OKFtDSDNdKVtDSDNd

> <s_epik_cmdline>
J2VwaWtfcHl0aG9uJywgJy1waCcsICc3LjAnLCAnLXRuJywgJzgnLCAnLW1hJywgJzIwMCcsICctbWV0YWxfYmluZGluZycsICctaW1hZScsICc8aW5maWxlLm1hZT4nLCAnLW9tYWUnLCAnPG91dGZpbGUubWFlPic=

> <r_epik_Ionization_Penalty>
1.0968

> <r_epik_Ionization_Penalty_Charging>
1.0096

> <r_epik_Ionization_Penalty_Neutral>
0.0871956

> <r_epik_State_Penalty>
1.31185

> <r_epik_Charging_Adjusted_Penalty>
2.32145

> <i_epik_Tot_Q>
2

> <i_epik_Tot_abs_Q>
2

> <r_epik_Metal_State_Penalty>
1.22442

> <b_epik_Metal_Only>
0

> <s_lp_Force_Field>
OPLS_2005

> <r_lp_Energy>
36.3086

> <b_lp_Chiralities_Consistent>
1

> <s_lp_Variant>
AV-unprocessed.smi:1005-9

> <Gold.Version>
5.8.1

> <Gold.Id.Protein>
6NUR|6NUR_protein|mol2

> <Gold.PLP.Fitness>
50.0812

> <Gold.PLP.PLP>
-46.1536

> <Gold.PLP.part.hbond>
-1.8911

> <Gold.PLP.part.metal>
0.0000

> <Gold.PLP.part.buried>
-7.5291

> <Gold.PLP.part.nonpolar>
-38.4686

> <Gold.PLP.part.repulsive>
1.1707

> <Gold.PLP.ligand.clash>
0.0000

> <Gold.PLP.ligand.torsion>
2.5005

> <Gold.PLP.Chemscore.Hbond>
2.9425

> <Gold.PLP.Chemscore.CHOScore>
0.0000

> <Gold.PLP.Chemscore.Metal>
0.0000

> <Gold.Chemscore.Hbonds>
donor molecule, donor type, donor heavy atom, donor atom, acceptor molecule, acceptor atom, score
      L1  H    18    56       P1  7948  2.00
      P1  H  6896  6908       L1    10  0.91

> <Gold.PLP.Chemscore.Internal.Correction>
0.1012

> <Gold.Rescore>
     Score         DG    S(hbond)    S(metal)    S(lipo)     H(rot)  DE(clash)    DE(int)     intcor
     17.32     -20.05       1.65        0.00     131.74       2.48       0.13       2.60       ----

> <Gold.Chemscore.Fitness>
17.3226

> <Gold.Chemscore.DG>
-20.0516

> <Gold.Chemscore.ZeroCoef>
-5.4800

> <Gold.Chemscore.Hbond>
1.6499

> <Gold.Chemscore.Metal>
0.0000

> <Gold.Chemscore.Lipo>
131.7367

> <Gold.Chemscore.Internal_Hbond>
0.0000

> <Gold.Chemscore.DEClash>
0.1274

> <Gold.Chemscore.DEInternal>
2.6015

> <Gold.Chemscore.Rot>
2.4814

> <Gold.Chemscore.Internal.Correction>
   9.000000E+99

> <Gold.Chemscore.Hbonds>
donor molecule, donor type, donor heavy atom, donor atom, acceptor molecule, acceptor atom, score
      L1  H    18    56       P1  7948  0.52
      P1  H  6896  6908       L1    10  0.87

> <Gold.Chemscore.Hbond.Weighted>
-5.5108

> <Gold.Chemscore.Metal.Weighted>
-0.0000

> <Gold.Chemscore.Lipo.Weighted>
-15.4132

> <Gold.Chemscore.Internal_Hbond.Weighted>
0.0000

> <Gold.Chemscore.DEClash.Weighted>
0.1274

> <Gold.Chemscore.DEInternal.Weighted>
2.6015

> <Gold.Chemscore.Rot.Weighted>
6.3524

> <Gold.Chemscore.Internal.Correction.Weighted>
   9.000000E+99

> <Gold.Protein.RotatedTorsions>
[ 6907 6896 6895 6894 ] final -110.08 input  -60.11 | X-H torsion
[ 7974 7965 7964 7962 ] final -110.83 input  175.53 | X-H torsion
[ 8008 7997 7996 7995 ] final  -48.69 input   59.86 | X-H torsion
[ 10167 10162 10161 10158 ] final   22.14 input  -65.29 | X-H torsion
[ 10718 10713 10712 10709 ] final  -77.41 input   66.30 | X-H torsion
[ 10763 10752 10751 10750 ] final   26.75 input  -60.55 | X-H torsion
[ 11005 11000 10999 10996 ] final -123.41 input  -57.11 | X-H torsion

> <Gold.Protein.ActiveResidues>
 VAL166  LYS551  ARG553  GLY616  TRP617  ASP618  TYR619  PRO620  LYS621  CYS622 
 ASP623  PHE694  ASN695  SER759  ASP760  ASP761  ALA762  ILE779  LEU786  VAL792 
 PHE793  MET794  SER795  GLU796  ALA797  LYS798  CYS799  TRP800  GLU811  SER814 

> <Gold.Protein.RotatedAtoms>
  150.7602  133.9435  159.3463 H   0  0  0  0  0  0  0  0  0  0  0  0  # atno 6907 bound_to 6896
  151.7345  135.0865  160.0315 H   0  0  0  0  0  0  0  0  0  0  0  0  # atno 6908 bound_to 6896
  152.3568  133.6210  159.6021 H   0  0  0  0  0  0  0  0  0  0  0  0  # atno 6909 bound_to 6896
  145.1635  140.8890  143.3577 H   0  0  0  0  0  0  0  0  0  0  0  0  # atno 7974 bound_to 7965
  154.4032  140.1315  156.4381 H   0  0  0  0  0  0  0  0  0  0  0  0  # atno 8008 bound_to 7997
  155.7486  140.3488  155.5119 H   0  0  0  0  0  0  0  0  0  0  0  0  # atno 8009 bound_to 7997
  155.8971  140.1013  157.1367 H   0  0  0  0  0  0  0  0  0  0  0  0  # atno 8010 bound_to 7997
  140.5372  143.9740  150.6498 H   0  0  0  0  0  0  0  0  0  0  0  0  # atno 10167 bound_to 10162
  156.0146  130.4490  150.3341 H   0  0  0  0  0  0  0  0  0  0  0  0  # atno 10718 bound_to 10713
  153.0602  135.6553  154.0482 H   0  0  0  0  0  0  0  0  0  0  0  0  # atno 10763 bound_to 10752
  154.0151  135.2925  155.3389 H   0  0  0  0  0  0  0  0  0  0  0  0  # atno 10764 bound_to 10752
  154.6936  135.5273  153.8495 H   0  0  0  0  0  0  0  0  0  0  0  0  # atno 10765 bound_to 10752
  140.9921  134.0524  157.3642 H   0  0  0  0  0  0  0  0  0  0  0  0  # atno 11005 bound_to 11000
  145.0306  139.3344  143.6026 LP  0  0  0  0  0  0  0  0  0  0  0  0  # atno 17320 bound_to 7965
  146.3479  139.9642  142.8713 LP  0  0  0  0  0  0  0  0  0  0  0  0  # atno 17321 bound_to 7965
  140.3131  143.3185  152.0859 LP  0  0  0  0  0  0  0  0  0  0  0  0  # atno 17342 bound_to 10162
  139.4975  144.6623  151.6436 LP  0  0  0  0  0  0  0  0  0  0  0  0  # atno 17343 bound_to 10162
  157.1438  131.0303  151.2916 LP  0  0  0  0  0  0  0  0  0  0  0  0  # atno 17370 bound_to 10713
  157.4450  130.7565  149.7101 LP  0  0  0  0  0  0  0  0  0  0  0  0  # atno 17371 bound_to 10713
  139.8997  135.0159  156.7208 LP  0  0  0  0  0  0  0  0  0  0  0  0  # atno 17394 bound_to 11000
  140.7023  133.9295  155.8032 LP  0  0  0  0  0  0  0  0  0  0  0  0  # atno 17395 bound_to 11000

$$$$
