#       Name:                AV-unprocessed.smi:99
#       Creating user name   scv26
#       Creation time:       Thu Mar 26 17:34:00 2020


#       File generated by GOLD software.
#

@<TRIPOS>MOLECULE
AV-unprocessed.smi:99
    65    68     1
SMALL
NO_CHARGES


@<TRIPOS>ATOM
      1 ****        -3.9914   0.5025   0.6908 O.2            1 S1                 0.0000
      2 ****        -3.3170   1.3814   0.1498 C.2            1 S1                 0.0000
      3 ****        -1.9961   1.2656  -0.0901 O.3            1 S1                 0.0000
      4 ****        -1.3083   0.0859   0.2917 C.3            1 S1                 0.0000
      5 ****         0.1858   0.2516  -0.0027 C.3            1 S1                 0.0000
      6 ****         0.7704   1.1394   0.9378 O.3            1 S1                 0.0000
      7 ****         2.1265   0.8506   1.0737 C.3            1 S1                 0.0000
      8 ****         2.4690   0.9451   2.5458 N.am           1 S1                 0.0000
      9 ****         1.6220   0.4013   3.5022 C.2            1 S1                 0.0000
     10 ****         1.8689   0.4669   4.8316 C.2            1 S1                 0.0000
     11 ****         3.0694   1.1315   5.3287 C.2            1 S1                 0.0000
     12 ****         3.3785   1.2436   6.5130 O.2            1 S1                 0.0000
     13 ****         3.8943   1.6613   4.3320 N.am           1 S1                 0.0000
     14 ****         3.6520   1.5977   2.9585 C.2            1 S1                 0.0000
     15 ****         4.4580   2.0901   2.1703 O.2            1 S1                 0.0000
     16 ****         2.3842  -0.5524   0.4796 C.3            1 S1                 0.0000
     17 ****         3.0538  -1.4500   1.3466 O.3            1 S1                 0.0000
     18 ****         0.9758  -1.0449   0.1734 C.3            1 S1                 0.0000
     19 ****         0.9530  -1.7813  -1.0431 O.3            1 S1                 0.0000
     20 ****         0.9993  -3.1307  -1.0336 C.2            1 S1                 0.0000
     21 ****         1.0397  -3.8067  -0.0036 O.2            1 S1                 0.0000
     22 ****         0.9967  -3.7202  -2.4033 C.ar           1 S1                 0.0000
     23 ****         0.9995  -5.1269  -2.5515 C.ar           1 S1                 0.0000
     24 ****         1.0016  -5.7137  -3.8318 C.ar           1 S1                 0.0000
     25 ****         1.0020  -4.9006  -4.9800 C.ar           1 S1                 0.0000
     26 ****         0.9993  -3.4999  -4.8462 C.ar           1 S1                 0.0000
     27 ****         0.9961  -2.9110  -3.5664 C.ar           1 S1                 0.0000
     28 ****        -3.8789   2.6846  -0.3089 C.ar           1 S1                 0.0000
     29 ****        -5.2608   2.9389  -0.1456 C.ar           1 S1                 0.0000
     30 ****        -5.8207   4.1596  -0.5696 C.ar           1 S1                 0.0000
     31 ****        -5.0054   5.1416  -1.1617 C.ar           1 S1                 0.0000
     32 ****        -3.6290   4.9019  -1.3279 C.ar           1 S1                 0.0000
     33 ****        -3.0673   3.6814  -0.9050 C.ar           1 S1                 0.0000
     34 ****         4.7385   2.1278   4.6308 H              1 S1                 0.0000
     35 ****        -1.4657  -0.1295   1.3496 H              1 S1                 0.0000
     36 ****        -1.7072  -0.7540  -0.2787 H              1 S1                 0.0000
     37 ****         0.3461   0.6520  -1.0057 H              1 S1                 0.0000
     38 ****         2.6841   1.6298   0.5522 H              1 S1                 0.0000
     39 ****         0.7230  -0.1043   3.1795 H              1 S1                 0.0000
     40 ****         1.1748   0.0249   5.5318 H              1 S1                 0.0000
     41 ****         2.9597  -0.4270  -0.4389 H              1 S1                 0.0000
     42 ****         2.5795  -1.4874   2.1632 H              1 S1                 0.0000
     43 ****         0.5671  -1.6005   1.0194 H              1 S1                 0.0000
     44 ****         1.0006  -5.7722  -1.6848 H              1 S1                 0.0000
     45 ****         1.0042  -6.7891  -3.9324 H              1 S1                 0.0000
     46 ****         1.0046  -5.3509  -5.9618 H              1 S1                 0.0000
     47 ****         1.0007  -2.8751  -5.7273 H              1 S1                 0.0000
     48 ****         0.9961  -1.8329  -3.4995 H              1 S1                 0.0000
     49 ****        -5.9073   2.2000   0.3061 H              1 S1                 0.0000
     50 ****        -6.8773   4.3421  -0.4401 H              1 S1                 0.0000
     51 ****        -5.4352   6.0773  -1.4874 H              1 S1                 0.0000
     52 ****        -3.0023   5.6558  -1.7812 H              1 S1                 0.0000
     53 ****        -2.0072   3.5303  -1.0472 H              1 S1                 0.0000
     54 ****        -3.5604  -0.3532   0.9774 LP             1 S1                 0.0000
     55 ****        -4.9693   0.6452   0.8429 LP             1 S1                 0.0000
     56 ****         0.3172   1.0323   1.8227 LP             1 S1                 0.0000
     57 ****         0.6611   2.0809   0.6190 LP             1 S1                 0.0000
     58 ****         2.7861   0.8622   7.2226 LP             1 S1                 0.0000
     59 ****         4.2225   1.7161   6.7669 LP             1 S1                 0.0000
     60 ****         4.2899   2.0387   1.1858 LP             1 S1                 0.0000
     61 ****         5.2814   2.5417   2.5140 LP             1 S1                 0.0000
     62 ****         3.9858  -1.1274   1.5121 LP             1 S1                 0.0000
     63 ****         3.0847  -2.3596   0.9323 LP             1 S1                 0.0000
     64 ****         1.0394  -3.3573   0.8897 LP             1 S1                 0.0000
     65 ****         1.0729  -4.8045  -0.0614 LP             1 S1                 0.0000
@<TRIPOS>BOND
    1    1    2 2     
    2    2    3 1     
    3    2   28 1     
    4    3    4 1     
    5    4    5 1     
    6    4   35 1     
    7    4   36 1     
    8    5   18 1     
    9    5    6 1     
   10    5   37 1     
   11    6    7 1     
   12    7    8 1     
   13    7   16 1     
   14    7   38 1     
   15    8   14 1     
   16    8    9 1     
   17    9   10 2     
   18    9   39 1     
   19   10   11 1     
   20   10   40 1     
   21   11   12 2     
   22   11   13 1     
   23   13   34 1     
   24   13   14 1     
   25   14   15 2     
   26   16   17 1     
   27   16   18 1     
   28   16   41 1     
   29   17   42 1     
   30   18   19 1     
   31   18   43 1     
   32   19   20 1     
   33   20   21 2     
   34   20   22 1     
   35   22   27 ar    
   36   22   23 ar    
   37   23   24 ar    
   38   23   44 1     
   39   24   25 ar    
   40   24   45 1     
   41   25   26 ar    
   42   25   46 1     
   43   26   27 ar    
   44   26   47 1     
   45   27   48 1     
   46   28   33 ar    
   47   28   29 ar    
   48   29   30 ar    
   49   29   49 1     
   50   30   31 ar    
   51   30   50 1     
   52   31   32 ar    
   53   31   51 1     
   54   32   33 ar    
   55   32   52 1     
   56   33   53 1     
   57    1   54 1     
   58    1   55 1     
   59    6   56 1     
   60    6   57 1     
   61   12   58 1     
   62   12   59 1     
   63   15   60 1     
   64   15   61 1     
   65   17   62 1     
   66   17   63 1     
   67   21   64 1     
   68   21   65 1     
@<TRIPOS>SUBSTRUCTURE
      1 S1             1
@<TRIPOS>SET
LONE_PAIRS      STATIC     ATOMS    <user>   **** ""
12 54 55 56 57 58 59 60 61 62 63 64 65
DONOR_HYDROGENS      STATIC     ATOMS    <user>   **** ""
2 34 42
ATOM$BLUE        STATIC     ATOMS    COLORGROUP SYSTEM
12 54 55 56 57 58 59 60 61 62 63 64 65
ATOM$RED        STATIC     ATOMS    COLORGROUP SYSTEM
2 34 42
