AV-unprocessed.smi:3222|AV-procd|sdf|12305|dock7
  -GOLD-   2272018153D 1   1.00000     0.00000
 Structure written by MMmdl.
 41 42  0  0  0  0  0  0  0  0  2 V2000
  149.5488  139.6559  157.2875 C   0  0  0  0  0  0  0  0  0  0  0  0
  150.5800  140.1633  156.2627 C   0  0  2  0  0  0  0  0  0  0  0  0
  150.7968  141.6110  156.4851 N   0  3  0  0  0  0  0  0  0  0  0  0
  150.8408  142.0232  157.9027 C   0  0  0  0  0  0  0  0  0  0  0  0
  152.2787  141.9807  158.4422 C   0  0  0  0  0  0  0  0  0  0  0  0
  152.3845  142.6318  159.7451 N   0  0  0  0  0  0  0  0  0  0  0  0
  153.0600  141.9757  160.8519 C   0  0  0  0  0  0  0  0  0  0  0  0
  152.8115  142.8822  162.0662 C   0  0  0  0  0  0  0  0  0  0  0  0
  152.2686  144.1995  161.5016 C   0  0  0  0  0  0  0  0  0  0  0  0
  151.9541  143.8604  160.0547 C   0  0  0  0  0  0  0  0  0  0  0  0
  151.3789  144.6381  159.2951 O   0  0  0  0  0  0  0  0  0  0  0  0
  150.1587  139.8937  154.7921 C   0  0  1  0  0  0  0  0  0  0  0  0
  150.1749  138.3977  154.4238 C   0  0  0  0  0  0  0  0  0  0  0  0
  148.8548  140.4663  154.4820 N   0  0  0  0  0  0  0  0  0  0  0  0
  148.4500  141.7807  154.5945 C   0  0  0  0  0  0  0  0  0  0  0  0
  147.1484  141.8436  154.1870 C   0  0  0  0  0  0  0  0  0  0  0  0
  146.8382  140.5004  153.8358 C   0  0  0  0  0  0  0  0  0  0  0  0
  147.8603  139.6790  154.0124 N   0  0  0  0  0  0  0  0  0  0  0  0
  149.4264  138.5737  157.2402 H   0  0  0  0  0  0  0  0  0  0  0  0
  148.5706  140.1091  157.1239 H   0  0  0  0  0  0  0  0  0  0  0  0
  149.8597  139.8953  158.3049 H   0  0  0  0  0  0  0  0  0  0  0  0
  151.5119  139.6304  156.4613 H   0  0  0  0  0  0  0  0  0  0  0  0
  151.6616  141.8786  156.0375 H   0  0  0  0  0  0  0  0  0  0  0  0
  150.4320  143.0309  157.9866 H   0  0  0  0  0  0  0  0  0  0  0  0
  150.2028  141.3669  158.4956 H   0  0  0  0  0  0  0  0  0  0  0  0
  152.6130  140.9458  158.5284 H   0  0  0  0  0  0  0  0  0  0  0  0
  152.9602  142.4671  157.7423 H   0  0  0  0  0  0  0  0  0  0  0  0
  152.6720  140.9691  161.0135 H   0  0  0  0  0  0  0  0  0  0  0  0
  154.1258  141.9015  160.6317 H   0  0  0  0  0  0  0  0  0  0  0  0
  152.0719  142.4297  162.7281 H   0  0  0  0  0  0  0  0  0  0  0  0
  153.7215  143.0340  162.6478 H   0  0  0  0  0  0  0  0  0  0  0  0
  151.3792  144.5398  162.0328 H   0  0  0  0  0  0  0  0  0  0  0  0
  153.0209  144.9881  161.5352 H   0  0  0  0  0  0  0  0  0  0  0  0
  150.8778  140.3959  154.1428 H   0  0  0  0  0  0  0  0  0  0  0  0
  151.1783  137.9784  154.4933 H   0  0  0  0  0  0  0  0  0  0  0  0
  149.8351  138.2449  153.3989 H   0  0  0  0  0  0  0  0  0  0  0  0
  149.5244  137.8167  155.0785 H   0  0  0  0  0  0  0  0  0  0  0  0
  149.1136  142.5546  154.9516 H   0  0  0  0  0  0  0  0  0  0  0  0
  146.5144  142.7169  154.1448 H   0  0  0  0  0  0  0  0  0  0  0  0
  145.9077  140.1008  153.4603 H   0  0  0  0  0  0  0  0  0  0  0  0
  150.0394  142.1123  156.0434 H   0  0  0  0  0  0  0  0  0  0  0  0
  1  2  1  0  0  0  0
  1 19  1  0  0  0  0
  1 20  1  0  0  0  0
  1 21  1  0  0  0  0
  2  3  1  0  0  0  0
  2 12  1  0  0  0  0
  2 22  1  0  0  0  0
  3  4  1  0  0  0  0
  3 23  1  0  0  0  0
  3 41  1  0  0  0  0
  4  5  1  0  0  0  0
  4 24  1  0  0  0  0
  4 25  1  0  0  0  0
  5  6  1  0  0  0  0
  5 26  1  0  0  0  0
  5 27  1  0  0  0  0
  6 10  1  0  0  0  0
  6  7  1  0  0  0  0
  7  8  1  0  0  0  0
  7 28  1  0  0  0  0
  7 29  1  0  0  0  0
  8  9  1  0  0  0  0
  8 30  1  0  0  0  0
  8 31  1  0  0  0  0
  9 10  1  0  0  0  0
  9 32  1  0  0  0  0
  9 33  1  0  0  0  0
 10 11  2  0  0  0  0
 12 13  1  0  0  0  0
 12 14  1  0  0  0  0
 12 34  1  0  0  0  0
 13 35  1  0  0  0  0
 13 36  1  0  0  0  0
 13 37  1  0  0  0  0
 14 18  1  0  0  0  0
 14 15  1  0  0  0  0
 15 16  2  0  0  0  0
 15 38  1  0  0  0  0
 16 17  1  0  0  0  0
 16 39  1  0  0  0  0
 17 18  2  0  0  0  0
 17 40  1  0  0  0  0
M  CHG  1   3   1
M  END
> <s_m_source_file>
AV-unprocessed.smi

> <i_m_source_file_index>
3222

> <i_lp_mmshare_version>
43012

> <i_f3d_flags>
0

> <s_epik_input>
bjFbY0hdW2NIXVtjSF1uMVtDQEBIXShbQ0gzXSlbQ0BIXShbQ0gzXSlbTkhdW0NIMl1bQ0gyXU4yW0NIMl1bQ0gyXVtDSDJdQzI9Tw==

> <s_epik_cmdline>
J2VwaWtfcHl0aG9uJywgJy1waCcsICc3LjAnLCAnLXRuJywgJzgnLCAnLW1hJywgJzIwMCcsICctbWV0YWxfYmluZGluZycsICctaW1hZScsICc8aW5maWxlLm1hZT4nLCAnLW9tYWUnLCAnPG91dGZpbGUubWFlPic=

> <r_lp_tautomer_probability>
1

> <r_epik_Ionization_Penalty>
0.0064019

> <r_epik_Ionization_Penalty_Charging>
0.00639164

> <r_epik_Ionization_Penalty_Neutral>
1.02567e-05

> <r_epik_State_Penalty>
0.00472531

> <r_epik_Charging_Adjusted_Penalty>
0.011117

> <i_epik_Tot_Q>
1

> <i_epik_Tot_abs_Q>
1

> <r_epik_Metal_State_Penalty>
-0

> <b_epik_Metal_Only>
0

> <s_lp_Force_Field>
OPLS_2005

> <r_lp_Energy>
25.0095

> <b_lp_Chiralities_Consistent>
1

> <s_lp_Variant>
AV-unprocessed.smi:3222-3

> <Gold.Version>
5.8.1

> <Gold.Id.Protein>
6NUR|6NUR_protein|mol2

> <Gold.PLP.Fitness>
47.7058

> <Gold.PLP.PLP>
-42.7185

> <Gold.PLP.part.hbond>
0.0000

> <Gold.PLP.part.metal>
0.0000

> <Gold.PLP.part.buried>
-4.3971

> <Gold.PLP.part.nonpolar>
-39.1411

> <Gold.PLP.part.repulsive>
0.3505

> <Gold.PLP.ligand.clash>
0.0000

> <Gold.PLP.ligand.torsion>
0.5593

> <Gold.PLP.Chemscore.Hbond>
0.0000

> <Gold.PLP.Chemscore.CHOScore>
1.9875

> <Gold.PLP.Chemscore.Metal>
0.0000

> <Gold.Chemscore.Hbonds>
donor molecule, donor type, donor heavy atom, donor atom, acceptor molecule, acceptor atom, score
      L1  C    15    38       P1  8028  1.00
      L1  C    17    40       P1 10175  1.00

> <Gold.PLP.Chemscore.Internal.Correction>
0.1435

> <Gold.Rescore>
     Score         DG    S(hbond)    S(metal)    S(lipo)     H(rot)  DE(clash)    DE(int)     intcor
     10.77     -11.47       0.00        0.00      94.80       1.99       0.04       0.66       ----

> <Gold.Chemscore.Fitness>
10.7693

> <Gold.Chemscore.DG>
-11.4718

> <Gold.Chemscore.ZeroCoef>
-5.4800

> <Gold.Chemscore.Hbond>
0.0000

> <Gold.Chemscore.Metal>
0.0000

> <Gold.Chemscore.Lipo>
94.8032

> <Gold.Chemscore.Internal_Hbond>
0.0000

> <Gold.Chemscore.DEClash>
0.0388

> <Gold.Chemscore.DEInternal>
0.6638

> <Gold.Chemscore.Rot>
1.9922

> <Gold.Chemscore.Internal.Correction>
   9.000000E+99

> <Gold.Chemscore.Hbond.Weighted>
-0.0000

> <Gold.Chemscore.Metal.Weighted>
-0.0000

> <Gold.Chemscore.Lipo.Weighted>
-11.0920

> <Gold.Chemscore.Internal_Hbond.Weighted>
0.0000

> <Gold.Chemscore.DEClash.Weighted>
0.0388

> <Gold.Chemscore.DEInternal.Weighted>
0.6638

> <Gold.Chemscore.Rot.Weighted>
5.1002

> <Gold.Chemscore.Internal.Correction.Weighted>
   9.000000E+99

> <Gold.Protein.RotatedTorsions>
[ 6907 6896 6895 6894 ] final -175.44 input  -60.11 | X-H torsion
[ 7974 7965 7964 7962 ] final  135.55 input  175.53 | X-H torsion
[ 8008 7997 7996 7995 ] final  131.47 input   59.86 | X-H torsion
[ 10167 10162 10161 10158 ] final  150.91 input  -65.29 | X-H torsion
[ 10718 10713 10712 10709 ] final  114.81 input   66.30 | X-H torsion
[ 10763 10752 10751 10750 ] final  133.46 input  -60.55 | X-H torsion
[ 11005 11000 10999 10996 ] final -170.74 input  -57.11 | X-H torsion

> <Gold.Protein.ActiveResidues>
 VAL166  LYS551  ARG553  GLY616  TRP617  ASP618  TYR619  PRO620  LYS621  CYS622 
 ASP623  PHE694  ASN695  SER759  ASP760  ASP761  ALA762  ILE779  LEU786  VAL792 
 PHE793  MET794  SER795  GLU796  ALA797  LYS798  CYS799  TRP800  GLU811  SER814 

> <Gold.Protein.RotatedAtoms>
  151.5885  133.3369  159.3022 H   0  0  0  0  0  0  0  0  0  0  0  0  # atno 6907 bound_to 6896
  150.8273  134.7513  159.6835 H   0  0  0  0  0  0  0  0  0  0  0  0  # atno 6908 bound_to 6896
  152.4361  134.5690  159.9967 H   0  0  0  0  0  0  0  0  0  0  0  0  # atno 6909 bound_to 6896
  144.9653  139.4665  143.5460 H   0  0  0  0  0  0  0  0  0  0  0  0  # atno 7974 bound_to 7965
  156.2970  140.2570  156.2931 H   0  0  0  0  0  0  0  0  0  0  0  0  # atno 8008 bound_to 7997
  154.9491  140.0394  157.2153 H   0  0  0  0  0  0  0  0  0  0  0  0  # atno 8009 bound_to 7997
  154.8053  140.2835  155.5896 H   0  0  0  0  0  0  0  0  0  0  0  0  # atno 8010 bound_to 7997
  139.4845  144.5484  151.7444 H   0  0  0  0  0  0  0  0  0  0  0  0  # atno 10167 bound_to 10162
  157.6259  131.1004  150.7239 H   0  0  0  0  0  0  0  0  0  0  0  0  # atno 10718 bound_to 10713
  153.8074  135.3133  155.3397 H   0  0  0  0  0  0  0  0  0  0  0  0  # atno 10763 bound_to 10752
  154.8065  135.4694  154.0408 H   0  0  0  0  0  0  0  0  0  0  0  0  # atno 10764 bound_to 10752
  153.1775  135.6888  153.8611 H   0  0  0  0  0  0  0  0  0  0  0  0  # atno 10765 bound_to 10752
  140.5160  134.5755  157.5033 H   0  0  0  0  0  0  0  0  0  0  0  0  # atno 11005 bound_to 11000
  146.3366  139.8829  142.8821 LP  0  0  0  0  0  0  0  0  0  0  0  0  # atno 17320 bound_to 7965
  145.2639  141.0086  143.3810 LP  0  0  0  0  0  0  0  0  0  0  0  0  # atno 17321 bound_to 7965
  140.5034  144.1134  150.5976 LP  0  0  0  0  0  0  0  0  0  0  0  0  # atno 17342 bound_to 10162
  140.4035  143.2692  151.9918 LP  0  0  0  0  0  0  0  0  0  0  0  0  # atno 17343 bound_to 10162
  156.7587  130.4792  149.5441 LP  0  0  0  0  0  0  0  0  0  0  0  0  # atno 17370 bound_to 10713
  156.1431  130.6259  151.0495 LP  0  0  0  0  0  0  0  0  0  0  0  0  # atno 17371 bound_to 10713
  139.9632  134.7417  156.0193 LP  0  0  0  0  0  0  0  0  0  0  0  0  # atno 17394 bound_to 11000
  141.1360  133.6575  156.3594 LP  0  0  0  0  0  0  0  0  0  0  0  0  # atno 17395 bound_to 11000

$$$$
