AV-unprocessed.smi:2531|AV-procd|sdf|9967|dock8
  -GOLD-   2272014 13D 1   1.00000     0.00000
 Structure written by MMmdl.
 46 48  0  0  0  0  0  0  0  0  3 V2000
  152.4587  141.4233  160.0084 O   0  0  0  0  0  0  0  0  0  0  0  0
  151.6056  141.4726  159.1211 C   0  0  0  0  0  0  0  0  0  0  0  0
  150.9753  142.8194  158.7108 C   0  0  0  0  0  0  0  0  0  0  0  0
  151.5967  143.3970  157.4176 C   0  0  0  0  0  0  0  0  0  0  0  0
  152.3390  144.6839  157.8082 C   0  0  0  0  0  0  0  0  0  0  0  0
  152.4573  144.6511  159.3310 C   0  0  0  0  0  0  0  0  0  0  0  0
  151.2082  143.8975  159.7840 C   0  0  0  0  0  0  0  0  0  0  0  0
  151.1106  140.3111  158.5203 N   0  0  0  0  0  0  0  0  0  0  0  0
  150.5081  140.3529  157.1957 C   0  0  0  0  0  0  0  0  0  0  0  0
  151.0003  138.9089  157.0450 C   0  0  0  0  0  0  0  0  0  0  0  0
  151.8055  138.5889  155.4118 S   0  0  0  0  0  0  0  0  0  0  0  0
  150.9677  139.2728  154.4132 O   0  0  0  0  0  0  0  0  0  0  0  0
  153.2016  139.0416  155.5264 O   0  0  0  0  0  0  0  0  0  0  0  0
  151.6781  136.9730  155.3311 N   0  5  0  0  0  0  0  0  0  0  0  0
  150.8970  136.2511  156.3225 C   0  0  0  0  0  0  0  0  0  0  0  0
  151.2656  134.7503  156.3359 C   0  0  0  0  0  0  0  0  0  0  0  0
  150.4231  133.9005  155.3942 C   0  0  0  0  0  0  0  0  0  0  0  0
  149.4616  134.4689  154.5277 C   0  0  0  0  0  0  0  0  0  0  0  0
  148.7055  133.6268  153.6858 C   0  0  0  0  0  0  0  0  0  0  0  0
  148.9209  132.2337  153.7285 C   0  0  0  0  0  0  0  0  0  0  0  0
  149.8878  131.7166  154.6141 C   0  0  0  0  0  0  0  0  0  0  0  0
  150.5923  132.5555  155.4047 N   0  3  0  0  0  0  0  0  0  0  0  0
  151.9757  139.1852  158.1973 C   0  0  0  0  0  0  0  0  0  0  0  0
  149.9049  142.6797  158.5562 H   0  0  0  0  0  0  0  0  0  0  0  0
  152.2829  142.6960  156.9397 H   0  0  0  0  0  0  0  0  0  0  0  0
  150.8228  143.6166  156.6813 H   0  0  0  0  0  0  0  0  0  0  0  0
  153.3110  144.7685  157.3210 H   0  0  0  0  0  0  0  0  0  0  0  0
  151.7465  145.5497  157.5091 H   0  0  0  0  0  0  0  0  0  0  0  0
  153.3502  144.0960  159.6215 H   0  0  0  0  0  0  0  0  0  0  0  0
  152.5280  145.6476  159.7678 H   0  0  0  0  0  0  0  0  0  0  0  0
  150.3557  144.5773  159.8078 H   0  0  0  0  0  0  0  0  0  0  0  0
  151.3237  143.4926  160.7908 H   0  0  0  0  0  0  0  0  0  0  0  0
  149.4235  140.4635  157.2043 H   0  0  0  0  0  0  0  0  0  0  0  0
  150.9968  141.0547  156.5164 H   0  0  0  0  0  0  0  0  0  0  0  0
  150.2328  138.1674  157.2721 H   0  0  0  0  0  0  0  0  0  0  0  0
  151.0743  136.6560  157.3194 H   0  0  0  0  0  0  0  0  0  0  0  0
  149.8251  136.3577  156.1525 H   0  0  0  0  0  0  0  0  0  0  0  0
  152.3105  134.6130  156.0584 H   0  0  0  0  0  0  0  0  0  0  0  0
  151.1663  134.3530  157.3470 H   0  0  0  0  0  0  0  0  0  0  0  0
  149.3077  135.5381  154.5068 H   0  0  0  0  0  0  0  0  0  0  0  0
  147.9686  134.0450  153.0160 H   0  0  0  0  0  0  0  0  0  0  0  0
  148.3519  131.5720  153.0917 H   0  0  0  0  0  0  0  0  0  0  0  0
  150.1180  130.6660  154.7142 H   0  0  0  0  0  0  0  0  0  0  0  0
  152.9768  139.4820  157.8821 H   0  0  0  0  0  0  0  0  0  0  0  0
  151.9946  138.4085  158.9621 H   0  0  0  0  0  0  0  0  0  0  0  0
  151.2877  132.1601  156.0384 H   0  0  0  0  0  0  0  0  0  0  0  0
  1  2  2  0  0  0  0
  2  3  1  0  0  0  0
  2  8  1  0  0  0  0
  3  7  1  0  0  0  0
  3  4  1  0  0  0  0
  3 24  1  0  0  0  0
  4  5  1  0  0  0  0
  4 25  1  0  0  0  0
  4 26  1  0  0  0  0
  5  6  1  0  0  0  0
  5 27  1  0  0  0  0
  5 28  1  0  0  0  0
  6  7  1  0  0  0  0
  6 29  1  0  0  0  0
  6 30  1  0  0  0  0
  7 31  1  0  0  0  0
  7 32  1  0  0  0  0
  8 23  1  0  0  0  0
  8  9  1  0  0  0  0
  9 10  1  0  0  0  0
  9 33  1  0  0  0  0
  9 34  1  0  0  0  0
 10 11  1  0  0  0  0
 10 23  1  0  0  0  0
 10 35  1  0  0  0  0
 11 12  2  0  0  0  0
 11 13  2  0  0  0  0
 11 14  1  0  0  0  0
 14 15  1  0  0  0  0
 15 16  1  0  0  0  0
 15 36  1  0  0  0  0
 15 37  1  0  0  0  0
 16 17  1  0  0  0  0
 16 38  1  0  0  0  0
 16 39  1  0  0  0  0
 17 22  1  0  0  0  0
 17 18  2  0  0  0  0
 18 19  1  0  0  0  0
 18 40  1  0  0  0  0
 19 20  2  0  0  0  0
 19 41  1  0  0  0  0
 20 21  1  0  0  0  0
 20 42  1  0  0  0  0
 21 22  2  0  0  0  0
 21 43  1  0  0  0  0
 22 46  1  0  0  0  0
 23 44  1  0  0  0  0
 23 45  1  0  0  0  0
M  CHG  1  14  -1
M  CHG  1  22   1
M  END
> <s_m_source_file>
AV-unprocessed.smi

> <i_m_source_file_index>
2531

> <i_lp_mmshare_version>
43012

> <i_f3d_flags>
0

> <s_epik_input>
W0NIMl0xW0NIMl1bQ0gyXVtDSDJdW0NIXTFDKD1PKU4yW0NIMl1bQ0hdKFtDSDJdMilTKD1PKSg9TylbTkhdW0NIMl1bQ0gyXWMzW2NIXVtjSF1bY0hdW2NIXW4z

> <s_epik_cmdline>
J2VwaWtfcHl0aG9uJywgJy1waCcsICc3LjAnLCAnLXRuJywgJzgnLCAnLW1hJywgJzIwMCcsICctbWV0YWxfYmluZGluZycsICctaW1hZScsICc8aW5maWxlLm1hZT4nLCAnLW9tYWUnLCAnPG91dGZpbGUubWFlPic=

> <r_epik_Ionization_Penalty>
6.66855

> <r_epik_Ionization_Penalty_Charging>
6.66855

> <r_epik_Ionization_Penalty_Neutral>
2.37876e-07

> <r_epik_State_Penalty>
7.51815

> <r_epik_Charging_Adjusted_Penalty>
14.1867

> <i_epik_Tot_Q>
0

> <i_epik_Tot_abs_Q>
2

> <r_epik_Metal_State_Penalty>
3.5378

> <b_epik_Metal_Only>
1

> <s_lp_Force_Field>
OPLS_2005

> <r_lp_Energy>
33.2094

> <b_lp_Chiralities_Consistent>
1

> <s_lp_Variant>
AV-unprocessed.smi:2531-4

> <Gold.Version>
5.8.1

> <Gold.Id.Protein>
6NUR|6NUR_protein|mol2

> <Gold.PLP.Fitness>
52.6164

> <Gold.PLP.PLP>
-43.5937

> <Gold.PLP.part.hbond>
-3.0000

> <Gold.PLP.part.metal>
0.0000

> <Gold.PLP.part.buried>
-6.5091

> <Gold.PLP.part.nonpolar>
-33.5608

> <Gold.PLP.part.repulsive>
0.2668

> <Gold.PLP.ligand.clash>
0.0000

> <Gold.PLP.ligand.torsion>
2.7581

> <Gold.PLP.Chemscore.Hbond>
4.0000

> <Gold.PLP.Chemscore.CHOScore>
0.0000

> <Gold.PLP.Chemscore.Metal>
0.0000

> <Gold.Chemscore.Hbonds>
donor molecule, donor type, donor heavy atom, donor atom, acceptor molecule, acceptor atom, score
      P1  H  7989  7998       L1    12  1.00
      P1  H  7997  8010       L1    13  1.00
      P1  H 10752 10764       L1    14  1.93

> <Gold.PLP.Chemscore.Internal.Correction>
2.5389

> <Gold.Rescore>
     Score         DG    S(hbond)    S(metal)    S(lipo)     H(rot)  DE(clash)    DE(int)     intcor
     19.63     -22.69       2.72        0.00     106.98       1.72       0.16       2.90       ----

> <Gold.Chemscore.Fitness>
19.6281

> <Gold.Chemscore.DG>
-22.6905

> <Gold.Chemscore.ZeroCoef>
-5.4800

> <Gold.Chemscore.Hbond>
2.7205

> <Gold.Chemscore.Metal>
0.0000

> <Gold.Chemscore.Lipo>
106.9776

> <Gold.Chemscore.Internal_Hbond>
0.0000

> <Gold.Chemscore.DEClash>
0.1634

> <Gold.Chemscore.DEInternal>
2.8990

> <Gold.Chemscore.Rot>
1.7158

> <Gold.Chemscore.Internal.Correction>
   9.000000E+99

> <Gold.Chemscore.Hbonds>
donor molecule, donor type, donor heavy atom, donor atom, acceptor molecule, acceptor atom, score
      P1  H  7989  7998       L1    12  0.97
      P1  H  7997  8010       L1    13  0.99
      P1  H 10752 10764       L1    14  0.57

> <Gold.Chemscore.Hbond.Weighted>
-9.0864

> <Gold.Chemscore.Metal.Weighted>
-0.0000

> <Gold.Chemscore.Lipo.Weighted>
-12.5164

> <Gold.Chemscore.Internal_Hbond.Weighted>
0.0000

> <Gold.Chemscore.DEClash.Weighted>
0.1634

> <Gold.Chemscore.DEInternal.Weighted>
2.8990

> <Gold.Chemscore.Rot.Weighted>
4.3924

> <Gold.Chemscore.Internal.Correction.Weighted>
   9.000000E+99

> <Gold.Protein.RotatedTorsions>
[ 6907 6896 6895 6894 ] final -158.62 input  -60.11 | X-H torsion
[ 7974 7965 7964 7962 ] final -116.57 input  175.53 | X-H torsion
[ 8008 7997 7996 7995 ] final   83.96 input   59.86 | X-H torsion
[ 10167 10162 10161 10158 ] final  -62.11 input  -65.29 | X-H torsion
[ 10718 10713 10712 10709 ] final   14.50 input   66.30 | X-H torsion
[ 10763 10752 10751 10750 ] final  -69.82 input  -60.55 | X-H torsion
[ 11005 11000 10999 10996 ] final  156.83 input  -57.11 | X-H torsion

> <Gold.Protein.ActiveResidues>
 VAL166  LYS551  ARG553  GLY616  TRP617  ASP618  TYR619  PRO620  LYS621  CYS622 
 ASP623  PHE694  ASN695  SER759  ASP760  ASP761  ALA762  ILE779  LEU786  VAL792 
 PHE793  MET794  SER795  GLU796  ALA797  LYS798  CYS799  TRP800  GLU811  SER814 

> <Gold.Protein.RotatedAtoms>
  151.3210  133.4040  159.2654 H   0  0  0  0  0  0  0  0  0  0  0  0  # atno 6907 bound_to 6896
  151.0034  134.9341  159.7977 H   0  0  0  0  0  0  0  0  0  0  0  0  # atno 6908 bound_to 6896
  152.5281  134.3175  159.9188 H   0  0  0  0  0  0  0  0  0  0  0  0  # atno 6909 bound_to 6896
  145.0952  140.8516  143.3959 H   0  0  0  0  0  0  0  0  0  0  0  0  # atno 7974 bound_to 7965
  155.9308  140.3415  155.6247 H   0  0  0  0  0  0  0  0  0  0  0  0  # atno 8008 bound_to 7997
  155.7160  140.0777  157.2370 H   0  0  0  0  0  0  0  0  0  0  0  0  # atno 8009 bound_to 7997
  154.4085  140.1614  156.2336 H   0  0  0  0  0  0  0  0  0  0  0  0  # atno 8010 bound_to 7997
  140.5961  143.2351  151.6032 H   0  0  0  0  0  0  0  0  0  0  0  0  # atno 10167 bound_to 10162
  157.0400  130.6227  149.5749 H   0  0  0  0  0  0  0  0  0  0  0  0  # atno 10718 bound_to 10713
  154.4088  135.6014  153.5940 H   0  0  0  0  0  0  0  0  0  0  0  0  # atno 10763 bound_to 10752
  152.9790  135.5924  154.4095 H   0  0  0  0  0  0  0  0  0  0  0  0  # atno 10764 bound_to 10752
  154.3904  135.2842  155.2136 H   0  0  0  0  0  0  0  0  0  0  0  0  # atno 10765 bound_to 10752
  140.1712  134.8541  157.2693 H   0  0  0  0  0  0  0  0  0  0  0  0  # atno 11005 bound_to 11000
  145.1019  139.2816  143.5682 LP  0  0  0  0  0  0  0  0  0  0  0  0  # atno 17320 bound_to 7965
  146.3531  140.0589  142.8630 LP  0  0  0  0  0  0  0  0  0  0  0  0  # atno 17321 bound_to 7965
  139.5259  144.3060  152.1033 LP  0  0  0  0  0  0  0  0  0  0  0  0  # atno 17342 bound_to 10162
  140.2233  144.4444  150.6332 LP  0  0  0  0  0  0  0  0  0  0  0  0  # atno 17343 bound_to 10162
  156.0041  130.5125  150.7768 LP  0  0  0  0  0  0  0  0  0  0  0  0  # atno 17370 bound_to 10713
  157.5111  131.0925  151.0196 LP  0  0  0  0  0  0  0  0  0  0  0  0  # atno 17371 bound_to 10713
  140.2375  134.3835  155.7495 LP  0  0  0  0  0  0  0  0  0  0  0  0  # atno 17394 bound_to 11000
  141.2217  133.7247  156.8737 LP  0  0  0  0  0  0  0  0  0  0  0  0  # atno 17395 bound_to 11000

$$$$
