AV-unprocessed.smi:200|AV-procd|sdf|1577|dock6
  -GOLD-   2262019463D 1   1.00000     0.00000
 Structure written by MMmdl.
 56 59  0  0  0  0  0  0  0  0  1 V2000
  152.3718  144.1943  159.9218 C   0  0  0  0  0  0  0  0  0  0  0  0
  152.0615  142.8339  160.1645 O   0  0  0  0  0  0  0  0  0  0  0  0
  152.6191  141.9664  159.1914 C   0  0  0  0  0  0  0  0  0  0  0  0
  151.6297  141.8248  158.0266 C   0  0  0  0  0  0  0  0  0  0  0  0
  151.7833  140.5585  157.3090 N   0  0  0  0  0  0  0  0  0  0  0  0
  151.7049  139.4699  158.1088 C   0  0  0  0  0  0  0  0  0  0  0  0
  150.5071  138.8607  158.3097 N   0  0  0  0  0  0  0  0  0  0  0  0
  150.4311  137.7855  159.0998 C   0  0  0  0  0  0  0  0  0  0  0  0
  151.4079  137.1720  159.7722 N   0  0  0  0  0  0  0  0  0  0  0  0
  152.6094  137.7875  159.5761 C   0  0  0  0  0  0  0  0  0  0  0  0
  152.8421  138.9364  158.7703 C   0  0  0  0  0  0  0  0  0  0  0  0
  154.1841  139.2896  158.8148 N   0  0  0  0  0  0  0  0  0  0  0  0
  154.7173  138.3978  159.6043 C   0  0  0  0  0  0  0  0  0  0  0  0
  153.8469  137.4501  160.0964 N   0  0  0  0  0  0  0  0  0  0  0  0
  154.1806  136.3478  160.9858 C   0  0  0  0  0  0  0  0  0  0  0  0
  154.6926  136.7861  162.3743 C   0  0  0  0  0  0  0  0  0  0  0  0
  155.9538  137.6592  162.2465 C   0  0  0  0  0  0  0  0  0  0  0  0
  156.3840  138.1345  163.5061 O   0  0  0  0  0  0  0  0  0  0  0  0
  153.6270  137.3334  163.3341 C   0  0  0  0  0  0  0  0  0  0  0  0
  154.0444  136.4466  164.3932 O   0  0  0  0  0  0  0  0  0  0  0  0
  154.7971  135.6777  163.4317 C   0  0  0  0  0  0  0  0  0  0  0  0
  151.2211  140.4447  155.9549 C   0  0  1  0  0  0  0  0  0  0  0  0
  151.1941  139.0368  155.3398 C   0  0  0  0  0  0  0  0  0  0  0  0
  150.1916  139.1334  154.1813 C   0  0  0  0  0  0  0  0  0  0  0  0
  149.3757  140.4216  154.4096 C   0  0  1  0  0  0  0  0  0  0  0  0
  147.8625  140.2386  154.2335 C   0  0  0  0  0  0  0  0  0  0  0  0
  149.7736  140.9211  155.8040 C   0  0  0  0  0  0  0  0  0  0  0  0
  151.9183  144.8156  160.6941 H   0  0  0  0  0  0  0  0  0  0  0  0
  151.9854  144.5212  158.9557 H   0  0  0  0  0  0  0  0  0  0  0  0
  153.4493  144.3624  159.9442 H   0  0  0  0  0  0  0  0  0  0  0  0
  153.5512  142.3948  158.8208 H   0  0  0  0  0  0  0  0  0  0  0  0
  152.8650  140.9975  159.6263 H   0  0  0  0  0  0  0  0  0  0  0  0
  150.6144  141.9262  158.4147 H   0  0  0  0  0  0  0  0  0  0  0  0
  151.7721  142.6476  157.3259 H   0  0  0  0  0  0  0  0  0  0  0  0
  149.4468  137.3542  159.2083 H   0  0  0  0  0  0  0  0  0  0  0  0
  155.7707  138.4007  159.8442 H   0  0  0  0  0  0  0  0  0  0  0  0
  153.2973  135.7166  161.0894 H   0  0  0  0  0  0  0  0  0  0  0  0
  154.9221  135.7268  160.4817 H   0  0  0  0  0  0  0  0  0  0  0  0
  156.7723  137.0857  161.8103 H   0  0  0  0  0  0  0  0  0  0  0  0
  155.7930  138.5057  161.5786 H   0  0  0  0  0  0  0  0  0  0  0  0
  156.2853  137.4390  164.1384 H   0  0  0  0  0  0  0  0  0  0  0  0
  153.7556  138.3853  163.5918 H   0  0  0  0  0  0  0  0  0  0  0  0
  152.6017  137.1329  163.0183 H   0  0  0  0  0  0  0  0  0  0  0  0
  154.2782  134.7554  163.1678 H   0  0  0  0  0  0  0  0  0  0  0  0
  155.8159  135.4704  163.7609 H   0  0  0  0  0  0  0  0  0  0  0  0
  151.8361  141.0579  155.2967 H   0  0  0  0  0  0  0  0  0  0  0  0
  152.1813  138.7072  155.0144 H   0  0  0  0  0  0  0  0  0  0  0  0
  150.8165  138.2978  156.0465 H   0  0  0  0  0  0  0  0  0  0  0  0
  150.7109  139.1844  153.2236 H   0  0  0  0  0  0  0  0  0  0  0  0
  149.5576  138.2461  154.1552 H   0  0  0  0  0  0  0  0  0  0  0  0
  149.7173  141.1621  153.6847 H   0  0  0  0  0  0  0  0  0  0  0  0
  147.4670  139.5041  154.9356 H   0  0  0  0  0  0  0  0  0  0  0  0
  147.6250  139.8982  153.2255 H   0  0  0  0  0  0  0  0  0  0  0  0
  147.3342  141.1776  154.4000 H   0  0  0  0  0  0  0  0  0  0  0  0
  149.1363  140.4602  156.5589 H   0  0  0  0  0  0  0  0  0  0  0  0
  149.6734  142.0026  155.8973 H   0  0  0  0  0  0  0  0  0  0  0  0
  1  2  1  0  0  0  0
  1 28  1  0  0  0  0
  1 29  1  0  0  0  0
  1 30  1  0  0  0  0
  2  3  1  0  0  0  0
  3  4  1  0  0  0  0
  3 31  1  0  0  0  0
  3 32  1  0  0  0  0
  4  5  1  0  0  0  0
  4 33  1  0  0  0  0
  4 34  1  0  0  0  0
  5  6  1  0  0  0  0
  5 22  1  0  0  0  0
  6 11  1  0  0  0  0
  6  7  2  0  0  0  0
  7  8  1  0  0  0  0
  8  9  2  0  0  0  0
  8 35  1  0  0  0  0
  9 10  1  0  0  0  0
 10 14  1  0  0  0  0
 10 11  2  0  0  0  0
 11 12  1  0  0  0  0
 12 13  2  0  0  0  0
 13 14  1  0  0  0  0
 13 36  1  0  0  0  0
 14 15  1  0  0  0  0
 15 16  1  0  0  0  0
 15 37  1  0  0  0  0
 15 38  1  0  0  0  0
 16 21  1  0  0  0  0
 16 17  1  0  0  0  0
 16 19  1  0  0  0  0
 17 18  1  0  0  0  0
 17 39  1  0  0  0  0
 17 40  1  0  0  0  0
 18 41  1  0  0  0  0
 19 20  1  0  0  0  0
 19 42  1  0  0  0  0
 19 43  1  0  0  0  0
 20 21  1  0  0  0  0
 21 44  1  0  0  0  0
 21 45  1  0  0  0  0
 22 27  1  0  0  0  0
 22 23  1  0  0  0  0
 22 46  1  0  0  0  0
 23 24  1  0  0  0  0
 23 47  1  0  0  0  0
 23 48  1  0  0  0  0
 24 25  1  0  0  0  0
 24 49  1  0  0  0  0
 24 50  1  0  0  0  0
 25 26  1  0  0  0  0
 25 27  1  0  0  0  0
 25 51  1  0  0  0  0
 26 52  1  0  0  0  0
 26 53  1  0  0  0  0
 26 54  1  0  0  0  0
 27 55  1  0  0  0  0
 27 56  1  0  0  0  0
M  END
> <s_m_source_file>
AV-unprocessed.smi

> <i_m_source_file_index>
200

> <i_lp_mmshare_version>
43012

> <i_f3d_flags>
0

> <s_epik_input>
W0NIM11bQ0BASF0oW0NIMl0xKVtDSDJdW0NIMl1bQ0BIXTFOKFtDSDJdW0NIMl1PW0NIM10pYyhuW2NIXW4yKWMoYzIzKW5bY0hdbjNbQ0gyXUM0KFtDSDJdW09IXSlbQ0gyXU9bQ0gyXTQ=

> <s_epik_cmdline>
J2VwaWtfcHl0aG9uJywgJy1waCcsICc3LjAnLCAnLXRuJywgJzgnLCAnLW1hJywgJzIwMCcsICctbWV0YWxfYmluZGluZycsICctaW1hZScsICc8aW5maWxlLm1hZT4nLCAnLW9tYWUnLCAnPG91dGZpbGUubWFlPic=

> <r_lp_tautomer_probability>
1

> <r_epik_Ionization_Penalty>
0.00363087

> <r_epik_Ionization_Penalty_Charging>
0

> <r_epik_Ionization_Penalty_Neutral>
0.00363087

> <r_epik_State_Penalty>
0.0024341

> <r_epik_Charging_Adjusted_Penalty>
0.0024341

> <i_epik_Tot_Q>
0

> <i_epik_Tot_abs_Q>
0

> <r_epik_Metal_State_Penalty>
-0

> <b_epik_Metal_Only>
0

> <s_lp_Force_Field>
OPLS_2005

> <r_lp_Energy>
50.9431

> <b_lp_Chiralities_Consistent>
1

> <s_lp_Variant>
AV-unprocessed.smi:200-2

> <Gold.Version>
5.8.1

> <Gold.Id.Protein>
6NUR|6NUR_protein|mol2

> <Gold.PLP.Fitness>
49.0375

> <Gold.PLP.PLP>
-44.7046

> <Gold.PLP.part.hbond>
-2.0086

> <Gold.PLP.part.metal>
0.0000

> <Gold.PLP.part.buried>
-4.5070

> <Gold.PLP.part.nonpolar>
-36.8555

> <Gold.PLP.part.repulsive>
0.1083

> <Gold.PLP.ligand.clash>
0.0000

> <Gold.PLP.ligand.torsion>
1.5331

> <Gold.PLP.Chemscore.Hbond>
2.0000

> <Gold.PLP.Chemscore.CHOScore>
0.0000

> <Gold.PLP.Chemscore.Metal>
0.0000

> <Gold.Chemscore.Hbonds>
donor molecule, donor type, donor heavy atom, donor atom, acceptor molecule, acceptor atom, score
      P1  H  6896  6907       L1     9  1.00
      P1  H  7997  8009       L1    12  1.00

> <Gold.PLP.Chemscore.Internal.Correction>
1.3991

> <Gold.Rescore>
     Score         DG    S(hbond)    S(metal)    S(lipo)     H(rot)  DE(clash)    DE(int)     intcor
     13.83     -16.33       1.90        0.00     110.08       3.28       0.04       2.45       ----

> <Gold.Chemscore.Fitness>
13.8279

> <Gold.Chemscore.DG>
-16.3256

> <Gold.Chemscore.ZeroCoef>
-5.4800

> <Gold.Chemscore.Hbond>
1.9020

> <Gold.Chemscore.Metal>
0.0000

> <Gold.Chemscore.Lipo>
110.0835

> <Gold.Chemscore.Internal_Hbond>
0.0000

> <Gold.Chemscore.DEClash>
0.0431

> <Gold.Chemscore.DEInternal>
2.4545

> <Gold.Chemscore.Rot>
3.2761

> <Gold.Chemscore.Internal.Correction>
   9.000000E+99

> <Gold.Chemscore.Hbonds>
donor molecule, donor type, donor heavy atom, donor atom, acceptor molecule, acceptor atom, score
      P1  H  6896  6907       L1     9  0.83
      P1  H  7997  8009       L1    12  0.98

> <Gold.Chemscore.Hbond.Weighted>
-6.3526

> <Gold.Chemscore.Metal.Weighted>
-0.0000

> <Gold.Chemscore.Lipo.Weighted>
-12.8798

> <Gold.Chemscore.Internal_Hbond.Weighted>
0.0000

> <Gold.Chemscore.DEClash.Weighted>
0.0431

> <Gold.Chemscore.DEInternal.Weighted>
2.4545

> <Gold.Chemscore.Rot.Weighted>
8.3868

> <Gold.Chemscore.Internal.Correction.Weighted>
   9.000000E+99

> <Gold.Protein.RotatedTorsions>
[ 6907 6896 6895 6894 ] final   -2.80 input  -60.11 | X-H torsion
[ 7974 7965 7964 7962 ] final  138.18 input  175.53 | X-H torsion
[ 8008 7997 7996 7995 ] final  121.75 input   59.86 | X-H torsion
[ 10167 10162 10161 10158 ] final   63.20 input  -65.29 | X-H torsion
[ 10718 10713 10712 10709 ] final  -81.10 input   66.30 | X-H torsion
[ 10763 10752 10751 10750 ] final  176.45 input  -60.55 | X-H torsion
[ 11005 11000 10999 10996 ] final -139.67 input  -57.11 | X-H torsion

> <Gold.Protein.ActiveResidues>
 VAL166  LYS551  ARG553  GLY616  TRP617  ASP618  TYR619  PRO620  LYS621  CYS622 
 ASP623  PHE694  ASN695  SER759  ASP760  ASP761  ALA762  ILE779  LEU786  VAL792 
 PHE793  MET794  SER795  GLU796  ALA797  LYS798  CYS799  TRP800  GLU811  SER814 

> <Gold.Protein.RotatedAtoms>
  151.5240  135.1067  159.9885 H   0  0  0  0  0  0  0  0  0  0  0  0  # atno 6907 bound_to 6896
  152.4608  133.7814  159.6863 H   0  0  0  0  0  0  0  0  0  0  0  0  # atno 6908 bound_to 6896
  150.8569  133.7637  159.3031 H   0  0  0  0  0  0  0  0  0  0  0  0  # atno 6909 bound_to 6896
  144.9397  139.4946  143.5578 H   0  0  0  0  0  0  0  0  0  0  0  0  # atno 7974 bound_to 7965
  156.2699  140.2801  156.1357 H   0  0  0  0  0  0  0  0  0  0  0  0  # atno 8008 bound_to 7997
  155.1007  140.0389  157.2713 H   0  0  0  0  0  0  0  0  0  0  0  0  # atno 8009 bound_to 7997
  154.6818  140.2610  155.6907 H   0  0  0  0  0  0  0  0  0  0  0  0  # atno 8010 bound_to 7997
  140.1357  144.4601  150.6839 H   0  0  0  0  0  0  0  0  0  0  0  0  # atno 10167 bound_to 10162
  156.0057  130.4594  150.3902 H   0  0  0  0  0  0  0  0  0  0  0  0  # atno 10718 bound_to 10713
  154.4813  135.2775  155.1568 H   0  0  0  0  0  0  0  0  0  0  0  0  # atno 10763 bound_to 10752
  154.3277  135.6196  153.5540 H   0  0  0  0  0  0  0  0  0  0  0  0  # atno 10764 bound_to 10752
  152.9875  135.5758  154.5215 H   0  0  0  0  0  0  0  0  0  0  0  0  # atno 10765 bound_to 10752
  140.8497  134.2301  157.4767 H   0  0  0  0  0  0  0  0  0  0  0  0  # atno 11005 bound_to 11000
  146.3281  139.8407  142.8891 LP  0  0  0  0  0  0  0  0  0  0  0  0  # atno 17320 bound_to 7965
  145.3010  141.0194  143.3608 LP  0  0  0  0  0  0  0  0  0  0  0  0  # atno 17321 bound_to 7965
  140.6791  143.2318  151.5431 LP  0  0  0  0  0  0  0  0  0  0  0  0  # atno 17342 bound_to 10162
  139.5497  144.2427  152.1508 LP  0  0  0  0  0  0  0  0  0  0  0  0  # atno 17343 bound_to 10162
  157.1977  131.0430  151.2667 LP  0  0  0  0  0  0  0  0  0  0  0  0  # atno 17370 bound_to 10713
  157.4004  130.7330  149.6763 LP  0  0  0  0  0  0  0  0  0  0  0  0  # atno 17371 bound_to 10713
  139.8704  134.9677  156.4606 LP  0  0  0  0  0  0  0  0  0  0  0  0  # atno 17394 bound_to 11000
  140.8804  133.7922  155.9460 LP  0  0  0  0  0  0  0  0  0  0  0  0  # atno 17395 bound_to 11000

$$$$
