#       Name:                AV-unprocessed.smi:3152
#       Creating user name   scv26
#       Creation time:       Fri Mar 27 17:43:01 2020


#       File generated by GOLD software.
#

@<TRIPOS>MOLECULE
AV-unprocessed.smi:3152
    44    45     1
SMALL
NO_CHARGES


@<TRIPOS>ATOM
      1 ****        -6.4954   1.8561  -0.5191 C.3            1 S1                 0.0000
      2 ****        -5.1403   1.8861   0.1275 C.2            1 S1                 0.0000
      3 ****        -4.8360   1.9221   1.5182 C.2            1 S1                 0.0000
      4 ****        -3.5353   1.9381   1.7603 N.2            1 S1                 0.0000
      5 ****        -2.9648   1.9139   0.5372 N.pl3          1 S1                 0.0000
      6 ****        -1.5200   1.9179   0.4161 C.3            1 S1                 0.0000
      7 ****        -0.9354   0.5109   0.5983 C.3            1 S1                 0.0000
      8 ****         0.5187   0.5323   0.4892 N.3            1 S1                 0.0000
      9 ****         1.1349  -0.7795   0.6797 C.3            1 S1                 0.0000
     10 ****         2.6824  -0.7235   0.6306 C.3            1 S1                 0.0000
     11 ****         3.1027   0.0077   1.7675 O.3            1 S1                 0.0000
     12 ****         3.2953  -2.1368   0.7750 C.3            1 S1                 0.0000
     13 ****         3.1079  -2.9982  -0.4879 C.3            1 S1                 0.0000
     14 ****         3.6536  -2.2894  -1.7372 C.3            1 S1                 0.0000
     15 ****         3.0385  -0.8908  -1.9009 C.3            1 S1                 0.0000
     16 ****         3.2527  -0.0404  -0.6372 C.3            1 S1                 0.0000
     17 ****        -3.9096   1.8808  -0.4661 C.2            1 S1                 0.0000
     18 ****        -7.2572   2.3084   0.1163 H              1 S1                 0.0000
     19 ****        -6.8164   0.8357  -0.7293 H              1 S1                 0.0000
     20 ****        -6.5045   2.3984  -1.4647 H              1 S1                 0.0000
     21 ****        -5.5190   1.9355   2.3546 H              1 S1                 0.0000
     22 ****        -1.2558   2.3157  -0.5646 H              1 S1                 0.0000
     23 ****        -1.1088   2.6045   1.1578 H              1 S1                 0.0000
     24 ****        -1.2279   0.1193   1.5735 H              1 S1                 0.0000
     25 ****        -1.3559  -0.1621  -0.1499 H              1 S1                 0.0000
     26 ****         0.9037   1.1848   1.1651 H              1 S1                 0.0000
     27 ****         0.8200  -1.2007   1.6354 H              1 S1                 0.0000
     28 ****         0.7616  -1.4591  -0.0859 H              1 S1                 0.0000
     29 ****         4.0471   0.0372   1.7726 H              1 S1                 0.0000
     30 ****         4.3649  -2.0515   0.9748 H              1 S1                 0.0000
     31 ****         2.8682  -2.6494   1.6381 H              1 S1                 0.0000
     32 ****         3.6140  -3.9551  -0.3577 H              1 S1                 0.0000
     33 ****         2.0527  -3.2318  -0.6299 H              1 S1                 0.0000
     34 ****         4.7383  -2.2027  -1.6610 H              1 S1                 0.0000
     35 ****         3.4537  -2.8910  -2.6243 H              1 S1                 0.0000
     36 ****         3.4838  -0.3910  -2.7615 H              1 S1                 0.0000
     37 ****         1.9726  -0.9774  -2.1145 H              1 S1                 0.0000
     38 ****         2.8226   0.9514  -0.7789 H              1 S1                 0.0000
     39 ****         4.3243   0.1206  -0.5092 H              1 S1                 0.0000
     40 ****        -3.6304   1.8547  -1.5093 H              1 S1                 0.0000
     41 ****        -3.0779   1.9626   2.6493 LP             1 S1                 0.0000
     42 ****         0.7292   0.8212  -0.4447 LP             1 S1                 0.0000
     43 ****         2.7747  -0.4423   2.5982 LP             1 S1                 0.0000
     44 ****         2.7363   0.9372   1.7252 LP             1 S1                 0.0000
@<TRIPOS>BOND
    1    1    2 1     
    2    1   18 1     
    3    1   19 1     
    4    1   20 1     
    5    2   17 2     
    6    2    3 1     
    7    3    4 2     
    8    3   21 1     
    9    4    5 1     
   10    5    6 1     
   11    5   17 1     
   12    6    7 1     
   13    6   22 1     
   14    6   23 1     
   15    7    8 1     
   16    7   24 1     
   17    7   25 1     
   18    8    9 1     
   19    8   26 1     
   20    9   10 1     
   21    9   27 1     
   22    9   28 1     
   23   10   16 1     
   24   10   11 1     
   25   10   12 1     
   26   11   29 1     
   27   12   13 1     
   28   12   30 1     
   29   12   31 1     
   30   13   14 1     
   31   13   32 1     
   32   13   33 1     
   33   14   15 1     
   34   14   34 1     
   35   14   35 1     
   36   15   16 1     
   37   15   36 1     
   38   15   37 1     
   39   16   38 1     
   40   16   39 1     
   41   17   40 1     
   42    4   41 1     
   43    8   42 1     
   44   11   43 1     
   45   11   44 1     
@<TRIPOS>SUBSTRUCTURE
      1 S1             1
@<TRIPOS>SET
LONE_PAIRS      STATIC     ATOMS    <user>   **** ""
4 41 42 43 44
DONOR_HYDROGENS      STATIC     ATOMS    <user>   **** ""
2 26 29
ATOM$BLUE        STATIC     ATOMS    COLORGROUP SYSTEM
4 41 42 43 44
ATOM$RED        STATIC     ATOMS    COLORGROUP SYSTEM
2 26 29
