AV-unprocessed.smi:2153|AV-procd|sdf|8768|dock7
  -GOLD-   2272011543D 1   1.00000     0.00000
 Structure written by MMmdl.
 48 49  0  0  0  0  0  0  0  0  1 V2000
  147.4769  133.8430  161.4516 C   0  0  0  0  0  0  0  0  0  0  0  0
  146.2507  134.6916  161.8222 C   0  0  2  0  0  0  0  0  0  0  0  0
  144.9971  134.2610  161.0319 C   0  0  0  0  0  0  0  0  0  0  0  0
  143.7649  135.0869  161.4328 C   0  0  0  0  0  0  0  0  0  0  0  0
  144.0312  136.5916  161.2847 C   0  0  0  0  0  0  0  0  0  0  0  0
  145.2767  137.0198  162.0760 C   0  0  0  0  0  0  0  0  0  0  0  0
  146.5199  136.2048  161.6575 C   0  0  2  0  0  0  0  0  0  0  0  0
  146.8469  136.4409  160.2936 O   0  0  0  0  0  0  0  0  0  0  0  0
  148.2227  136.3373  159.9601 C   0  0  0  0  0  0  0  0  0  0  0  0
  148.3469  135.9896  158.4680 C   0  0  0  0  0  0  0  0  0  0  0  0
  149.1165  136.9959  157.7419 N   0  0  0  0  0  0  0  0  0  0  0  0
  150.3838  137.3435  158.0150 C   0  0  0  0  0  0  0  0  0  0  0  0
  151.0218  136.8787  158.9595 O   0  0  0  0  0  0  0  0  0  0  0  0
  151.0238  138.3894  157.0941 C   0  0  0  0  0  0  0  0  0  0  0  0
  151.0905  139.7103  157.7326 N   0  0  0  0  0  0  0  0  0  0  0  0
  150.4426  140.7788  157.1391 C   0  0  0  0  0  0  0  0  0  0  0  0
  150.4674  142.0355  157.6338 C   0  0  0  0  0  0  0  0  0  0  0  0
  151.2084  142.3452  158.8497 C   0  0  0  0  0  0  0  0  0  0  0  0
  151.2541  143.4729  159.3426 O   0  0  0  0  0  0  0  0  0  0  0  0
  151.8706  141.2393  159.4319 N   0  0  0  0  0  0  0  0  0  0  0  0
  152.6231  141.4756  160.6467 C   0  0  0  0  0  0  0  0  0  0  0  0
  151.8139  139.9196  158.9280 C   0  0  0  0  0  0  0  0  0  0  0  0
  152.3664  138.9767  159.4989 O   0  0  0  0  0  0  0  0  0  0  0  0
  147.7322  133.9487  160.3967 H   0  0  0  0  0  0  0  0  0  0  0  0
  147.2929  132.7856  161.6426 H   0  0  0  0  0  0  0  0  0  0  0  0
  148.3486  134.1366  162.0369 H   0  0  0  0  0  0  0  0  0  0  0  0
  146.0488  134.5096  162.8787 H   0  0  0  0  0  0  0  0  0  0  0  0
  145.1749  134.3711  159.9613 H   0  0  0  0  0  0  0  0  0  0  0  0
  144.7949  133.2029  161.2007 H   0  0  0  0  0  0  0  0  0  0  0  0
  142.9098  134.7980  160.8216 H   0  0  0  0  0  0  0  0  0  0  0  0
  143.4959  134.8639  162.4658 H   0  0  0  0  0  0  0  0  0  0  0  0
  144.1737  136.8323  160.2317 H   0  0  0  0  0  0  0  0  0  0  0  0
  143.1618  137.1582  161.6186 H   0  0  0  0  0  0  0  0  0  0  0  0
  145.4463  138.0888  161.9535 H   0  0  0  0  0  0  0  0  0  0  0  0
  145.0925  136.8699  163.1405 H   0  0  0  0  0  0  0  0  0  0  0  0
  147.3675  136.4812  162.2873 H   0  0  0  0  0  0  0  0  0  0  0  0
  148.7584  137.2623  160.1716 H   0  0  0  0  0  0  0  0  0  0  0  0
  148.6804  135.5502  160.5607 H   0  0  0  0  0  0  0  0  0  0  0  0
  148.8667  135.0376  158.3612 H   0  0  0  0  0  0  0  0  0  0  0  0
  147.3610  135.8552  158.0198 H   0  0  0  0  0  0  0  0  0  0  0  0
  148.6618  137.4383  156.9566 H   0  0  0  0  0  0  0  0  0  0  0  0
  152.0236  138.0655  156.7999 H   0  0  0  0  0  0  0  0  0  0  0  0
  150.4513  138.4418  156.1664 H   0  0  0  0  0  0  0  0  0  0  0  0
  149.8888  140.6032  156.2282 H   0  0  0  0  0  0  0  0  0  0  0  0
  149.9383  142.8239  157.1190 H   0  0  0  0  0  0  0  0  0  0  0  0
  153.4192  140.7364  160.7422 H   0  0  0  0  0  0  0  0  0  0  0  0
  151.9167  141.4099  161.4750 H   0  0  0  0  0  0  0  0  0  0  0  0
  153.0879  142.4615  160.5934 H   0  0  0  0  0  0  0  0  0  0  0  0
  1  2  1  0  0  0  0
  1 24  1  0  0  0  0
  1 25  1  0  0  0  0
  1 26  1  0  0  0  0
  2  7  1  0  0  0  0
  2  3  1  0  0  0  0
  2 27  1  0  0  0  0
  3  4  1  0  0  0  0
  3 28  1  0  0  0  0
  3 29  1  0  0  0  0
  4  5  1  0  0  0  0
  4 30  1  0  0  0  0
  4 31  1  0  0  0  0
  5  6  1  0  0  0  0
  5 32  1  0  0  0  0
  5 33  1  0  0  0  0
  6  7  1  0  0  0  0
  6 34  1  0  0  0  0
  6 35  1  0  0  0  0
  7  8  1  0  0  0  0
  7 36  1  0  0  0  0
  8  9  1  0  0  0  0
  9 10  1  0  0  0  0
  9 37  1  0  0  0  0
  9 38  1  0  0  0  0
 10 11  1  0  0  0  0
 10 39  1  0  0  0  0
 10 40  1  0  0  0  0
 11 12  1  0  0  0  0
 11 41  1  0  0  0  0
 12 13  2  0  0  0  0
 12 14  1  0  0  0  0
 14 15  1  0  0  0  0
 14 42  1  0  0  0  0
 14 43  1  0  0  0  0
 15 22  1  0  0  0  0
 15 16  1  0  0  0  0
 16 17  2  0  0  0  0
 16 44  1  0  0  0  0
 17 18  1  0  0  0  0
 17 45  1  0  0  0  0
 18 19  2  0  0  0  0
 18 20  1  0  0  0  0
 20 21  1  0  0  0  0
 20 22  1  0  0  0  0
 21 46  1  0  0  0  0
 21 47  1  0  0  0  0
 21 48  1  0  0  0  0
 22 23  2  0  0  0  0
M  END
> <s_m_source_file>
AV-unprocessed.smi

> <i_m_source_file_index>
2153

> <i_lp_mmshare_version>
43012

> <i_f3d_flags>
0

> <s_epik_input>
W0NIM11bQ0BASF0xW0NIMl1bQ0gyXVtDSDJdW0NIMl1bQ0BIXTFPW0NIMl1bQ0gyXVtOSF1DKD1PKVtDSDJdbjJbY0hdW2NIXWMoPU8pbihbQ0gzXSljMj1P

> <s_epik_cmdline>
J2VwaWtfcHl0aG9uJywgJy1waCcsICc3LjAnLCAnLXRuJywgJzgnLCAnLW1hJywgJzIwMCcsICctbWV0YWxfYmluZGluZycsICctaW1hZScsICc8aW5maWxlLm1hZT4nLCAnLW9tYWUnLCAnPG91dGZpbGUubWFlPic=

> <r_lp_tautomer_probability>
1

> <r_epik_Ionization_Penalty>
4.02205e-08

> <r_epik_Ionization_Penalty_Charging>
1.23606e-08

> <r_epik_Ionization_Penalty_Neutral>
2.78599e-08

> <r_epik_State_Penalty>
-0

> <r_epik_Charging_Adjusted_Penalty>
1.23606e-08

> <i_epik_Tot_Q>
0

> <i_epik_Tot_abs_Q>
0

> <r_epik_Metal_State_Penalty>
-0

> <b_epik_Metal_Only>
0

> <s_lp_Force_Field>
OPLS_2005

> <r_lp_Energy>
17.534

> <b_lp_Chiralities_Consistent>
1

> <s_lp_Variant>
AV-unprocessed.smi:2153-3

> <Gold.Version>
5.8.1

> <Gold.Id.Protein>
6NUR|6NUR_protein|mol2

> <Gold.PLP.Fitness>
44.0024

> <Gold.PLP.PLP>
-40.3952

> <Gold.PLP.part.hbond>
-2.0728

> <Gold.PLP.part.metal>
0.0000

> <Gold.PLP.part.buried>
-5.9941

> <Gold.PLP.part.nonpolar>
-32.6902

> <Gold.PLP.part.repulsive>
0.1039

> <Gold.PLP.ligand.clash>
0.0000

> <Gold.PLP.ligand.torsion>
1.0863

> <Gold.PLP.Chemscore.Hbond>
1.9000

> <Gold.PLP.Chemscore.CHOScore>
0.0000

> <Gold.PLP.Chemscore.Metal>
0.0000

> <Gold.Chemscore.Hbonds>
donor molecule, donor type, donor heavy atom, donor atom, acceptor molecule, acceptor atom, score
      P1  H  6896  6907       L1    13  1.00

> <Gold.PLP.Chemscore.Internal.Correction>
0.0798

> <Gold.Rescore>
     Score         DG    S(hbond)    S(metal)    S(lipo)     H(rot)  DE(clash)    DE(int)     intcor
     10.19     -13.15       0.97        0.00      85.95       2.20       0.19       2.78       ----

> <Gold.Chemscore.Fitness>
10.1875

> <Gold.Chemscore.DG>
-13.1550

> <Gold.Chemscore.ZeroCoef>
-5.4800

> <Gold.Chemscore.Hbond>
0.9709

> <Gold.Chemscore.Metal>
0.0000

> <Gold.Chemscore.Lipo>
85.9473

> <Gold.Chemscore.Internal_Hbond>
0.0000

> <Gold.Chemscore.DEClash>
0.1875

> <Gold.Chemscore.DEInternal>
2.7800

> <Gold.Chemscore.Rot>
2.1968

> <Gold.Chemscore.Internal.Correction>
   9.000000E+99

> <Gold.Chemscore.Hbonds>
donor molecule, donor type, donor heavy atom, donor atom, acceptor molecule, acceptor atom, score
      P1  H  6896  6907       L1    13  0.94

> <Gold.Chemscore.Hbond.Weighted>
-3.2429

> <Gold.Chemscore.Metal.Weighted>
-0.0000

> <Gold.Chemscore.Lipo.Weighted>
-10.0558

> <Gold.Chemscore.Internal_Hbond.Weighted>
0.0000

> <Gold.Chemscore.DEClash.Weighted>
0.1875

> <Gold.Chemscore.DEInternal.Weighted>
2.7800

> <Gold.Chemscore.Rot.Weighted>
5.6238

> <Gold.Chemscore.Internal.Correction.Weighted>
   9.000000E+99

> <Gold.Protein.RotatedTorsions>
[ 6907 6896 6895 6894 ] final  -18.96 input  -60.11 | X-H torsion
[ 7974 7965 7964 7962 ] final    7.89 input  175.53 | X-H torsion
[ 8008 7997 7996 7995 ] final  132.72 input   59.86 | X-H torsion
[ 10167 10162 10161 10158 ] final -101.53 input  -65.29 | X-H torsion
[ 10718 10713 10712 10709 ] final   71.33 input   66.30 | X-H torsion
[ 10763 10752 10751 10750 ] final  154.12 input  -60.55 | X-H torsion
[ 11005 11000 10999 10996 ] final   57.62 input  -57.11 | X-H torsion

> <Gold.Protein.ActiveResidues>
 VAL166  LYS551  ARG553  GLY616  TRP617  ASP618  TYR619  PRO620  LYS621  CYS622 
 ASP623  PHE694  ASN695  SER759  ASP760  ASP761  ALA762  ILE779  LEU786  VAL792 
 PHE793  MET794  SER795  GLU796  ALA797  LYS798  CYS799  TRP800  GLU811  SER814 

> <Gold.Protein.RotatedAtoms>
  151.2703  135.0682  159.9131 H   0  0  0  0  0  0  0  0  0  0  0  0  # atno 6907 bound_to 6896
  152.5351  134.0137  159.7960 H   0  0  0  0  0  0  0  0  0  0  0  0  # atno 6908 bound_to 6896
  151.0374  133.5686  159.2685 H   0  0  0  0  0  0  0  0  0  0  0  0  # atno 6909 bound_to 6896
  146.2422  140.0016  142.8415 H   0  0  0  0  0  0  0  0  0  0  0  0  # atno 7974 bound_to 7965
  156.2985  140.2539  156.3136 H   0  0  0  0  0  0  0  0  0  0  0  0  # atno 8008 bound_to 7997
  154.9303  140.0398  157.2063 H   0  0  0  0  0  0  0  0  0  0  0  0  # atno 8009 bound_to 7997
  154.8225  140.2862  155.5781 H   0  0  0  0  0  0  0  0  0  0  0  0  # atno 8010 bound_to 7997
  140.2403  143.3544  152.0808 H   0  0  0  0  0  0  0  0  0  0  0  0  # atno 10167 bound_to 10162
  157.6446  130.9523  150.0774 H   0  0  0  0  0  0  0  0  0  0  0  0  # atno 10718 bound_to 10713
  154.1472  135.2817  155.3145 H   0  0  0  0  0  0  0  0  0  0  0  0  # atno 10763 bound_to 10752
  154.6244  135.5456  153.7614 H   0  0  0  0  0  0  0  0  0  0  0  0  # atno 10764 bound_to 10752
  153.0232  135.6447  154.1617 H   0  0  0  0  0  0  0  0  0  0  0  0  # atno 10765 bound_to 10752
  140.0438  134.5834  155.9348 H   0  0  0  0  0  0  0  0  0  0  0  0  # atno 11005 bound_to 11000
  145.1410  140.9571  143.4488 LP  0  0  0  0  0  0  0  0  0  0  0  0  # atno 17320 bound_to 7965
  145.0296  139.3353  143.6031 LP  0  0  0  0  0  0  0  0  0  0  0  0  # atno 17321 bound_to 7965
  139.5080  144.6841  151.5932 LP  0  0  0  0  0  0  0  0  0  0  0  0  # atno 17342 bound_to 10162
  140.6119  143.9421  150.6459 LP  0  0  0  0  0  0  0  0  0  0  0  0  # atno 17343 bound_to 10162
  156.1760  130.3648  149.9099 LP  0  0  0  0  0  0  0  0  0  0  0  0  # atno 17370 bound_to 10713
  156.7063  130.8953  151.3605 LP  0  0  0  0  0  0  0  0  0  0  0  0  # atno 17371 bound_to 10713
  141.1897  133.6566  156.5378 LP  0  0  0  0  0  0  0  0  0  0  0  0  # atno 17394 bound_to 11000
  140.4026  134.7343  157.4788 LP  0  0  0  0  0  0  0  0  0  0  0  0  # atno 17395 bound_to 11000

$$$$
