AV-unprocessed.smi:1329|AV-procd|sdf|5484|dock3
  -GOLD-   22720 5 63D 1   1.00000     0.00000
 Structure written by MMmdl.
 42 43  0  0  0  0  0  0  0  0  1 V2000
  146.5555  137.4807  162.8282 C   0  0  0  0  0  0  0  0  0  0  0  0
  147.1423  136.6023  161.7564 C   0  0  0  0  0  0  0  0  0  0  0  0
  147.7274  137.2001  160.7711 N   0  0  0  0  0  0  0  0  0  0  0  0
  148.2954  136.4884  159.7331 N   0  0  0  0  0  0  0  0  0  0  0  0
  148.8959  137.3309  158.6913 C   0  0  0  0  0  0  0  0  0  0  0  0
  150.4395  137.3172  158.7570 C   0  0  1  0  0  0  0  0  0  0  0  0
  150.8828  136.0805  158.2334 O   0  0  0  0  0  0  0  0  0  0  0  0
  151.0639  138.4263  157.8939 C   0  0  0  0  0  0  0  0  0  0  0  0
  150.8098  139.6808  158.5047 O   0  0  0  0  0  0  0  0  0  0  0  0
  150.7616  140.7487  157.5746 C   0  0  0  0  0  0  0  0  0  0  0  0
  151.3951  142.0006  158.1460 C   0  0  0  0  0  0  0  0  0  0  0  0
  152.0403  141.9618  159.3999 C   0  0  0  0  0  0  0  0  0  0  0  0
  152.6341  143.1261  159.9255 C   0  0  0  0  0  0  0  0  0  0  0  0
  152.5852  144.3318  159.1990 C   0  0  0  0  0  0  0  0  0  0  0  0
  151.9433  144.3731  157.9461 C   0  0  0  0  0  0  0  0  0  0  0  0
  151.3500  143.2089  157.4197 C   0  0  0  0  0  0  0  0  0  0  0  0
  148.3053  135.1278  159.6381 C   0  0  0  0  0  0  0  0  0  0  0  0
  148.8209  134.5334  158.6903 O   0  0  0  0  0  0  0  0  0  0  0  0
  147.6426  134.4566  160.7585 C   0  0  0  0  0  0  0  0  0  0  0  0
  147.6263  133.0305  160.6967 C   0  0  0  0  0  0  0  0  0  0  0  0
  147.6258  131.8735  160.6635 N   0  0  0  0  0  0  0  0  0  0  0  0
  147.0787  135.1445  161.7826 C   0  0  0  0  0  0  0  0  0  0  0  0
  146.3748  134.4955  162.9666 C   0  0  0  0  0  0  0  0  0  0  0  0
  147.0275  137.2844  163.7911 H   0  0  0  0  0  0  0  0  0  0  0  0
  145.4853  137.3013  162.9329 H   0  0  0  0  0  0  0  0  0  0  0  0
  146.6904  138.5402  162.6054 H   0  0  0  0  0  0  0  0  0  0  0  0
  148.5513  137.0325  157.6988 H   0  0  0  0  0  0  0  0  0  0  0  0
  148.5264  138.3503  158.8165 H   0  0  0  0  0  0  0  0  0  0  0  0
  150.7790  137.4281  159.7877 H   0  0  0  0  0  0  0  0  0  0  0  0
  150.1261  135.5454  158.0493 H   0  0  0  0  0  0  0  0  0  0  0  0
  152.1330  138.2616  157.7464 H   0  0  0  0  0  0  0  0  0  0  0  0
  150.5993  138.4333  156.9067 H   0  0  0  0  0  0  0  0  0  0  0  0
  151.2868  140.4705  156.6594 H   0  0  0  0  0  0  0  0  0  0  0  0
  149.7270  140.9596  157.2985 H   0  0  0  0  0  0  0  0  0  0  0  0
  152.0843  141.0395  159.9606 H   0  0  0  0  0  0  0  0  0  0  0  0
  153.1282  143.0940  160.8853 H   0  0  0  0  0  0  0  0  0  0  0  0
  153.0409  145.2243  159.6017 H   0  0  0  0  0  0  0  0  0  0  0  0
  151.9073  145.2970  157.3877 H   0  0  0  0  0  0  0  0  0  0  0  0
  150.8624  143.2447  156.4565 H   0  0  0  0  0  0  0  0  0  0  0  0
  146.4073  133.4074  162.9208 H   0  0  0  0  0  0  0  0  0  0  0  0
  145.3259  134.7917  162.9950 H   0  0  0  0  0  0  0  0  0  0  0  0
  146.8430  134.7961  163.9042 H   0  0  0  0  0  0  0  0  0  0  0  0
  1  2  1  0  0  0  0
  1 24  1  0  0  0  0
  1 25  1  0  0  0  0
  1 26  1  0  0  0  0
  2 22  1  0  0  0  0
  2  3  2  0  0  0  0
  3  4  1  0  0  0  0
  4  5  1  0  0  0  0
  4 17  1  0  0  0  0
  5  6  1  0  0  0  0
  5 27  1  0  0  0  0
  5 28  1  0  0  0  0
  6  7  1  0  0  0  0
  6  8  1  0  0  0  0
  6 29  1  0  0  0  0
  7 30  1  0  0  0  0
  8  9  1  0  0  0  0
  8 31  1  0  0  0  0
  8 32  1  0  0  0  0
  9 10  1  0  0  0  0
 10 11  1  0  0  0  0
 10 33  1  0  0  0  0
 10 34  1  0  0  0  0
 11 16  1  0  0  0  0
 11 12  2  0  0  0  0
 12 13  1  0  0  0  0
 12 35  1  0  0  0  0
 13 14  2  0  0  0  0
 13 36  1  0  0  0  0
 14 15  1  0  0  0  0
 14 37  1  0  0  0  0
 15 16  2  0  0  0  0
 15 38  1  0  0  0  0
 16 39  1  0  0  0  0
 17 18  2  0  0  0  0
 17 19  1  0  0  0  0
 19 20  1  0  0  0  0
 19 22  2  0  0  0  0
 20 21  3  0  0  0  0
 22 23  1  0  0  0  0
 23 40  1  0  0  0  0
 23 41  1  0  0  0  0
 23 42  1  0  0  0  0
M  END
> <s_m_source_file>
AV-unprocessed.smi

> <i_m_source_file_index>
1329

> <i_lp_mmshare_version>
43012

> <i_f3d_flags>
0

> <s_epik_input>
TiNDYyhjMVtDSDNdKWMoPU8pbihuYzFbQ0gzXSlbQ0gyXVtDQEhdKFtPSF0pW0NIMl1PW0NIMl1jMltjSF1bY0hdW2NIXVtjSF1bY0hdMg==

> <s_epik_cmdline>
J2VwaWtfcHl0aG9uJywgJy1waCcsICc3LjAnLCAnLXRuJywgJzgnLCAnLW1hJywgJzIwMCcsICctbWV0YWxfYmluZGluZycsICctaW1hZScsICc8aW5maWxlLm1hZT4nLCAnLW9tYWUnLCAnPG91dGZpbGUubWFlPic=

> <r_lp_tautomer_probability>
1

> <r_epik_Ionization_Penalty>
6.13319e-08

> <r_epik_Ionization_Penalty_Charging>
2.19172e-10

> <r_epik_Ionization_Penalty_Neutral>
6.11128e-08

> <r_epik_State_Penalty>
-0

> <r_epik_Charging_Adjusted_Penalty>
2.19172e-10

> <i_epik_Tot_Q>
0

> <i_epik_Tot_abs_Q>
0

> <r_epik_Metal_State_Penalty>
-0

> <b_epik_Metal_Only>
0

> <s_lp_Force_Field>
OPLS_2005

> <r_lp_Energy>
31.6334

> <b_lp_Chiralities_Consistent>
1

> <s_lp_Variant>
AV-unprocessed.smi:1329-2

> <Gold.Version>
5.8.1

> <Gold.Id.Protein>
6NUR|6NUR_protein|mol2

> <Gold.PLP.Fitness>
55.0650

> <Gold.PLP.PLP>
-48.0605

> <Gold.PLP.part.hbond>
-4.0000

> <Gold.PLP.part.metal>
0.0000

> <Gold.PLP.part.buried>
-3.8773

> <Gold.PLP.part.nonpolar>
-41.0515

> <Gold.PLP.part.repulsive>
0.0000

> <Gold.PLP.ligand.clash>
0.0000

> <Gold.PLP.ligand.torsion>
0.7786

> <Gold.PLP.Chemscore.Hbond>
2.7882

> <Gold.PLP.Chemscore.CHOScore>
0.0000

> <Gold.PLP.Chemscore.Metal>
0.0000

> <Gold.Chemscore.Hbonds>
donor molecule, donor type, donor heavy atom, donor atom, acceptor molecule, acceptor atom, score
      P1  H  6896  6908       L1    18  0.98
      P1  H  6896  6909       L1     7  0.08
      P1  H  6931  6943       L1     3  0.71
      P1  H  6934  6947       L1     3  0.90

> <Gold.PLP.Chemscore.Internal.Correction>
0.1972

> <Gold.Rescore>
     Score         DG    S(hbond)    S(metal)    S(lipo)     H(rot)  DE(clash)    DE(int)     intcor
     16.87     -19.56       1.77        0.00     123.95       2.48       0.25       2.45       ----

> <Gold.Chemscore.Fitness>
16.8718

> <Gold.Chemscore.DG>
-19.5634

> <Gold.Chemscore.ZeroCoef>
-5.4800

> <Gold.Chemscore.Hbond>
1.7736

> <Gold.Chemscore.Metal>
0.0000

> <Gold.Chemscore.Lipo>
123.9522

> <Gold.Chemscore.Internal_Hbond>
0.0000

> <Gold.Chemscore.DEClash>
0.2463

> <Gold.Chemscore.DEInternal>
2.4452

> <Gold.Chemscore.Rot>
2.4777

> <Gold.Chemscore.Internal.Correction>
   9.000000E+99

> <Gold.Chemscore.Hbonds>
donor molecule, donor type, donor heavy atom, donor atom, acceptor molecule, acceptor atom, score
      P1  H  6896  6908       L1    18  0.44
      P1  H  6896  6909       L1     7  0.01
      P1  H  6931  6943       L1     3  0.10
      P1  H  6934  6947       L1     3  0.44

> <Gold.Chemscore.Hbond.Weighted>
-5.9238

> <Gold.Chemscore.Metal.Weighted>
-0.0000

> <Gold.Chemscore.Lipo.Weighted>
-14.5024

> <Gold.Chemscore.Internal_Hbond.Weighted>
0.0000

> <Gold.Chemscore.DEClash.Weighted>
0.2463

> <Gold.Chemscore.DEInternal.Weighted>
2.4452

> <Gold.Chemscore.Rot.Weighted>
6.3428

> <Gold.Chemscore.Internal.Correction.Weighted>
   9.000000E+99

> <Gold.Protein.RotatedTorsions>
[ 6907 6896 6895 6894 ] final  132.05 input  -60.11 | X-H torsion
[ 7974 7965 7964 7962 ] final   50.94 input  175.53 | X-H torsion
[ 8008 7997 7996 7995 ] final -164.37 input   59.86 | X-H torsion
[ 10167 10162 10161 10158 ] final -179.15 input  -65.29 | X-H torsion
[ 10718 10713 10712 10709 ] final  111.80 input   66.30 | X-H torsion
[ 10763 10752 10751 10750 ] final  167.63 input  -60.55 | X-H torsion
[ 11005 11000 10999 10996 ] final  177.97 input  -57.11 | X-H torsion

> <Gold.Protein.ActiveResidues>
 VAL166  LYS551  ARG553  GLY616  TRP617  ASP618  TYR619  PRO620  LYS621  CYS622 
 ASP623  PHE694  ASN695  SER759  ASP760  ASP761  ALA762  ILE779  LEU786  VAL792 
 PHE793  MET794  SER795  GLU796  ALA797  LYS798  CYS799  TRP800  GLU811  SER814 

> <Gold.Protein.RotatedAtoms>
  152.3364  133.6016  159.5845 H   0  0  0  0  0  0  0  0  0  0  0  0  # atno 6907 bound_to 6896
  150.7453  133.9789  159.3579 H   0  0  0  0  0  0  0  0  0  0  0  0  # atno 6908 bound_to 6896
  151.7658  135.0799  160.0403 H   0  0  0  0  0  0  0  0  0  0  0  0  # atno 6909 bound_to 6896
  145.9962  139.4391  143.0043 H   0  0  0  0  0  0  0  0  0  0  0  0  # atno 7974 bound_to 7965
  155.8346  140.0939  157.1771 H   0  0  0  0  0  0  0  0  0  0  0  0  # atno 8008 bound_to 7997
  154.3980  140.1412  156.3716 H   0  0  0  0  0  0  0  0  0  0  0  0  # atno 8009 bound_to 7997
  155.8129  140.3449  155.5471 H   0  0  0  0  0  0  0  0  0  0  0  0  # atno 8010 bound_to 7997
  139.5399  144.2391  152.0874 H   0  0  0  0  0  0  0  0  0  0  0  0  # atno 10167 bound_to 10162
  157.6426  131.0957  150.6802 H   0  0  0  0  0  0  0  0  0  0  0  0  # atno 10718 bound_to 10713
  154.3567  135.2753  155.2342 H   0  0  0  0  0  0  0  0  0  0  0  0  # atno 10763 bound_to 10752
  154.4548  135.5922  153.6219 H   0  0  0  0  0  0  0  0  0  0  0  0  # atno 10764 bound_to 10752
  152.9846  135.6051  154.3783 H   0  0  0  0  0  0  0  0  0  0  0  0  # atno 10765 bound_to 10752
  140.3900  134.6871  157.4502 H   0  0  0  0  0  0  0  0  0  0  0  0  # atno 11005 bound_to 11000
  145.7555  140.9956  143.1227 LP  0  0  0  0  0  0  0  0  0  0  0  0  # atno 17320 bound_to 7965
  144.6904  139.9267  143.7470 LP  0  0  0  0  0  0  0  0  0  0  0  0  # atno 17321 bound_to 7965
  140.1868  144.4791  150.6499 LP  0  0  0  0  0  0  0  0  0  0  0  0  # atno 17342 bound_to 10162
  140.6624  143.2256  151.5823 LP  0  0  0  0  0  0  0  0  0  0  0  0  # atno 17343 bound_to 10162
  156.7123  130.4655  149.5544 LP  0  0  0  0  0  0  0  0  0  0  0  0  # atno 17370 bound_to 10713
  156.1721  130.6444  151.0850 LP  0  0  0  0  0  0  0  0  0  0  0  0  # atno 17371 bound_to 10713
  140.0414  134.6262  155.8976 LP  0  0  0  0  0  0  0  0  0  0  0  0  # atno 17394 bound_to 11000
  141.1894  133.6565  156.5366 LP  0  0  0  0  0  0  0  0  0  0  0  0  # atno 17395 bound_to 11000

$$$$
