AV-unprocessed.smi:312|AV-procd|sdf|2305|dock3
  -GOLD-   2262022203D 1   1.00000     0.00000
 Structure written by MMmdl.
 36 37  0  0  0  0  0  0  0  0  2 V2000
  149.1659  141.5855  157.2842 C   0  0  0  0  0  0  0  0  0  0  0  0
  150.4463  141.8430  156.4785 C   0  0  2  0  0  0  0  0  0  0  0  0
  151.0027  140.5332  155.8791 C   0  0  0  0  0  0  0  0  0  0  0  0
  150.0751  139.8949  154.9387 N   0  0  0  0  0  0  0  0  0  0  0  0
  148.8865  140.3980  154.4754 C   0  0  0  0  0  0  0  0  0  0  0  0
  148.3774  139.4639  153.6106 C   0  0  0  0  0  0  0  0  0  0  0  0
  149.2728  138.4281  153.5873 N   0  3  0  0  0  0  0  0  0  0  0  0
  150.3018  138.6898  154.3995 C   0  0  0  0  0  0  0  0  0  0  0  0
  151.4300  142.4855  157.3496 N   0  0  0  0  0  0  0  0  0  0  0  0
  151.7168  142.1232  158.6103 C   0  0  0  0  0  0  0  0  0  0  0  0
  151.1593  141.1876  159.1857 O   0  0  0  0  0  0  0  0  0  0  0  0
  152.7842  142.9590  159.3354 C   0  0  0  0  0  0  0  0  0  0  0  0
  152.8447  142.6428  160.8474 C   0  0  0  0  0  0  0  0  0  0  0  0
  152.3668  143.8979  161.5930 C   0  0  0  0  0  0  0  0  0  0  0  0
  151.7074  144.7858  160.5396 C   0  0  0  0  0  0  0  0  0  0  0  0
  152.4689  144.4633  159.2553 C   0  0  0  0  0  0  0  0  0  0  0  0
  148.3917  141.1399  156.6589 H   0  0  0  0  0  0  0  0  0  0  0  0
  148.7640  142.5141  157.6910 H   0  0  0  0  0  0  0  0  0  0  0  0
  149.3498  140.9078  158.1186 H   0  0  0  0  0  0  0  0  0  0  0  0
  150.1813  142.5193  155.6636 H   0  0  0  0  0  0  0  0  0  0  0  0
  151.9528  140.7079  155.3714 H   0  0  0  0  0  0  0  0  0  0  0  0
  151.1979  139.8095  156.6715 H   0  0  0  0  0  0  0  0  0  0  0  0
  148.5057  141.3618  154.7812 H   0  0  0  0  0  0  0  0  0  0  0  0
  147.4698  139.4594  153.0245 H   0  0  0  0  0  0  0  0  0  0  0  0
  151.1539  138.0574  154.5746 H   0  0  0  0  0  0  0  0  0  0  0  0
  151.9400  143.2646  156.9585 H   0  0  0  0  0  0  0  0  0  0  0  0
  153.7546  142.7648  158.8756 H   0  0  0  0  0  0  0  0  0  0  0  0
  152.2210  141.7875  161.1134 H   0  0  0  0  0  0  0  0  0  0  0  0
  153.8608  142.3874  161.1502 H   0  0  0  0  0  0  0  0  0  0  0  0
  151.6893  143.6613  162.4141 H   0  0  0  0  0  0  0  0  0  0  0  0
  153.2271  144.4167  162.0180 H   0  0  0  0  0  0  0  0  0  0  0  0
  150.6575  144.5124  160.4283 H   0  0  0  0  0  0  0  0  0  0  0  0
  151.7495  145.8441  160.7982 H   0  0  0  0  0  0  0  0  0  0  0  0
  153.4020  145.0280  159.2325 H   0  0  0  0  0  0  0  0  0  0  0  0
  151.9038  144.7424  158.3646 H   0  0  0  0  0  0  0  0  0  0  0  0
  149.1732  137.5854  153.0352 H   0  0  0  0  0  0  0  0  0  0  0  0
  1  2  1  0  0  0  0
  1 17  1  0  0  0  0
  1 18  1  0  0  0  0
  1 19  1  0  0  0  0
  2  3  1  0  0  0  0
  2  9  1  0  0  0  0
  2 20  1  0  0  0  0
  3  4  1  0  0  0  0
  3 21  1  0  0  0  0
  3 22  1  0  0  0  0
  4  8  1  0  0  0  0
  4  5  1  0  0  0  0
  5  6  2  0  0  0  0
  5 23  1  0  0  0  0
  6  7  1  0  0  0  0
  6 24  1  0  0  0  0
  7  8  2  0  0  0  0
  7 36  1  0  0  0  0
  8 25  1  0  0  0  0
  9 10  1  0  0  0  0
  9 26  1  0  0  0  0
 10 11  2  0  0  0  0
 10 12  1  0  0  0  0
 12 16  1  0  0  0  0
 12 13  1  0  0  0  0
 12 27  1  0  0  0  0
 13 14  1  0  0  0  0
 13 28  1  0  0  0  0
 13 29  1  0  0  0  0
 14 15  1  0  0  0  0
 14 30  1  0  0  0  0
 14 31  1  0  0  0  0
 15 16  1  0  0  0  0
 15 32  1  0  0  0  0
 15 33  1  0  0  0  0
 16 34  1  0  0  0  0
 16 35  1  0  0  0  0
M  CHG  1   7   1
M  END
> <s_m_source_file>
AV-unprocessed.smi

> <i_m_source_file_index>
312

> <i_lp_mmshare_version>
43012

> <i_f3d_flags>
0

> <s_epik_input>
W2NIXTFuW2NIXVtjSF1uMVtDSDJdW0NAQEhdKFtDSDNdKVtOSF1DKD1PKVtDSF0yW0NIMl1bQ0gyXVtDSDJdW0NIMl0y

> <s_epik_cmdline>
J2VwaWtfcHl0aG9uJywgJy1waCcsICc3LjAnLCAnLXRuJywgJzgnLCAnLW1hJywgJzIwMCcsICctbWV0YWxfYmluZGluZycsICctaW1hZScsICc8aW5maWxlLm1hZT4nLCAnLW9tYWUnLCAnPG91dGZpbGUubWFlPic=

> <r_lp_tautomer_probability>
1

> <r_epik_Ionization_Penalty>
0.244425

> <r_epik_Ionization_Penalty_Charging>
0

> <r_epik_Ionization_Penalty_Neutral>
0.244425

> <r_epik_State_Penalty>
0.23553

> <r_epik_Charging_Adjusted_Penalty>
0.23553

> <i_epik_Tot_Q>
1

> <i_epik_Tot_abs_Q>
1

> <r_epik_Metal_State_Penalty>
0.528799

> <b_epik_Metal_Only>
0

> <s_lp_Force_Field>
OPLS_2005

> <r_lp_Energy>
22.6864

> <b_lp_Chiralities_Consistent>
1

> <s_lp_Variant>
AV-unprocessed.smi:312-1

> <Gold.Version>
5.8.1

> <Gold.Id.Protein>
6NUR|6NUR_protein|mol2

> <Gold.PLP.Fitness>
45.3962

> <Gold.PLP.PLP>
-40.2464

> <Gold.PLP.part.hbond>
-2.0000

> <Gold.PLP.part.metal>
0.0000

> <Gold.PLP.part.buried>
-1.8575

> <Gold.PLP.part.nonpolar>
-36.2365

> <Gold.PLP.part.repulsive>
0.1137

> <Gold.PLP.ligand.clash>
0.0000

> <Gold.PLP.ligand.torsion>
0.4363

> <Gold.PLP.Chemscore.Hbond>
2.0000

> <Gold.PLP.Chemscore.CHOScore>
0.0000

> <Gold.PLP.Chemscore.Metal>
0.0000

> <Gold.Chemscore.Hbonds>
donor molecule, donor type, donor heavy atom, donor atom, acceptor molecule, acceptor atom, score
      L1  H     7    36       P1  7948  2.00

> <Gold.PLP.Chemscore.Internal.Correction>
0.0225

> <Gold.Rescore>
     Score         DG    S(hbond)    S(metal)    S(lipo)     H(rot)  DE(clash)    DE(int)     intcor
     12.68     -14.88       0.94        0.00      93.30       1.82       0.17       2.03       ----

> <Gold.Chemscore.Fitness>
12.6826

> <Gold.Chemscore.DG>
-14.8821

> <Gold.Chemscore.ZeroCoef>
-5.4800

> <Gold.Chemscore.Hbond>
0.9443

> <Gold.Chemscore.Metal>
0.0000

> <Gold.Chemscore.Lipo>
93.3021

> <Gold.Chemscore.Internal_Hbond>
0.0000

> <Gold.Chemscore.DEClash>
0.1685

> <Gold.Chemscore.DEInternal>
2.0309

> <Gold.Chemscore.Rot>
1.8235

> <Gold.Chemscore.Internal.Correction>
   9.000000E+99

> <Gold.Chemscore.Hbonds>
donor molecule, donor type, donor heavy atom, donor atom, acceptor molecule, acceptor atom, score
      L1  H     7    36       P1  7948  0.99

> <Gold.Chemscore.Hbond.Weighted>
-3.1540

> <Gold.Chemscore.Metal.Weighted>
-0.0000

> <Gold.Chemscore.Lipo.Weighted>
-10.9163

> <Gold.Chemscore.Internal_Hbond.Weighted>
0.0000

> <Gold.Chemscore.DEClash.Weighted>
0.1685

> <Gold.Chemscore.DEInternal.Weighted>
2.0309

> <Gold.Chemscore.Rot.Weighted>
4.6683

> <Gold.Chemscore.Internal.Correction.Weighted>
   9.000000E+99

> <Gold.Protein.RotatedTorsions>
[ 6907 6896 6895 6894 ] final   25.65 input  -60.11 | X-H torsion
[ 7974 7965 7964 7962 ] final -146.96 input  175.53 | X-H torsion
[ 8008 7997 7996 7995 ] final  -51.07 input   59.86 | X-H torsion
[ 10167 10162 10161 10158 ] final   84.20 input  -65.29 | X-H torsion
[ 10718 10713 10712 10709 ] final   23.11 input   66.30 | X-H torsion
[ 10763 10752 10751 10750 ] final   -3.36 input  -60.55 | X-H torsion
[ 11005 11000 10999 10996 ] final  118.33 input  -57.11 | X-H torsion

> <Gold.Protein.ActiveResidues>
 VAL166  LYS551  ARG553  GLY616  TRP617  ASP618  TYR619  PRO620  LYS621  CYS622 
 ASP623  PHE694  ASN695  SER759  ASP760  ASP761  ALA762  ILE779  LEU786  VAL792 
 PHE793  MET794  SER795  GLU796  ALA797  LYS798  CYS799  TRP800  GLU811  SER814 

> <Gold.Protein.RotatedAtoms>
  151.9757  135.0054  160.0554 H   0  0  0  0  0  0  0  0  0  0  0  0  # atno 6907 bound_to 6896
  152.1742  133.4659  159.4933 H   0  0  0  0  0  0  0  0  0  0  0  0  # atno 6908 bound_to 6896
  150.6906  134.1832  159.4299 H   0  0  0  0  0  0  0  0  0  0  0  0  # atno 6909 bound_to 6896
  144.8125  140.5389  143.5633 H   0  0  0  0  0  0  0  0  0  0  0  0  # atno 7974 bound_to 7965
  154.4075  140.1257  156.4768 H   0  0  0  0  0  0  0  0  0  0  0  0  # atno 8008 bound_to 7997
  155.7124  140.3493  155.4960 H   0  0  0  0  0  0  0  0  0  0  0  0  # atno 8009 bound_to 7997
  155.9288  140.1066  157.1139 H   0  0  0  0  0  0  0  0  0  0  0  0  # atno 8010 bound_to 7997
  139.9105  144.6274  150.8542 H   0  0  0  0  0  0  0  0  0  0  0  0  # atno 10167 bound_to 10162
  157.1615  130.6719  149.6046 H   0  0  0  0  0  0  0  0  0  0  0  0  # atno 10718 bound_to 10713
  153.3703  135.6994  153.6643 H   0  0  0  0  0  0  0  0  0  0  0  0  # atno 10763 bound_to 10752
  153.5296  135.3595  155.2670 H   0  0  0  0  0  0  0  0  0  0  0  0  # atno 10764 bound_to 10752
  154.8680  135.4177  154.2979 H   0  0  0  0  0  0  0  0  0  0  0  0  # atno 10765 bound_to 10752
  139.9106  134.9619  156.7486 H   0  0  0  0  0  0  0  0  0  0  0  0  # atno 11005 bound_to 11000
  145.5291  139.1475  143.3510 LP  0  0  0  0  0  0  0  0  0  0  0  0  # atno 17320 bound_to 7965
  146.2425  140.5431  142.8928 LP  0  0  0  0  0  0  0  0  0  0  0  0  # atno 17321 bound_to 7965
  140.7686  143.3369  151.2290 LP  0  0  0  0  0  0  0  0  0  0  0  0  # atno 17342 bound_to 10162
  139.6946  143.9634  152.2876 LP  0  0  0  0  0  0  0  0  0  0  0  0  # atno 17343 bound_to 10162
  155.9753  130.4710  150.6449 LP  0  0  0  0  0  0  0  0  0  0  0  0  # atno 17370 bound_to 10713
  157.4128  131.0826  151.1205 LP  0  0  0  0  0  0  0  0  0  0  0  0  # atno 17371 bound_to 10713
  140.6791  133.9490  155.7900 LP  0  0  0  0  0  0  0  0  0  0  0  0  # atno 17394 bound_to 11000
  141.0523  134.0467  157.3768 LP  0  0  0  0  0  0  0  0  0  0  0  0  # atno 17395 bound_to 11000

$$$$
