#       Name:                AV-unprocessed.smi:1207
#       Creating user name   scv26
#       Creation time:       Fri Mar 27 04:08:27 2020


#       File generated by GOLD software.
#

@<TRIPOS>MOLECULE
AV-unprocessed.smi:1207
    58    60     1
SMALL
NO_CHARGES


@<TRIPOS>ATOM
      1 ****        -1.6822   4.3936  -3.9063 C.3            1 S1                 0.0000
      2 ****        -1.7489   3.6105  -2.6068 C.ar           1 S1                 0.0000
      3 ****        -2.7553   2.6318  -2.4457 C.ar           1 S1                 0.0000
      4 ****        -2.8516   1.8812  -1.2540 C.ar           1 S1                 0.0000
      5 ****        -3.7386   0.8830  -0.8899 N.2            1 S1                 0.0000
      6 ****        -3.3130   0.5778   0.3320 C.2            1 S1                 0.0000
      7 ****        -2.2482   1.2561   0.8012 N.pl3          1 S1                 0.0000
      8 ****        -1.6083   1.0842   2.0924 C.3            1 S1                 0.0000
      9 ****        -0.6359  -0.1105   2.1083 C.3            1 S1                 0.0000
     10 ****        -0.1296  -0.2407   3.4211 O.3            1 S1                 0.0000
     11 ****         0.5513   0.0443   1.1317 C.3            1 S1                 0.0000
     12 ****         1.3667  -1.1933   1.0484 N.4            1 S1                 1.0000
     13 ****         2.7912  -0.9055   0.7585 C.3            1 S1                 0.0000
     14 ****         0.7866  -2.2067   0.1293 C.3            1 S1                 0.0000
     15 ****         1.3193  -3.5836   0.4265 C.2            1 S1                 0.0000
     16 ****         2.2954  -4.3294  -0.2962 C.2            1 S1                 0.0000
     17 ****         3.0453  -3.9429  -1.5390 C.3            1 S1                 0.0000
     18 ****         2.5187  -5.5103   0.2543 N.2            1 S1                 0.0000
     19 ****         1.6806  -5.5794   1.3710 O.3            1 S1                 0.0000
     20 ****         0.9759  -4.4231   1.4507 C.2            1 S1                 0.0000
     21 ****         0.0168  -4.3059   2.5869 C.3            1 S1                 0.0000
     22 ****        -1.9071   2.1397  -0.2178 C.ar           1 S1                 0.0000
     23 ****        -0.9017   3.1119  -0.3655 C.ar           1 S1                 0.0000
     24 ****        -0.8190   3.8518  -1.5637 C.ar           1 S1                 0.0000
     25 ****         0.2697   4.8995  -1.7146 C.3            1 S1                 0.0000
     26 ****        -2.4476   4.0638  -4.6093 H              1 S1                 0.0000
     27 ****        -0.7116   4.2618  -4.3848 H              1 S1                 0.0000
     28 ****        -1.8355   5.4564  -3.7192 H              1 S1                 0.0000
     29 ****        -3.4639   2.4481  -3.2400 H              1 S1                 0.0000
     30 ****        -3.7989  -0.1881   0.9189 H              1 S1                 0.0000
     31 ****        -1.0900   2.0075   2.3538 H              1 S1                 0.0000
     32 ****        -2.3905   0.9438   2.8402 H              1 S1                 0.0000
     33 ****        -1.2003  -1.0150   1.8826 H              1 S1                 0.0000
     34 ****         0.2784   0.5746   3.6714 H              1 S1                 0.0000
     35 ****         0.2119   0.3006   0.1277 H              1 S1                 0.0000
     36 ****         1.1649   0.8836   1.4633 H              1 S1                 0.0000
     37 ****         2.9073  -0.4646  -0.2325 H              1 S1                 0.0000
     38 ****         3.3941  -1.8123   0.8031 H              1 S1                 0.0000
     39 ****         3.2025  -0.2113   1.4921 H              1 S1                 0.0000
     40 ****        -0.2991  -2.2125   0.2217 H              1 S1                 0.0000
     41 ****         0.9837  -1.9119  -0.9023 H              1 S1                 0.0000
     42 ****         3.2217  -2.8684  -1.5781 H              1 S1                 0.0000
     43 ****         2.4867  -4.2204  -2.4329 H              1 S1                 0.0000
     44 ****         4.0174  -4.4349  -1.5887 H              1 S1                 0.0000
     45 ****        -0.4175  -3.3076   2.6349 H              1 S1                 0.0000
     46 ****         0.5166  -4.5002   3.5360 H              1 S1                 0.0000
     47 ****        -0.7971  -5.0230   2.4798 H              1 S1                 0.0000
     48 ****        -0.1987   3.2865   0.4353 H              1 S1                 0.0000
     49 ****         0.8885   4.9636  -0.8192 H              1 S1                 0.0000
     50 ****        -0.1680   5.8824  -1.8897 H              1 S1                 0.0000
     51 ****         0.9206   4.6555  -2.5543 H              1 S1                 0.0000
     52 ****         1.3447  -1.5941   1.9756 H              1 S1                 0.0000
     53 ****        -4.4993   0.4939  -1.4092 LP             1 S1                 0.0000
     54 ****         0.5459  -0.9775   3.4496 LP             1 S1                 0.0000
     55 ****        -0.8776  -0.4497   4.0510 LP             1 S1                 0.0000
     56 ****         3.1571  -6.2113  -0.0633 LP             1 S1                 0.0000
     57 ****         2.2297  -5.6978   2.1984 LP             1 S1                 0.0000
     58 ****         1.0526  -6.3515   1.2745 LP             1 S1                 0.0000
@<TRIPOS>BOND
    1    1    2 1     
    2    1   26 1     
    3    1   27 1     
    4    1   28 1     
    5    2   24 ar    
    6    2    3 ar    
    7    3    4 ar    
    8    3   29 1     
    9    4   22 ar    
   10    4    5 1     
   11    5    6 2     
   12    6    7 1     
   13    6   30 1     
   14    7    8 1     
   15    7   22 1     
   16    8    9 1     
   17    8   31 1     
   18    8   32 1     
   19    9   10 1     
   20    9   11 1     
   21    9   33 1     
   22   10   34 1     
   23   11   12 1     
   24   11   35 1     
   25   11   36 1     
   26   12   13 1     
   27   12   14 1     
   28   12   52 1     
   29   13   37 1     
   30   13   38 1     
   31   13   39 1     
   32   14   15 1     
   33   14   40 1     
   34   14   41 1     
   35   15   20 2     
   36   15   16 1     
   37   16   17 1     
   38   16   18 2     
   39   17   42 1     
   40   17   43 1     
   41   17   44 1     
   42   18   19 1     
   43   19   20 1     
   44   20   21 1     
   45   21   45 1     
   46   21   46 1     
   47   21   47 1     
   48   22   23 ar    
   49   23   24 ar    
   50   23   48 1     
   51   24   25 1     
   52   25   49 1     
   53   25   50 1     
   54   25   51 1     
   55    5   53 1     
   56   10   54 1     
   57   10   55 1     
   58   18   56 1     
   59   19   57 1     
   60   19   58 1     
@<TRIPOS>SUBSTRUCTURE
      1 S1             1
@<TRIPOS>SET
LONE_PAIRS      STATIC     ATOMS    <user>   **** ""
6 53 54 55 56 57 58
DONOR_HYDROGENS      STATIC     ATOMS    <user>   **** ""
2 34 52
ATOM$BLUE        STATIC     ATOMS    COLORGROUP SYSTEM
6 53 54 55 56 57 58
ATOM$RED        STATIC     ATOMS    COLORGROUP SYSTEM
2 34 52
