#       Name:                AV-unprocessed.smi:2698
#       Creating user name   scv26
#       Creation time:       Fri Mar 27 14:45:33 2020


#       File generated by GOLD software.
#

@<TRIPOS>MOLECULE
AV-unprocessed.smi:2698
    40    40     1
SMALL
NO_CHARGES


@<TRIPOS>ATOM
      1 ****        -1.8882   0.8178   2.1259 C.3            1 S1                 0.0000
      2 ****        -2.2855  -0.1133   0.9652 C.3            1 S1                 0.0000
      3 ****        -3.8110  -0.2842   0.9128 C.3            1 S1                 0.0000
      4 ****        -1.5881  -1.4923   1.0200 C.3            1 S1                 0.0000
      5 ****        -0.0678  -1.4084   0.8644 C.2            1 S1                 0.0000
      6 ****         0.6429  -1.2120   1.8499 O.2            1 S1                 0.0000
      7 ****         0.4096  -1.5576  -0.3806 N.am           1 S1                 0.0000
      8 ****         1.8137  -1.4880  -0.7844 C.3            1 S1                 0.0000
      9 ****         2.0195  -0.3031  -1.7522 C.3            1 S1                 0.0000
     10 ****         1.8346   1.0732  -1.1550 C.2            1 S1                 0.0000
     11 ****         1.8395   1.5160   0.1565 C.2            1 S1                 0.0000
     12 ****         1.6321   2.8851   0.1356 N.pl3          1 S1                 0.0000
     13 ****         1.5274   3.2376  -1.1437 C.2            1 S1                 0.0000
     14 ****         1.6494   2.1896  -1.9561 N.pl3          1 S1                 1.0000
     15 ****         2.2136  -2.8112  -1.4455 C.2            1 S1                 0.0000
     16 ****         1.5624  -3.1724  -2.4512 O.co2          1 S1                 0.0000
     17 ****         3.1702  -3.4354  -0.9379 O.co2          1 S1                -1.0000
     18 ****         1.5792   3.4976   0.9372 H              1 S1                 0.0000
     19 ****        -2.1078   0.3613   3.0915 H              1 S1                 0.0000
     20 ****        -2.4319   1.7615   2.0740 H              1 S1                 0.0000
     21 ****        -0.8262   1.0617   2.1053 H              1 S1                 0.0000
     22 ****        -1.9881   0.3776   0.0370 H              1 S1                 0.0000
     23 ****        -4.1857  -0.7755   1.8113 H              1 S1                 0.0000
     24 ****        -4.1104  -0.8864   0.0545 H              1 S1                 0.0000
     25 ****        -4.3137   0.6795   0.8262 H              1 S1                 0.0000
     26 ****        -1.8170  -1.9901   1.9633 H              1 S1                 0.0000
     27 ****        -1.9825  -2.1395   0.2348 H              1 S1                 0.0000
     28 ****        -0.2537  -1.7503  -1.1176 H              1 S1                 0.0000
     29 ****         2.4597  -1.3457   0.0842 H              1 S1                 0.0000
     30 ****         3.0257  -0.3386  -2.1725 H              1 S1                 0.0000
     31 ****         1.3348  -0.3982  -2.5967 H              1 S1                 0.0000
     32 ****         1.9687   0.9917   1.0915 H              1 S1                 0.0000
     33 ****         1.3661   4.2508  -1.4820 H              1 S1                 0.0000
     34 ****         1.6073   2.2023  -2.9653 H              1 S1                 0.0000
     35 ****         0.2272  -1.1071   2.7533 LP             1 S1                 0.0000
     36 ****         1.6361  -1.1574   1.7472 LP             1 S1                 0.0000
     37 ****         1.7949  -4.0261  -2.9173 LP             1 S1                 0.0000
     38 ****         0.8096  -2.6074  -2.7888 LP             1 S1                 0.0000
     39 ****         3.4719  -4.3004  -1.3389 LP             1 S1                 0.0000
     40 ****         3.6339  -3.0698  -0.1308 LP             1 S1                 0.0000
@<TRIPOS>BOND
    1    1    2 1     
    2    1   19 1     
    3    1   20 1     
    4    1   21 1     
    5    2    3 1     
    6    2    4 1     
    7    2   22 1     
    8    3   23 1     
    9    3   24 1     
   10    3   25 1     
   11    4    5 1     
   12    4   26 1     
   13    4   27 1     
   14    5    6 2     
   15    5    7 am    
   16    7    8 1     
   17    7   28 1     
   18    8    9 1     
   19    8   15 1     
   20    8   29 1     
   21    9   10 1     
   22    9   30 1     
   23    9   31 1     
   24   10   14 1     
   25   10   11 2     
   26   11   12 1     
   27   11   32 1     
   28   12   18 1     
   29   12   13 1     
   30   13   14 2     
   31   13   33 1     
   32   14   34 1     
   33   15   16 ar    
   34   15   17 ar    
   35    6   35 1     
   36    6   36 1     
   37   16   37 1     
   38   16   38 1     
   39   17   39 1     
   40   17   40 1     
@<TRIPOS>SUBSTRUCTURE
      1 S1             1
@<TRIPOS>SET
LONE_PAIRS      STATIC     ATOMS    <user>   **** ""
6 35 36 37 38 39 40
DONOR_HYDROGENS      STATIC     ATOMS    <user>   **** ""
3 28 18 34
ATOM$BLUE        STATIC     ATOMS    COLORGROUP SYSTEM
6 35 36 37 38 39 40
ATOM$RED        STATIC     ATOMS    COLORGROUP SYSTEM
3 28 18 34
