AV-unprocessed.smi:114|AV-procd|sdf|1107|dock8
  -GOLD-   2262018223D 1   1.00000     0.00000
 Structure written by MMmdl.
 32 34  0  0  0  0  0  0  0  0  1 V2000
  140.6011  136.8863  156.9500 N   0  0  0  0  0  0  0  0  0  0  0  0
  141.6449  137.4557  156.3314 C   0  0  0  0  0  0  0  0  0  0  0  0
  141.7797  138.8009  156.3993 N   0  0  0  0  0  0  0  0  0  0  0  0
  142.8089  139.4100  155.7962 C   0  0  0  0  0  0  0  0  0  0  0  0
  142.8644  140.7571  155.9174 F   0  0  0  0  0  0  0  0  0  0  0  0
  143.7881  138.8375  155.0869 N   0  0  0  0  0  0  0  0  0  0  0  0
  143.6522  137.4820  155.0172 C   0  0  0  0  0  0  0  0  0  0  0  0
  142.6142  136.7165  155.6106 C   0  0  0  0  0  0  0  0  0  0  0  0
  142.8030  135.3685  155.3343 N   0  0  0  0  0  0  0  0  0  0  0  0
  143.8952  135.3447  154.6170 C   0  0  0  0  0  0  0  0  0  0  0  0
  144.4687  136.5760  154.3795 N   0  0  0  0  0  0  0  0  0  0  0  0
  145.7084  136.9064  153.6135 C   0  0  2  0  0  0  0  0  0  0  0  0
  146.3203  137.9907  154.2267 O   0  0  0  0  0  0  0  0  0  0  0  0
  147.1532  138.6137  153.2628 C   0  0  2  0  0  0  0  0  0  0  0  0
  147.5171  140.0328  153.7237 C   0  0  0  0  0  0  0  0  0  0  0  0
  148.4356  140.6115  152.8216 O   0  0  0  0  0  0  0  0  0  0  0  0
  146.2866  138.5821  151.9953 C   0  0  1  0  0  0  0  0  0  0  0  0
  147.1084  138.4834  150.8494 O   0  0  0  0  0  0  0  0  0  0  0  0
  145.4313  137.3236  152.1546 C   0  0  2  0  0  0  0  0  0  0  0  0
  144.0695  137.6024  151.8801 O   0  0  0  0  0  0  0  0  0  0  0  0
  146.3454  136.0239  153.6939 H   0  0  0  0  0  0  0  0  0  0  0  0
  148.0480  138.0031  153.1205 H   0  0  0  0  0  0  0  0  0  0  0  0
  145.6625  139.4755  151.9374 H   0  0  0  0  0  0  0  0  0  0  0  0
  145.7629  136.5118  151.5055 H   0  0  0  0  0  0  0  0  0  0  0  0
  140.4799  135.8842  156.9137 H   0  0  0  0  0  0  0  0  0  0  0  0
  139.9372  137.4597  157.4501 H   0  0  0  0  0  0  0  0  0  0  0  0
  144.3150  134.4223  154.2426 H   0  0  0  0  0  0  0  0  0  0  0  0
  146.6274  140.6629  153.7343 H   0  0  0  0  0  0  0  0  0  0  0  0
  147.9253  140.0305  154.7347 H   0  0  0  0  0  0  0  0  0  0  0  0
  148.4689  140.0782  152.0421 H   0  0  0  0  0  0  0  0  0  0  0  0
  147.7765  139.1501  150.9017 H   0  0  0  0  0  0  0  0  0  0  0  0
  143.9188  138.5247  152.0193 H   0  0  0  0  0  0  0  0  0  0  0  0
  1  2  1  0  0  0  0
  1 25  1  0  0  0  0
  1 26  1  0  0  0  0
  2  8  1  0  0  0  0
  2  3  2  0  0  0  0
  3  4  1  0  0  0  0
  4  5  1  0  0  0  0
  4  6  2  0  0  0  0
  6  7  1  0  0  0  0
  7 11  1  0  0  0  0
  7  8  2  0  0  0  0
  8  9  1  0  0  0  0
  9 10  2  0  0  0  0
 10 11  1  0  0  0  0
 10 27  1  0  0  0  0
 11 12  1  0  0  0  0
 12 21  1  0  0  0  0
 12 19  1  0  0  0  0
 12 13  1  0  0  0  0
 13 14  1  0  0  0  0
 14 22  1  0  0  0  0
 14 15  1  0  0  0  0
 14 17  1  0  0  0  0
 15 16  1  0  0  0  0
 15 28  1  0  0  0  0
 15 29  1  0  0  0  0
 16 30  1  0  0  0  0
 17 23  1  0  0  0  0
 17 18  1  0  0  0  0
 17 19  1  0  0  0  0
 18 31  1  0  0  0  0
 19 24  1  0  0  0  0
 19 20  1  0  0  0  0
 20 32  1  0  0  0  0
M  END
> <s_m_source_file>
AV-unprocessed.smi

> <i_m_source_file_index>
114

> <i_lp_mmshare_version>
43012

> <i_f3d_flags>
0

> <s_epik_input>
RmMobjEpbmMoW05IMl0pYyhjMTIpbltjSF1uMltDQEBIXTNPW0NASF0oW0NIMl1bT0hdKVtDQEBIXShbT0hdKVtDQEBIXTNbT0hd

> <s_epik_cmdline>
J2VwaWtfcHl0aG9uJywgJy1waCcsICc3LjAnLCAnLXRuJywgJzgnLCAnLW1hJywgJzIwMCcsICctbWV0YWxfYmluZGluZycsICctaW1hZScsICc8aW5maWxlLm1hZT4nLCAnLW9tYWUnLCAnPG91dGZpbGUubWFlPic=

> <r_lp_tautomer_probability>
1

> <r_epik_Ionization_Penalty>
1.13199e-05

> <r_epik_Ionization_Penalty_Charging>
0

> <r_epik_Ionization_Penalty_Neutral>
1.13199e-05

> <r_epik_State_Penalty>
-0

> <r_epik_Charging_Adjusted_Penalty>
0

> <i_epik_Tot_Q>
0

> <i_epik_Tot_abs_Q>
0

> <r_epik_Metal_State_Penalty>
-0

> <b_epik_Metal_Only>
0

> <s_epik_Chemistry_Notes>
This compound contains an acetal/aminal-like group ( X-CH(R)-Y where X, Y are N, S, or O) that may be acid/base labile, releasing an aldehyde.

> <s_lp_Force_Field>
OPLS_2005

> <r_lp_Energy>
35.9839

> <b_lp_Chiralities_Consistent>
1

> <s_lp_Variant>
AV-unprocessed.smi:114-1

> <Gold.Version>
5.8.1

> <Gold.Id.Protein>
6NUR|6NUR_protein|mol2

> <Gold.PLP.Fitness>
33.1827

> <Gold.PLP.PLP>
-19.3621

> <Gold.PLP.part.hbond>
-8.1951

> <Gold.PLP.part.metal>
0.0000

> <Gold.PLP.part.buried>
-2.0322

> <Gold.PLP.part.nonpolar>
-8.5528

> <Gold.PLP.part.repulsive>
0.2645

> <Gold.PLP.ligand.clash>
0.0000

> <Gold.PLP.ligand.torsion>
0.7272

> <Gold.PLP.Chemscore.Hbond>
5.0875

> <Gold.PLP.Chemscore.CHOScore>
0.0000

> <Gold.PLP.Chemscore.Metal>
0.0000

> <Gold.Chemscore.Hbonds>
donor molecule, donor type, donor heavy atom, donor atom, acceptor molecule, acceptor atom, score
      L1  H     1    25       P1 11000  1.00
      L1  H    16    30       P1  7957  0.36
      L1  H    18    31       P1  7957  1.00
      L1  H    20    32       P1 10175  1.00
      P1  H  8011  8017       L1    16  0.32

> <Gold.PLP.Chemscore.Internal.Correction>
0.0125

> <Gold.Rescore>
     Score         DG    S(hbond)    S(metal)    S(lipo)     H(rot)  DE(clash)    DE(int)     intcor
      9.66     -11.81       4.10        0.00      25.17       4.03       0.10       2.06       ----

> <Gold.Chemscore.Fitness>
9.6574

> <Gold.Chemscore.DG>
-11.8112

> <Gold.Chemscore.ZeroCoef>
-5.4800

> <Gold.Chemscore.Hbond>
4.1009

> <Gold.Chemscore.Metal>
0.0000

> <Gold.Chemscore.Lipo>
25.1718

> <Gold.Chemscore.Internal_Hbond>
0.0000

> <Gold.Chemscore.DEClash>
0.0985

> <Gold.Chemscore.DEInternal>
2.0553

> <Gold.Chemscore.Rot>
4.0277

> <Gold.Chemscore.Internal.Correction>
   9.000000E+99

> <Gold.Chemscore.Hbonds>
donor molecule, donor type, donor heavy atom, donor atom, acceptor molecule, acceptor atom, score
      L1  H     1    25       P1 11000  0.70
      L1  H    16    30       P1  7957  0.35
      L1  H    18    31       P1  7957  0.33
      L1  H    20    32       P1 10175  0.98
      P1  H  8011  8017       L1    16  0.13

> <Gold.Chemscore.Hbond.Weighted>
-13.6971

> <Gold.Chemscore.Metal.Weighted>
-0.0000

> <Gold.Chemscore.Lipo.Weighted>
-2.9451

> <Gold.Chemscore.Internal_Hbond.Weighted>
0.0000

> <Gold.Chemscore.DEClash.Weighted>
0.0985

> <Gold.Chemscore.DEInternal.Weighted>
2.0553

> <Gold.Chemscore.Rot.Weighted>
10.3110

> <Gold.Chemscore.Internal.Correction.Weighted>
   9.000000E+99

> <Gold.Protein.RotatedTorsions>
[ 6907 6896 6895 6894 ] final  138.19 input  -60.11 | X-H torsion
[ 7974 7965 7964 7962 ] final  -64.86 input  175.53 | X-H torsion
[ 8008 7997 7996 7995 ] final   -7.85 input   59.86 | X-H torsion
[ 10167 10162 10161 10158 ] final  148.79 input  -65.29 | X-H torsion
[ 10718 10713 10712 10709 ] final  143.63 input   66.30 | X-H torsion
[ 10763 10752 10751 10750 ] final -169.47 input  -60.55 | X-H torsion
[ 11005 11000 10999 10996 ] final  -78.05 input  -57.11 | X-H torsion

> <Gold.Protein.ActiveResidues>
 VAL166  LYS551  ARG553  GLY616  TRP617  ASP618  TYR619  PRO620  LYS621  CYS622 
 ASP623  PHE694  ASN695  SER759  ASP760  ASP761  ALA762  ILE779  LEU786  VAL792 
 PHE793  MET794  SER795  GLU796  ALA797  LYS798  CYS799  TRP800  GLU811  SER814 

> <Gold.Protein.RotatedAtoms>
  152.2695  133.5369  159.5430 H   0  0  0  0  0  0  0  0  0  0  0  0  # atno 6907 bound_to 6896
  150.7154  134.0718  159.3876 H   0  0  0  0  0  0  0  0  0  0  0  0  # atno 6908 bound_to 6896
  151.8633  135.0516  160.0522 H   0  0  0  0  0  0  0  0  0  0  0  0  # atno 6909 bound_to 6896
  145.7614  140.8859  143.0428 H   0  0  0  0  0  0  0  0  0  0  0  0  # atno 7974 bound_to 7965
  154.5798  140.2396  155.8070 H   0  0  0  0  0  0  0  0  0  0  0  0  # atno 8008 bound_to 7997
  156.2170  140.3009  155.9820 H   0  0  0  0  0  0  0  0  0  0  0  0  # atno 8009 bound_to 7997
  155.2561  140.0412  157.2983 H   0  0  0  0  0  0  0  0  0  0  0  0  # atno 8010 bound_to 7997
  139.4870  144.5652  151.7158 H   0  0  0  0  0  0  0  0  0  0  0  0  # atno 10167 bound_to 10162
  157.3667  131.0973  151.0866 H   0  0  0  0  0  0  0  0  0  0  0  0  # atno 10718 bound_to 10713
  154.6520  135.2912  154.9975 H   0  0  0  0  0  0  0  0  0  0  0  0  # atno 10763 bound_to 10752
  154.1065  135.6569  153.4881 H   0  0  0  0  0  0  0  0  0  0  0  0  # atno 10764 bound_to 10752
  153.0381  135.5255  154.7432 H   0  0  0  0  0  0  0  0  0  0  0  0  # atno 10765 bound_to 10752
  141.1663  133.7047  156.7912 H   0  0  0  0  0  0  0  0  0  0  0  0  # atno 11005 bound_to 11000
  144.6830  139.9728  143.7482 LP  0  0  0  0  0  0  0  0  0  0  0  0  # atno 17320 bound_to 7965
  146.0260  139.3293  143.0784 LP  0  0  0  0  0  0  0  0  0  0  0  0  # atno 17321 bound_to 7965
  140.5229  144.0851  150.6028 LP  0  0  0  0  0  0  0  0  0  0  0  0  # atno 17342 bound_to 10162
  140.3815  143.2800  152.0165 LP  0  0  0  0  0  0  0  0  0  0  0  0  # atno 17343 bound_to 10162
  157.1985  130.6384  149.5730 LP  0  0  0  0  0  0  0  0  0  0  0  0  # atno 17370 bound_to 10713
  155.9747  130.4698  150.6410 LP  0  0  0  0  0  0  0  0  0  0  0  0  # atno 17371 bound_to 10713
  140.2324  134.8676  157.3490 LP  0  0  0  0  0  0  0  0  0  0  0  0  # atno 17394 bound_to 11000
  140.1878  134.4409  155.7733 LP  0  0  0  0  0  0  0  0  0  0  0  0  # atno 17395 bound_to 11000

$$$$
