AV-unprocessed.smi:2852|AV-procd|sdf|10972|dock2
  -GOLD-   2272015423D 1   1.00000     0.00000
 Structure written by MMmdl.
 28 29  0  0  0  0  0  0  0  0  1 V2000
  146.7668  138.7261  152.3194 C   0  0  0  0  0  0  0  0  0  0  0  0
  147.6142  139.8588  152.6587 N   0  0  0  0  0  0  0  0  0  0  0  0
  147.6521  140.4388  153.8676 C   0  0  0  0  0  0  0  0  0  0  0  0
  146.9773  140.0555  154.8232 O   0  0  0  0  0  0  0  0  0  0  0  0
  148.5961  141.6321  154.0261 C   0  0  0  0  0  0  0  0  0  0  0  0
  149.6789  141.3202  155.0094 C   0  0  0  0  0  0  0  0  0  0  0  0
  150.5545  140.3465  154.7877 N   0  0  0  0  0  0  0  0  0  0  0  0
  151.3748  140.3828  155.9247 O   0  0  0  0  0  0  0  0  0  0  0  0
  150.8935  141.3851  156.6984 C   0  0  0  0  0  0  0  0  0  0  0  0
  151.5563  141.6465  157.9711 C   0  0  0  0  0  0  0  0  0  0  0  0
  151.9040  142.8619  158.4301 C   0  0  0  0  0  0  0  0  0  0  0  0
  152.5804  143.2703  159.7164 C   0  0  0  0  0  0  0  0  0  0  0  0
  152.4504  144.6988  159.1547 C   0  0  0  0  0  0  0  0  0  0  0  0
  151.7529  144.2523  157.8562 C   0  0  0  0  0  0  0  0  0  0  0  0
  149.8403  142.0092  156.1734 N   0  0  0  0  0  0  0  0  0  0  0  0
  146.9399  138.4290  151.2852 H   0  0  0  0  0  0  0  0  0  0  0  0
  145.7131  138.9858  152.4274 H   0  0  0  0  0  0  0  0  0  0  0  0
  146.9829  137.8709  152.9610 H   0  0  0  0  0  0  0  0  0  0  0  0
  148.2002  140.2338  151.9265 H   0  0  0  0  0  0  0  0  0  0  0  0
  149.0346  141.8850  153.0597 H   0  0  0  0  0  0  0  0  0  0  0  0
  148.0383  142.5083  154.3593 H   0  0  0  0  0  0  0  0  0  0  0  0
  151.7749  140.7825  158.5816 H   0  0  0  0  0  0  0  0  0  0  0  0
  152.0171  143.1358  160.6404 H   0  0  0  0  0  0  0  0  0  0  0  0
  153.6200  142.9707  159.8517 H   0  0  0  0  0  0  0  0  0  0  0  0
  151.8224  145.3419  159.7730 H   0  0  0  0  0  0  0  0  0  0  0  0
  153.4165  145.1726  158.9749 H   0  0  0  0  0  0  0  0  0  0  0  0
  152.3374  144.4924  156.9675 H   0  0  0  0  0  0  0  0  0  0  0  0
  150.7411  144.6496  157.7709 H   0  0  0  0  0  0  0  0  0  0  0  0
  1  2  1  0  0  0  0
  1 16  1  0  0  0  0
  1 17  1  0  0  0  0
  1 18  1  0  0  0  0
  2  3  1  0  0  0  0
  2 19  1  0  0  0  0
  3  4  2  0  0  0  0
  3  5  1  0  0  0  0
  5  6  1  0  0  0  0
  5 20  1  0  0  0  0
  5 21  1  0  0  0  0
  6 15  1  0  0  0  0
  6  7  2  0  0  0  0
  7  8  1  0  0  0  0
  8  9  1  0  0  0  0
  9 10  1  0  0  0  0
  9 15  2  0  0  0  0
 10 11  2  0  0  0  0
 10 22  1  0  0  0  0
 11 14  1  0  0  0  0
 11 12  1  0  0  0  0
 12 13  1  0  0  0  0
 12 23  1  0  0  0  0
 12 24  1  0  0  0  0
 13 14  1  0  0  0  0
 13 25  1  0  0  0  0
 13 26  1  0  0  0  0
 14 27  1  0  0  0  0
 14 28  1  0  0  0  0
M  END
> <s_m_source_file>
AV-unprocessed.smi

> <i_m_source_file_index>
2852

> <i_lp_mmshare_version>
43012

> <i_f3d_flags>
0

> <s_epik_input>
W0NIM11bTkhdQyg9TylbQ0gyXWMxbm9jKG4xKVtDSF09QzJbQ0gyXVtDSDJdW0NIMl0y

> <s_epik_cmdline>
J2VwaWtfcHl0aG9uJywgJy1waCcsICc3LjAnLCAnLXRuJywgJzgnLCAnLW1hJywgJzIwMCcsICctbWV0YWxfYmluZGluZycsICctaW1hZScsICc8aW5maWxlLm1hZT4nLCAnLW9tYWUnLCAnPG91dGZpbGUubWFlPic=

> <r_lp_tautomer_probability>
1

> <r_epik_Ionization_Penalty>
1.02917e-07

> <r_epik_Ionization_Penalty_Charging>
0

> <r_epik_Ionization_Penalty_Neutral>
1.02917e-07

> <r_epik_State_Penalty>
-0

> <r_epik_Charging_Adjusted_Penalty>
0

> <i_epik_Tot_Q>
0

> <i_epik_Tot_abs_Q>
0

> <r_epik_Metal_State_Penalty>
-0

> <b_epik_Metal_Only>
0

> <s_lp_Force_Field>
OPLS_2005

> <r_lp_Energy>
12.6474

> <b_lp_Chiralities_Consistent>
1

> <s_lp_Variant>
AV-unprocessed.smi:2852-1

> <Gold.Version>
5.8.1

> <Gold.Id.Protein>
6NUR|6NUR_protein|mol2

> <Gold.PLP.Fitness>
39.1183

> <Gold.PLP.PLP>
-34.1641

> <Gold.PLP.part.hbond>
-1.7951

> <Gold.PLP.part.metal>
0.0000

> <Gold.PLP.part.buried>
-3.1483

> <Gold.PLP.part.nonpolar>
-30.3268

> <Gold.PLP.part.repulsive>
1.5930

> <Gold.PLP.ligand.clash>
0.0000

> <Gold.PLP.ligand.torsion>
0.4153

> <Gold.PLP.Chemscore.Hbond>
1.9280

> <Gold.PLP.Chemscore.CHOScore>
0.0000

> <Gold.PLP.Chemscore.Metal>
0.0000

> <Gold.Chemscore.Hbonds>
donor molecule, donor type, donor heavy atom, donor atom, acceptor molecule, acceptor atom, score
      L1  H     2    19       P1  7957  0.90
      P1  H  7989  7998       L1     7  1.00

> <Gold.PLP.Chemscore.Internal.Correction>
0.0008

> <Gold.Rescore>
     Score         DG    S(hbond)    S(metal)    S(lipo)     H(rot)  DE(clash)    DE(int)     intcor
     15.16     -15.82       1.57        0.00      73.06       1.35       0.26       0.40       ----

> <Gold.Chemscore.Fitness>
15.1564

> <Gold.Chemscore.DG>
-15.8192

> <Gold.Chemscore.ZeroCoef>
-5.4800

> <Gold.Chemscore.Hbond>
1.5723

> <Gold.Chemscore.Metal>
0.0000

> <Gold.Chemscore.Lipo>
73.0647

> <Gold.Chemscore.Internal_Hbond>
0.0000

> <Gold.Chemscore.DEClash>
0.2592

> <Gold.Chemscore.DEInternal>
0.4036

> <Gold.Chemscore.Rot>
1.3519

> <Gold.Chemscore.Internal.Correction>
   9.000000E+99

> <Gold.Chemscore.Hbonds>
donor molecule, donor type, donor heavy atom, donor atom, acceptor molecule, acceptor atom, score
      L1  H     2    19       P1  7957  0.87
      P1  H  7989  7998       L1     7  0.24

> <Gold.Chemscore.Hbond.Weighted>
-5.2516

> <Gold.Chemscore.Metal.Weighted>
-0.0000

> <Gold.Chemscore.Lipo.Weighted>
-8.5486

> <Gold.Chemscore.Internal_Hbond.Weighted>
0.0000

> <Gold.Chemscore.DEClash.Weighted>
0.2592

> <Gold.Chemscore.DEInternal.Weighted>
0.4036

> <Gold.Chemscore.Rot.Weighted>
3.4610

> <Gold.Chemscore.Internal.Correction.Weighted>
   9.000000E+99

> <Gold.Protein.RotatedTorsions>
[ 6907 6896 6895 6894 ] final  166.14 input  -60.11 | X-H torsion
[ 7974 7965 7964 7962 ] final   34.09 input  175.53 | X-H torsion
[ 8008 7997 7996 7995 ] final   76.52 input   59.86 | X-H torsion
[ 10167 10162 10161 10158 ] final   35.43 input  -65.29 | X-H torsion
[ 10718 10713 10712 10709 ] final  -73.51 input   66.30 | X-H torsion
[ 10763 10752 10751 10750 ] final  135.93 input  -60.55 | X-H torsion
[ 11005 11000 10999 10996 ] final -147.75 input  -57.11 | X-H torsion

> <Gold.Protein.ActiveResidues>
 VAL166  LYS551  ARG553  GLY616  TRP617  ASP618  TYR619  PRO620  LYS621  CYS622 
 ASP623  PHE694  ASN695  SER759  ASP760  ASP761  ALA762  ILE779  LEU786  VAL792 
 PHE793  MET794  SER795  GLU796  ALA797  LYS798  CYS799  TRP800  GLU811  SER814 

> <Gold.Protein.RotatedAtoms>
  151.8835  133.3500  159.3774 H   0  0  0  0  0  0  0  0  0  0  0  0  # atno 6907 bound_to 6896
  150.7121  134.4995  159.5564 H   0  0  0  0  0  0  0  0  0  0  0  0  # atno 6908 bound_to 6896
  152.2551  134.8093  160.0490 H   0  0  0  0  0  0  0  0  0  0  0  0  # atno 6909 bound_to 6896
  146.1377  139.6314  142.9184 H   0  0  0  0  0  0  0  0  0  0  0  0  # atno 7974 bound_to 7965
  155.8285  140.3467  155.5558 H   0  0  0  0  0  0  0  0  0  0  0  0  # atno 8008 bound_to 7997
  155.8267  140.0921  157.1837 H   0  0  0  0  0  0  0  0  0  0  0  0  # atno 8009 bound_to 7997
  154.4004  140.1420  156.3552 H   0  0  0  0  0  0  0  0  0  0  0  0  # atno 8010 bound_to 7997
  140.4222  144.1443  150.6149 H   0  0  0  0  0  0  0  0  0  0  0  0  # atno 10167 bound_to 10162
  156.0277  130.4396  150.2754 H   0  0  0  0  0  0  0  0  0  0  0  0  # atno 10718 bound_to 10713
  153.8482  135.3082  155.3431 H   0  0  0  0  0  0  0  0  0  0  0  0  # atno 10763 bound_to 10752
  154.7903  135.4786  154.0040 H   0  0  0  0  0  0  0  0  0  0  0  0  # atno 10764 bound_to 10752
  153.1534  135.6847  153.8941 H   0  0  0  0  0  0  0  0  0  0  0  0  # atno 10765 bound_to 10752
  140.7684  134.3217  157.5082 H   0  0  0  0  0  0  0  0  0  0  0  0  # atno 11005 bound_to 11000
  145.5119  141.0435  143.2483 LP  0  0  0  0  0  0  0  0  0  0  0  0  # atno 17320 bound_to 7965
  144.7757  139.6634  143.7175 LP  0  0  0  0  0  0  0  0  0  0  0  0  # atno 17321 bound_to 7965
  140.4520  143.2483  151.9334 LP  0  0  0  0  0  0  0  0  0  0  0  0  # atno 17342 bound_to 10162
  139.4783  144.5552  151.8324 LP  0  0  0  0  0  0  0  0  0  0  0  0  # atno 17343 bound_to 10162
  157.0857  131.0155  151.3140 LP  0  0  0  0  0  0  0  0  0  0  0  0  # atno 17370 bound_to 10713
  157.4893  130.7812  149.7492 LP  0  0  0  0  0  0  0  0  0  0  0  0  # atno 17371 bound_to 10713
  139.8759  134.9246  156.3353 LP  0  0  0  0  0  0  0  0  0  0  0  0  # atno 17394 bound_to 11000
  140.9597  133.7397  156.0384 LP  0  0  0  0  0  0  0  0  0  0  0  0  # atno 17395 bound_to 11000

$$$$
