#       Name:                AV-unprocessed.smi:183
#       Creating user name   scv26
#       Creation time:       Thu Mar 26 19:26:13 2020


#       File generated by GOLD software.
#

@<TRIPOS>MOLECULE
AV-unprocessed.smi:183
    65    67     1
SMALL
NO_CHARGES


@<TRIPOS>ATOM
      1 ****        -3.9192  -5.1384   2.5389 C.3            1 S1                 0.0000
      2 ****        -3.0894  -4.0661   1.8414 C.2            1 S1                 0.0000
      3 ****        -1.8832  -4.2356   1.6651 O.2            1 S1                 0.0000
      4 ****        -3.7501  -2.9668   1.4481 N.am           1 S1                 0.0000
      5 ****        -3.1445  -1.8273   0.7716 C.3            1 S1                 0.0000
      6 ****        -2.9862  -2.0939  -0.7384 C.3            1 S1                 0.0000
      7 ****        -2.3845  -0.9758  -1.4708 N.3            1 S1                 0.0000
      8 ****        -1.0353  -0.9647  -1.3382 C.ar           1 S1                 0.0000
      9 ****        -0.3279  -1.7963  -2.1437 N.ar           1 S1                 0.0000
     10 ****         1.0049  -1.8400  -2.0578 C.ar           1 S1                 0.0000
     11 ****         1.8123  -1.1530  -1.2472 N.ar           1 S1                 0.0000
     12 ****         1.1044  -0.3228  -0.4287 C.ar           1 S1                 0.0000
     13 ****        -0.3105  -0.1689  -0.4042 C.ar           1 S1                 0.0000
     14 ****        -0.6678   0.7531   0.5730 N.2            1 S1                 0.0000
     15 ****         0.4696   1.1263   1.0913 C.2            1 S1                 0.0000
     16 ****         1.5862   0.5374   0.5426 N.pl3          1 S1                 0.0000
     17 ****         2.9709   0.7691   0.9238 C.3            1 S1                 0.0000
     18 ****         3.6325   1.9479   0.1626 C.3            1 S1                 0.0000
     19 ****         3.6120   1.6448  -1.2223 O.3            1 S1                 0.0000
     20 ****         2.9131   3.2805   0.3568 C.3            1 S1                 0.0000
     21 ****         4.0305   4.3007   0.2013 C.3            1 S1                 0.0000
     22 ****         5.1105   3.6716   0.8671 O.3            1 S1                 0.0000
     23 ****         5.1010   2.2816   0.5511 C.3            1 S1                 0.0000
     24 ****         5.6889   1.5269   1.7541 C.3            1 S1                 0.0000
     25 ****        -3.0781   0.3222  -1.5419 C.3            1 S1                 0.0000
     26 ****        -4.5583   0.1597  -1.9364 C.3            1 S1                 0.0000
     27 ****        -2.4065   1.2970  -2.5345 C.3            1 S1                 0.0000
     28 ****        -4.6164  -5.5951   1.8361 H              1 S1                 0.0000
     29 ****        -4.4897  -4.7069   3.3619 H              1 S1                 0.0000
     30 ****        -3.2782  -5.9222   2.9436 H              1 S1                 0.0000
     31 ****        -4.7415  -2.9157   1.6324 H              1 S1                 0.0000
     32 ****        -3.7830  -0.9605   0.9404 H              1 S1                 0.0000
     33 ****        -2.1826  -1.5990   1.2322 H              1 S1                 0.0000
     34 ****        -2.3821  -2.9905  -0.8873 H              1 S1                 0.0000
     35 ****        -3.9547  -2.3302  -1.1785 H              1 S1                 0.0000
     36 ****         1.4945  -2.5241  -2.7352 H              1 S1                 0.0000
     37 ****         0.5251   1.8491   1.8922 H              1 S1                 0.0000
     38 ****         2.9876   0.9513   1.9985 H              1 S1                 0.0000
     39 ****         3.5291  -0.1532   0.7578 H              1 S1                 0.0000
     40 ****         4.0139   2.3598  -1.6918 H              1 S1                 0.0000
     41 ****         2.0844   3.4412  -0.3344 H              1 S1                 0.0000
     42 ****         2.5175   3.3489   1.3709 H              1 S1                 0.0000
     43 ****         4.2817   4.4553  -0.8492 H              1 S1                 0.0000
     44 ****         3.7882   5.2654   0.6472 H              1 S1                 0.0000
     45 ****         5.7636   2.1334  -0.3038 H              1 S1                 0.0000
     46 ****         5.7234   0.4526   1.5728 H              1 S1                 0.0000
     47 ****         5.1090   1.7034   2.6603 H              1 S1                 0.0000
     48 ****         6.7091   1.8560   1.9520 H              1 S1                 0.0000
     49 ****        -3.0536   0.7779  -0.5523 H              1 S1                 0.0000
     50 ****        -5.0450   1.1299  -2.0397 H              1 S1                 0.0000
     51 ****        -5.1214  -0.3926  -1.1844 H              1 S1                 0.0000
     52 ****        -4.6602  -0.3640  -2.8875 H              1 S1                 0.0000
     53 ****        -2.9605   2.2339  -2.5956 H              1 S1                 0.0000
     54 ****        -2.3669   0.8716  -3.5378 H              1 S1                 0.0000
     55 ****        -1.3891   1.5568  -2.2437 H              1 S1                 0.0000
     56 ****        -1.4454  -5.0779   1.9795 LP             1 S1                 0.0000
     57 ****        -1.3409  -3.5310   1.2074 LP             1 S1                 0.0000
     58 ****        -2.5826  -1.1956  -2.4260 LP             1 S1                 0.0000
     59 ****        -0.8048  -2.3777  -2.8030 LP             1 S1                 0.0000
     60 ****         2.8089  -1.2363  -1.2408 LP             1 S1                 0.0000
     61 ****        -1.5864   1.0599   0.8216 LP             1 S1                 0.0000
     62 ****         2.6671   1.5291  -1.5284 LP             1 S1                 0.0000
     63 ****         4.1225   0.8015  -1.3907 LP             1 S1                 0.0000
     64 ****         5.0119   3.7919   1.8549 LP             1 S1                 0.0000
     65 ****         5.9731   4.0783   0.5662 LP             1 S1                 0.0000
@<TRIPOS>BOND
    1    1    2 1     
    2    1   28 1     
    3    1   29 1     
    4    1   30 1     
    5    2    3 2     
    6    2    4 am    
    7    4    5 1     
    8    4   31 1     
    9    5    6 1     
   10    5   32 1     
   11    5   33 1     
   12    6    7 1     
   13    6   34 1     
   14    6   35 1     
   15    7    8 1     
   16    7   25 1     
   17    8   13 ar    
   18    8    9 ar    
   19    9   10 ar    
   20   10   11 ar    
   21   10   36 1     
   22   11   12 ar    
   23   12   16 1     
   24   12   13 ar    
   25   13   14 1     
   26   14   15 2     
   27   15   16 1     
   28   15   37 1     
   29   16   17 1     
   30   17   18 1     
   31   17   38 1     
   32   17   39 1     
   33   18   23 1     
   34   18   19 1     
   35   18   20 1     
   36   19   40 1     
   37   20   21 1     
   38   20   41 1     
   39   20   42 1     
   40   21   22 1     
   41   21   43 1     
   42   21   44 1     
   43   22   23 1     
   44   23   24 1     
   45   23   45 1     
   46   24   46 1     
   47   24   47 1     
   48   24   48 1     
   49   25   26 1     
   50   25   27 1     
   51   25   49 1     
   52   26   50 1     
   53   26   51 1     
   54   26   52 1     
   55   27   53 1     
   56   27   54 1     
   57   27   55 1     
   58    3   56 1     
   59    3   57 1     
   60    7   58 1     
   61    9   59 1     
   62   11   60 1     
   63   14   61 1     
   64   19   62 1     
   65   19   63 1     
   66   22   64 1     
   67   22   65 1     
@<TRIPOS>SUBSTRUCTURE
      1 S1             1
@<TRIPOS>SET
LONE_PAIRS      STATIC     ATOMS    <user>   **** ""
10 56 57 58 59 60 61 62 63 64 65
DONOR_HYDROGENS      STATIC     ATOMS    <user>   **** ""
2 31 40
ATOM$BLUE        STATIC     ATOMS    COLORGROUP SYSTEM
10 56 57 58 59 60 61 62 63 64 65
ATOM$RED        STATIC     ATOMS    COLORGROUP SYSTEM
2 31 40
