AV-unprocessed.smi:1619|AV-procd|sdf|6488|dock5
  -GOLD-   22720 7153D 1   1.00000     0.00000
 Structure written by MMmdl.
 44 46  0  0  0  0  0  0  0  0  2 V2000
  152.0790  144.1290  158.9099 C   0  0  0  0  0  0  0  0  0  0  0  0
  151.8606  142.8012  158.2061 C   0  0  0  0  0  0  0  0  0  0  0  0
  151.0883  142.7694  157.0234 C   0  0  0  0  0  0  0  0  0  0  0  0
  150.8599  141.5553  156.3400 C   0  0  0  0  0  0  0  0  0  0  0  0
  150.1463  141.2960  155.1827 N   0  0  0  0  0  0  0  0  0  0  0  0
  150.3010  139.9813  155.0605 C   0  0  0  0  0  0  0  0  0  0  0  0
  151.0434  139.3580  155.9962 N   0  0  0  0  0  0  0  0  0  0  0  0
  151.3532  137.9415  156.0668 C   0  0  0  0  0  0  0  0  0  0  0  0
  150.7114  137.1328  154.9217 C   0  0  1  0  0  0  0  0  0  0  0  0
  151.6145  137.1313  153.8349 O   0  0  0  0  0  0  0  0  0  0  0  0
  150.3864  135.6715  155.3017 C   0  0  0  0  0  0  0  0  0  0  0  0
  149.2628  135.1231  154.5063 N   0  3  0  0  0  0  0  0  0  0  0  0
  149.4377  133.7137  154.1033 C   0  0  0  0  0  0  0  0  0  0  0  0
  148.0268  133.2092  153.8211 C   0  0  0  0  0  0  0  0  0  0  0  0
  147.1949  133.9149  154.8875 C   0  0  0  0  0  0  0  0  0  0  0  0
  147.9228  135.2440  155.1316 C   0  0  0  0  0  0  0  0  0  0  0  0
  151.4305  140.3636  156.8759 C   0  0  0  0  0  0  0  0  0  0  0  0
  152.1995  140.3821  158.0530 C   0  0  0  0  0  0  0  0  0  0  0  0
  152.4191  141.6043  158.7224 C   0  0  0  0  0  0  0  0  0  0  0  0
  153.2529  141.6145  159.9917 C   0  0  0  0  0  0  0  0  0  0  0  0
  151.5682  144.9423  158.3938 H   0  0  0  0  0  0  0  0  0  0  0  0
  153.1411  144.3713  158.9468 H   0  0  0  0  0  0  0  0  0  0  0  0
  151.6967  144.0888  159.9300 H   0  0  0  0  0  0  0  0  0  0  0  0
  150.6620  143.6810  156.6307 H   0  0  0  0  0  0  0  0  0  0  0  0
  149.8548  139.4408  154.2382 H   0  0  0  0  0  0  0  0  0  0  0  0
  152.4382  137.8301  156.0495 H   0  0  0  0  0  0  0  0  0  0  0  0
  151.0155  137.5621  157.0327 H   0  0  0  0  0  0  0  0  0  0  0  0
  149.8033  137.6432  154.6010 H   0  0  0  0  0  0  0  0  0  0  0  0
  151.1343  136.9390  153.0432 H   0  0  0  0  0  0  0  0  0  0  0  0
  151.2718  135.0528  155.1469 H   0  0  0  0  0  0  0  0  0  0  0  0
  150.1321  135.5877  156.3592 H   0  0  0  0  0  0  0  0  0  0  0  0
  150.0984  133.6194  153.2412 H   0  0  0  0  0  0  0  0  0  0  0  0
  149.8722  133.1450  154.9274 H   0  0  0  0  0  0  0  0  0  0  0  0
  147.7088  133.5303  152.8282 H   0  0  0  0  0  0  0  0  0  0  0  0
  147.9459  132.1226  153.8678 H   0  0  0  0  0  0  0  0  0  0  0  0
  146.1562  134.0527  154.5855 H   0  0  0  0  0  0  0  0  0  0  0  0
  147.1974  133.3222  155.8035 H   0  0  0  0  0  0  0  0  0  0  0  0
  147.9857  135.4511  156.2013 H   0  0  0  0  0  0  0  0  0  0  0  0
  147.3923  136.0751  154.6656 H   0  0  0  0  0  0  0  0  0  0  0  0
  152.6159  139.4637  158.4394 H   0  0  0  0  0  0  0  0  0  0  0  0
  153.6373  140.6209  160.2238 H   0  0  0  0  0  0  0  0  0  0  0  0
  152.6538  141.9485  160.8392 H   0  0  0  0  0  0  0  0  0  0  0  0
  154.1059  142.2851  159.8848 H   0  0  0  0  0  0  0  0  0  0  0  0
  149.2239  135.6536  153.6473 H   0  0  0  0  0  0  0  0  0  0  0  0
  1  2  1  0  0  0  0
  1 21  1  0  0  0  0
  1 22  1  0  0  0  0
  1 23  1  0  0  0  0
  2 19  1  0  0  0  0
  2  3  2  0  0  0  0
  3  4  1  0  0  0  0
  3 24  1  0  0  0  0
  4 17  2  0  0  0  0
  4  5  1  0  0  0  0
  5  6  2  0  0  0  0
  6  7  1  0  0  0  0
  6 25  1  0  0  0  0
  7  8  1  0  0  0  0
  7 17  1  0  0  0  0
  8  9  1  0  0  0  0
  8 26  1  0  0  0  0
  8 27  1  0  0  0  0
  9 10  1  0  0  0  0
  9 11  1  0  0  0  0
  9 28  1  0  0  0  0
 10 29  1  0  0  0  0
 11 12  1  0  0  0  0
 11 30  1  0  0  0  0
 11 31  1  0  0  0  0
 12 16  1  0  0  0  0
 12 13  1  0  0  0  0
 12 44  1  0  0  0  0
 13 14  1  0  0  0  0
 13 32  1  0  0  0  0
 13 33  1  0  0  0  0
 14 15  1  0  0  0  0
 14 34  1  0  0  0  0
 14 35  1  0  0  0  0
 15 16  1  0  0  0  0
 15 36  1  0  0  0  0
 15 37  1  0  0  0  0
 16 38  1  0  0  0  0
 16 39  1  0  0  0  0
 17 18  1  0  0  0  0
 18 19  2  0  0  0  0
 18 40  1  0  0  0  0
 19 20  1  0  0  0  0
 20 41  1  0  0  0  0
 20 42  1  0  0  0  0
 20 43  1  0  0  0  0
M  CHG  1  12   1
M  END
> <s_m_source_file>
AV-unprocessed.smi

> <i_m_source_file_index>
1619

> <i_lp_mmshare_version>
43012

> <i_f3d_flags>
0

> <s_epik_input>
W0NIM11jKFtjSF0xKWMoW0NIM10pW2NIXWMoYzEyKW4oW2NIXW4yKVtDSDJdW0NASF0oW09IXSlbQ0gyXU4zW0NIMl1bQ0gyXVtDSDJdW0NIMl0z

> <s_epik_cmdline>
J2VwaWtfcHl0aG9uJywgJy1waCcsICc3LjAnLCAnLXRuJywgJzgnLCAnLW1hJywgJzIwMCcsICctbWV0YWxfYmluZGluZycsICctaW1hZScsICc8aW5maWxlLm1hZT4nLCAnLW9tYWUnLCAnPG91dGZpbGUubWFlPic=

> <r_epik_Ionization_Penalty>
0.0947557

> <r_epik_Ionization_Penalty_Charging>
0.00674132

> <r_epik_Ionization_Penalty_Neutral>
0.0880144

> <r_epik_State_Penalty>
0.0806172

> <r_epik_Charging_Adjusted_Penalty>
0.0873585

> <i_epik_Tot_Q>
1

> <i_epik_Tot_abs_Q>
1

> <r_epik_Metal_State_Penalty>
8.03852e-05

> <b_epik_Metal_Only>
0

> <s_lp_Force_Field>
OPLS_2005

> <r_lp_Energy>
32.1533

> <b_lp_Chiralities_Consistent>
1

> <s_lp_Variant>
AV-unprocessed.smi:1619-2

> <Gold.Version>
5.8.1

> <Gold.Id.Protein>
6NUR|6NUR_protein|mol2

> <Gold.PLP.Fitness>
49.8592

> <Gold.PLP.PLP>
-40.1729

> <Gold.PLP.part.hbond>
-4.0000

> <Gold.PLP.part.metal>
0.0000

> <Gold.PLP.part.buried>
-4.0891

> <Gold.PLP.part.nonpolar>
-32.4608

> <Gold.PLP.part.repulsive>
0.1382

> <Gold.PLP.ligand.clash>
0.0000

> <Gold.PLP.ligand.torsion>
1.1689

> <Gold.PLP.Chemscore.Hbond>
4.0000

> <Gold.PLP.Chemscore.CHOScore>
0.0000

> <Gold.PLP.Chemscore.Metal>
0.0000

> <Gold.Chemscore.Hbonds>
donor molecule, donor type, donor heavy atom, donor atom, acceptor molecule, acceptor atom, score
      L1  H    10    29       P1  7949  0.88
      L1  H    12    44       P1  7948  2.00
      P1  H 10752 10765       L1    10  1.00

> <Gold.PLP.Chemscore.Internal.Correction>
0.0241

> <Gold.Rescore>
     Score         DG    S(hbond)    S(metal)    S(lipo)     H(rot)  DE(clash)    DE(int)     intcor
     18.18     -19.81       2.29        0.00     101.22       2.02       0.25       1.37       ----

> <Gold.Chemscore.Fitness>
18.1804

> <Gold.Chemscore.DG>
-19.8051

> <Gold.Chemscore.ZeroCoef>
-5.4800

> <Gold.Chemscore.Hbond>
2.2935

> <Gold.Chemscore.Metal>
0.0000

> <Gold.Chemscore.Lipo>
101.2215

> <Gold.Chemscore.Internal_Hbond>
0.0000

> <Gold.Chemscore.DEClash>
0.2521

> <Gold.Chemscore.DEInternal>
1.3726

> <Gold.Chemscore.Rot>
2.0227

> <Gold.Chemscore.Internal.Correction>
   9.000000E+99

> <Gold.Chemscore.Hbonds>
donor molecule, donor type, donor heavy atom, donor atom, acceptor molecule, acceptor atom, score
      L1  H    10    29       P1  7949  0.39
      L1  H    12    44       P1  7948  0.60
      P1  H 10752 10765       L1    10  0.46

> <Gold.Chemscore.Hbond.Weighted>
-7.6601

> <Gold.Chemscore.Metal.Weighted>
-0.0000

> <Gold.Chemscore.Lipo.Weighted>
-11.8429

> <Gold.Chemscore.Internal_Hbond.Weighted>
0.0000

> <Gold.Chemscore.DEClash.Weighted>
0.2521

> <Gold.Chemscore.DEInternal.Weighted>
1.3726

> <Gold.Chemscore.Rot.Weighted>
5.1780

> <Gold.Chemscore.Internal.Correction.Weighted>
   9.000000E+99

> <Gold.Protein.RotatedTorsions>
[ 6907 6896 6895 6894 ] final  -37.90 input  -60.11 | X-H torsion
[ 7974 7965 7964 7962 ] final  -15.24 input  175.53 | X-H torsion
[ 8008 7997 7996 7995 ] final  179.30 input   59.86 | X-H torsion
[ 10167 10162 10161 10158 ] final  161.23 input  -65.29 | X-H torsion
[ 10718 10713 10712 10709 ] final    7.27 input   66.30 | X-H torsion
[ 10763 10752 10751 10750 ] final  155.11 input  -60.55 | X-H torsion
[ 11005 11000 10999 10996 ] final   87.51 input  -57.11 | X-H torsion

> <Gold.Protein.ActiveResidues>
 VAL166  LYS551  ARG553  GLY616  TRP617  ASP618  TYR619  PRO620  LYS621  CYS622 
 ASP623  PHE694  ASN695  SER759  ASP760  ASP761  ALA762  ILE779  LEU786  VAL792 
 PHE793  MET794  SER795  GLU796  ALA797  LYS798  CYS799  TRP800  GLU811  SER814 

> <Gold.Protein.RotatedAtoms>
  151.0090  134.9382  159.7996 H   0  0  0  0  0  0  0  0  0  0  0  0  # atno 6907 bound_to 6896
  152.5298  134.3053  159.9103 H   0  0  0  0  0  0  0  0  0  0  0  0  # atno 6908 bound_to 6896
  151.3059  133.4060  159.2677 H   0  0  0  0  0  0  0  0  0  0  0  0  # atno 6909 bound_to 6896
  146.2040  140.3465  142.8413 H   0  0  0  0  0  0  0  0  0  0  0  0  # atno 7974 bound_to 7965
  156.0449  140.1312  157.0115 H   0  0  0  0  0  0  0  0  0  0  0  0  # atno 8008 bound_to 7997
  154.4408  140.1022  156.6362 H   0  0  0  0  0  0  0  0  0  0  0  0  # atno 8009 bound_to 7997
  155.5611  140.3465  155.4494 H   0  0  0  0  0  0  0  0  0  0  0  0  # atno 8010 bound_to 7997
  139.4847  144.4556  151.8772 H   0  0  0  0  0  0  0  0  0  0  0  0  # atno 10167 bound_to 10162
  156.9344  130.5838  149.5650 H   0  0  0  0  0  0  0  0  0  0  0  0  # atno 10718 bound_to 10713
  154.1632  135.2808  155.3103 H   0  0  0  0  0  0  0  0  0  0  0  0  # atno 10763 bound_to 10752
  154.6131  135.5492  153.7498 H   0  0  0  0  0  0  0  0  0  0  0  0  # atno 10764 bound_to 10752
  153.0186  135.6420  154.1773 H   0  0  0  0  0  0  0  0  0  0  0  0  # atno 10765 bound_to 10752
  139.8918  134.8427  156.2870 H   0  0  0  0  0  0  0  0  0  0  0  0  # atno 11005 bound_to 11000
  144.8749  140.7323  143.6023 LP  0  0  0  0  0  0  0  0  0  0  0  0  # atno 17320 bound_to 7965
  145.3384  139.1739  143.4499 LP  0  0  0  0  0  0  0  0  0  0  0  0  # atno 17321 bound_to 7965
  140.4016  144.2486  150.5893 LP  0  0  0  0  0  0  0  0  0  0  0  0  # atno 17342 bound_to 10162
  140.5052  143.2306  151.8619 LP  0  0  0  0  0  0  0  0  0  0  0  0  # atno 17343 bound_to 10162
  156.0432  130.5512  150.8821 LP  0  0  0  0  0  0  0  0  0  0  0  0  # atno 17370 bound_to 10713
  157.5826  131.0946  150.9247 LP  0  0  0  0  0  0  0  0  0  0  0  0  # atno 17371 bound_to 10713
  141.0001  133.7156  156.0947 LP  0  0  0  0  0  0  0  0  0  0  0  0  # atno 17394 bound_to 11000
  140.7509  134.4046  157.5541 LP  0  0  0  0  0  0  0  0  0  0  0  0  # atno 17395 bound_to 11000

$$$$
