AV-unprocessed.smi:2252|AV-procd|sdf|9105|dock6
  -GOLD-   2272012303D 1   1.00000     0.00000
 Structure written by MMmdl.
 45 47  0  0  0  0  0  0  0  0  2 V2000
  151.4710  145.2237  159.2376 C   0  0  0  0  0  0  0  0  0  0  0  0
  151.9214  143.8458  159.2789 N   0  0  0  0  0  0  0  0  0  0  0  0
  152.7184  143.2775  160.2638 C   0  0  0  0  0  0  0  0  0  0  0  0
  152.8973  141.9606  159.9151 C   0  0  0  0  0  0  0  0  0  0  0  0
  152.2222  141.7026  158.7270 N   0  0  0  0  0  0  0  0  0  0  0  0
  151.6658  142.8632  158.3936 C   0  0  0  0  0  0  0  0  0  0  0  0
  150.8156  143.0537  157.1765 C   0  0  0  0  0  0  0  0  0  0  0  0
  150.3757  141.7173  156.5554 C   0  0  0  0  0  0  0  0  0  0  0  0
  149.3183  141.9007  155.5684 N   0  0  0  0  0  0  0  0  0  0  0  0
  148.3892  140.9840  155.2563 C   0  0  0  0  0  0  0  0  0  0  0  0
  148.3297  139.8743  155.7866 O   0  0  0  0  0  0  0  0  0  0  0  0
  147.3584  141.3825  154.1897 C   0  0  2  0  0  0  0  0  0  0  0  0
  145.9802  141.5359  154.8680 C   0  0  0  0  0  0  0  0  0  0  0  0
  145.1815  142.8152  154.7429 C   0  0  0  0  0  0  0  0  0  0  0  0
  145.8012  142.4447  156.0657 C   0  0  0  0  0  0  0  0  0  0  0  0
  147.3116  140.3930  153.0757 N   0  3  0  0  0  0  0  0  0  0  0  0
  147.0299  138.9991  153.4798 C   0  0  0  0  0  0  0  0  0  0  0  0
  146.5431  138.2789  152.2183 C   0  0  0  0  0  0  0  0  0  0  0  0
  146.1485  139.3871  151.2370 C   0  0  0  0  0  0  0  0  0  0  0  0
  146.3326  140.6947  152.0084 C   0  0  0  0  0  0  0  0  0  0  0  0
  151.7511  145.7391  160.1566 H   0  0  0  0  0  0  0  0  0  0  0  0
  150.3864  145.2577  159.1319 H   0  0  0  0  0  0  0  0  0  0  0  0
  151.9315  145.7358  158.3923 H   0  0  0  0  0  0  0  0  0  0  0  0
  153.0816  143.8413  161.1105 H   0  0  0  0  0  0  0  0  0  0  0  0
  153.4533  141.1860  160.4224 H   0  0  0  0  0  0  0  0  0  0  0  0
  149.9454  143.6604  157.4275 H   0  0  0  0  0  0  0  0  0  0  0  0
  151.3889  143.6337  156.4523 H   0  0  0  0  0  0  0  0  0  0  0  0
  151.2265  141.2079  156.0992 H   0  0  0  0  0  0  0  0  0  0  0  0
  149.9977  141.0535  157.3334 H   0  0  0  0  0  0  0  0  0  0  0  0
  149.2885  142.7918  155.0941 H   0  0  0  0  0  0  0  0  0  0  0  0
  147.6513  142.3469  153.7698 H   0  0  0  0  0  0  0  0  0  0  0  0
  145.4023  140.6133  154.8969 H   0  0  0  0  0  0  0  0  0  0  0  0
  145.6274  143.6443  154.1970 H   0  0  0  0  0  0  0  0  0  0  0  0
  144.1013  142.7233  154.6490 H   0  0  0  0  0  0  0  0  0  0  0  0
  145.1344  142.1080  156.8569 H   0  0  0  0  0  0  0  0  0  0  0  0
  146.6584  143.0280  156.3966 H   0  0  0  0  0  0  0  0  0  0  0  0
  147.9071  138.5179  153.9137 H   0  0  0  0  0  0  0  0  0  0  0  0
  146.2363  138.9914  154.2286 H   0  0  0  0  0  0  0  0  0  0  0  0
  147.3407  137.6694  151.7918 H   0  0  0  0  0  0  0  0  0  0  0  0
  145.7068  137.6153  152.4418 H   0  0  0  0  0  0  0  0  0  0  0  0
  146.8134  139.3669  150.3727 H   0  0  0  0  0  0  0  0  0  0  0  0
  145.1281  139.2731  150.8697 H   0  0  0  0  0  0  0  0  0  0  0  0
  145.3827  140.9898  152.4575 H   0  0  0  0  0  0  0  0  0  0  0  0
  146.6645  141.5070  151.3608 H   0  0  0  0  0  0  0  0  0  0  0  0
  148.2222  140.3883  152.6383 H   0  0  0  0  0  0  0  0  0  0  0  0
  1  2  1  0  0  0  0
  1 21  1  0  0  0  0
  1 22  1  0  0  0  0
  1 23  1  0  0  0  0
  2  6  1  0  0  0  0
  2  3  1  0  0  0  0
  3  4  2  0  0  0  0
  3 24  1  0  0  0  0
  4  5  1  0  0  0  0
  4 25  1  0  0  0  0
  5  6  2  0  0  0  0
  6  7  1  0  0  0  0
  7  8  1  0  0  0  0
  7 26  1  0  0  0  0
  7 27  1  0  0  0  0
  8  9  1  0  0  0  0
  8 28  1  0  0  0  0
  8 29  1  0  0  0  0
  9 10  1  0  0  0  0
  9 30  1  0  0  0  0
 10 11  2  0  0  0  0
 10 12  1  0  0  0  0
 12 13  1  0  0  0  0
 12 16  1  0  0  0  0
 12 31  1  0  0  0  0
 13 15  1  0  0  0  0
 13 14  1  0  0  0  0
 13 32  1  0  0  0  0
 14 15  1  0  0  0  0
 14 33  1  0  0  0  0
 14 34  1  0  0  0  0
 15 35  1  0  0  0  0
 15 36  1  0  0  0  0
 16 20  1  0  0  0  0
 16 17  1  0  0  0  0
 16 45  1  0  0  0  0
 17 18  1  0  0  0  0
 17 37  1  0  0  0  0
 17 38  1  0  0  0  0
 18 19  1  0  0  0  0
 18 39  1  0  0  0  0
 18 40  1  0  0  0  0
 19 20  1  0  0  0  0
 19 41  1  0  0  0  0
 19 42  1  0  0  0  0
 20 43  1  0  0  0  0
 20 44  1  0  0  0  0
M  CHG  1  16   1
M  END
> <s_m_source_file>
AV-unprocessed.smi

> <i_m_source_file_index>
2252

> <i_lp_mmshare_version>
43012

> <i_f3d_flags>
0

> <s_epik_input>
W0NIM11uMVtjSF1bY0hdbmMxW0NIMl1bQ0gyXVtOSF1DKD1PKVtDQEhdKFtDSF0yW0NIMl1bQ0gyXTIpTjNbQ0gyXVtDSDJdW0NIMl1bQ0gyXTM=

> <s_epik_cmdline>
J2VwaWtfcHl0aG9uJywgJy1waCcsICc3LjAnLCAnLXRuJywgJzgnLCAnLW1hJywgJzIwMCcsICctbWV0YWxfYmluZGluZycsICctaW1hZScsICc8aW5maWxlLm1hZT4nLCAnLW9tYWUnLCAnPG91dGZpbGUubWFlPic=

> <r_lp_tautomer_probability>
1

> <r_epik_Ionization_Penalty>
1.07437

> <r_epik_Ionization_Penalty_Charging>
1.07435

> <r_epik_Ionization_Penalty_Neutral>
2.35578e-05

> <r_epik_State_Penalty>
1.18204

> <r_epik_Charging_Adjusted_Penalty>
2.25639

> <i_epik_Tot_Q>
1

> <i_epik_Tot_abs_Q>
1

> <r_epik_Metal_State_Penalty>
0.433434

> <b_epik_Metal_Only>
0

> <s_lp_Force_Field>
OPLS_2005

> <r_lp_Energy>
33.5931

> <b_lp_Chiralities_Consistent>
1

> <s_lp_Variant>
AV-unprocessed.smi:2252-3

> <Gold.Version>
5.8.1

> <Gold.Id.Protein>
6NUR|6NUR_protein|mol2

> <Gold.PLP.Fitness>
45.0938

> <Gold.PLP.PLP>
-43.5840

> <Gold.PLP.part.hbond>
-2.0000

> <Gold.PLP.part.metal>
0.0000

> <Gold.PLP.part.buried>
1.6766

> <Gold.PLP.part.nonpolar>
-44.0627

> <Gold.PLP.part.repulsive>
0.2763

> <Gold.PLP.ligand.clash>
0.0000

> <Gold.PLP.ligand.torsion>
1.2585

> <Gold.PLP.Chemscore.Hbond>
0.9618

> <Gold.PLP.Chemscore.CHOScore>
0.0000

> <Gold.PLP.Chemscore.Metal>
0.0000

> <Gold.Chemscore.Hbonds>
donor molecule, donor type, donor heavy atom, donor atom, acceptor molecule, acceptor atom, score
      L1  H     9    30       P1  8028  0.70
      L1  H    16    45       P1  7957  0.96

> <Gold.PLP.Chemscore.Internal.Correction>
1.1415

> <Gold.Rescore>
     Score         DG    S(hbond)    S(metal)    S(lipo)     H(rot)  DE(clash)    DE(int)     intcor
     13.10     -18.31       1.47        0.00     110.25       1.95       2.57       2.64       ----

> <Gold.Chemscore.Fitness>
13.1043

> <Gold.Chemscore.DG>
-18.3131

> <Gold.Chemscore.ZeroCoef>
-5.4800

> <Gold.Chemscore.Hbond>
1.4737

> <Gold.Chemscore.Metal>
0.0000

> <Gold.Chemscore.Lipo>
110.2492

> <Gold.Chemscore.Internal_Hbond>
0.0000

> <Gold.Chemscore.DEClash>
2.5694

> <Gold.Chemscore.DEInternal>
2.6394

> <Gold.Chemscore.Rot>
1.9485

> <Gold.Chemscore.Internal.Correction>
   9.000000E+99

> <Gold.Chemscore.Hbonds>
donor molecule, donor type, donor heavy atom, donor atom, acceptor molecule, acceptor atom, score
      L1  H     9    30       P1  8028  0.66
      L1  H    16    45       P1  7957  0.90

> <Gold.Chemscore.Hbond.Weighted>
-4.9221

> <Gold.Chemscore.Metal.Weighted>
-0.0000

> <Gold.Chemscore.Lipo.Weighted>
-12.8992

> <Gold.Chemscore.Internal_Hbond.Weighted>
0.0000

> <Gold.Chemscore.DEClash.Weighted>
2.5694

> <Gold.Chemscore.DEInternal.Weighted>
2.6394

> <Gold.Chemscore.Rot.Weighted>
4.9881

> <Gold.Chemscore.Internal.Correction.Weighted>
   9.000000E+99

> <Gold.Protein.RotatedTorsions>
[ 6907 6896 6895 6894 ] final   96.70 input  -60.11 | X-H torsion
[ 7974 7965 7964 7962 ] final -158.44 input  175.53 | X-H torsion
[ 8008 7997 7996 7995 ] final  -34.99 input   59.86 | X-H torsion
[ 10167 10162 10161 10158 ] final   81.31 input  -65.29 | X-H torsion
[ 10718 10713 10712 10709 ] final  -88.79 input   66.30 | X-H torsion
[ 10763 10752 10751 10750 ] final -140.66 input  -60.55 | X-H torsion
[ 11005 11000 10999 10996 ] final   39.49 input  -57.11 | X-H torsion

> <Gold.Protein.ActiveResidues>
 VAL166  LYS551  ARG553  GLY616  TRP617  ASP618  TYR619  PRO620  LYS621  CYS622 
 ASP623  PHE694  ASN695  SER759  ASP760  ASP761  ALA762  ILE779  LEU786  VAL792 
 PHE793  MET794  SER795  GLU796  ALA797  LYS798  CYS799  TRP800  GLU811  SER814 

> <Gold.Protein.RotatedAtoms>
  152.5432  134.0847  159.8250 H   0  0  0  0  0  0  0  0  0  0  0  0  # atno 6907 bound_to 6896
  151.0944  133.5284  159.2620 H   0  0  0  0  0  0  0  0  0  0  0  0  # atno 6908 bound_to 6896
  151.2063  135.0472  159.8947 H   0  0  0  0  0  0  0  0  0  0  0  0  # atno 6909 bound_to 6896
  144.7505  140.3827  143.6051 H   0  0  0  0  0  0  0  0  0  0  0  0  # atno 7974 bound_to 7965
  154.4106  140.1669  156.2139 H   0  0  0  0  0  0  0  0  0  0  0  0  # atno 8008 bound_to 7997
  155.9421  140.3407  155.6313 H   0  0  0  0  0  0  0  0  0  0  0  0  # atno 8009 bound_to 7997
  155.6976  140.0741  157.2414 H   0  0  0  0  0  0  0  0  0  0  0  0  # atno 8010 bound_to 7997
  139.9406  144.6092  150.8256 H   0  0  0  0  0  0  0  0  0  0  0  0  # atno 10167 bound_to 10162
  155.9983  130.4848  150.5073 H   0  0  0  0  0  0  0  0  0  0  0  0  # atno 10718 bound_to 10713
  154.8571  135.3547  154.5743 H   0  0  0  0  0  0  0  0  0  0  0  0  # atno 10763 bound_to 10752
  153.6355  135.7000  153.5265 H   0  0  0  0  0  0  0  0  0  0  0  0  # atno 10764 bound_to 10752
  153.3014  135.4205  155.1215 H   0  0  0  0  0  0  0  0  0  0  0  0  # atno 10765 bound_to 10752
  140.2023  134.3856  155.8090 H   0  0  0  0  0  0  0  0  0  0  0  0  # atno 11005 bound_to 11000
  145.6960  139.1650  143.2620 LP  0  0  0  0  0  0  0  0  0  0  0  0  # atno 17320 bound_to 7965
  146.1449  140.7006  142.9349 LP  0  0  0  0  0  0  0  0  0  0  0  0  # atno 17321 bound_to 7965
  140.7612  143.3169  151.2713 LP  0  0  0  0  0  0  0  0  0  0  0  0  # atno 17342 bound_to 10162
  139.6708  144.0024  152.2751 LP  0  0  0  0  0  0  0  0  0  0  0  0  # atno 17343 bound_to 10162
  157.3050  131.0652  151.2041 LP  0  0  0  0  0  0  0  0  0  0  0  0  # atno 17370 bound_to 10713
  157.3007  130.6841  149.6162 LP  0  0  0  0  0  0  0  0  0  0  0  0  # atno 17371 bound_to 10713
  141.2227  133.7100  156.8278 LP  0  0  0  0  0  0  0  0  0  0  0  0  # atno 17394 bound_to 11000
  140.2041  134.8875  157.3202 LP  0  0  0  0  0  0  0  0  0  0  0  0  # atno 17395 bound_to 11000

$$$$
