AV-unprocessed.smi:2453|AV-procd|sdf|9689|dock5
  -GOLD-   2272013323D 1   1.00000     0.00000
 Structure written by MMmdl.
 40 41  0  0  0  0  0  0  0  0  1 V2000
  150.3213  138.4574  154.2900 C   0  0  0  0  0  0  0  0  0  0  0  0
  149.2465  139.5262  154.1940 C   0  0  0  0  0  0  0  0  0  0  0  0
  149.5455  140.8584  154.5530 C   0  0  0  0  0  0  0  0  0  0  0  0
  148.6511  141.8663  154.4933 N   0  0  0  0  0  0  0  0  0  0  0  0
  147.4074  141.5769  154.0593 C   0  0  0  0  0  0  0  0  0  0  0  0
  147.0006  140.2844  153.6751 C   0  0  0  0  0  0  0  0  0  0  0  0
  147.9348  139.2228  153.7538 C   0  0  0  0  0  0  0  0  0  0  0  0
  147.6351  137.8816  153.3792 N   0  0  0  0  0  0  0  0  0  0  0  0
  146.4930  137.1908  153.5403 C   0  0  0  0  0  0  0  0  0  0  0  0
  145.4650  137.6190  154.0640 O   0  0  0  0  0  0  0  0  0  0  0  0
  146.6157  135.9422  153.0674 N   0  0  0  0  0  0  0  0  0  0  0  0
  145.5668  134.9206  153.0781 C   0  0  2  0  0  0  0  0  0  0  0  0
  145.9287  133.7666  154.0388 C   0  0  0  0  0  0  0  0  0  0  0  0
  147.0989  132.9186  153.5132 C   0  0  0  0  0  0  0  0  0  0  0  0
  146.8108  132.3917  152.1003 C   0  0  0  0  0  0  0  0  0  0  0  0
  146.4688  133.5376  151.1348 C   0  0  0  0  0  0  0  0  0  0  0  0
  145.2851  134.3854  151.6483 C   0  0  2  0  0  0  0  0  0  0  0  0
  144.9119  135.4881  150.6347 C   0  0  0  0  0  0  0  0  0  0  0  0
  144.2090  134.9449  149.5369 O   0  0  0  0  0  0  0  0  0  0  0  0
  151.2574  138.8688  154.6685 H   0  0  0  0  0  0  0  0  0  0  0  0
  150.5163  138.0247  153.3083 H   0  0  0  0  0  0  0  0  0  0  0  0
  150.0074  137.6600  154.9641 H   0  0  0  0  0  0  0  0  0  0  0  0
  150.5331  141.1270  154.8982 H   0  0  0  0  0  0  0  0  0  0  0  0
  146.7145  142.4038  154.0097 H   0  0  0  0  0  0  0  0  0  0  0  0
  145.9920  140.1413  153.3201 H   0  0  0  0  0  0  0  0  0  0  0  0
  148.4111  137.3624  152.9958 H   0  0  0  0  0  0  0  0  0  0  0  0
  147.5008  135.6743  152.6626 H   0  0  0  0  0  0  0  0  0  0  0  0
  144.6505  135.3847  153.4474 H   0  0  0  0  0  0  0  0  0  0  0  0
  146.1646  134.1530  155.0309 H   0  0  0  0  0  0  0  0  0  0  0  0
  145.0562  133.1251  154.1678 H   0  0  0  0  0  0  0  0  0  0  0  0
  148.0129  133.5138  153.5043 H   0  0  0  0  0  0  0  0  0  0  0  0
  147.2829  132.0829  154.1888 H   0  0  0  0  0  0  0  0  0  0  0  0
  147.6727  131.8368  151.7287 H   0  0  0  0  0  0  0  0  0  0  0  0
  145.9811  131.6846  152.1366 H   0  0  0  0  0  0  0  0  0  0  0  0
  147.3466  134.1695  150.9931 H   0  0  0  0  0  0  0  0  0  0  0  0
  146.2312  133.1214  150.1552 H   0  0  0  0  0  0  0  0  0  0  0  0
  144.4263  133.7155  151.7175 H   0  0  0  0  0  0  0  0  0  0  0  0
  144.3128  136.2727  151.0973 H   0  0  0  0  0  0  0  0  0  0  0  0
  145.8139  135.9652  150.2505 H   0  0  0  0  0  0  0  0  0  0  0  0
  144.7279  135.0663  148.7563 H   0  0  0  0  0  0  0  0  0  0  0  0
  1  2  1  0  0  0  0
  1 20  1  0  0  0  0
  1 21  1  0  0  0  0
  1 22  1  0  0  0  0
  2  7  1  0  0  0  0
  2  3  2  0  0  0  0
  3  4  1  0  0  0  0
  3 23  1  0  0  0  0
  4  5  2  0  0  0  0
  5  6  1  0  0  0  0
  5 24  1  0  0  0  0
  6  7  2  0  0  0  0
  6 25  1  0  0  0  0
  7  8  1  0  0  0  0
  8  9  1  0  0  0  0
  8 26  1  0  0  0  0
  9 10  2  0  0  0  0
  9 11  1  0  0  0  0
 11 12  1  0  0  0  0
 11 27  1  0  0  0  0
 12 17  1  0  0  0  0
 12 13  1  0  0  0  0
 12 28  1  0  0  0  0
 13 14  1  0  0  0  0
 13 29  1  0  0  0  0
 13 30  1  0  0  0  0
 14 15  1  0  0  0  0
 14 31  1  0  0  0  0
 14 32  1  0  0  0  0
 15 16  1  0  0  0  0
 15 33  1  0  0  0  0
 15 34  1  0  0  0  0
 16 17  1  0  0  0  0
 16 35  1  0  0  0  0
 16 36  1  0  0  0  0
 17 18  1  0  0  0  0
 17 37  1  0  0  0  0
 18 19  1  0  0  0  0
 18 38  1  0  0  0  0
 18 39  1  0  0  0  0
 19 40  1  0  0  0  0
M  END
> <s_m_source_file>
AV-unprocessed.smi

> <i_m_source_file_index>
2453

> <i_lp_mmshare_version>
43012

> <i_f3d_flags>
0

> <s_epik_input>
W0NIM11jMVtjSF1uW2NIXVtjSF1jMVtOSF1DKD1PKVtOSF1bQ0BASF0yW0NIMl1bQ0gyXVtDSDJdW0NIMl1bQ0BIXTJbQ0gyXVtPSF0=

> <s_epik_cmdline>
J2VwaWtfcHl0aG9uJywgJy1waCcsICc3LjAnLCAnLXRuJywgJzgnLCAnLW1hJywgJzIwMCcsICctbWV0YWxfYmluZGluZycsICctaW1hZScsICc8aW5maWxlLm1hZT4nLCAnLW9tYWUnLCAnPG91dGZpbGUubWFlPic=

> <r_epik_Ionization_Penalty>
0.210691

> <r_epik_Ionization_Penalty_Charging>
0

> <r_epik_Ionization_Penalty_Neutral>
0.210691

> <r_epik_State_Penalty>
0.200732

> <r_epik_Charging_Adjusted_Penalty>
0.200732

> <i_epik_Tot_Q>
0

> <i_epik_Tot_abs_Q>
0

> <r_epik_Metal_State_Penalty>
0.147519

> <b_epik_Metal_Only>
0

> <s_lp_Force_Field>
OPLS_2005

> <r_lp_Energy>
18.5766

> <b_lp_Chiralities_Consistent>
1

> <s_lp_Variant>
AV-unprocessed.smi:2453-3

> <Gold.Version>
5.8.1

> <Gold.Id.Protein>
6NUR|6NUR_protein|mol2

> <Gold.PLP.Fitness>
38.9308

> <Gold.PLP.PLP>
-30.8544

> <Gold.PLP.part.hbond>
-4.1983

> <Gold.PLP.part.metal>
0.0000

> <Gold.PLP.part.buried>
-1.0767

> <Gold.PLP.part.nonpolar>
-25.7178

> <Gold.PLP.part.repulsive>
1.0692

> <Gold.PLP.ligand.clash>
0.0000

> <Gold.PLP.ligand.torsion>
0.4584

> <Gold.PLP.Chemscore.Hbond>
2.9914

> <Gold.PLP.Chemscore.CHOScore>
0.0000

> <Gold.PLP.Chemscore.Metal>
0.0000

> <Gold.Chemscore.Hbonds>
donor molecule, donor type, donor heavy atom, donor atom, acceptor molecule, acceptor atom, score
      L1  H     8    26       P1  7948  0.96
      L1  H    11    27       P1  7948  0.93
      L1  H    19    40       P1  7921  1.00

> <Gold.PLP.Chemscore.Internal.Correction>
0.0191

> <Gold.Rescore>
     Score         DG    S(hbond)    S(metal)    S(lipo)     H(rot)  DE(clash)    DE(int)     intcor
     18.22     -18.85       2.85        0.00      71.27       1.75       0.01       0.62       ----

> <Gold.Chemscore.Fitness>
18.2240

> <Gold.Chemscore.DG>
-18.8529

> <Gold.Chemscore.ZeroCoef>
-5.4800

> <Gold.Chemscore.Hbond>
2.8482

> <Gold.Chemscore.Metal>
0.0000

> <Gold.Chemscore.Lipo>
71.2667

> <Gold.Chemscore.Internal_Hbond>
0.0000

> <Gold.Chemscore.DEClash>
0.0073

> <Gold.Chemscore.DEInternal>
0.6216

> <Gold.Chemscore.Rot>
1.7493

> <Gold.Chemscore.Internal.Correction>
   9.000000E+99

> <Gold.Chemscore.Hbonds>
donor molecule, donor type, donor heavy atom, donor atom, acceptor molecule, acceptor atom, score
      L1  H     8    26       P1  7948  0.92
      L1  H    11    27       P1  7948  0.91
      L1  H    19    40       P1  7921  0.99

> <Gold.Chemscore.Hbond.Weighted>
-9.5128

> <Gold.Chemscore.Metal.Weighted>
-0.0000

> <Gold.Chemscore.Lipo.Weighted>
-8.3382

> <Gold.Chemscore.Internal_Hbond.Weighted>
0.0000

> <Gold.Chemscore.DEClash.Weighted>
0.0073

> <Gold.Chemscore.DEInternal.Weighted>
0.6216

> <Gold.Chemscore.Rot.Weighted>
4.4782

> <Gold.Chemscore.Internal.Correction.Weighted>
   9.000000E+99

> <Gold.Protein.RotatedTorsions>
[ 6907 6896 6895 6894 ] final -111.30 input  -60.11 | X-H torsion
[ 7974 7965 7964 7962 ] final  113.01 input  175.53 | X-H torsion
[ 8008 7997 7996 7995 ] final   48.22 input   59.86 | X-H torsion
[ 10167 10162 10161 10158 ] final   58.97 input  -65.29 | X-H torsion
[ 10718 10713 10712 10709 ] final  143.18 input   66.30 | X-H torsion
[ 10763 10752 10751 10750 ] final   88.69 input  -60.55 | X-H torsion
[ 11005 11000 10999 10996 ] final   79.32 input  -57.11 | X-H torsion

> <Gold.Protein.ActiveResidues>
 VAL166  LYS551  ARG553  GLY616  TRP617  ASP618  TYR619  PRO620  LYS621  CYS622 
 ASP623  PHE694  ASN695  SER759  ASP760  ASP761  ALA762  ILE779  LEU786  VAL792 
 PHE793  MET794  SER795  GLU796  ALA797  LYS798  CYS799  TRP800  GLU811  SER814 

> <Gold.Protein.RotatedAtoms>
  150.7681  133.9256  159.3410 H   0  0  0  0  0  0  0  0  0  0  0  0  # atno 6907 bound_to 6896
  151.7149  135.0903  160.0283 H   0  0  0  0  0  0  0  0  0  0  0  0  # atno 6908 bound_to 6896
  152.3686  133.6352  159.6105 H   0  0  0  0  0  0  0  0  0  0  0  0  # atno 6909 bound_to 6896
  145.2223  139.2856  143.4212 H   0  0  0  0  0  0  0  0  0  0  0  0  # atno 7974 bound_to 7965
  155.3820  140.3429  155.4247 H   0  0  0  0  0  0  0  0  0  0  0  0  # atno 8008 bound_to 7997
  156.1605  140.1599  156.8653 H   0  0  0  0  0  0  0  0  0  0  0  0  # atno 8009 bound_to 7997
  154.5135  140.0784  156.8018 H   0  0  0  0  0  0  0  0  0  0  0  0  # atno 8010 bound_to 7997
  140.1815  144.4177  150.6613 H   0  0  0  0  0  0  0  0  0  0  0  0  # atno 10167 bound_to 10162
  157.3720  131.0980  151.0819 H   0  0  0  0  0  0  0  0  0  0  0  0  # atno 10718 bound_to 10713
  153.1794  135.4497  155.0008 H   0  0  0  0  0  0  0  0  0  0  0  0  # atno 10763 bound_to 10752
  154.8020  135.3259  154.7529 H   0  0  0  0  0  0  0  0  0  0  0  0  # atno 10764 bound_to 10752
  153.7995  135.6963  153.4913 H   0  0  0  0  0  0  0  0  0  0  0  0  # atno 10765 bound_to 10752
  139.9177  134.7833  156.1764 H   0  0  0  0  0  0  0  0  0  0  0  0  # atno 11005 bound_to 11000
  146.3373  140.2532  142.8599 LP  0  0  0  0  0  0  0  0  0  0  0  0  # atno 17320 bound_to 7965
  144.9754  140.8409  143.5430 LP  0  0  0  0  0  0  0  0  0  0  0  0  # atno 17321 bound_to 7965
  140.6517  143.2226  151.6063 LP  0  0  0  0  0  0  0  0  0  0  0  0  # atno 17342 bound_to 10162
  139.5294  144.2960  152.1113 LP  0  0  0  0  0  0  0  0  0  0  0  0  # atno 17343 bound_to 10162
  157.1920  130.6356  149.5708 LP  0  0  0  0  0  0  0  0  0  0  0  0  # atno 17370 bound_to 10713
  155.9757  130.4719  150.6480 LP  0  0  0  0  0  0  0  0  0  0  0  0  # atno 17371 bound_to 10713
  141.0669  133.6815  156.2062 LP  0  0  0  0  0  0  0  0  0  0  0  0  # atno 17394 bound_to 11000
  140.6570  134.5007  157.5581 LP  0  0  0  0  0  0  0  0  0  0  0  0  # atno 17395 bound_to 11000

$$$$
