AV-unprocessed.smi:3308|AV-procd|sdf|12714|dock7
  -GOLD-   2272019 53D 1   1.00000     0.00000
 Structure written by MMmdl.
 40 41  0  0  0  0  0  0  0  0  1 V2000
  150.9982  139.1673  154.9249 C   0  0  0  0  0  0  0  0  0  0  0  0
  150.6359  140.2568  155.9580 C   0  0  2  0  0  0  0  0  0  0  0  0
  151.4266  140.0438  157.1671 N   0  0  0  0  0  0  0  0  0  0  0  0
  152.0167  141.2797  157.6972 C   0  0  0  0  0  0  0  0  0  0  0  0
  152.9435  140.9903  158.8827 C   0  0  0  0  0  0  0  0  0  0  0  0
  153.7502  140.0648  158.7902 O   0  0  0  0  0  0  0  0  0  0  0  0
  152.8495  141.7579  159.9895 N   0  0  0  0  0  0  0  0  0  0  0  0
  153.6836  141.5648  161.1745 C   0  0  0  0  0  0  0  0  0  0  0  0
  153.0869  142.4682  162.2539 C   0  0  0  0  0  0  0  0  0  0  0  0
  152.3838  143.5681  161.4709 C   0  0  0  0  0  0  0  0  0  0  0  0
  151.9292  142.8788  160.1842 C   0  0  0  0  0  0  0  0  0  0  0  0
  149.1351  140.2466  156.3552 C   0  0  1  0  0  0  0  0  0  0  0  0
  148.8163  141.2319  157.4960 C   0  0  0  0  0  0  0  0  0  0  0  0
  148.2696  140.5235  155.2150 N   0  0  0  0  0  0  0  0  0  0  0  0
  148.2781  141.6162  154.3706 C   0  0  0  0  0  0  0  0  0  0  0  0
  147.2879  141.4290  153.4496 C   0  0  0  0  0  0  0  0  0  0  0  0
  146.7195  140.1769  153.8150 C   0  0  0  0  0  0  0  0  0  0  0  0
  147.3083  139.6380  154.8701 N   0  0  0  0  0  0  0  0  0  0  0  0
  150.4623  139.3090  153.9865 H   0  0  0  0  0  0  0  0  0  0  0  0
  150.7511  138.1725  155.2975 H   0  0  0  0  0  0  0  0  0  0  0  0
  152.0587  139.1727  154.6761 H   0  0  0  0  0  0  0  0  0  0  0  0
  150.8676  141.2358  155.5346 H   0  0  0  0  0  0  0  0  0  0  0  0
  152.1248  139.3357  156.9913 H   0  0  0  0  0  0  0  0  0  0  0  0
  152.5602  141.8173  156.9213 H   0  0  0  0  0  0  0  0  0  0  0  0
  151.2211  141.9450  158.0367 H   0  0  0  0  0  0  0  0  0  0  0  0
  153.7051  140.5228  161.4977 H   0  0  0  0  0  0  0  0  0  0  0  0
  154.7053  141.8689  160.9419 H   0  0  0  0  0  0  0  0  0  0  0  0
  152.3529  141.9079  162.8347 H   0  0  0  0  0  0  0  0  0  0  0  0
  153.8370  142.8529  162.9455 H   0  0  0  0  0  0  0  0  0  0  0  0
  151.5595  144.0208  162.0227 H   0  0  0  0  0  0  0  0  0  0  0  0
  153.0977  144.3572  161.2303 H   0  0  0  0  0  0  0  0  0  0  0  0
  151.9347  143.5760  159.3455 H   0  0  0  0  0  0  0  0  0  0  0  0
  150.9158  142.4914  160.2991 H   0  0  0  0  0  0  0  0  0  0  0  0
  148.8872  139.2441  156.7112 H   0  0  0  0  0  0  0  0  0  0  0  0
  149.3695  140.9875  158.4030 H   0  0  0  0  0  0  0  0  0  0  0  0
  147.7558  141.2072  157.7486 H   0  0  0  0  0  0  0  0  0  0  0  0
  149.0692  142.2566  157.2217 H   0  0  0  0  0  0  0  0  0  0  0  0
  148.9818  142.4263  154.4941 H   0  0  0  0  0  0  0  0  0  0  0  0
  147.0112  142.0862  152.6385 H   0  0  0  0  0  0  0  0  0  0  0  0
  145.9023  139.6469  153.3483 H   0  0  0  0  0  0  0  0  0  0  0  0
  1  2  1  0  0  0  0
  1 19  1  0  0  0  0
  1 20  1  0  0  0  0
  1 21  1  0  0  0  0
  2  3  1  0  0  0  0
  2 12  1  0  0  0  0
  2 22  1  0  0  0  0
  3  4  1  0  0  0  0
  3 23  1  0  0  0  0
  4  5  1  0  0  0  0
  4 24  1  0  0  0  0
  4 25  1  0  0  0  0
  5  6  2  0  0  0  0
  5  7  1  0  0  0  0
  7 11  1  0  0  0  0
  7  8  1  0  0  0  0
  8  9  1  0  0  0  0
  8 26  1  0  0  0  0
  8 27  1  0  0  0  0
  9 10  1  0  0  0  0
  9 28  1  0  0  0  0
  9 29  1  0  0  0  0
 10 11  1  0  0  0  0
 10 30  1  0  0  0  0
 10 31  1  0  0  0  0
 11 32  1  0  0  0  0
 11 33  1  0  0  0  0
 12 13  1  0  0  0  0
 12 14  1  0  0  0  0
 12 34  1  0  0  0  0
 13 35  1  0  0  0  0
 13 36  1  0  0  0  0
 13 37  1  0  0  0  0
 14 18  1  0  0  0  0
 14 15  1  0  0  0  0
 15 16  2  0  0  0  0
 15 38  1  0  0  0  0
 16 17  1  0  0  0  0
 16 39  1  0  0  0  0
 17 18  2  0  0  0  0
 17 40  1  0  0  0  0
M  END
> <s_m_source_file>
AV-unprocessed.smi

> <i_m_source_file_index>
3308

> <i_lp_mmshare_version>
43012

> <i_f3d_flags>
0

> <s_epik_input>
bjFbY0hdW2NIXVtjSF1uMVtDQEBIXShbQ0gzXSlbQ0BIXShbQ0gzXSlbTkhdW0NIMl1DKD1PKU4yW0NIMl1bQ0gyXVtDSDJdW0NIMl0y

> <s_epik_cmdline>
J2VwaWtfcHl0aG9uJywgJy1waCcsICc3LjAnLCAnLXRuJywgJzgnLCAnLW1hJywgJzIwMCcsICctbWV0YWxfYmluZGluZycsICctaW1hZScsICc8aW5maWxlLm1hZT4nLCAnLW9tYWUnLCAnPG91dGZpbGUubWFlPic=

> <r_lp_tautomer_probability>
1

> <r_epik_Ionization_Penalty>
0.918676

> <r_epik_Ionization_Penalty_Charging>
0

> <r_epik_Ionization_Penalty_Neutral>
0.918676

> <r_epik_State_Penalty>
0.958258

> <r_epik_Charging_Adjusted_Penalty>
0.958258

> <i_epik_Tot_Q>
0

> <i_epik_Tot_abs_Q>
0

> <r_epik_Metal_State_Penalty>
0.956879

> <b_epik_Metal_Only>
0

> <s_lp_Force_Field>
OPLS_2005

> <r_lp_Energy>
36.0541

> <b_lp_Chiralities_Consistent>
1

> <s_lp_Variant>
AV-unprocessed.smi:3308-7

> <Gold.Version>
5.8.1

> <Gold.Id.Protein>
6NUR|6NUR_protein|mol2

> <Gold.PLP.Fitness>
45.6639

> <Gold.PLP.PLP>
-38.5279

> <Gold.PLP.part.hbond>
-1.0000

> <Gold.PLP.part.metal>
0.0000

> <Gold.PLP.part.buried>
-4.6480

> <Gold.PLP.part.nonpolar>
-31.6628

> <Gold.PLP.part.repulsive>
0.0564

> <Gold.PLP.ligand.clash>
0.0000

> <Gold.PLP.ligand.torsion>
0.9145

> <Gold.PLP.Chemscore.Hbond>
0.9920

> <Gold.PLP.Chemscore.CHOScore>
1.9739

> <Gold.PLP.Chemscore.Metal>
0.0000

> <Gold.Chemscore.Hbonds>
donor molecule, donor type, donor heavy atom, donor atom, acceptor molecule, acceptor atom, score
      P1  H  7997  8009       L1     6  1.00
      L1  C    15    38       P1  8028  0.94
      L1  C    17    40       P1 10175  1.00

> <Gold.PLP.Chemscore.Internal.Correction>
0.0673

> <Gold.Rescore>
     Score         DG    S(hbond)    S(metal)    S(lipo)     H(rot)  DE(clash)    DE(int)     intcor
     14.10     -14.92       0.91        0.00      92.30       1.72       0.04       0.78       ----

> <Gold.Chemscore.Fitness>
14.1027

> <Gold.Chemscore.DG>
-14.9238

> <Gold.Chemscore.ZeroCoef>
-5.4800

> <Gold.Chemscore.Hbond>
0.9125

> <Gold.Chemscore.Metal>
0.0000

> <Gold.Chemscore.Lipo>
92.2998

> <Gold.Chemscore.Internal_Hbond>
0.0000

> <Gold.Chemscore.DEClash>
0.0411

> <Gold.Chemscore.DEInternal>
0.7800

> <Gold.Chemscore.Rot>
1.7200

> <Gold.Chemscore.Internal.Correction>
   9.000000E+99

> <Gold.Chemscore.Hbonds>
donor molecule, donor type, donor heavy atom, donor atom, acceptor molecule, acceptor atom, score
      P1  H  7997  8009       L1     6  0.88

> <Gold.Chemscore.Hbond.Weighted>
-3.0478

> <Gold.Chemscore.Metal.Weighted>
-0.0000

> <Gold.Chemscore.Lipo.Weighted>
-10.7991

> <Gold.Chemscore.Internal_Hbond.Weighted>
0.0000

> <Gold.Chemscore.DEClash.Weighted>
0.0411

> <Gold.Chemscore.DEInternal.Weighted>
0.7800

> <Gold.Chemscore.Rot.Weighted>
4.4031

> <Gold.Chemscore.Internal.Correction.Weighted>
   9.000000E+99

> <Gold.Protein.RotatedTorsions>
[ 6907 6896 6895 6894 ] final   -0.88 input  -60.11 | X-H torsion
[ 7974 7965 7964 7962 ] final -138.22 input  175.53 | X-H torsion
[ 8008 7997 7996 7995 ] final  137.62 input   59.86 | X-H torsion
[ 10167 10162 10161 10158 ] final  151.40 input  -65.29 | X-H torsion
[ 10718 10713 10712 10709 ] final  -35.37 input   66.30 | X-H torsion
[ 10763 10752 10751 10750 ] final  174.46 input  -60.55 | X-H torsion
[ 11005 11000 10999 10996 ] final  -48.73 input  -57.11 | X-H torsion

> <Gold.Protein.ActiveResidues>
 VAL166  LYS551  ARG553  GLY616  TRP617  ASP618  TYR619  PRO620  LYS621  CYS622 
 ASP623  PHE694  ASN695  SER759  ASP760  ASP761  ALA762  ILE779  LEU786  VAL792 
 PHE793  MET794  SER795  GLU796  ALA797  LYS798  CYS799  TRP800  GLU811  SER814 

> <Gold.Protein.RotatedAtoms>
  151.5551  135.1067  159.9958 H   0  0  0  0  0  0  0  0  0  0  0  0  # atno 6907 bound_to 6896
  152.4473  133.7557  159.6729 H   0  0  0  0  0  0  0  0  0  0  0  0  # atno 6908 bound_to 6896
  150.8392  133.7896  159.3091 H   0  0  0  0  0  0  0  0  0  0  0  0  # atno 6909 bound_to 6896
  144.8777  140.6461  143.5226 H   0  0  0  0  0  0  0  0  0  0  0  0  # atno 7974 bound_to 7965
  156.3001  140.2414  156.3940 H   0  0  0  0  0  0  0  0  0  0  0  0  # atno 8008 bound_to 7997
  154.8588  140.0421  157.1671 H   0  0  0  0  0  0  0  0  0  0  0  0  # atno 8009 bound_to 7997
  154.8919  140.2964  155.5370 H   0  0  0  0  0  0  0  0  0  0  0  0  # atno 8010 bound_to 7997
  139.4841  144.5444  151.7510 H   0  0  0  0  0  0  0  0  0  0  0  0  # atno 10167 bound_to 10162
  156.3394  130.4291  149.7800 H   0  0  0  0  0  0  0  0  0  0  0  0  # atno 10718 bound_to 10713
  154.4542  135.2765  155.1759 H   0  0  0  0  0  0  0  0  0  0  0  0  # atno 10763 bound_to 10752
  154.3574  135.6137  153.5676 H   0  0  0  0  0  0  0  0  0  0  0  0  # atno 10764 bound_to 10752
  152.9849  135.5826  154.4892 H   0  0  0  0  0  0  0  0  0  0  0  0  # atno 10765 bound_to 10752
  141.0718  133.6677  156.3483 H   0  0  0  0  0  0  0  0  0  0  0  0  # atno 11005 bound_to 11000
  145.4012  139.1597  143.4176 LP  0  0  0  0  0  0  0  0  0  0  0  0  # atno 17320 bound_to 7965
  146.2973  140.4109  142.8717 LP  0  0  0  0  0  0  0  0  0  0  0  0  # atno 17321 bound_to 7965
  140.4988  144.1201  150.5966 LP  0  0  0  0  0  0  0  0  0  0  0  0  # atno 17342 bound_to 10162
  140.4086  143.2668  151.9860 LP  0  0  0  0  0  0  0  0  0  0  0  0  # atno 17343 bound_to 10162
  156.5042  130.8143  151.3144 LP  0  0  0  0  0  0  0  0  0  0  0  0  # atno 17370 bound_to 10713
  157.7444  130.9935  150.2673 LP  0  0  0  0  0  0  0  0  0  0  0  0  # atno 17371 bound_to 10713
  140.5658  134.5889  157.5445 LP  0  0  0  0  0  0  0  0  0  0  0  0  # atno 17394 bound_to 11000
  139.9531  134.7582  156.0403 LP  0  0  0  0  0  0  0  0  0  0  0  0  # atno 17395 bound_to 11000

$$$$
