AV-unprocessed.smi:3259|AV-procd|sdf|12474|dock8
  -GOLD-   2272018373D 1   1.00000     0.00000
 Structure written by MMmdl.
 39 40  0  0  0  0  0  0  0  0  1 V2000
  149.5585  139.9460  157.1753 C   0  0  0  0  0  0  0  0  0  0  0  0
  148.4000  139.9325  156.3501 O   0  0  0  0  0  0  0  0  0  0  0  0
  148.5902  140.1428  154.9441 C   0  0  1  0  0  0  0  0  0  0  0  0
  149.3592  141.4468  154.6962 C   0  0  0  0  0  0  0  0  0  0  0  0
  149.0684  138.8420  154.2707 C   0  0  0  0  0  0  0  0  0  0  0  0
  147.6016  138.4198  154.2159 C   0  0  2  0  0  0  0  0  0  0  0  0
  147.2694  137.7012  152.9907 N   0  0  0  0  0  0  0  0  0  0  0  0
  146.0195  137.4568  152.5688 C   0  0  0  0  0  0  0  0  0  0  0  0
  145.0157  137.8356  153.1715 O   0  0  0  0  0  0  0  0  0  0  0  0
  145.8794  136.6727  151.2630 C   0  0  0  0  0  0  0  0  0  0  0  0
  145.0133  135.5187  151.4293 N   0  0  0  0  0  0  0  0  0  0  0  0
  144.6869  134.5503  150.5024 C   0  0  0  0  0  0  0  0  0  0  0  0
  143.8479  133.6652  151.1164 C   0  0  0  0  0  0  0  0  0  0  0  0
  143.7173  134.1827  152.4353 C   0  0  0  0  0  0  0  0  0  0  0  0
  144.4147  135.2921  152.6194 N   0  0  0  0  0  0  0  0  0  0  0  0
  147.2203  139.9228  154.2217 C   0  0  0  0  0  0  0  0  0  0  0  0
  145.9611  140.2932  155.0135 C   0  0  0  0  0  0  0  0  0  0  0  0
  147.0638  140.6014  152.8476 C   0  0  0  0  0  0  0  0  0  0  0  0
  149.2824  139.6235  158.1790 H   0  0  0  0  0  0  0  0  0  0  0  0
  149.9774  140.9480  157.2639 H   0  0  0  0  0  0  0  0  0  0  0  0
  150.3347  139.2721  156.8145 H   0  0  0  0  0  0  0  0  0  0  0  0
  149.4197  141.6868  153.6353 H   0  0  0  0  0  0  0  0  0  0  0  0
  150.3880  141.3879  155.0510 H   0  0  0  0  0  0  0  0  0  0  0  0
  148.8796  142.2890  155.1953 H   0  0  0  0  0  0  0  0  0  0  0  0
  149.5122  139.0121  153.2880 H   0  0  0  0  0  0  0  0  0  0  0  0
  149.6981  138.1895  154.8745 H   0  0  0  0  0  0  0  0  0  0  0  0
  147.2992  137.9006  155.1285 H   0  0  0  0  0  0  0  0  0  0  0  0
  148.0389  137.3593  152.4340 H   0  0  0  0  0  0  0  0  0  0  0  0
  145.4763  137.3158  150.4792 H   0  0  0  0  0  0  0  0  0  0  0  0
  146.8601  136.3337  150.9259 H   0  0  0  0  0  0  0  0  0  0  0  0
  145.0760  134.5707  149.4952 H   0  0  0  0  0  0  0  0  0  0  0  0
  143.3971  132.7820  150.6888 H   0  0  0  0  0  0  0  0  0  0  0  0
  143.1405  133.7882  153.2587 H   0  0  0  0  0  0  0  0  0  0  0  0
  145.0531  140.0353  154.4673 H   0  0  0  0  0  0  0  0  0  0  0  0
  145.9255  141.3618  155.2279 H   0  0  0  0  0  0  0  0  0  0  0  0
  145.9091  139.7686  155.9677 H   0  0  0  0  0  0  0  0  0  0  0  0
  146.1634  140.2642  152.3328 H   0  0  0  0  0  0  0  0  0  0  0  0
  147.9045  140.3923  152.1863 H   0  0  0  0  0  0  0  0  0  0  0  0
  146.9918  141.6853  152.9434 H   0  0  0  0  0  0  0  0  0  0  0  0
  1  2  1  0  0  0  0
  1 19  1  0  0  0  0
  1 20  1  0  0  0  0
  1 21  1  0  0  0  0
  2  3  1  0  0  0  0
  3 16  1  0  0  0  0
  3  4  1  0  0  0  0
  3  5  1  0  0  0  0
  4 22  1  0  0  0  0
  4 23  1  0  0  0  0
  4 24  1  0  0  0  0
  5  6  1  0  0  0  0
  5 25  1  0  0  0  0
  5 26  1  0  0  0  0
  6  7  1  0  0  0  0
  6 16  1  0  0  0  0
  6 27  1  0  0  0  0
  7  8  1  0  0  0  0
  7 28  1  0  0  0  0
  8  9  2  0  0  0  0
  8 10  1  0  0  0  0
 10 11  1  0  0  0  0
 10 29  1  0  0  0  0
 10 30  1  0  0  0  0
 11 15  1  0  0  0  0
 11 12  1  0  0  0  0
 12 13  2  0  0  0  0
 12 31  1  0  0  0  0
 13 14  1  0  0  0  0
 13 32  1  0  0  0  0
 14 15  2  0  0  0  0
 14 33  1  0  0  0  0
 16 17  1  0  0  0  0
 16 18  1  0  0  0  0
 17 34  1  0  0  0  0
 17 35  1  0  0  0  0
 17 36  1  0  0  0  0
 18 37  1  0  0  0  0
 18 38  1  0  0  0  0
 18 39  1  0  0  0  0
M  END
> <s_m_source_file>
AV-unprocessed.smi

> <i_m_source_file_index>
3259

> <i_lp_mmshare_version>
43012

> <i_f3d_flags>
0

> <s_epik_input>
W0NIM11PW0NAQF0xKFtDSDNdKVtDSDJdW0NASF0oQzEoW0NIM10pW0NIM10pW05IXUMoPU8pW0NIMl1uMltjSF1bY0hdW2NIXW4y

> <s_epik_cmdline>
J2VwaWtfcHl0aG9uJywgJy1waCcsICc3LjAnLCAnLXRuJywgJzgnLCAnLW1hJywgJzIwMCcsICctbWV0YWxfYmluZGluZycsICctaW1hZScsICc8aW5maWxlLm1hZT4nLCAnLW9tYWUnLCAnPG91dGZpbGUubWFlPic=

> <r_lp_tautomer_probability>
1

> <r_epik_Ionization_Penalty>
1.78399e-05

> <r_epik_Ionization_Penalty_Charging>
0

> <r_epik_Ionization_Penalty_Neutral>
1.78399e-05

> <r_epik_State_Penalty>
-0

> <r_epik_Charging_Adjusted_Penalty>
0

> <i_epik_Tot_Q>
0

> <i_epik_Tot_abs_Q>
0

> <r_epik_Metal_State_Penalty>
-0

> <b_epik_Metal_Only>
0

> <s_lp_Force_Field>
OPLS_2005

> <r_lp_Energy>
23.5096

> <b_lp_Chiralities_Consistent>
1

> <s_lp_Variant>
AV-unprocessed.smi:3259-3

> <Gold.Version>
5.8.1

> <Gold.Id.Protein>
6NUR|6NUR_protein|mol2

> <Gold.PLP.Fitness>
33.3773

> <Gold.PLP.PLP>
-24.5378

> <Gold.PLP.part.hbond>
-0.8341

> <Gold.PLP.part.metal>
0.0000

> <Gold.PLP.part.buried>
-0.5993

> <Gold.PLP.part.nonpolar>
-24.0030

> <Gold.PLP.part.repulsive>
0.7106

> <Gold.PLP.ligand.clash>
0.0000

> <Gold.PLP.ligand.torsion>
0.2675

> <Gold.PLP.Chemscore.Hbond>
1.0000

> <Gold.PLP.Chemscore.CHOScore>
1.9999

> <Gold.PLP.Chemscore.Metal>
0.0000

> <Gold.Chemscore.Hbonds>
donor molecule, donor type, donor heavy atom, donor atom, acceptor molecule, acceptor atom, score
      L1  H     7    28       P1  7948  1.00
      L1  C    12    31       P1  7921  1.00
      L1  C    14    33       P1 10957  0.89

> <Gold.PLP.Chemscore.Internal.Correction>
0.3747

> <Gold.Rescore>
     Score         DG    S(hbond)    S(metal)    S(lipo)     H(rot)  DE(clash)    DE(int)     intcor
     10.13     -12.12       0.96        0.00      64.29       1.60       0.11       1.88       ----

> <Gold.Chemscore.Fitness>
10.1305

> <Gold.Chemscore.DG>
-12.1186

> <Gold.Chemscore.ZeroCoef>
-5.4800

> <Gold.Chemscore.Hbond>
0.9588

> <Gold.Chemscore.Metal>
0.0000

> <Gold.Chemscore.Lipo>
64.2932

> <Gold.Chemscore.Internal_Hbond>
0.0000

> <Gold.Chemscore.DEClash>
0.1073

> <Gold.Chemscore.DEInternal>
1.8807

> <Gold.Chemscore.Rot>
1.5962

> <Gold.Chemscore.Internal.Correction>
   9.000000E+99

> <Gold.Chemscore.Hbonds>
donor molecule, donor type, donor heavy atom, donor atom, acceptor molecule, acceptor atom, score
      L1  H     7    28       P1  7948  0.93

> <Gold.Chemscore.Hbond.Weighted>
-3.2025

> <Gold.Chemscore.Metal.Weighted>
-0.0000

> <Gold.Chemscore.Lipo.Weighted>
-7.5223

> <Gold.Chemscore.Internal_Hbond.Weighted>
0.0000

> <Gold.Chemscore.DEClash.Weighted>
0.1073

> <Gold.Chemscore.DEInternal.Weighted>
1.8807

> <Gold.Chemscore.Rot.Weighted>
4.0862

> <Gold.Chemscore.Internal.Correction.Weighted>
   9.000000E+99

> <Gold.Protein.RotatedTorsions>
[ 6907 6896 6895 6894 ] final -156.41 input  -60.11 | X-H torsion
[ 7974 7965 7964 7962 ] final  -51.26 input  175.53 | X-H torsion
[ 8008 7997 7996 7995 ] final   -0.72 input   59.86 | X-H torsion
[ 10167 10162 10161 10158 ] final   99.61 input  -65.29 | X-H torsion
[ 10718 10713 10712 10709 ] final -172.53 input   66.30 | X-H torsion
[ 10763 10752 10751 10750 ] final  -92.18 input  -60.55 | X-H torsion
[ 11005 11000 10999 10996 ] final  133.15 input  -57.11 | X-H torsion

> <Gold.Protein.ActiveResidues>
 VAL166  LYS551  ARG553  GLY616  TRP617  ASP618  TYR619  PRO620  LYS621  CYS622 
 ASP623  PHE694  ASN695  SER759  ASP760  ASP761  ALA762  ILE779  LEU786  VAL792 
 PHE793  MET794  SER795  GLU796  ALA797  LYS798  CYS799  TRP800  GLU811  SER814 

> <Gold.Protein.RotatedAtoms>
  151.2873  133.4182  159.2630 H   0  0  0  0  0  0  0  0  0  0  0  0  # atno 6907 bound_to 6896
  151.0308  134.9538  159.8120 H   0  0  0  0  0  0  0  0  0  0  0  0  # atno 6908 bound_to 6896
  152.5345  134.2834  159.9068 H   0  0  0  0  0  0  0  0  0  0  0  0  # atno 6909 bound_to 6896
  145.9209  140.7834  142.9648 H   0  0  0  0  0  0  0  0  0  0  0  0  # atno 7974 bound_to 7965
  154.6549  140.2577  155.7173 H   0  0  0  0  0  0  0  0  0  0  0  0  # atno 8008 bound_to 7997
  156.2592  140.2860  156.0919 H   0  0  0  0  0  0  0  0  0  0  0  0  # atno 8009 bound_to 7997
  155.1395  140.0380  157.2785 H   0  0  0  0  0  0  0  0  0  0  0  0  # atno 8010 bound_to 7997
  139.7602  144.6957  151.0303 H   0  0  0  0  0  0  0  0  0  0  0  0  # atno 10167 bound_to 10162
  156.7569  130.9399  151.3116 H   0  0  0  0  0  0  0  0  0  0  0  0  # atno 10718 bound_to 10713
  154.6835  135.5240  153.8295 H   0  0  0  0  0  0  0  0  0  0  0  0  # atno 10763 bound_to 10752
  153.0581  135.6558  154.0537 H   0  0  0  0  0  0  0  0  0  0  0  0  # atno 10764 bound_to 10752
  154.0422  135.2976  155.3333 H   0  0  0  0  0  0  0  0  0  0  0  0  # atno 10765 bound_to 10752
  139.9834  134.9540  156.9683 H   0  0  0  0  0  0  0  0  0  0  0  0  # atno 11005 bound_to 11000
  144.6753  140.1974  143.7390 LP  0  0  0  0  0  0  0  0  0  0  0  0  # atno 17320 bound_to 7965
  145.8551  139.2194  143.1749 LP  0  0  0  0  0  0  0  0  0  0  0  0  # atno 17321 bound_to 7965
  140.7806  143.4706  151.0152 LP  0  0  0  0  0  0  0  0  0  0  0  0  # atno 17342 bound_to 10162
  139.8392  143.7586  152.3180 LP  0  0  0  0  0  0  0  0  0  0  0  0  # atno 17343 bound_to 10162
  157.6752  130.9088  150.0133 LP  0  0  0  0  0  0  0  0  0  0  0  0  # atno 17370 bound_to 10713
  156.1364  130.3642  149.9650 LP  0  0  0  0  0  0  0  0  0  0  0  0  # atno 17371 bound_to 10713
  140.5051  134.1058  155.7258 LP  0  0  0  0  0  0  0  0  0  0  0  0  # atno 17394 bound_to 11000
  141.1502  133.8982  157.2115 LP  0  0  0  0  0  0  0  0  0  0  0  0  # atno 17395 bound_to 11000

$$$$
