#       Name:                AV-unprocessed.smi:1005
#       Creating user name   scv26
#       Creation time:       Fri Mar 27 02:28:59 2020


#       File generated by GOLD software.
#

@<TRIPOS>MOLECULE
AV-unprocessed.smi:1005
    62    64     1
SMALL
NO_CHARGES


@<TRIPOS>ATOM
      1 ****        -5.2857   0.6613   2.7515 C.3            1 S1                 0.0000
      2 ****        -4.3864   1.0778   1.6000 C.ar           1 S1                 0.0000
      3 ****        -4.9843   1.4124   0.3637 C.ar           1 S1                 0.0000
      4 ****        -4.1358   1.7893  -0.6704 C.ar           1 S1                 0.0000
      5 ****        -4.4070   2.1693  -1.9868 N.pl3          1 S1                 1.0000
      6 ****        -3.2389   2.4481  -2.6295 C.2            1 S1                 0.0000
      7 ****        -2.2264   2.2510  -1.7422 N.pl3          1 S1                 0.0000
      8 ****        -0.7755   2.4059  -1.9122 C.3            1 S1                 0.0000
      9 ****        -0.0438   1.0592  -2.0740 C.3            1 S1                 0.0000
     10 ****        -0.5463   0.3951  -3.2163 O.3            1 S1                 0.0000
     11 ****         1.4765   1.2518  -2.2483 C.3            1 S1                 0.0000
     12 ****         2.2886   0.0591  -2.0003 N.3            1 S1                 0.0000
     13 ****         3.6471   0.2414  -2.4993 C.3            1 S1                 0.0000
     14 ****         4.5249  -0.9940  -2.2404 C.3            1 S1                 0.0000
     15 ****         4.5204  -1.2953  -0.8485 O.3            1 S1                 0.0000
     16 ****         3.2156  -1.5481  -0.3322 C.3            1 S1                 0.0000
     17 ****         3.3587  -1.8972   1.1650 C.3            1 S1                 0.0000
     18 ****         2.4292  -2.9628   1.6237 N.4            1 S1                 1.0000
     19 ****         1.0003  -2.5780   1.5716 C.3            1 S1                 0.0000
     20 ****         2.8024  -3.4791   2.9595 C.3            1 S1                 0.0000
     21 ****         2.3578  -0.2871  -0.5810 C.3            1 S1                 0.0000
     22 ****        -2.7384   1.8425  -0.5065 C.ar           1 S1                 0.0000
     23 ****        -2.1324   1.5198   0.7052 C.ar           1 S1                 0.0000
     24 ****        -2.9780   1.1283   1.7675 C.ar           1 S1                 0.0000
     25 ****        -2.3447   0.7601   3.0986 C.3            1 S1                 0.0000
     26 ****        -6.3382   0.6950   2.4686 H              1 S1                 0.0000
     27 ****        -5.1499   1.3273   3.6042 H              1 S1                 0.0000
     28 ****        -5.0576  -0.3573   3.0667 H              1 S1                 0.0000
     29 ****        -6.0555   1.3755   0.2287 H              1 S1                 0.0000
     30 ****        -3.1348   2.7651  -3.6575 H              1 S1                 0.0000
     31 ****        -0.6112   3.0365  -2.7872 H              1 S1                 0.0000
     32 ****        -0.3906   2.9582  -1.0539 H              1 S1                 0.0000
     33 ****        -0.2614   0.4400  -1.2063 H              1 S1                 0.0000
     34 ****        -0.0672  -0.4121  -3.3281 H              1 S1                 0.0000
     35 ****         1.6595   1.6195  -3.2595 H              1 S1                 0.0000
     36 ****         1.8170   2.0489  -1.5854 H              1 S1                 0.0000
     37 ****         3.6244   0.4470  -3.5703 H              1 S1                 0.0000
     38 ****         4.1024   1.1121  -2.0244 H              1 S1                 0.0000
     39 ****         4.1635  -1.8525  -2.8086 H              1 S1                 0.0000
     40 ****         5.5494  -0.8055  -2.5613 H              1 S1                 0.0000
     41 ****         2.8013  -2.4026  -0.8706 H              1 S1                 0.0000
     42 ****         4.3716  -2.2697   1.3263 H              1 S1                 0.0000
     43 ****         3.2654  -1.0078   1.7902 H              1 S1                 0.0000
     44 ****         0.8161  -1.6685   2.1451 H              1 S1                 0.0000
     45 ****         0.3717  -3.3700   1.9806 H              1 S1                 0.0000
     46 ****         0.6751  -2.4168   0.5445 H              1 S1                 0.0000
     47 ****         2.7106  -2.7008   3.7183 H              1 S1                 0.0000
     48 ****         3.8307  -3.8422   2.9640 H              1 S1                 0.0000
     49 ****         2.1603  -4.3129   3.2451 H              1 S1                 0.0000
     50 ****         2.7780   0.5499  -0.0208 H              1 S1                 0.0000
     51 ****         1.3600  -0.4465  -0.1812 H              1 S1                 0.0000
     52 ****        -1.0610   1.5630   0.8319 H              1 S1                 0.0000
     53 ****        -1.2575   0.8325   3.0581 H              1 S1                 0.0000
     54 ****        -2.5998  -0.2636   3.3736 H              1 S1                 0.0000
     55 ****        -2.6939   1.4285   3.8859 H              1 S1                 0.0000
     56 ****         2.5421  -3.7381   0.9856 H              1 S1                 0.0000
     57 ****        -5.3203   2.2345  -2.4179 H              1 S1                 0.0000
     58 ****        -0.4260   0.9735  -4.0232 LP             1 S1                 0.0000
     59 ****        -1.5182   0.1961  -3.0908 LP             1 S1                 0.0000
     60 ****         1.8378  -0.6883  -2.4884 LP             1 S1                 0.0000
     61 ****         4.9129  -0.5196  -0.3543 LP             1 S1                 0.0000
     62 ****         5.0847  -2.1069  -0.6973 LP             1 S1                 0.0000
@<TRIPOS>BOND
    1    1    2 1     
    2    1   26 1     
    3    1   27 1     
    4    1   28 1     
    5    2   24 ar    
    6    2    3 ar    
    7    3    4 ar    
    8    3   29 1     
    9    4   22 ar    
   10    4    5 1     
   11    5    6 2     
   12    5   57 1     
   13    6    7 1     
   14    6   30 1     
   15    7    8 1     
   16    7   22 1     
   17    8    9 1     
   18    8   31 1     
   19    8   32 1     
   20    9   10 1     
   21    9   11 1     
   22    9   33 1     
   23   10   34 1     
   24   11   12 1     
   25   11   35 1     
   26   11   36 1     
   27   12   21 1     
   28   12   13 1     
   29   13   14 1     
   30   13   37 1     
   31   13   38 1     
   32   14   15 1     
   33   14   39 1     
   34   14   40 1     
   35   15   16 1     
   36   16   17 1     
   37   16   21 1     
   38   16   41 1     
   39   17   18 1     
   40   17   42 1     
   41   17   43 1     
   42   18   19 1     
   43   18   20 1     
   44   18   56 1     
   45   19   44 1     
   46   19   45 1     
   47   19   46 1     
   48   20   47 1     
   49   20   48 1     
   50   20   49 1     
   51   21   50 1     
   52   21   51 1     
   53   22   23 ar    
   54   23   24 ar    
   55   23   52 1     
   56   24   25 1     
   57   25   53 1     
   58   25   54 1     
   59   25   55 1     
   60   10   58 1     
   61   10   59 1     
   62   12   60 1     
   63   15   61 1     
   64   15   62 1     
@<TRIPOS>SUBSTRUCTURE
      1 S1             1
@<TRIPOS>SET
LONE_PAIRS      STATIC     ATOMS    <user>   **** ""
5 58 59 60 61 62
DONOR_HYDROGENS      STATIC     ATOMS    <user>   **** ""
3 57 34 56
ATOM$BLUE        STATIC     ATOMS    COLORGROUP SYSTEM
5 58 59 60 61 62
ATOM$RED        STATIC     ATOMS    COLORGROUP SYSTEM
3 57 34 56
