AV-unprocessed.smi:2439|AV-procd|sdf|9607|dock1
  -GOLD-   2272013243D 1   1.00000     0.00000
 Structure written by MMmdl.
 41 43  0  0  0  0  0  0  0  0  2 V2000
  149.4024  136.2923  159.0593 N   0  0  0  0  0  0  0  0  0  0  0  0
  149.4347  136.8186  158.0294 C   0  0  0  0  0  0  0  0  0  0  0  0
  149.4734  137.4804  156.7310 C   0  0  0  0  0  0  0  0  0  0  0  0
  150.6049  138.2499  156.3877 C   0  0  0  0  0  0  0  0  0  0  0  0
  150.6430  138.8932  155.1368 C   0  0  0  0  0  0  0  0  0  0  0  0
  149.5426  138.7383  154.2743 C   0  0  0  0  0  0  0  0  0  0  0  0
  148.4549  138.0045  154.5894 N   0  0  0  0  0  0  0  0  0  0  0  0
  148.4098  137.3842  155.7940 C   0  0  0  0  0  0  0  0  0  0  0  0
  147.2627  136.6274  156.0920 N   0  0  0  0  0  0  0  0  0  0  0  0
  147.2569  135.1836  155.9023 C   0  0  0  0  0  0  0  0  0  0  0  0
  147.5496  134.8027  154.4450 C   0  0  2  0  0  0  0  0  0  0  0  0
  146.3566  135.1275  153.5271 C   0  0  0  0  0  0  0  0  0  0  0  0
  146.6171  134.6607  152.1426 N   0  3  2  0  0  0  0  0  0  0  0  0
  145.5282  134.9847  151.1840 C   0  0  0  0  0  0  0  0  0  0  0  0
  144.3002  134.0721  151.3672 C   0  0  0  0  0  0  0  0  0  0  0  0
  144.6969  132.5910  151.2961 C   0  0  0  0  0  0  0  0  0  0  0  0
  145.8161  132.2873  152.3022 C   0  0  0  0  0  0  0  0  0  0  0  0
  147.0224  133.2289  152.0914 C   0  0  2  0  0  0  0  0  0  0  0  0
  148.1646  132.9645  153.0915 C   0  0  0  0  0  0  0  0  0  0  0  0
  147.7895  133.4001  154.3922 O   0  0  0  0  0  0  0  0  0  0  0  0
  151.4362  138.3501  157.0709 H   0  0  0  0  0  0  0  0  0  0  0  0
  151.4946  139.4902  154.8459 H   0  0  0  0  0  0  0  0  0  0  0  0
  149.5345  139.2153  153.3055 H   0  0  0  0  0  0  0  0  0  0  0  0
  146.3779  137.1021  156.2008 H   0  0  0  0  0  0  0  0  0  0  0  0
  147.9892  134.7213  156.5656 H   0  0  0  0  0  0  0  0  0  0  0  0
  146.2759  134.8024  156.1883 H   0  0  0  0  0  0  0  0  0  0  0  0
  148.4332  135.3446  154.1014 H   0  0  0  0  0  0  0  0  0  0  0  0
  145.4515  134.6646  153.9209 H   0  0  0  0  0  0  0  0  0  0  0  0
  146.1806  136.2037  153.5170 H   0  0  0  0  0  0  0  0  0  0  0  0
  145.2438  136.0330  151.2828 H   0  0  0  0  0  0  0  0  0  0  0  0
  145.9182  134.8670  150.1721 H   0  0  0  0  0  0  0  0  0  0  0  0
  143.8161  134.2787  152.3221 H   0  0  0  0  0  0  0  0  0  0  0  0
  143.5587  134.2925  150.5989 H   0  0  0  0  0  0  0  0  0  0  0  0
  143.8307  131.9596  151.4949 H   0  0  0  0  0  0  0  0  0  0  0  0
  145.0344  132.3490  150.2875 H   0  0  0  0  0  0  0  0  0  0  0  0
  145.4319  132.3815  153.3185 H   0  0  0  0  0  0  0  0  0  0  0  0
  146.1317  131.2492  152.1932 H   0  0  0  0  0  0  0  0  0  0  0  0
  147.4132  133.0410  151.0903 H   0  0  0  0  0  0  0  0  0  0  0  0
  148.4036  131.9013  153.1261 H   0  0  0  0  0  0  0  0  0  0  0  0
  149.0756  133.4784  152.7802 H   0  0  0  0  0  0  0  0  0  0  0  0
  147.4218  135.1873  151.8340 H   0  0  0  0  0  0  0  0  0  0  0  0
  1  2  3  0  0  0  0
  2  3  1  0  0  0  0
  3  8  1  0  0  0  0
  3  4  2  0  0  0  0
  4  5  1  0  0  0  0
  4 21  1  0  0  0  0
  5  6  2  0  0  0  0
  5 22  1  0  0  0  0
  6  7  1  0  0  0  0
  6 23  1  0  0  0  0
  7  8  2  0  0  0  0
  8  9  1  0  0  0  0
  9 10  1  0  0  0  0
  9 24  1  0  0  0  0
 10 11  1  0  0  0  0
 10 25  1  0  0  0  0
 10 26  1  0  0  0  0
 11 20  1  0  0  0  0
 11 12  1  0  0  0  0
 11 27  1  0  0  0  0
 12 13  1  0  0  0  0
 12 28  1  0  0  0  0
 12 29  1  0  0  0  0
 13 18  1  0  0  0  0
 13 14  1  0  0  0  0
 13 41  1  0  0  0  0
 14 15  1  0  0  0  0
 14 30  1  0  0  0  0
 14 31  1  0  0  0  0
 15 16  1  0  0  0  0
 15 32  1  0  0  0  0
 15 33  1  0  0  0  0
 16 17  1  0  0  0  0
 16 34  1  0  0  0  0
 16 35  1  0  0  0  0
 17 18  1  0  0  0  0
 17 36  1  0  0  0  0
 17 37  1  0  0  0  0
 18 19  1  0  0  0  0
 18 38  1  0  0  0  0
 19 20  1  0  0  0  0
 19 39  1  0  0  0  0
 19 40  1  0  0  0  0
M  CHG  1  13   1
M  END
> <s_m_source_file>
AV-unprocessed.smi

> <i_m_source_file_index>
2439

> <i_lp_mmshare_version>
43012

> <i_f3d_flags>
0

> <s_epik_input>
TiNDYzFbY0hdW2NIXVtjSF1uYzFbTkhdW0NIMl1bQ0BIXShbQ0gyXTIpT1tDSDJdW0NAQEhdKE4yMylbQ0gyXVtDSDJdW0NIMl1bQ0gyXTM=

> <s_epik_cmdline>
J2VwaWtfcHl0aG9uJywgJy1waCcsICc3LjAnLCAnLXRuJywgJzgnLCAnLW1hJywgJzIwMCcsICctbWV0YWxfYmluZGluZycsICctaW1hZScsICc8aW5maWxlLm1hZT4nLCAnLW9tYWUnLCAnPG91dGZpbGUubWFlPic=

> <r_epik_Ionization_Penalty>
0.0803594

> <r_epik_Ionization_Penalty_Charging>
0.0803403

> <r_epik_Ionization_Penalty_Neutral>
1.90988e-05

> <r_epik_State_Penalty>
0.0711481

> <r_epik_Charging_Adjusted_Penalty>
0.151488

> <i_epik_Tot_Q>
1

> <i_epik_Tot_abs_Q>
1

> <r_epik_Metal_State_Penalty>
0.0711482

> <b_epik_Metal_Only>
0

> <s_lp_Force_Field>
OPLS_2005

> <r_lp_Energy>
31.0257

> <b_lp_Chiralities_Consistent>
1

> <s_lp_Variant>
AV-unprocessed.smi:2439-5

> <Gold.Version>
5.8.1

> <Gold.Id.Protein>
6NUR|6NUR_protein|mol2

> <Gold.PLP.Fitness>
35.2194

> <Gold.PLP.PLP>
-24.8021

> <Gold.PLP.part.hbond>
-2.0000

> <Gold.PLP.part.metal>
0.0000

> <Gold.PLP.part.buried>
-2.4954

> <Gold.PLP.part.nonpolar>
-19.7484

> <Gold.PLP.part.repulsive>
0.2794

> <Gold.PLP.ligand.clash>
0.0000

> <Gold.PLP.ligand.torsion>
0.8052

> <Gold.PLP.Chemscore.Hbond>
3.0000

> <Gold.PLP.Chemscore.CHOScore>
1.0000

> <Gold.PLP.Chemscore.Metal>
0.0000

> <Gold.Chemscore.Hbonds>
donor molecule, donor type, donor heavy atom, donor atom, acceptor molecule, acceptor atom, score
      L1  H    13    41       P1  7948  2.00
      P1  H  6896  6908       L1     1  0.60
      L1  C     6    23       P1  7957  1.00

> <Gold.PLP.Chemscore.Internal.Correction>
0.0277

> <Gold.Rescore>
     Score         DG    S(hbond)    S(metal)    S(lipo)     H(rot)  DE(clash)    DE(int)     intcor
     15.07     -15.88       1.98        0.00      60.03       1.27       0.01       0.80       ----

> <Gold.Chemscore.Fitness>
15.0706

> <Gold.Chemscore.DG>
-15.8810

> <Gold.Chemscore.ZeroCoef>
-5.4800

> <Gold.Chemscore.Hbond>
1.9814

> <Gold.Chemscore.Metal>
0.0000

> <Gold.Chemscore.Lipo>
60.0328

> <Gold.Chemscore.Internal_Hbond>
0.0000

> <Gold.Chemscore.DEClash>
0.0060

> <Gold.Chemscore.DEInternal>
0.8044

> <Gold.Chemscore.Rot>
1.2659

> <Gold.Chemscore.Internal.Correction>
   9.000000E+99

> <Gold.Chemscore.Hbonds>
donor molecule, donor type, donor heavy atom, donor atom, acceptor molecule, acceptor atom, score
      L1  H    13    41       P1  7948  0.94
      P1  H  6896  6908       L1     1  0.59

> <Gold.Chemscore.Hbond.Weighted>
-6.6179

> <Gold.Chemscore.Metal.Weighted>
-0.0000

> <Gold.Chemscore.Lipo.Weighted>
-7.0238

> <Gold.Chemscore.Internal_Hbond.Weighted>
0.0000

> <Gold.Chemscore.DEClash.Weighted>
0.0060

> <Gold.Chemscore.DEInternal.Weighted>
0.8044

> <Gold.Chemscore.Rot.Weighted>
3.2408

> <Gold.Chemscore.Internal.Correction.Weighted>
   9.000000E+99

> <Gold.Protein.RotatedTorsions>
[ 6907 6896 6895 6894 ] final -153.19 input  -60.11 | X-H torsion
[ 7974 7965 7964 7962 ] final  151.52 input  175.53 | X-H torsion
[ 8008 7997 7996 7995 ] final   61.80 input   59.86 | X-H torsion
[ 10167 10162 10161 10158 ] final   34.88 input  -65.29 | X-H torsion
[ 10718 10713 10712 10709 ] final  138.15 input   66.30 | X-H torsion
[ 10763 10752 10751 10750 ] final -114.59 input  -60.55 | X-H torsion
[ 11005 11000 10999 10996 ] final -167.51 input  -57.11 | X-H torsion

> <Gold.Protein.ActiveResidues>
 VAL166  LYS551  ARG553  GLY616  TRP617  ASP618  TYR619  PRO620  LYS621  CYS622 
 ASP623  PHE694  ASN695  SER759  ASP760  ASP761  ALA762  ILE779  LEU786  VAL792 
 PHE793  MET794  SER795  GLU796  ALA797  LYS798  CYS799  TRP800  GLU811  SER814 

> <Gold.Protein.RotatedAtoms>
  151.2389  133.4410  159.2606 H   0  0  0  0  0  0  0  0  0  0  0  0  # atno 6907 bound_to 6896
  151.0724  134.9807  159.8325 H   0  0  0  0  0  0  0  0  0  0  0  0  # atno 6908 bound_to 6896
  152.5414  134.2333  159.8886 H   0  0  0  0  0  0  0  0  0  0  0  0  # atno 6909 bound_to 6896
  144.8287  139.6548  143.6068 H   0  0  0  0  0  0  0  0  0  0  0  0  # atno 7974 bound_to 7965
  155.6041  140.3494  155.4602 H   0  0  0  0  0  0  0  0  0  0  0  0  # atno 8008 bound_to 7997
  156.0205  140.1252  157.0386 H   0  0  0  0  0  0  0  0  0  0  0  0  # atno 8009 bound_to 7997
  154.4313  140.1063  156.5943 H   0  0  0  0  0  0  0  0  0  0  0  0  # atno 8010 bound_to 7997
  140.4274  144.1374  150.6155 H   0  0  0  0  0  0  0  0  0  0  0  0  # atno 10167 bound_to 10162
  157.4284  131.1046  151.0277 H   0  0  0  0  0  0  0  0  0  0  0  0  # atno 10718 bound_to 10713
  154.8446  135.4412  154.1530 H   0  0  0  0  0  0  0  0  0  0  0  0  # atno 10763 bound_to 10752
  153.2686  135.6943  153.7510 H   0  0  0  0  0  0  0  0  0  0  0  0  # atno 10764 bound_to 10752
  153.6759  135.3411  155.3141 H   0  0  0  0  0  0  0  0  0  0  0  0  # atno 10765 bound_to 10752
  140.5525  134.5414  157.5125 H   0  0  0  0  0  0  0  0  0  0  0  0  # atno 11005 bound_to 11000
  146.2591  139.6369  142.9374 LP  0  0  0  0  0  0  0  0  0  0  0  0  # atno 17320 bound_to 7965
  145.4944  141.0438  143.2575 LP  0  0  0  0  0  0  0  0  0  0  0  0  # atno 17321 bound_to 7965
  140.4466  143.2504  151.9403 LP  0  0  0  0  0  0  0  0  0  0  0  0  # atno 17342 bound_to 10162
  139.4784  144.5603  151.8249 LP  0  0  0  0  0  0  0  0  0  0  0  0  # atno 17343 bound_to 10162
  157.1182  130.6050  149.5498 LP  0  0  0  0  0  0  0  0  0  0  0  0  # atno 17370 bound_to 10713
  155.9904  130.4955  150.7257 LP  0  0  0  0  0  0  0  0  0  0  0  0  # atno 17371 bound_to 10713
  139.9448  134.7722  156.0589 LP  0  0  0  0  0  0  0  0  0  0  0  0  # atno 17394 bound_to 11000
  141.1163  133.6627  156.3102 LP  0  0  0  0  0  0  0  0  0  0  0  0  # atno 17395 bound_to 11000

$$$$
