AV-unprocessed.smi:148|AV-procd|sdf|1207|dock7
  -GOLD-   2262018373D 1   1.00000     0.00000
 Structure written by MMmdl.
 63 67  0  0  0  0  0  0  0  0  1 V2000
  148.8266  142.5673  157.4373 O   0  0  0  0  0  0  0  0  0  0  0  0
  149.8784  141.6523  157.2074 C   0  0  0  0  0  0  0  0  0  0  0  0
  150.6710  141.3377  158.5028 C   0  0  1  0  0  0  0  0  0  0  0  0
  151.7627  140.2567  158.2745 C   0  0  0  0  0  0  0  0  0  0  0  0
  151.2964  138.9011  158.5004 N   0  0  0  0  0  0  0  0  0  0  0  0
  151.8782  137.9464  159.3040 C   0  0  0  0  0  0  0  0  0  0  0  0
  151.2739  136.7895  159.3192 N   0  0  0  0  0  0  0  0  0  0  0  0
  150.1895  136.9649  158.4676 C   0  0  0  0  0  0  0  0  0  0  0  0
  149.1420  136.1212  158.0018 C   0  0  0  0  0  0  0  0  0  0  0  0
  148.9946  134.8220  158.3383 N   0  0  0  0  0  0  0  0  0  0  0  0
  149.0727  134.0005  157.1289 C   0  0  0  0  0  0  0  0  0  0  0  0
  149.2110  132.5138  157.4700 C   0  0  0  0  0  0  0  0  0  0  0  0
  148.0572  132.0798  158.3746 C   0  0  0  0  0  0  0  0  0  0  0  0
  148.0088  132.9694  159.6232 C   0  0  0  0  0  0  0  0  0  0  0  0
  147.9088  134.4826  159.2836 C   0  0  1  0  0  0  0  0  0  0  0  0
  147.9181  135.3351  160.6017 C   0  0  1  0  0  0  0  0  0  0  0  0
  147.1607  136.6817  160.5772 C   0  0  0  0  0  0  0  0  0  0  0  0
  146.7859  137.0192  162.0271 C   0  0  0  0  0  0  0  0  0  0  0  0
  147.1535  135.7879  162.8590 C   0  0  0  0  0  0  0  0  0  0  0  0
  147.3132  134.6525  161.8472 C   0  0  1  0  0  0  0  0  0  0  0  0
  146.0322  134.1144  161.5701 O   0  0  0  0  0  0  0  0  0  0  0  0
  148.2186  136.6521  157.1628 N   0  0  0  0  0  0  0  0  0  0  0  0
  148.3255  137.9272  156.7762 C   0  0  0  0  0  0  0  0  0  0  0  0
  149.2586  138.8243  157.1032 N   0  0  0  0  0  0  0  0  0  0  0  0
  150.1787  138.2933  157.9591 C   0  0  0  0  0  0  0  0  0  0  0  0
  151.3048  142.6189  159.1068 C   0  0  2  0  0  0  0  0  0  0  0  0
  151.7548  143.6516  158.0732 C   0  0  0  0  0  0  0  0  0  0  0  0
  153.0185  144.2828  158.6658 C   0  0  0  0  0  0  0  0  0  0  0  0
  153.1723  143.6941  159.9477 O   0  0  0  0  0  0  0  0  0  0  0  0
  152.5986  142.4002  159.8962 C   0  0  0  0  0  0  0  0  0  0  0  0
  148.8127  143.1937  156.7297 H   0  0  0  0  0  0  0  0  0  0  0  0
  149.4794  140.7389  156.7653 H   0  0  0  0  0  0  0  0  0  0  0  0
  150.5135  142.1126  156.4529 H   0  0  0  0  0  0  0  0  0  0  0  0
  149.9628  140.9581  159.2413 H   0  0  0  0  0  0  0  0  0  0  0  0
  152.1502  140.3245  157.2572 H   0  0  0  0  0  0  0  0  0  0  0  0
  152.6137  140.4156  158.9366 H   0  0  0  0  0  0  0  0  0  0  0  0
  152.7800  138.1310  159.8694 H   0  0  0  0  0  0  0  0  0  0  0  0
  148.1767  134.1536  156.5258 H   0  0  0  0  0  0  0  0  0  0  0  0
  149.9226  134.3101  156.5181 H   0  0  0  0  0  0  0  0  0  0  0  0
  149.2190  131.9176  156.5572 H   0  0  0  0  0  0  0  0  0  0  0  0
  150.1638  132.3363  157.9704 H   0  0  0  0  0  0  0  0  0  0  0  0
  147.1133  132.1509  157.8329 H   0  0  0  0  0  0  0  0  0  0  0  0
  148.1767  131.0346  158.6618 H   0  0  0  0  0  0  0  0  0  0  0  0
  147.1618  132.6457  160.2262 H   0  0  0  0  0  0  0  0  0  0  0  0
  148.9005  132.7900  160.2255 H   0  0  0  0  0  0  0  0  0  0  0  0
  146.9587  134.6445  158.7732 H   0  0  0  0  0  0  0  0  0  0  0  0
  148.9599  135.5532  160.8440 H   0  0  0  0  0  0  0  0  0  0  0  0
  147.7521  137.4880  160.1458 H   0  0  0  0  0  0  0  0  0  0  0  0
  146.2492  136.5886  159.9858 H   0  0  0  0  0  0  0  0  0  0  0  0
  147.3177  137.9016  162.3844 H   0  0  0  0  0  0  0  0  0  0  0  0
  145.7183  137.2308  162.0974 H   0  0  0  0  0  0  0  0  0  0  0  0
  148.1107  135.9642  163.3519 H   0  0  0  0  0  0  0  0  0  0  0  0
  146.4233  135.5705  163.6397 H   0  0  0  0  0  0  0  0  0  0  0  0
  147.9550  133.8643  162.2425 H   0  0  0  0  0  0  0  0  0  0  0  0
  145.3894  134.6100  162.0538 H   0  0  0  0  0  0  0  0  0  0  0  0
  147.5572  138.2764  156.1024 H   0  0  0  0  0  0  0  0  0  0  0  0
  150.5846  143.0960  159.7736 H   0  0  0  0  0  0  0  0  0  0  0  0
  151.9969  143.1832  157.1181 H   0  0  0  0  0  0  0  0  0  0  0  0
  150.9773  144.3941  157.8912 H   0  0  0  0  0  0  0  0  0  0  0  0
  153.8890  144.0462  158.0524 H   0  0  0  0  0  0  0  0  0  0  0  0
  152.9446  145.3673  158.7470 H   0  0  0  0  0  0  0  0  0  0  0  0
  152.4270  142.0196  160.9031 H   0  0  0  0  0  0  0  0  0  0  0  0
  153.2736  141.7180  159.3762 H   0  0  0  0  0  0  0  0  0  0  0  0
  1  2  1  0  0  0  0
  1 31  1  0  0  0  0
  2  3  1  0  0  0  0
  2 32  1  0  0  0  0
  2 33  1  0  0  0  0
  3  4  1  0  0  0  0
  3 26  1  0  0  0  0
  3 34  1  0  0  0  0
  4  5  1  0  0  0  0
  4 35  1  0  0  0  0
  4 36  1  0  0  0  0
  5 25  1  0  0  0  0
  5  6  1  0  0  0  0
  6  7  2  0  0  0  0
  6 37  1  0  0  0  0
  7  8  1  0  0  0  0
  8 25  2  0  0  0  0
  8  9  1  0  0  0  0
  9 10  1  0  0  0  0
  9 22  2  0  0  0  0
 10 15  1  0  0  0  0
 10 11  1  0  0  0  0
 11 12  1  0  0  0  0
 11 38  1  0  0  0  0
 11 39  1  0  0  0  0
 12 13  1  0  0  0  0
 12 40  1  0  0  0  0
 12 41  1  0  0  0  0
 13 14  1  0  0  0  0
 13 42  1  0  0  0  0
 13 43  1  0  0  0  0
 14 15  1  0  0  0  0
 14 44  1  0  0  0  0
 14 45  1  0  0  0  0
 15 16  1  0  0  0  0
 15 46  1  0  0  0  0
 16 20  1  0  0  0  0
 16 17  1  0  0  0  0
 16 47  1  0  0  0  0
 17 18  1  0  0  0  0
 17 48  1  0  0  0  0
 17 49  1  0  0  0  0
 18 19  1  0  0  0  0
 18 50  1  0  0  0  0
 18 51  1  0  0  0  0
 19 20  1  0  0  0  0
 19 52  1  0  0  0  0
 19 53  1  0  0  0  0
 20 21  1  0  0  0  0
 20 54  1  0  0  0  0
 21 55  1  0  0  0  0
 22 23  1  0  0  0  0
 23 24  2  0  0  0  0
 23 56  1  0  0  0  0
 24 25  1  0  0  0  0
 26 30  1  0  0  0  0
 26 27  1  0  0  0  0
 26 57  1  0  0  0  0
 27 28  1  0  0  0  0
 27 58  1  0  0  0  0
 27 59  1  0  0  0  0
 28 29  1  0  0  0  0
 28 60  1  0  0  0  0
 28 61  1  0  0  0  0
 29 30  1  0  0  0  0
 30 62  1  0  0  0  0
 30 63  1  0  0  0  0
M  END
> <s_m_source_file>
AV-unprocessed.smi

> <i_m_source_file_index>
148

> <i_lp_mmshare_version>
43012

> <i_f3d_flags>
0

> <s_epik_input>
W0NIMl0xT1tDSDJdW0NIMl1bQ0BIXTFbQ0BIXShbQ0gyXVtPSF0pW0NIMl1uKFtjSF1uMiljKGMyMyluW2NIXW5jM040W0NIMl1bQ0gyXVtDSDJdW0NIMl1bQ0BIXTRbQ0BASF01W0NIMl1bQ0gyXVtDSDJdW0NASF01W09IXQ==

> <s_epik_cmdline>
J2VwaWtfcHl0aG9uJywgJy1waCcsICc3LjAnLCAnLXRuJywgJzgnLCAnLW1hJywgJzIwMCcsICctbWV0YWxfYmluZGluZycsICctaW1hZScsICc8aW5maWxlLm1hZT4nLCAnLW9tYWUnLCAnPG91dGZpbGUubWFlPic=

> <r_lp_tautomer_probability>
1

> <r_epik_Ionization_Penalty>
0.00556303

> <r_epik_Ionization_Penalty_Charging>
0

> <r_epik_Ionization_Penalty_Neutral>
0.00556303

> <r_epik_State_Penalty>
0.00401767

> <r_epik_Charging_Adjusted_Penalty>
0.00401767

> <i_epik_Tot_Q>
0

> <i_epik_Tot_abs_Q>
0

> <r_epik_Metal_State_Penalty>
-0

> <b_epik_Metal_Only>
0

> <s_lp_Force_Field>
OPLS_2005

> <r_lp_Energy>
70.4735

> <b_lp_Chiralities_Consistent>
1

> <s_lp_Variant>
AV-unprocessed.smi:148-6

> <Gold.Version>
5.8.1

> <Gold.Id.Protein>
6NUR|6NUR_protein|mol2

> <Gold.PLP.Fitness>
50.9851

> <Gold.PLP.PLP>
-46.6509

> <Gold.PLP.part.hbond>
-3.0000

> <Gold.PLP.part.metal>
0.0000

> <Gold.PLP.part.buried>
-6.8355

> <Gold.PLP.part.nonpolar>
-37.5751

> <Gold.PLP.part.repulsive>
0.0000

> <Gold.PLP.ligand.clash>
0.0000

> <Gold.PLP.ligand.torsion>
2.1132

> <Gold.PLP.Chemscore.Hbond>
2.6870

> <Gold.PLP.Chemscore.CHOScore>
0.0000

> <Gold.PLP.Chemscore.Metal>
0.0000

> <Gold.Chemscore.Hbonds>
donor molecule, donor type, donor heavy atom, donor atom, acceptor molecule, acceptor atom, score
      L1  H     1    31       P1  8028  1.00
      P1  H  6896  6907       L1     7  0.82
      P1  H  6896  6909       L1    10  0.70

> <Gold.PLP.Chemscore.Internal.Correction>
0.4997

> <Gold.Rescore>
     Score         DG    S(hbond)    S(metal)    S(lipo)     H(rot)  DE(clash)    DE(int)     intcor
     13.85     -16.14       1.83        0.00     111.45       3.32       0.10       2.19       ----

> <Gold.Chemscore.Fitness>
13.8514

> <Gold.Chemscore.DG>
-16.1371

> <Gold.Chemscore.ZeroCoef>
-5.4800

> <Gold.Chemscore.Hbond>
1.8316

> <Gold.Chemscore.Metal>
0.0000

> <Gold.Chemscore.Lipo>
111.4503

> <Gold.Chemscore.Internal_Hbond>
0.0000

> <Gold.Chemscore.DEClash>
0.0998

> <Gold.Chemscore.DEInternal>
2.1860

> <Gold.Chemscore.Rot>
3.3203

> <Gold.Chemscore.Internal.Correction>
   9.000000E+99

> <Gold.Chemscore.Hbonds>
donor molecule, donor type, donor heavy atom, donor atom, acceptor molecule, acceptor atom, score
      L1  H     1    31       P1  8028  0.85
      P1  H  6896  6907       L1     7  0.81
      P1  H  6896  6909       L1    10  0.03

> <Gold.Chemscore.Hbond.Weighted>
-6.1175

> <Gold.Chemscore.Metal.Weighted>
-0.0000

> <Gold.Chemscore.Lipo.Weighted>
-13.0397

> <Gold.Chemscore.Internal_Hbond.Weighted>
0.0000

> <Gold.Chemscore.DEClash.Weighted>
0.0998

> <Gold.Chemscore.DEInternal.Weighted>
2.1860

> <Gold.Chemscore.Rot.Weighted>
8.5000

> <Gold.Chemscore.Internal.Correction.Weighted>
   9.000000E+99

> <Gold.Protein.RotatedTorsions>
[ 6907 6896 6895 6894 ] final   13.20 input  -60.11 | X-H torsion
[ 7974 7965 7964 7962 ] final   89.06 input  175.53 | X-H torsion
[ 8008 7997 7996 7995 ] final  124.32 input   59.86 | X-H torsion
[ 10167 10162 10161 10158 ] final  167.25 input  -65.29 | X-H torsion
[ 10718 10713 10712 10709 ] final    0.20 input   66.30 | X-H torsion
[ 10763 10752 10751 10750 ] final  172.62 input  -60.55 | X-H torsion
[ 11005 11000 10999 10996 ] final   35.92 input  -57.11 | X-H torsion

> <Gold.Protein.ActiveResidues>
 VAL166  LYS551  ARG553  GLY616  TRP617  ASP618  TYR619  PRO620  LYS621  CYS622 
 ASP623  PHE694  ASN695  SER759  ASP760  ASP761  ALA762  ILE779  LEU786  VAL792 
 PHE793  MET794  SER795  GLU796  ALA797  LYS798  CYS799  TRP800  GLU811  SER814 

> <Gold.Protein.RotatedAtoms>
  151.7824  135.0758  160.0375 H   0  0  0  0  0  0  0  0  0  0  0  0  # atno 6907 bound_to 6896
  152.3213  133.5853  159.5755 H   0  0  0  0  0  0  0  0  0  0  0  0  # atno 6908 bound_to 6896
  150.7371  133.9922  159.3653 H   0  0  0  0  0  0  0  0  0  0  0  0  # atno 6909 bound_to 6896
  145.5374  139.2286  143.2585 H   0  0  0  0  0  0  0  0  0  0  0  0  # atno 7974 bound_to 7965
  156.2797  140.2742  156.1770 H   0  0  0  0  0  0  0  0  0  0  0  0  # atno 8008 bound_to 7997
  155.0596  140.0386  157.2590 H   0  0  0  0  0  0  0  0  0  0  0  0  # atno 8009 bound_to 7997
  154.7128  140.2672  155.6618 H   0  0  0  0  0  0  0  0  0  0  0  0  # atno 8010 bound_to 7997
  139.4941  144.3941  151.9483 H   0  0  0  0  0  0  0  0  0  0  0  0  # atno 10167 bound_to 10162
  156.8299  130.5485  149.5688 H   0  0  0  0  0  0  0  0  0  0  0  0  # atno 10718 bound_to 10713
  154.4286  135.2759  155.1927 H   0  0  0  0  0  0  0  0  0  0  0  0  # atno 10763 bound_to 10752
  154.3843  135.6080  153.5811 H   0  0  0  0  0  0  0  0  0  0  0  0  # atno 10764 bound_to 10752
  152.9835  135.5888  154.4594 H   0  0  0  0  0  0  0  0  0  0  0  0  # atno 10765 bound_to 10752
  140.2378  134.3451  155.7938 H   0  0  0  0  0  0  0  0  0  0  0  0  # atno 11005 bound_to 11000
  146.2004  140.6193  142.9105 LP  0  0  0  0  0  0  0  0  0  0  0  0  # atno 17320 bound_to 7965
  144.7594  140.5387  143.6746 LP  0  0  0  0  0  0  0  0  0  0  0  0  # atno 17321 bound_to 7965
  140.3379  144.3238  150.5973 LP  0  0  0  0  0  0  0  0  0  0  0  0  # atno 17342 bound_to 10162
  140.5590  143.2195  151.7798 LP  0  0  0  0  0  0  0  0  0  0  0  0  # atno 17343 bound_to 10162
  156.0940  130.5918  150.9782 LP  0  0  0  0  0  0  0  0  0  0  0  0  # atno 17370 bound_to 10713
  157.6412  131.0910  150.8246 LP  0  0  0  0  0  0  0  0  0  0  0  0  # atno 17371 bound_to 10713
  141.2213  133.7281  156.8836 LP  0  0  0  0  0  0  0  0  0  0  0  0  # atno 17394 bound_to 11000
  140.1684  134.9117  157.2803 LP  0  0  0  0  0  0  0  0  0  0  0  0  # atno 17395 bound_to 11000

$$$$
