AV-unprocessed.smi:3136|AV-procd|sdf|11950|dock4
  -GOLD-   2272017343D 1   1.00000     0.00000
 Structure written by MMmdl.
 40 40  0  0  0  0  0  0  0  0  2 V2000
  151.4518  138.1575  154.3291 C   0  0  0  0  0  0  0  0  0  0  0  0
  149.9849  138.2782  154.7632 C   0  0  0  0  0  0  0  0  0  0  0  0
  149.0974  138.4328  153.6163 N   0  0  0  0  0  0  0  0  0  0  0  0
  147.8863  139.0094  153.6505 C   0  0  0  0  0  0  0  0  0  0  0  0
  147.3863  139.4699  154.6772 O   0  0  0  0  0  0  0  0  0  0  0  0
  147.1284  139.0738  152.3212 C   0  0  0  0  0  0  0  0  0  0  0  0
  145.9051  138.1427  152.2885 C   0  0  0  0  0  0  0  0  0  0  0  0
  146.3124  136.7278  152.4138 N   0  3  0  0  0  0  0  0  0  0  0  0
  145.5951  135.7849  151.5231 C   0  0  2  0  0  0  0  0  0  0  0  0
  144.0842  135.9669  151.7438 C   0  0  0  0  0  0  0  0  0  0  0  0
  146.0643  134.3250  151.7743 C   0  0  1  0  0  0  0  0  0  0  0  0
  145.8682  133.8603  153.2303 C   0  0  0  0  0  0  0  0  0  0  0  0
  145.4078  133.3928  150.8639 N   0  0  0  0  0  0  0  0  0  0  0  0
  145.9742  132.4465  150.0315 C   0  0  0  0  0  0  0  0  0  0  0  0
  144.9542  131.7827  149.4127 C   0  0  0  0  0  0  0  0  0  0  0  0
  143.7836  132.3927  149.9419 C   0  0  0  0  0  0  0  0  0  0  0  0
  144.0576  133.3482  150.8152 N   0  0  0  0  0  0  0  0  0  0  0  0
  152.0997  138.0108  155.1934 H   0  0  0  0  0  0  0  0  0  0  0  0
  151.7896  139.0563  153.8125 H   0  0  0  0  0  0  0  0  0  0  0  0
  151.5963  137.3098  153.6585 H   0  0  0  0  0  0  0  0  0  0  0  0
  149.6873  137.3802  155.3049 H   0  0  0  0  0  0  0  0  0  0  0  0
  149.8607  139.1130  155.4548 H   0  0  0  0  0  0  0  0  0  0  0  0
  149.4317  138.0776  152.7321 H   0  0  0  0  0  0  0  0  0  0  0  0
  146.8055  140.1028  152.1524 H   0  0  0  0  0  0  0  0  0  0  0  0
  147.8155  138.8223  151.5124 H   0  0  0  0  0  0  0  0  0  0  0  0
  145.2187  138.3863  153.1008 H   0  0  0  0  0  0  0  0  0  0  0  0
  145.3597  138.2826  151.3551 H   0  0  0  0  0  0  0  0  0  0  0  0
  147.3013  136.6534  152.2202 H   0  0  0  0  0  0  0  0  0  0  0  0
  145.8037  136.0498  150.4847 H   0  0  0  0  0  0  0  0  0  0  0  0
  143.4988  135.3963  151.0230 H   0  0  0  0  0  0  0  0  0  0  0  0
  143.7957  137.0122  151.6267 H   0  0  0  0  0  0  0  0  0  0  0  0
  143.7865  135.6509  152.7443 H   0  0  0  0  0  0  0  0  0  0  0  0
  147.1360  134.2755  151.5706 H   0  0  0  0  0  0  0  0  0  0  0  0
  146.5035  134.4168  153.9186 H   0  0  0  0  0  0  0  0  0  0  0  0
  146.1287  132.8073  153.3430 H   0  0  0  0  0  0  0  0  0  0  0  0
  144.8354  133.9843  153.5566 H   0  0  0  0  0  0  0  0  0  0  0  0
  147.0439  132.3209  149.9510 H   0  0  0  0  0  0  0  0  0  0  0  0
  145.0322  130.9802  148.6940 H   0  0  0  0  0  0  0  0  0  0  0  0
  142.7502  132.1674  149.7233 H   0  0  0  0  0  0  0  0  0  0  0  0
  146.1509  136.4446  153.3696 H   0  0  0  0  0  0  0  0  0  0  0  0
  1  2  1  0  0  0  0
  1 18  1  0  0  0  0
  1 19  1  0  0  0  0
  1 20  1  0  0  0  0
  2  3  1  0  0  0  0
  2 21  1  0  0  0  0
  2 22  1  0  0  0  0
  3  4  1  0  0  0  0
  3 23  1  0  0  0  0
  4  5  2  0  0  0  0
  4  6  1  0  0  0  0
  6  7  1  0  0  0  0
  6 24  1  0  0  0  0
  6 25  1  0  0  0  0
  7  8  1  0  0  0  0
  7 26  1  0  0  0  0
  7 27  1  0  0  0  0
  8  9  1  0  0  0  0
  8 28  1  0  0  0  0
  8 40  1  0  0  0  0
  9 10  1  0  0  0  0
  9 11  1  0  0  0  0
  9 29  1  0  0  0  0
 10 30  1  0  0  0  0
 10 31  1  0  0  0  0
 10 32  1  0  0  0  0
 11 12  1  0  0  0  0
 11 13  1  0  0  0  0
 11 33  1  0  0  0  0
 12 34  1  0  0  0  0
 12 35  1  0  0  0  0
 12 36  1  0  0  0  0
 13 17  1  0  0  0  0
 13 14  1  0  0  0  0
 14 15  2  0  0  0  0
 14 37  1  0  0  0  0
 15 16  1  0  0  0  0
 15 38  1  0  0  0  0
 16 17  2  0  0  0  0
 16 39  1  0  0  0  0
M  CHG  1   8   1
M  END
> <s_m_source_file>
AV-unprocessed.smi

> <i_m_source_file_index>
3136

> <i_lp_mmshare_version>
43012

> <i_f3d_flags>
0

> <s_epik_input>
W0NIM11bQ0gyXVtOSF1DKD1PKVtDSDJdW0NIMl1bTkhdW0NASF0oW0NIM10pW0NASF0oW0NIM10pbjFbY0hdW2NIXVtjSF1uMQ==

> <s_epik_cmdline>
J2VwaWtfcHl0aG9uJywgJy1waCcsICc3LjAnLCAnLXRuJywgJzgnLCAnLW1hJywgJzIwMCcsICctbWV0YWxfYmluZGluZycsICctaW1hZScsICc8aW5maWxlLm1hZT4nLCAnLW9tYWUnLCAnPG91dGZpbGUubWFlPic=

> <r_lp_tautomer_probability>
1

> <r_epik_Ionization_Penalty>
0.00463447

> <r_epik_Ionization_Penalty_Charging>
0.00462393

> <r_epik_Ionization_Penalty_Neutral>
1.05394e-05

> <r_epik_State_Penalty>
-0

> <r_epik_Charging_Adjusted_Penalty>
0.00462393

> <i_epik_Tot_Q>
1

> <i_epik_Tot_abs_Q>
1

> <r_epik_Metal_State_Penalty>
-0

> <b_epik_Metal_Only>
0

> <s_lp_Force_Field>
OPLS_2005

> <r_lp_Energy>
10.6492

> <b_lp_Chiralities_Consistent>
1

> <s_lp_Variant>
AV-unprocessed.smi:3136-3

> <Gold.Version>
5.8.1

> <Gold.Id.Protein>
6NUR|6NUR_protein|mol2

> <Gold.PLP.Fitness>
43.5652

> <Gold.PLP.PLP>
-30.2909

> <Gold.PLP.part.hbond>
-3.0000

> <Gold.PLP.part.metal>
0.0000

> <Gold.PLP.part.buried>
-0.0106

> <Gold.PLP.part.nonpolar>
-28.3142

> <Gold.PLP.part.repulsive>
0.3642

> <Gold.PLP.ligand.clash>
0.0000

> <Gold.PLP.ligand.torsion>
0.7482

> <Gold.PLP.Chemscore.Hbond>
2.5920

> <Gold.PLP.Chemscore.CHOScore>
2.2628

> <Gold.PLP.Chemscore.Metal>
0.0000

> <Gold.Chemscore.Hbonds>
donor molecule, donor type, donor heavy atom, donor atom, acceptor molecule, acceptor atom, score
      L1  H     3    23       P1  7948  0.54
      L1  H     8    28       P1  7948  2.00
      L1  C    14    37       P1 10747  1.00
      L1  C    16    39       P1 10186  0.15
      L1  C    16    39       P1 10952  0.70

> <Gold.PLP.Chemscore.Internal.Correction>
0.2064

> <Gold.Rescore>
     Score         DG    S(hbond)    S(metal)    S(lipo)     H(rot)  DE(clash)    DE(int)     intcor
     12.89     -15.15       1.92        0.00      78.45       2.32       0.19       2.06       ----

> <Gold.Chemscore.Fitness>
12.8942

> <Gold.Chemscore.DG>
-15.1472

> <Gold.Chemscore.ZeroCoef>
-5.4800

> <Gold.Chemscore.Hbond>
1.9213

> <Gold.Chemscore.Metal>
0.0000

> <Gold.Chemscore.Lipo>
78.4501

> <Gold.Chemscore.Internal_Hbond>
0.0000

> <Gold.Chemscore.DEClash>
0.1942

> <Gold.Chemscore.DEInternal>
2.0589

> <Gold.Chemscore.Rot>
2.3159

> <Gold.Chemscore.Internal.Correction>
   9.000000E+99

> <Gold.Chemscore.Hbonds>
donor molecule, donor type, donor heavy atom, donor atom, acceptor molecule, acceptor atom, score
      L1  H     3    23       P1  7948  0.43
      L1  H     8    28       P1  7948  1.00

> <Gold.Chemscore.Hbond.Weighted>
-6.4171

> <Gold.Chemscore.Metal.Weighted>
-0.0000

> <Gold.Chemscore.Lipo.Weighted>
-9.1787

> <Gold.Chemscore.Internal_Hbond.Weighted>
0.0000

> <Gold.Chemscore.DEClash.Weighted>
0.1942

> <Gold.Chemscore.DEInternal.Weighted>
2.0589

> <Gold.Chemscore.Rot.Weighted>
5.9286

> <Gold.Chemscore.Internal.Correction.Weighted>
   9.000000E+99

> <Gold.Protein.RotatedTorsions>
[ 6907 6896 6895 6894 ] final   63.21 input  -60.11 | X-H torsion
[ 7974 7965 7964 7962 ] final  -72.31 input  175.53 | X-H torsion
[ 8008 7997 7996 7995 ] final   25.97 input   59.86 | X-H torsion
[ 10167 10162 10161 10158 ] final  139.78 input  -65.29 | X-H torsion
[ 10718 10713 10712 10709 ] final  -14.62 input   66.30 | X-H torsion
[ 10763 10752 10751 10750 ] final  -39.96 input  -60.55 | X-H torsion
[ 11005 11000 10999 10996 ] final -126.26 input  -57.11 | X-H torsion

> <Gold.Protein.ActiveResidues>
 VAL166  LYS551  ARG553  GLY616  TRP617  ASP618  TYR619  PRO620  LYS621  CYS622 
 ASP623  PHE694  ASN695  SER759  ASP760  ASP761  ALA762  ILE779  LEU786  VAL792 
 PHE793  MET794  SER795  GLU796  ALA797  LYS798  CYS799  TRP800  GLU811  SER814 

> <Gold.Protein.RotatedAtoms>
  152.4235  134.5912  159.9974 H   0  0  0  0  0  0  0  0  0  0  0  0  # atno 6907 bound_to 6896
  151.6055  133.3346  159.3064 H   0  0  0  0  0  0  0  0  0  0  0  0  # atno 6908 bound_to 6896
  150.8124  134.7323  159.6765 H   0  0  0  0  0  0  0  0  0  0  0  0  # atno 6909 bound_to 6896
  145.6668  140.9234  143.0904 H   0  0  0  0  0  0  0  0  0  0  0  0  # atno 7974 bound_to 7965
  155.0200  140.3146  155.4797 H   0  0  0  0  0  0  0  0  0  0  0  0  # atno 8008 bound_to 7997
  156.2894  140.2199  156.5259 H   0  0  0  0  0  0  0  0  0  0  0  0  # atno 8009 bound_to 7997
  154.7460  140.0470  157.0840 H   0  0  0  0  0  0  0  0  0  0  0  0  # atno 8010 bound_to 7997
  139.5068  144.6274  151.5902 H   0  0  0  0  0  0  0  0  0  0  0  0  # atno 10167 bound_to 10162
  156.6133  130.4855  149.6193 H   0  0  0  0  0  0  0  0  0  0  0  0  # atno 10718 bound_to 10713
  153.9380  135.6764  153.4744 H   0  0  0  0  0  0  0  0  0  0  0  0  # atno 10763 bound_to 10752
  153.0946  135.4858  154.8751 H   0  0  0  0  0  0  0  0  0  0  0  0  # atno 10764 bound_to 10752
  154.7392  135.3156  154.8716 H   0  0  0  0  0  0  0  0  0  0  0  0  # atno 10765 bound_to 10752
  140.9695  134.0824  157.3884 H   0  0  0  0  0  0  0  0  0  0  0  0  # atno 11005 bound_to 11000
  144.7070  139.8520  143.7427 LP  0  0  0  0  0  0  0  0  0  0  0  0  # atno 17320 bound_to 7965
  146.1079  139.4081  143.0306 LP  0  0  0  0  0  0  0  0  0  0  0  0  # atno 17321 bound_to 7965
  140.5996  143.9634  150.6377 LP  0  0  0  0  0  0  0  0  0  0  0  0  # atno 17342 bound_to 10162
  140.2841  143.3369  152.1123 LP  0  0  0  0  0  0  0  0  0  0  0  0  # atno 17343 bound_to 10162
  156.2371  130.6829  151.1520 LP  0  0  0  0  0  0  0  0  0  0  0  0  # atno 17370 bound_to 10713
  157.7248  131.0657  150.5980 LP  0  0  0  0  0  0  0  0  0  0  0  0  # atno 17371 bound_to 10713
  139.8907  135.0114  156.6751 LP  0  0  0  0  0  0  0  0  0  0  0  0  # atno 17394 bound_to 11000
  140.7349  133.9027  155.8237 LP  0  0  0  0  0  0  0  0  0  0  0  0  # atno 17395 bound_to 11000

$$$$
