#       Name:                AV-unprocessed.smi:2027
#       Creating user name   scv26
#       Creation time:       Fri Mar 27 10:47:21 2020


#       File generated by GOLD software.
#

@<TRIPOS>MOLECULE
AV-unprocessed.smi:2027
    54    56     1
SMALL
NO_CHARGES


@<TRIPOS>ATOM
      1 ****        -5.4251   2.2731   2.3750 C.3            1 S1                 0.0000
      2 ****        -4.4215   1.8160   1.3310 C.ar           1 S1                 0.0000
      3 ****        -4.8903   1.1771   0.1608 C.ar           1 S1                 0.0000
      4 ****        -3.9903   0.7369  -0.8341 C.ar           1 S1                 0.0000
      5 ****        -4.2241   0.0944  -2.0378 N.2            1 S1                 0.0000
      6 ****        -2.9894  -0.0497  -2.5099 C.2            1 S1                 0.0000
      7 ****        -1.9806   0.4218  -1.7520 N.pl3          1 S1                 0.0000
      8 ****        -0.5618   0.3738  -2.0570 C.3            1 S1                 0.0000
      9 ****         0.0990  -0.9360  -1.5855 C.3            1 S1                 0.0000
     10 ****        -0.0544  -1.0646  -0.1843 O.3            1 S1                 0.0000
     11 ****         1.6035  -0.9646  -1.9129 C.3            1 S1                 0.0000
     12 ****         2.2276  -2.2630  -1.5430 N.4            1 S1                 1.0000
     13 ****         2.0396  -3.3031  -2.5809 C.3            1 S1                 0.0000
     14 ****         3.6473  -2.1431  -1.1269 C.3            1 S1                 0.0000
     15 ****         3.7718  -1.4430   0.2006 C.2            1 S1                 0.0000
     16 ****         3.4251  -1.9464   1.4873 C.2            1 S1                 0.0000
     17 ****         3.6452  -1.0749   2.4573 N.2            1 S1                 0.0000
     18 ****         4.1469   0.0081   1.8296 N.pl3          1 S1                 0.0000
     19 ****         4.5119   1.1756   2.6033 C.3            1 S1                 0.0000
     20 ****         4.2361  -0.1852   0.4680 C.2            1 S1                 0.0000
     21 ****        -2.5973   0.9565  -0.6256 C.ar           1 S1                 0.0000
     22 ****        -2.1185   1.5904   0.5346 C.ar           1 S1                 0.0000
     23 ****        -3.0310   2.0208   1.5203 C.ar           1 S1                 0.0000
     24 ****        -2.5028   2.6993   2.7719 C.3            1 S1                 0.0000
     25 ****        -6.4501   2.1180   2.0369 H              1 S1                 0.0000
     26 ****        -5.3021   3.3354   2.5872 H              1 S1                 0.0000
     27 ****        -5.2893   1.7162   3.3024 H              1 S1                 0.0000
     28 ****        -5.9491   1.0186   0.0176 H              1 S1                 0.0000
     29 ****        -2.8068  -0.5279  -3.4613 H              1 S1                 0.0000
     30 ****        -0.4403   0.4893  -3.1351 H              1 S1                 0.0000
     31 ****        -0.0781   1.2364  -1.5964 H              1 S1                 0.0000
     32 ****        -0.4077  -1.7753  -2.0624 H              1 S1                 0.0000
     33 ****        -0.9766  -1.0258   0.0227 H              1 S1                 0.0000
     34 ****         1.7704  -0.7714  -2.9737 H              1 S1                 0.0000
     35 ****         2.0822  -0.1393  -1.3852 H              1 S1                 0.0000
     36 ****         2.5755  -3.0437  -3.4949 H              1 S1                 0.0000
     37 ****         0.9862  -3.4309  -2.8285 H              1 S1                 0.0000
     38 ****         2.4101  -4.2675  -2.2315 H              1 S1                 0.0000
     39 ****         4.0836  -3.1401  -1.0524 H              1 S1                 0.0000
     40 ****         4.2089  -1.6282  -1.9081 H              1 S1                 0.0000
     41 ****         3.0150  -2.9125   1.7422 H              1 S1                 0.0000
     42 ****         4.9229   1.9451   1.9489 H              1 S1                 0.0000
     43 ****         5.2622   0.9061   3.3478 H              1 S1                 0.0000
     44 ****         3.6315   1.5730   3.1093 H              1 S1                 0.0000
     45 ****         4.6159   0.5812  -0.1919 H              1 S1                 0.0000
     46 ****        -1.0572   1.7412   0.6663 H              1 S1                 0.0000
     47 ****        -1.4126   2.6981   2.7950 H              1 S1                 0.0000
     48 ****        -2.8547   2.1849   3.6664 H              1 S1                 0.0000
     49 ****        -2.8385   3.7358   2.8130 H              1 S1                 0.0000
     50 ****         1.7328  -2.5847  -0.7227 H              1 S1                 0.0000
     51 ****        -5.0929  -0.1873  -2.4451 LP             1 S1                 0.0000
     52 ****         0.4262  -0.3190   0.2772 LP             1 S1                 0.0000
     53 ****         0.3220  -1.9407   0.1169 LP             1 S1                 0.0000
     54 ****         3.4773  -1.1926   3.4360 LP             1 S1                 0.0000
@<TRIPOS>BOND
    1    1    2 1     
    2    1   25 1     
    3    1   26 1     
    4    1   27 1     
    5    2   23 ar    
    6    2    3 ar    
    7    3    4 ar    
    8    3   28 1     
    9    4   21 ar    
   10    4    5 1     
   11    5    6 2     
   12    6    7 1     
   13    6   29 1     
   14    7    8 1     
   15    7   21 1     
   16    8    9 1     
   17    8   30 1     
   18    8   31 1     
   19    9   10 1     
   20    9   11 1     
   21    9   32 1     
   22   10   33 1     
   23   11   12 1     
   24   11   34 1     
   25   11   35 1     
   26   12   13 1     
   27   12   14 1     
   28   12   50 1     
   29   13   36 1     
   30   13   37 1     
   31   13   38 1     
   32   14   15 1     
   33   14   39 1     
   34   14   40 1     
   35   15   20 2     
   36   15   16 1     
   37   16   17 2     
   38   16   41 1     
   39   17   18 1     
   40   18   19 1     
   41   18   20 1     
   42   19   42 1     
   43   19   43 1     
   44   19   44 1     
   45   20   45 1     
   46   21   22 ar    
   47   22   23 ar    
   48   22   46 1     
   49   23   24 1     
   50   24   47 1     
   51   24   48 1     
   52   24   49 1     
   53    5   51 1     
   54   10   52 1     
   55   10   53 1     
   56   17   54 1     
@<TRIPOS>SUBSTRUCTURE
      1 S1             1
@<TRIPOS>SET
LONE_PAIRS      STATIC     ATOMS    <user>   **** ""
4 51 52 53 54
DONOR_HYDROGENS      STATIC     ATOMS    <user>   **** ""
2 33 50
ATOM$BLUE        STATIC     ATOMS    COLORGROUP SYSTEM
4 51 52 53 54
ATOM$RED        STATIC     ATOMS    COLORGROUP SYSTEM
2 33 50
