AV-unprocessed.smi:221|AV-procd|sdf|1692|dock2
  -GOLD-   2262020133D 1   1.00000     0.00000
 Structure written by MMmdl.
 50 53  0  0  0  0  0  0  0  0  1 V2000
  141.8196  134.3530  154.2983 N   0  0  0  0  0  0  0  0  0  0  0  0
  142.1107  135.4633  153.6134 C   0  0  0  0  0  0  0  0  0  0  0  0
  141.7999  136.5780  154.0288 O   0  0  0  0  0  0  0  0  0  0  0  0
  142.8633  135.3033  152.2757 C   0  0  2  0  0  0  0  0  0  0  0  0
  143.3729  133.8876  151.9742 C   0  0  0  0  0  0  0  0  0  0  0  0
  144.3640  134.1145  150.8305 C   0  0  2  0  0  0  0  0  0  0  0  0
  145.4418  133.3430  150.9722 F   0  0  0  0  0  0  0  0  0  0  0  0
  144.7192  135.6104  150.8880 C   0  0  0  0  0  0  0  0  0  0  0  0
  144.0222  136.1762  152.0415 N   0  0  0  0  0  0  0  0  0  0  0  0
  144.8622  136.4522  153.0722 C   0  0  0  0  0  0  0  0  0  0  0  0
  144.7925  135.7550  154.2377 N   0  0  0  0  0  0  0  0  0  0  0  0
  145.6299  136.0399  155.2394 C   0  0  0  0  0  0  0  0  0  0  0  0
  146.5966  136.9601  155.2835 N   0  0  0  0  0  0  0  0  0  0  0  0
  146.6701  137.6556  154.1128 C   0  0  0  0  0  0  0  0  0  0  0  0
  145.8488  137.4666  152.9671 C   0  0  0  0  0  0  0  0  0  0  0  0
  146.2113  138.3579  151.9655 N   0  0  0  0  0  0  0  0  0  0  0  0
  147.1967  139.0356  152.4889 C   0  0  0  0  0  0  0  0  0  0  0  0
  147.5403  138.6751  153.7729 N   0  0  0  0  0  0  0  0  0  0  0  0
  148.5921  139.2552  154.5888 C   0  0  0  0  0  0  0  0  0  0  0  0
  148.7801  140.7758  154.3593 C   0  0  1  0  0  0  0  0  0  0  0  0
  147.4406  141.5512  154.3461 C   0  0  0  0  0  0  0  0  0  0  0  0
  147.6293  142.9024  153.9790 O   0  0  0  0  0  0  0  0  0  0  0  0
  149.8015  141.3736  155.3594 C   0  0  2  0  0  0  0  0  0  0  0  0
  150.9888  140.4826  155.6791 C   0  0  0  0  0  0  0  0  0  0  0  0
  151.5121  141.0981  156.9717 C   0  0  0  0  0  0  0  0  0  0  0  0
  150.3644  141.5944  157.6504 O   0  0  0  0  0  0  0  0  0  0  0  0
  149.2465  141.6124  156.7680 C   0  0  0  0  0  0  0  0  0  0  0  0
  142.1364  135.5652  151.5049 H   0  0  0  0  0  0  0  0  0  0  0  0
  143.9153  133.8667  149.8681 H   0  0  0  0  0  0  0  0  0  0  0  0
  141.3266  134.4209  155.1767 H   0  0  0  0  0  0  0  0  0  0  0  0
  142.0919  133.4511  153.9348 H   0  0  0  0  0  0  0  0  0  0  0  0
  143.8813  133.4628  152.8410 H   0  0  0  0  0  0  0  0  0  0  0  0
  142.5704  133.2042  151.6950 H   0  0  0  0  0  0  0  0  0  0  0  0
  145.8001  135.7648  150.9240 H   0  0  0  0  0  0  0  0  0  0  0  0
  144.3617  136.1170  149.9908 H   0  0  0  0  0  0  0  0  0  0  0  0
  145.5087  135.4452  156.1327 H   0  0  0  0  0  0  0  0  0  0  0  0
  147.7092  139.8176  151.9471 H   0  0  0  0  0  0  0  0  0  0  0  0
  148.3617  139.0591  155.6368 H   0  0  0  0  0  0  0  0  0  0  0  0
  149.5148  138.7169  154.3711 H   0  0  0  0  0  0  0  0  0  0  0  0
  149.2052  140.8936  153.3613 H   0  0  0  0  0  0  0  0  0  0  0  0
  146.7341  141.0955  153.6529 H   0  0  0  0  0  0  0  0  0  0  0  0
  146.9592  141.5175  155.3236 H   0  0  0  0  0  0  0  0  0  0  0  0
  147.9265  143.3806  154.7381 H   0  0  0  0  0  0  0  0  0  0  0  0
  150.1792  142.3219  154.9729 H   0  0  0  0  0  0  0  0  0  0  0  0
  150.6611  139.4575  155.8582 H   0  0  0  0  0  0  0  0  0  0  0  0
  151.7428  140.4692  154.8916 H   0  0  0  0  0  0  0  0  0  0  0  0
  152.0608  140.3822  157.5837 H   0  0  0  0  0  0  0  0  0  0  0  0
  152.1751  141.9359  156.7522 H   0  0  0  0  0  0  0  0  0  0  0  0
  148.7017  142.5533  156.8470 H   0  0  0  0  0  0  0  0  0  0  0  0
  148.5711  140.8070  157.0603 H   0  0  0  0  0  0  0  0  0  0  0  0
  1  2  1  0  0  0  0
  1 30  1  0  0  0  0
  1 31  1  0  0  0  0
  2  3  2  0  0  0  0
  2  4  1  0  0  0  0
  4 28  1  0  0  0  0
  4  9  1  0  0  0  0
  4  5  1  0  0  0  0
  5  6  1  0  0  0  0
  5 32  1  0  0  0  0
  5 33  1  0  0  0  0
  6 29  1  0  0  0  0
  6  7  1  0  0  0  0
  6  8  1  0  0  0  0
  8  9  1  0  0  0  0
  8 34  1  0  0  0  0
  8 35  1  0  0  0  0
  9 10  1  0  0  0  0
 10 15  1  0  0  0  0
 10 11  2  0  0  0  0
 11 12  1  0  0  0  0
 12 13  2  0  0  0  0
 12 36  1  0  0  0  0
 13 14  1  0  0  0  0
 14 18  1  0  0  0  0
 14 15  2  0  0  0  0
 15 16  1  0  0  0  0
 16 17  2  0  0  0  0
 17 18  1  0  0  0  0
 17 37  1  0  0  0  0
 18 19  1  0  0  0  0
 19 20  1  0  0  0  0
 19 38  1  0  0  0  0
 19 39  1  0  0  0  0
 20 21  1  0  0  0  0
 20 23  1  0  0  0  0
 20 40  1  0  0  0  0
 21 22  1  0  0  0  0
 21 41  1  0  0  0  0
 21 42  1  0  0  0  0
 22 43  1  0  0  0  0
 23 27  1  0  0  0  0
 23 24  1  0  0  0  0
 23 44  1  0  0  0  0
 24 25  1  0  0  0  0
 24 45  1  0  0  0  0
 24 46  1  0  0  0  0
 25 26  1  0  0  0  0
 25 47  1  0  0  0  0
 25 48  1  0  0  0  0
 26 27  1  0  0  0  0
 27 49  1  0  0  0  0
 27 50  1  0  0  0  0
M  END
> <s_m_source_file>
AV-unprocessed.smi

> <i_m_source_file_index>
221

> <i_lp_mmshare_version>
43012

> <i_f3d_flags>
0

> <s_epik_input>
W05IMl1DKD1PKVtDQEBIXTFbQ0gyXVtDQEBIXShGKVtDSDJdTjFjKG5bY0hdbjIpYyhjMjMpbltjSF1uM1tDSDJdW0NASF0oW0NIMl1bT0hdKVtDQEBIXTRbQ0gyXVtDSDJdT1tDSDJdNA==

> <s_epik_cmdline>
J2VwaWtfcHl0aG9uJywgJy1waCcsICc3LjAnLCAnLXRuJywgJzgnLCAnLW1hJywgJzIwMCcsICctbWV0YWxfYmluZGluZycsICctaW1hZScsICc8aW5maWxlLm1hZT4nLCAnLW9tYWUnLCAnPG91dGZpbGUubWFlPic=

> <r_lp_tautomer_probability>
1

> <r_epik_Ionization_Penalty>
0.000818822

> <r_epik_Ionization_Penalty_Charging>
0

> <r_epik_Ionization_Penalty_Neutral>
0.000818822

> <r_epik_State_Penalty>
0.000440551

> <r_epik_Charging_Adjusted_Penalty>
0.000440551

> <i_epik_Tot_Q>
0

> <i_epik_Tot_abs_Q>
0

> <r_epik_Metal_State_Penalty>
-0

> <b_epik_Metal_Only>
0

> <s_lp_Force_Field>
OPLS_2005

> <r_lp_Energy>
53.4739

> <b_lp_Chiralities_Consistent>
1

> <s_lp_Variant>
AV-unprocessed.smi:221-7

> <Gold.Version>
5.8.1

> <Gold.Id.Protein>
6NUR|6NUR_protein|mol2

> <Gold.PLP.Fitness>
48.8066

> <Gold.PLP.PLP>
-39.9383

> <Gold.PLP.part.hbond>
-4.5100

> <Gold.PLP.part.metal>
0.0000

> <Gold.PLP.part.buried>
-5.3152

> <Gold.PLP.part.nonpolar>
-31.0173

> <Gold.PLP.part.repulsive>
0.7407

> <Gold.PLP.ligand.clash>
0.0000

> <Gold.PLP.ligand.torsion>
1.0731

> <Gold.PLP.Chemscore.Hbond>
2.5760

> <Gold.PLP.Chemscore.CHOScore>
1.0000

> <Gold.PLP.Chemscore.Metal>
0.0000

> <Gold.Chemscore.Hbonds>
donor molecule, donor type, donor heavy atom, donor atom, acceptor molecule, acceptor atom, score
      L1  H     1    30       P1 11000  1.00
      L1  H     1    31       P1 10957  0.67
      L1  H    22    43       P1  8028  1.00
      L1  C    17    37       P1  7957  1.00

> <Gold.PLP.Chemscore.Internal.Correction>
0.2865

> <Gold.Rescore>
     Score         DG    S(hbond)    S(metal)    S(lipo)     H(rot)  DE(clash)    DE(int)     intcor
      9.79     -12.61       2.69        0.00      65.58       3.72       0.03       2.80       ----

> <Gold.Chemscore.Fitness>
9.7869

> <Gold.Chemscore.DG>
-12.6125

> <Gold.Chemscore.ZeroCoef>
-5.4800

> <Gold.Chemscore.Hbond>
2.6895

> <Gold.Chemscore.Metal>
0.0000

> <Gold.Chemscore.Lipo>
65.5825

> <Gold.Chemscore.Internal_Hbond>
0.0000

> <Gold.Chemscore.DEClash>
0.0280

> <Gold.Chemscore.DEInternal>
2.7975

> <Gold.Chemscore.Rot>
3.7202

> <Gold.Chemscore.Internal.Correction>
   9.000000E+99

> <Gold.Chemscore.Hbonds>
donor molecule, donor type, donor heavy atom, donor atom, acceptor molecule, acceptor atom, score
      L1  H     1    30       P1 11000  0.85
      L1  H     1    31       P1 10957  0.67
      L1  H    22    43       P1  8028  0.73

> <Gold.Chemscore.Hbond.Weighted>
-8.9831

> <Gold.Chemscore.Metal.Weighted>
-0.0000

> <Gold.Chemscore.Lipo.Weighted>
-7.6732

> <Gold.Chemscore.Internal_Hbond.Weighted>
0.0000

> <Gold.Chemscore.DEClash.Weighted>
0.0280

> <Gold.Chemscore.DEInternal.Weighted>
2.7975

> <Gold.Chemscore.Rot.Weighted>
9.5237

> <Gold.Chemscore.Internal.Correction.Weighted>
   9.000000E+99

> <Gold.Protein.RotatedTorsions>
[ 6907 6896 6895 6894 ] final   42.22 input  -60.11 | X-H torsion
[ 7974 7965 7964 7962 ] final   -3.80 input  175.53 | X-H torsion
[ 8008 7997 7996 7995 ] final    0.57 input   59.86 | X-H torsion
[ 10167 10162 10161 10158 ] final -121.35 input  -65.29 | X-H torsion
[ 10718 10713 10712 10709 ] final  -56.97 input   66.30 | X-H torsion
[ 10763 10752 10751 10750 ] final  -99.18 input  -60.55 | X-H torsion
[ 11005 11000 10999 10996 ] final  149.67 input  -57.11 | X-H torsion

> <Gold.Protein.ActiveResidues>
 VAL166  LYS551  ARG553  GLY616  TRP617  ASP618  TYR619  PRO620  LYS621  CYS622 
 ASP623  PHE694  ASN695  SER759  ASP760  ASP761  ALA762  ILE779  LEU786  VAL792 
 PHE793  MET794  SER795  GLU796  ALA797  LYS798  CYS799  TRP800  GLU811  SER814 

> <Gold.Protein.RotatedAtoms>
  152.2052  134.8552  160.0503 H   0  0  0  0  0  0  0  0  0  0  0  0  # atno 6907 bound_to 6896
  151.9391  133.3627  159.3967 H   0  0  0  0  0  0  0  0  0  0  0  0  # atno 6908 bound_to 6896
  150.6963  134.4382  159.5324 H   0  0  0  0  0  0  0  0  0  0  0  0  # atno 6909 bound_to 6896
  146.2383  140.1776  142.8332 H   0  0  0  0  0  0  0  0  0  0  0  0  # atno 7974 bound_to 7965
  154.6697  140.2609  155.7021 H   0  0  0  0  0  0  0  0  0  0  0  0  # atno 8008 bound_to 7997
  156.2653  140.2832  156.1123 H   0  0  0  0  0  0  0  0  0  0  0  0  # atno 8009 bound_to 7997
  155.1187  140.0376  157.2734 H   0  0  0  0  0  0  0  0  0  0  0  0  # atno 8010 bound_to 7997
  140.0259  143.5297  152.2199 H   0  0  0  0  0  0  0  0  0  0  0  0  # atno 10167 bound_to 10162
  156.1247  130.4163  150.0377 H   0  0  0  0  0  0  0  0  0  0  0  0  # atno 10718 bound_to 10713
  154.7476  135.4982  153.9232 H   0  0  0  0  0  0  0  0  0  0  0  0  # atno 10763 bound_to 10752
  153.1109  135.6709  153.9511 H   0  0  0  0  0  0  0  0  0  0  0  0  # atno 10764 bound_to 10752
  153.9270  135.3082  155.3425 H   0  0  0  0  0  0  0  0  0  0  0  0  # atno 10765 bound_to 10752
  140.1065  134.8951  157.1873 H   0  0  0  0  0  0  0  0  0  0  0  0  # atno 11005 bound_to 11000
  144.9961  140.8590  143.5310 LP  0  0  0  0  0  0  0  0  0  0  0  0  # atno 17320 bound_to 7965
  145.1788  139.2363  143.5303 LP  0  0  0  0  0  0  0  0  0  0  0  0  # atno 17321 bound_to 7965
  139.6108  144.7608  151.2956 LP  0  0  0  0  0  0  0  0  0  0  0  0  # atno 17342 bound_to 10162
  140.7323  143.6828  150.7986 LP  0  0  0  0  0  0  0  0  0  0  0  0  # atno 17343 bound_to 10162
  156.8306  130.9391  151.3637 LP  0  0  0  0  0  0  0  0  0  0  0  0  # atno 17370 bound_to 10713
  157.6429  130.8820  149.9482 LP  0  0  0  0  0  0  0  0  0  0  0  0  # atno 17371 bound_to 10713
  140.3149  134.2982  155.7258 LP  0  0  0  0  0  0  0  0  0  0  0  0  # atno 17394 bound_to 11000
  141.2119  133.7673  156.9829 LP  0  0  0  0  0  0  0  0  0  0  0  0  # atno 17395 bound_to 11000

$$$$
