AV-unprocessed.smi:1248|AV-procd|sdf|5251|dock9
  -GOLD-   22720 4363D 1   1.00000     0.00000
 Structure written by MMmdl.
 44 46  0  0  0  0  0  0  0  0  2 V2000
  150.8609  142.0141  156.2378 C   0  0  0  0  0  0  0  0  0  0  0  0
  150.8457  140.5811  156.7824 C   0  0  0  0  0  0  0  0  0  0  0  0
  150.1816  139.6683  155.8724 N   0  0  0  0  0  0  0  0  0  0  0  0
  149.0691  138.8852  156.1086 C   0  0  0  0  0  0  0  0  0  0  0  0
  148.8368  138.2098  154.9483 C   0  0  0  0  0  0  0  0  0  0  0  0
  147.7834  137.2829  154.7485 N   0  0  0  0  0  0  0  0  0  0  0  0
  146.8614  137.3000  153.7727 C   0  0  0  0  0  0  0  0  0  0  0  0
  146.7758  138.1569  152.8932 O   0  0  0  0  0  0  0  0  0  0  0  0
  146.0300  136.2522  153.8680 N   0  0  0  0  0  0  0  0  0  0  0  0
  144.9205  135.9750  152.9600 C   0  0  2  0  0  0  0  0  0  0  0  0
  144.2971  134.6102  153.2994 C   0  0  0  0  0  0  0  0  0  0  0  0
  143.1841  134.2385  152.3005 C   0  0  0  0  0  0  0  0  0  0  0  0
  143.6609  134.2702  150.8940 N   0  3  2  0  0  0  0  0  0  0  0  0
  144.5238  133.1184  150.5406 C   0  0  0  0  0  0  0  0  0  0  0  0
  144.1725  132.4800  149.2170 C   0  0  0  0  0  0  0  0  0  0  0  0
  143.7891  131.7984  150.5116 C   0  0  0  0  0  0  0  0  0  0  0  0
  144.2561  135.5832  150.5366 C   0  0  0  0  0  0  0  0  0  0  0  0
  145.3943  135.9831  151.4938 C   0  0  0  0  0  0  0  0  0  0  0  0
  149.8496  138.6344  154.0423 C   0  0  0  0  0  0  0  0  0  0  0  0
  150.6565  139.5173  154.6115 N   0  0  0  0  0  0  0  0  0  0  0  0
  151.3639  142.6874  156.9319 H   0  0  0  0  0  0  0  0  0  0  0  0
  149.8478  142.3877  156.0869 H   0  0  0  0  0  0  0  0  0  0  0  0
  151.3849  142.0684  155.2829 H   0  0  0  0  0  0  0  0  0  0  0  0
  151.8641  140.2294  156.9537 H   0  0  0  0  0  0  0  0  0  0  0  0
  150.3333  140.5487  157.7446 H   0  0  0  0  0  0  0  0  0  0  0  0
  148.5547  138.8782  157.0582 H   0  0  0  0  0  0  0  0  0  0  0  0
  147.7352  136.5222  155.4103 H   0  0  0  0  0  0  0  0  0  0  0  0
  146.1748  135.5998  154.6249 H   0  0  0  0  0  0  0  0  0  0  0  0
  144.1547  136.7422  153.0907 H   0  0  0  0  0  0  0  0  0  0  0  0
  145.0666  133.8372  153.2985 H   0  0  0  0  0  0  0  0  0  0  0  0
  143.8879  134.6295  154.3102 H   0  0  0  0  0  0  0  0  0  0  0  0
  142.7770  133.2538  152.5329 H   0  0  0  0  0  0  0  0  0  0  0  0
  142.3573  134.9432  152.3990 H   0  0  0  0  0  0  0  0  0  0  0  0
  145.5612  133.1621  150.8670 H   0  0  0  0  0  0  0  0  0  0  0  0
  143.3724  132.9222  148.6263 H   0  0  0  0  0  0  0  0  0  0  0  0
  144.9845  132.0382  148.6428 H   0  0  0  0  0  0  0  0  0  0  0  0
  144.3473  130.9066  150.7890 H   0  0  0  0  0  0  0  0  0  0  0  0
  142.7339  131.7882  150.7789 H   0  0  0  0  0  0  0  0  0  0  0  0
  144.6147  135.5627  149.5069 H   0  0  0  0  0  0  0  0  0  0  0  0
  143.4697  136.3381  150.5719 H   0  0  0  0  0  0  0  0  0  0  0  0
  145.7615  136.9736  151.2226 H   0  0  0  0  0  0  0  0  0  0  0  0
  146.2378  135.3029  151.3703 H   0  0  0  0  0  0  0  0  0  0  0  0
  150.0310  138.3459  153.0179 H   0  0  0  0  0  0  0  0  0  0  0  0
  142.8374  134.1708  150.3176 H   0  0  0  0  0  0  0  0  0  0  0  0
  1  2  1  0  0  0  0
  1 21  1  0  0  0  0
  1 22  1  0  0  0  0
  1 23  1  0  0  0  0
  2  3  1  0  0  0  0
  2 24  1  0  0  0  0
  2 25  1  0  0  0  0
  3 20  1  0  0  0  0
  3  4  1  0  0  0  0
  4  5  2  0  0  0  0
  4 26  1  0  0  0  0
  5  6  1  0  0  0  0
  5 19  1  0  0  0  0
  6  7  1  0  0  0  0
  6 27  1  0  0  0  0
  7  8  2  0  0  0  0
  7  9  1  0  0  0  0
  9 10  1  0  0  0  0
  9 28  1  0  0  0  0
 10 18  1  0  0  0  0
 10 11  1  0  0  0  0
 10 29  1  0  0  0  0
 11 12  1  0  0  0  0
 11 30  1  0  0  0  0
 11 31  1  0  0  0  0
 12 13  1  0  0  0  0
 12 32  1  0  0  0  0
 12 33  1  0  0  0  0
 13 14  1  0  0  0  0
 13 17  1  0  0  0  0
 13 44  1  0  0  0  0
 14 16  1  0  0  0  0
 14 15  1  0  0  0  0
 14 34  1  0  0  0  0
 15 16  1  0  0  0  0
 15 35  1  0  0  0  0
 15 36  1  0  0  0  0
 16 37  1  0  0  0  0
 16 38  1  0  0  0  0
 17 18  1  0  0  0  0
 17 39  1  0  0  0  0
 17 40  1  0  0  0  0
 18 41  1  0  0  0  0
 18 42  1  0  0  0  0
 19 20  2  0  0  0  0
 19 43  1  0  0  0  0
M  CHG  1  13   1
M  END
> <s_m_source_file>
AV-unprocessed.smi

> <i_m_source_file_index>
1248

> <i_lp_mmshare_version>
43012

> <i_f3d_flags>
0

> <s_epik_input>
W0NIM11bQ0gyXW4xW2NIXWMoW2NIXW4xKVtOSF1DKD1PKVtOSF1bQ0hdMltDSDJdW0NIMl1OKFtDSDJdW0NIMl0yKVtDSF0zW0NIMl1bQ0gyXTM=

> <s_epik_cmdline>
J2VwaWtfcHl0aG9uJywgJy1waCcsICc3LjAnLCAnLXRuJywgJzgnLCAnLW1hJywgJzIwMCcsICctbWV0YWxfYmluZGluZycsICctaW1hZScsICc8aW5maWxlLm1hZT4nLCAnLW9tYWUnLCAnPG91dGZpbGUubWFlPic=

> <r_lp_tautomer_probability>
1

> <r_epik_Ionization_Penalty>
0.115699

> <r_epik_Ionization_Penalty_Charging>
0.115549

> <r_epik_Ionization_Penalty_Neutral>
0.00014958

> <r_epik_State_Penalty>
0.105184

> <r_epik_Charging_Adjusted_Penalty>
0.220733

> <i_epik_Tot_Q>
1

> <i_epik_Tot_abs_Q>
1

> <r_epik_Metal_State_Penalty>
0.105189

> <b_epik_Metal_Only>
0

> <s_lp_Force_Field>
OPLS_2005

> <r_lp_Energy>
31.7182

> <b_lp_Chiralities_Consistent>
1

> <s_lp_Variant>
AV-unprocessed.smi:1248-2

> <Gold.Version>
5.8.1

> <Gold.Id.Protein>
6NUR|6NUR_protein|mol2

> <Gold.PLP.Fitness>
41.3111

> <Gold.PLP.PLP>
-28.7898

> <Gold.PLP.part.hbond>
-2.0603

> <Gold.PLP.part.metal>
0.0000

> <Gold.PLP.part.buried>
-3.8117

> <Gold.PLP.part.nonpolar>
-24.8988

> <Gold.PLP.part.repulsive>
0.5573

> <Gold.PLP.ligand.clash>
0.0000

> <Gold.PLP.ligand.torsion>
1.2023

> <Gold.PLP.Chemscore.Hbond>
3.0000

> <Gold.PLP.Chemscore.CHOScore>
1.5507

> <Gold.PLP.Chemscore.Metal>
0.0000

> <Gold.Chemscore.Hbonds>
donor molecule, donor type, donor heavy atom, donor atom, acceptor molecule, acceptor atom, score
      L1  H    13    44       P1 10186  2.00
      P1  H  7989  7998       L1    20  1.00
      L1  C    19    43       P1  7948  0.78
      L1  C    19    43       P1  7957  0.80

> <Gold.PLP.Chemscore.Internal.Correction>
1.2738

> <Gold.Rescore>
     Score         DG    S(hbond)    S(metal)    S(lipo)     H(rot)  DE(clash)    DE(int)     intcor
     15.35     -17.85       1.90        0.00      80.82       1.34       0.26       2.24       ----

> <Gold.Chemscore.Fitness>
15.3523

> <Gold.Chemscore.DG>
-17.8502

> <Gold.Chemscore.ZeroCoef>
-5.4800

> <Gold.Chemscore.Hbond>
1.9026

> <Gold.Chemscore.Metal>
0.0000

> <Gold.Chemscore.Lipo>
80.8166

> <Gold.Chemscore.Internal_Hbond>
0.0000

> <Gold.Chemscore.DEClash>
0.2570

> <Gold.Chemscore.DEInternal>
2.2408

> <Gold.Chemscore.Rot>
1.3438

> <Gold.Chemscore.Internal.Correction>
   9.000000E+99

> <Gold.Chemscore.Hbonds>
donor molecule, donor type, donor heavy atom, donor atom, acceptor molecule, acceptor atom, score
      L1  H    13    44       P1 10186  0.87
      P1  H  7989  7998       L1    20  0.94

> <Gold.Chemscore.Hbond.Weighted>
-6.3547

> <Gold.Chemscore.Metal.Weighted>
-0.0000

> <Gold.Chemscore.Lipo.Weighted>
-9.4555

> <Gold.Chemscore.Internal_Hbond.Weighted>
0.0000

> <Gold.Chemscore.DEClash.Weighted>
0.2570

> <Gold.Chemscore.DEInternal.Weighted>
2.2408

> <Gold.Chemscore.Rot.Weighted>
3.4401

> <Gold.Chemscore.Internal.Correction.Weighted>
   9.000000E+99

> <Gold.Protein.RotatedTorsions>
[ 6907 6896 6895 6894 ] final  112.05 input  -60.11 | X-H torsion
[ 7974 7965 7964 7962 ] final  149.24 input  175.53 | X-H torsion
[ 8008 7997 7996 7995 ] final  -33.67 input   59.86 | X-H torsion
[ 10167 10162 10161 10158 ] final -114.01 input  -65.29 | X-H torsion
[ 10718 10713 10712 10709 ] final  -89.50 input   66.30 | X-H torsion
[ 10763 10752 10751 10750 ] final   23.32 input  -60.55 | X-H torsion
[ 11005 11000 10999 10996 ] final -165.91 input  -57.11 | X-H torsion

> <Gold.Protein.ActiveResidues>
 VAL166  LYS551  ARG553  GLY616  TRP617  ASP618  TYR619  PRO620  LYS621  CYS622 
 ASP623  PHE694  ASN695  SER759  ASP760  ASP761  ALA762  ILE779  LEU786  VAL792 
 PHE793  MET794  SER795  GLU796  ALA797  LYS798  CYS799  TRP800  GLU811  SER814 

> <Gold.Protein.RotatedAtoms>
  152.4937  133.8571  159.7231 H   0  0  0  0  0  0  0  0  0  0  0  0  # atno 6907 bound_to 6896
  150.9093  133.7009  159.2865 H   0  0  0  0  0  0  0  0  0  0  0  0  # atno 6908 bound_to 6896
  151.4424  135.1026  159.9726 H   0  0  0  0  0  0  0  0  0  0  0  0  # atno 6909 bound_to 6896
  144.8453  139.6255  143.5998 H   0  0  0  0  0  0  0  0  0  0  0  0  # atno 7974 bound_to 7965
  154.4142  140.1704  156.1926 H   0  0  0  0  0  0  0  0  0  0  0  0  # atno 8008 bound_to 7997
  155.9591  140.3395  155.6451 H   0  0  0  0  0  0  0  0  0  0  0  0  # atno 8009 bound_to 7997
  155.6772  140.0718  157.2489 H   0  0  0  0  0  0  0  0  0  0  0  0  # atno 8010 bound_to 7997
  140.1056  143.4573  152.1785 H   0  0  0  0  0  0  0  0  0  0  0  0  # atno 10167 bound_to 10162
  155.9984  130.4874  150.5181 H   0  0  0  0  0  0  0  0  0  0  0  0  # atno 10718 bound_to 10713
  153.0847  135.6629  153.9973 H   0  0  0  0  0  0  0  0  0  0  0  0  # atno 10763 bound_to 10752
  153.9585  135.2976  155.3436 H   0  0  0  0  0  0  0  0  0  0  0  0  # atno 10764 bound_to 10752
  154.7253  135.5147  153.8949 H   0  0  0  0  0  0  0  0  0  0  0  0  # atno 10765 bound_to 10752
  140.5704  134.5243  157.5160 H   0  0  0  0  0  0  0  0  0  0  0  0  # atno 11005 bound_to 11000
  146.2738  139.6703  142.9277 LP  0  0  0  0  0  0  0  0  0  0  0  0  # atno 17320 bound_to 7965
  145.4610  141.0433  143.2751 LP  0  0  0  0  0  0  0  0  0  0  0  0  # atno 17321 bound_to 7965
  139.5647  144.7428  151.4055 LP  0  0  0  0  0  0  0  0  0  0  0  0  # atno 17342 bound_to 10162
  140.6954  143.7762  150.7318 LP  0  0  0  0  0  0  0  0  0  0  0  0  # atno 17343 bound_to 10162
  157.3145  131.0670  151.1976 LP  0  0  0  0  0  0  0  0  0  0  0  0  # atno 17370 bound_to 10713
  157.2911  130.6796  149.6114 LP  0  0  0  0  0  0  0  0  0  0  0  0  # atno 17371 bound_to 10713
  139.9364  134.7866  156.0791 LP  0  0  0  0  0  0  0  0  0  0  0  0  # atno 17394 bound_to 11000
  141.1060  133.6660  156.2864 LP  0  0  0  0  0  0  0  0  0  0  0  0  # atno 17395 bound_to 11000

$$$$
