AV-unprocessed.smi:3078|AV-procd|sdf|11734|dock3
  -GOLD-   2272017133D 1   1.00000     0.00000
 Structure written by MMmdl.
 23 23  0  0  0  0  0  0  0  0  2 V2000
  146.0345  136.8108  151.7093 C   0  0  0  0  0  0  0  0  0  0  0  0
  145.3273  135.5502  151.6387 N   0  0  0  0  0  0  0  0  0  0  0  0
  144.9825  134.8185  150.5231 C   0  0  0  0  0  0  0  0  0  0  0  0
  144.3329  133.6931  150.9518 C   0  0  0  0  0  0  0  0  0  0  0  0
  143.7500  132.5577  150.1471 C   0  0  1  0  0  0  0  0  0  0  0  0
  142.3249  132.3997  150.4799 N   0  3  0  0  0  0  0  0  0  0  0  0
  143.9258  132.7465  148.6282 C   0  0  0  0  0  0  0  0  0  0  0  0
  143.1894  133.9062  148.1621 N   0  0  0  0  0  0  0  0  0  0  0  0
  144.3325  133.8377  152.3693 C   0  0  0  0  0  0  0  0  0  0  0  0
  144.9252  134.9478  152.7759 N   0  0  0  0  0  0  0  0  0  0  0  0
  146.1060  137.2558  150.7165 H   0  0  0  0  0  0  0  0  0  0  0  0
  147.0398  136.6463  152.0980 H   0  0  0  0  0  0  0  0  0  0  0  0
  145.5035  137.4995  152.3675 H   0  0  0  0  0  0  0  0  0  0  0  0
  145.2295  135.1545  149.5266 H   0  0  0  0  0  0  0  0  0  0  0  0
  144.2290  131.6192  150.4303 H   0  0  0  0  0  0  0  0  0  0  0  0
  141.9425  131.6231  149.9597 H   0  0  0  0  0  0  0  0  0  0  0  0
  141.8265  133.2445  150.2388 H   0  0  0  0  0  0  0  0  0  0  0  0
  144.9783  132.8987  148.3876 H   0  0  0  0  0  0  0  0  0  0  0  0
  143.5961  131.8628  148.0810 H   0  0  0  0  0  0  0  0  0  0  0  0
  142.5507  133.6393  147.4262 H   0  0  0  0  0  0  0  0  0  0  0  0
  142.6239  134.2791  148.9119 H   0  0  0  0  0  0  0  0  0  0  0  0
  143.9207  133.1700  153.1118 H   0  0  0  0  0  0  0  0  0  0  0  0
  142.2278  132.2219  151.4691 H   0  0  0  0  0  0  0  0  0  0  0  0
  1  2  1  0  0  0  0
  1 11  1  0  0  0  0
  1 12  1  0  0  0  0
  1 13  1  0  0  0  0
  2 10  1  0  0  0  0
  2  3  1  0  0  0  0
  3  4  2  0  0  0  0
  3 14  1  0  0  0  0
  4  5  1  0  0  0  0
  4  9  1  0  0  0  0
  5  6  1  0  0  0  0
  5  7  1  0  0  0  0
  5 15  1  0  0  0  0
  6 16  1  0  0  0  0
  6 17  1  0  0  0  0
  6 23  1  0  0  0  0
  7  8  1  0  0  0  0
  7 18  1  0  0  0  0
  7 19  1  0  0  0  0
  8 20  1  0  0  0  0
  8 21  1  0  0  0  0
  9 10  2  0  0  0  0
  9 22  1  0  0  0  0
M  CHG  1   6   1
M  END
> <s_m_source_file>
AV-unprocessed.smi

> <i_m_source_file_index>
3078

> <i_lp_mmshare_version>
43012

> <i_f3d_flags>
0

> <s_epik_input>
W0NIM11uMVtjSF1jKFtjSF1uMSlbQ0BIXShbTkgyXSlbQ0gyXVtOSDJd

> <s_epik_cmdline>
J2VwaWtfcHl0aG9uJywgJy1waCcsICc3LjAnLCAnLXRuJywgJzgnLCAnLW1hJywgJzIwMCcsICctbWV0YWxfYmluZGluZycsICctaW1hZScsICc8aW5maWxlLm1hZT4nLCAnLW9tYWUnLCAnPG91dGZpbGUubWFlPic=

> <r_epik_Ionization_Penalty>
0.19937

> <r_epik_Ionization_Penalty_Charging>
0.0290541

> <r_epik_Ionization_Penalty_Neutral>
0.170316

> <r_epik_State_Penalty>
1.07715

> <r_epik_Charging_Adjusted_Penalty>
1.1062

> <i_epik_Tot_Q>
1

> <i_epik_Tot_abs_Q>
1

> <r_epik_Metal_State_Penalty>
1.07718

> <b_epik_Metal_Only>
0

> <s_lp_Force_Field>
OPLS_2005

> <r_lp_Energy>
0.880833

> <b_lp_Chiralities_Consistent>
1

> <s_lp_Variant>
AV-unprocessed.smi:3078-4

> <Gold.Version>
5.8.1

> <Gold.Id.Protein>
6NUR|6NUR_protein|mol2

> <Gold.PLP.Fitness>
44.8165

> <Gold.PLP.PLP>
-23.8631

> <Gold.PLP.part.hbond>
-5.8276

> <Gold.PLP.part.metal>
0.0000

> <Gold.PLP.part.buried>
-0.8361

> <Gold.PLP.part.nonpolar>
-18.0604

> <Gold.PLP.part.repulsive>
0.1866

> <Gold.PLP.ligand.clash>
0.0000

> <Gold.PLP.ligand.torsion>
0.0207

> <Gold.PLP.Chemscore.Hbond>
5.0000

> <Gold.PLP.Chemscore.CHOScore>
1.9938

> <Gold.PLP.Chemscore.Metal>
0.0000

> <Gold.Chemscore.Hbonds>
donor molecule, donor type, donor heavy atom, donor atom, acceptor molecule, acceptor atom, score
      L1  H     6    16       P1 10952  1.00
      L1  H     6    17       P1 10186  2.00
      L1  H     8    20       P1 10195  0.89
      L1  H     8    21       P1 10186  0.90
      L1  C     3    14       P1  7921  1.00
      L1  C     9    22       P1 10957  1.00

> <Gold.PLP.Chemscore.Internal.Correction>
0.0135

> <Gold.Rescore>
     Score         DG    S(hbond)    S(metal)    S(lipo)     H(rot)  DE(clash)    DE(int)     intcor
     19.81     -19.96       3.77        0.00      46.85       1.40       0.02       0.13       ----

> <Gold.Chemscore.Fitness>
19.8098

> <Gold.Chemscore.DG>
-19.9637

> <Gold.Chemscore.ZeroCoef>
-5.4800

> <Gold.Chemscore.Hbond>
3.7719

> <Gold.Chemscore.Metal>
0.0000

> <Gold.Chemscore.Lipo>
46.8481

> <Gold.Chemscore.Internal_Hbond>
0.0000

> <Gold.Chemscore.DEClash>
0.0231

> <Gold.Chemscore.DEInternal>
0.1308

> <Gold.Chemscore.Rot>
1.4045

> <Gold.Chemscore.Internal.Correction>
   9.000000E+99

> <Gold.Chemscore.Hbonds>
donor molecule, donor type, donor heavy atom, donor atom, acceptor molecule, acceptor atom, score
      L1  H     6    16       P1 10952  0.89
      L1  H     6    17       P1 10186  0.98
      L1  H     8    20       P1 10195  0.81
      L1  H     8    21       P1 10186  0.88

> <Gold.Chemscore.Hbond.Weighted>
-12.5980

> <Gold.Chemscore.Metal.Weighted>
-0.0000

> <Gold.Chemscore.Lipo.Weighted>
-5.4812

> <Gold.Chemscore.Internal_Hbond.Weighted>
0.0000

> <Gold.Chemscore.DEClash.Weighted>
0.0231

> <Gold.Chemscore.DEInternal.Weighted>
0.1308

> <Gold.Chemscore.Rot.Weighted>
3.5956

> <Gold.Chemscore.Internal.Correction.Weighted>
   9.000000E+99

> <Gold.Protein.RotatedTorsions>
[ 6907 6896 6895 6894 ] final  163.51 input  -60.11 | X-H torsion
[ 7974 7965 7964 7962 ] final    7.08 input  175.53 | X-H torsion
[ 8008 7997 7996 7995 ] final  117.56 input   59.86 | X-H torsion
[ 10167 10162 10161 10158 ] final  -77.35 input  -65.29 | X-H torsion
[ 10718 10713 10712 10709 ] final   35.93 input   66.30 | X-H torsion
[ 10763 10752 10751 10750 ] final -169.39 input  -60.55 | X-H torsion
[ 11005 11000 10999 10996 ] final  141.43 input  -57.11 | X-H torsion

> <Gold.Protein.ActiveResidues>
 VAL166  LYS551  ARG553  GLY616  TRP617  ASP618  TYR619  PRO620  LYS621  CYS622 
 ASP623  PHE694  ASN695  SER759  ASP760  ASP761  ALA762  ILE779  LEU786  VAL792 
 PHE793  MET794  SER795  GLU796  ALA797  LYS798  CYS799  TRP800  GLU811  SER814 

> <Gold.Protein.RotatedAtoms>
  151.9241  133.3593  159.3906 H   0  0  0  0  0  0  0  0  0  0  0  0  # atno 6907 bound_to 6896
  150.7031  134.4605  159.5388 H   0  0  0  0  0  0  0  0  0  0  0  0  # atno 6908 bound_to 6896
  152.2234  134.8391  160.0534 H   0  0  0  0  0  0  0  0  0  0  0  0  # atno 6909 bound_to 6896
  146.2430  140.0137  142.8404 H   0  0  0  0  0  0  0  0  0  0  0  0  # atno 7974 bound_to 7965
  156.2500  140.2893  156.0697 H   0  0  0  0  0  0  0  0  0  0  0  0  # atno 8008 bound_to 7997
  155.1684  140.0401  157.2875 H   0  0  0  0  0  0  0  0  0  0  0  0  # atno 8009 bound_to 7997
  154.6343  140.2507  155.7403 H   0  0  0  0  0  0  0  0  0  0  0  0  # atno 8010 bound_to 7997
  140.4778  143.2410  151.8105 H   0  0  0  0  0  0  0  0  0  0  0  0  # atno 10167 bound_to 10162
  157.3286  130.7486  149.6832 H   0  0  0  0  0  0  0  0  0  0  0  0  # atno 10718 bound_to 10713
  154.6528  135.2914  154.9965 H   0  0  0  0  0  0  0  0  0  0  0  0  # atno 10763 bound_to 10752
  154.1052  135.6571  153.4879 H   0  0  0  0  0  0  0  0  0  0  0  0  # atno 10764 bound_to 10752
  153.0386  135.5252  154.7444 H   0  0  0  0  0  0  0  0  0  0  0  0  # atno 10765 bound_to 10752
  140.0401  134.9309  157.0827 H   0  0  0  0  0  0  0  0  0  0  0  0  # atno 11005 bound_to 11000
  145.1304  140.9514  143.4547 LP  0  0  0  0  0  0  0  0  0  0  0  0  # atno 17320 bound_to 7965
  145.0393  139.3274  143.5985 LP  0  0  0  0  0  0  0  0  0  0  0  0  # atno 17321 bound_to 7965
  139.4828  144.4811  151.9305 LP  0  0  0  0  0  0  0  0  0  0  0  0  # atno 17342 bound_to 10162
  140.3896  144.2632  150.5901 LP  0  0  0  0  0  0  0  0  0  0  0  0  # atno 17343 bound_to 10162
  155.9693  130.4202  150.4410 LP  0  0  0  0  0  0  0  0  0  0  0  0  # atno 17370 bound_to 10713
  157.2438  131.0531  151.2420 LP  0  0  0  0  0  0  0  0  0  0  0  0  # atno 17371 bound_to 10713
  140.4083  134.2008  155.7163 LP  0  0  0  0  0  0  0  0  0  0  0  0  # atno 17394 bound_to 11000
  141.1878  133.8273  157.1017 LP  0  0  0  0  0  0  0  0  0  0  0  0  # atno 17395 bound_to 11000

$$$$
