AV-unprocessed.smi:527|AV-procd|sdf|2817|dock3
  -GOLD-   2262023293D 1   1.00000     0.00000
 Structure written by MMmdl.
 42 43  0  0  0  0  0  0  0  0  1 V2000
  147.0391  142.0402  154.3242 C   0  0  0  0  0  0  0  0  0  0  0  0
  147.8795  140.8661  154.8597 C   0  0  2  0  0  0  0  0  0  0  0  0
  149.3775  141.1825  154.6806 C   0  0  0  0  0  0  0  0  0  0  0  0
  150.2650  140.0634  155.2350 C   0  0  0  0  0  0  0  0  0  0  0  0
  149.9349  138.7311  154.5567 C   0  0  0  0  0  0  0  0  0  0  0  0
  148.4458  138.3711  154.7183 C   0  0  2  0  0  0  0  0  0  0  0  0
  148.1817  137.1229  154.0034 N   0  0  0  0  0  0  0  0  0  0  0  0
  147.2510  136.2155  154.3348 C   0  0  0  0  0  0  0  0  0  0  0  0
  146.4790  136.3521  155.2865 O   0  0  0  0  0  0  0  0  0  0  0  0
  147.2882  135.1598  153.4987 N   0  0  0  0  0  0  0  0  0  0  0  0
  146.5428  134.0374  153.5577 C   0  0  0  0  0  0  0  0  0  0  0  0
  145.6718  133.8130  154.4025 O   0  0  0  0  0  0  0  0  0  0  0  0
  146.8477  133.0071  152.4621 C   0  0  0  0  0  0  0  0  0  0  0  0
  145.6914  132.6942  151.6395 N   0  0  0  0  0  0  0  0  0  0  0  0
  144.4117  133.2224  151.7549 C   0  0  0  0  0  0  0  0  0  0  0  0
  143.6545  132.6382  150.7647 C   0  0  0  0  0  0  0  0  0  0  0  0
  144.4423  131.7531  150.0325 N   0  0  0  0  0  0  0  0  0  0  0  0
  145.6353  131.8415  150.6066 C   0  0  0  0  0  0  0  0  0  0  0  0
  147.5132  139.5027  154.2062 C   0  0  1  0  0  0  0  0  0  0  0  0
  146.0290  139.1368  154.4274 C   0  0  0  0  0  0  0  0  0  0  0  0
  147.1147  142.1204  153.2393 H   0  0  0  0  0  0  0  0  0  0  0  0
  147.3751  142.9865  154.7495 H   0  0  0  0  0  0  0  0  0  0  0  0
  145.9857  141.9393  154.5831 H   0  0  0  0  0  0  0  0  0  0  0  0
  147.6870  140.7891  155.9309 H   0  0  0  0  0  0  0  0  0  0  0  0
  149.5994  141.3317  153.6229 H   0  0  0  0  0  0  0  0  0  0  0  0
  149.6250  142.1187  155.1822 H   0  0  0  0  0  0  0  0  0  0  0  0
  151.3159  140.3095  155.0799 H   0  0  0  0  0  0  0  0  0  0  0  0
  150.1212  139.9757  156.3127 H   0  0  0  0  0  0  0  0  0  0  0  0
  150.1898  138.7920  153.4975 H   0  0  0  0  0  0  0  0  0  0  0  0
  150.5596  137.9433  154.9799 H   0  0  0  0  0  0  0  0  0  0  0  0
  148.2425  138.2316  155.7821 H   0  0  0  0  0  0  0  0  0  0  0  0
  148.7584  136.9375  153.1958 H   0  0  0  0  0  0  0  0  0  0  0  0
  147.9541  135.2123  152.7422 H   0  0  0  0  0  0  0  0  0  0  0  0
  147.6444  133.3853  151.8202 H   0  0  0  0  0  0  0  0  0  0  0  0
  147.2091  132.0837  152.9170 H   0  0  0  0  0  0  0  0  0  0  0  0
  144.1541  133.9516  152.5090 H   0  0  0  0  0  0  0  0  0  0  0  0
  142.6120  132.7865  150.5246 H   0  0  0  0  0  0  0  0  0  0  0  0
  146.4890  131.2730  150.2678 H   0  0  0  0  0  0  0  0  0  0  0  0
  147.6692  139.5995  153.1305 H   0  0  0  0  0  0  0  0  0  0  0  0
  145.7920  139.0769  155.4900 H   0  0  0  0  0  0  0  0  0  0  0  0
  145.7747  138.1763  153.9797 H   0  0  0  0  0  0  0  0  0  0  0  0
  145.3593  139.8679  153.9764 H   0  0  0  0  0  0  0  0  0  0  0  0
  1  2  1  0  0  0  0
  1 21  1  0  0  0  0
  1 22  1  0  0  0  0
  1 23  1  0  0  0  0
  2 19  1  0  0  0  0
  2  3  1  0  0  0  0
  2 24  1  0  0  0  0
  3  4  1  0  0  0  0
  3 25  1  0  0  0  0
  3 26  1  0  0  0  0
  4  5  1  0  0  0  0
  4 27  1  0  0  0  0
  4 28  1  0  0  0  0
  5  6  1  0  0  0  0
  5 29  1  0  0  0  0
  5 30  1  0  0  0  0
  6  7  1  0  0  0  0
  6 19  1  0  0  0  0
  6 31  1  0  0  0  0
  7  8  1  0  0  0  0
  7 32  1  0  0  0  0
  8  9  2  0  0  0  0
  8 10  1  0  0  0  0
 10 11  1  0  0  0  0
 10 33  1  0  0  0  0
 11 12  2  0  0  0  0
 11 13  1  0  0  0  0
 13 14  1  0  0  0  0
 13 34  1  0  0  0  0
 13 35  1  0  0  0  0
 14 18  1  0  0  0  0
 14 15  1  0  0  0  0
 15 16  2  0  0  0  0
 15 36  1  0  0  0  0
 16 17  1  0  0  0  0
 16 37  1  0  0  0  0
 17 18  2  0  0  0  0
 18 38  1  0  0  0  0
 19 20  1  0  0  0  0
 19 39  1  0  0  0  0
 20 40  1  0  0  0  0
 20 41  1  0  0  0  0
 20 42  1  0  0  0  0
M  END
> <s_m_source_file>
AV-unprocessed.smi

> <i_m_source_file_index>
527

> <i_lp_mmshare_version>
43012

> <i_f3d_flags>
0

> <s_epik_input>
W0NIM11bQ0BASF0xW0NIMl1bQ0gyXVtDSDJdW0NASF0oW0NASF0xW0NIM10pW05IXUMoPU8pW05IXUMoPU8pW0NIMl1uMltjSF1bY0hdbltjSF0y

> <s_epik_cmdline>
J2VwaWtfcHl0aG9uJywgJy1waCcsICc3LjAnLCAnLXRuJywgJzgnLCAnLW1hJywgJzIwMCcsICctbWV0YWxfYmluZGluZycsICctaW1hZScsICc8aW5maWxlLm1hZT4nLCAnLW9tYWUnLCAnPG91dGZpbGUubWFlPic=

> <r_lp_tautomer_probability>
1

> <r_epik_Ionization_Penalty>
0.172132

> <r_epik_Ionization_Penalty_Charging>
0.172105

> <r_epik_Ionization_Penalty_Neutral>
2.71747e-05

> <r_epik_State_Penalty>
0.161503

> <r_epik_Charging_Adjusted_Penalty>
0.333607

> <i_epik_Tot_Q>
0

> <i_epik_Tot_abs_Q>
0

> <r_epik_Metal_State_Penalty>
0.124763

> <b_epik_Metal_Only>
0

> <s_lp_Force_Field>
OPLS_2005

> <r_lp_Energy>
15.8984

> <b_lp_Chiralities_Consistent>
1

> <s_lp_Variant>
AV-unprocessed.smi:527-3

> <Gold.Version>
5.8.1

> <Gold.Id.Protein>
6NUR|6NUR_protein|mol2

> <Gold.PLP.Fitness>
41.7124

> <Gold.PLP.PLP>
-30.4594

> <Gold.PLP.part.hbond>
-2.4305

> <Gold.PLP.part.metal>
0.0000

> <Gold.PLP.part.buried>
-4.1704

> <Gold.PLP.part.nonpolar>
-25.6347

> <Gold.PLP.part.repulsive>
0.2723

> <Gold.PLP.ligand.clash>
0.0000

> <Gold.PLP.ligand.torsion>
0.3727

> <Gold.PLP.Chemscore.Hbond>
1.9914

> <Gold.PLP.Chemscore.CHOScore>
2.0000

> <Gold.PLP.Chemscore.Metal>
0.0000

> <Gold.Chemscore.Hbonds>
donor molecule, donor type, donor heavy atom, donor atom, acceptor molecule, acceptor atom, score
      L1  H     7    32       P1  7948  0.96
      L1  H    10    33       P1  7948  0.93
      P1  H 10785 10796       L1    17  0.05
      L1  C    16    37       P1 10186  1.00
      L1  C    18    38       P1 10747  1.00

> <Gold.PLP.Chemscore.Internal.Correction>
0.0241

> <Gold.Rescore>
     Score         DG    S(hbond)    S(metal)    S(lipo)     H(rot)  DE(clash)    DE(int)     intcor
     12.89     -14.94       1.85        0.00      64.33       1.66       0.34       1.72       ----

> <Gold.Chemscore.Fitness>
12.8909

> <Gold.Chemscore.DG>
-14.9448

> <Gold.Chemscore.ZeroCoef>
-5.4800

> <Gold.Chemscore.Hbond>
1.8549

> <Gold.Chemscore.Metal>
0.0000

> <Gold.Chemscore.Lipo>
64.3286

> <Gold.Chemscore.Internal_Hbond>
0.0000

> <Gold.Chemscore.DEClash>
0.3376

> <Gold.Chemscore.DEInternal>
1.7164

> <Gold.Chemscore.Rot>
1.6629

> <Gold.Chemscore.Internal.Correction>
   9.000000E+99

> <Gold.Chemscore.Hbonds>
donor molecule, donor type, donor heavy atom, donor atom, acceptor molecule, acceptor atom, score
      L1  H     7    32       P1  7948  0.86
      L1  H    10    33       P1  7948  0.90
      P1  H 10785 10796       L1    17  0.06

> <Gold.Chemscore.Hbond.Weighted>
-6.1953

> <Gold.Chemscore.Metal.Weighted>
-0.0000

> <Gold.Chemscore.Lipo.Weighted>
-7.5264

> <Gold.Chemscore.Internal_Hbond.Weighted>
0.0000

> <Gold.Chemscore.DEClash.Weighted>
0.3376

> <Gold.Chemscore.DEInternal.Weighted>
1.7164

> <Gold.Chemscore.Rot.Weighted>
4.2569

> <Gold.Chemscore.Internal.Correction.Weighted>
   9.000000E+99

> <Gold.Protein.RotatedTorsions>
[ 6907 6896 6895 6894 ] final   52.24 input  -60.11 | X-H torsion
[ 7974 7965 7964 7962 ] final   36.51 input  175.53 | X-H torsion
[ 8008 7997 7996 7995 ] final   86.57 input   59.86 | X-H torsion
[ 10167 10162 10161 10158 ] final   21.71 input  -65.29 | X-H torsion
[ 10718 10713 10712 10709 ] final  -55.39 input   66.30 | X-H torsion
[ 10763 10752 10751 10750 ] final -132.16 input  -60.55 | X-H torsion
[ 11005 11000 10999 10996 ] final  115.42 input  -57.11 | X-H torsion

> <Gold.Protein.ActiveResidues>
 VAL166  LYS551  ARG553  GLY616  TRP617  ASP618  TYR619  PRO620  LYS621  CYS622 
 ASP623  PHE694  ASN695  SER759  ASP760  ASP761  ALA762  ILE779  LEU786  VAL792 
 PHE793  MET794  SER795  GLU796  ALA797  LYS798  CYS799  TRP800  GLU811  SER814 

> <Gold.Protein.RotatedAtoms>
  152.3212  134.7378  160.0312 H   0  0  0  0  0  0  0  0  0  0  0  0  # atno 6907 bound_to 6896
  151.7826  133.3346  159.3484 H   0  0  0  0  0  0  0  0  0  0  0  0  # atno 6908 bound_to 6896
  150.7371  134.5848  159.6001 H   0  0  0  0  0  0  0  0  0  0  0  0  # atno 6909 bound_to 6896
  146.1206  139.6009  142.9292 H   0  0  0  0  0  0  0  0  0  0  0  0  # atno 7974 bound_to 7965
  155.9644  140.3391  155.6519 H   0  0  0  0  0  0  0  0  0  0  0  0  # atno 8008 bound_to 7997
  155.6756  140.0732  157.2522 H   0  0  0  0  0  0  0  0  0  0  0  0  # atno 8009 bound_to 7997
  154.4151  140.1683  156.1914 H   0  0  0  0  0  0  0  0  0  0  0  0  # atno 8010 bound_to 7997
  140.5406  143.9684  150.6517 H   0  0  0  0  0  0  0  0  0  0  0  0  # atno 10167 bound_to 10162
  156.1372  130.4156  150.0165 H   0  0  0  0  0  0  0  0  0  0  0  0  # atno 10718 bound_to 10713
  154.8745  135.3806  154.4365 H   0  0  0  0  0  0  0  0  0  0  0  0  # atno 10763 bound_to 10752
  153.5054  135.7030  153.5814 H   0  0  0  0  0  0  0  0  0  0  0  0  # atno 10764 bound_to 10752
  153.4127  135.3920  155.2027 H   0  0  0  0  0  0  0  0  0  0  0  0  # atno 10765 bound_to 10752
  139.9009  134.9583  156.7043 H   0  0  0  0  0  0  0  0  0  0  0  0  # atno 11005 bound_to 11000
  145.5474  141.0416  143.2297 LP  0  0  0  0  0  0  0  0  0  0  0  0  # atno 17320 bound_to 7965
  144.7594  139.6995  143.7241 LP  0  0  0  0  0  0  0  0  0  0  0  0  # atno 17321 bound_to 7965
  140.3084  143.3214  152.0903 LP  0  0  0  0  0  0  0  0  0  0  0  0  # atno 17342 bound_to 10162
  139.4987  144.6652  151.6372 LP  0  0  0  0  0  0  0  0  0  0  0  0  # atno 17343 bound_to 10162
  156.8060  130.9307  151.3645 LP  0  0  0  0  0  0  0  0  0  0  0  0  # atno 17370 bound_to 10713
  157.6543  130.8911  149.9697 LP  0  0  0  0  0  0  0  0  0  0  0  0  # atno 17371 bound_to 10713
  140.7126  133.9210  155.8094 LP  0  0  0  0  0  0  0  0  0  0  0  0  # atno 17394 bound_to 11000
  141.0289  134.0784  157.4037 LP  0  0  0  0  0  0  0  0  0  0  0  0  # atno 17395 bound_to 11000

$$$$
