AV-unprocessed.smi:2373|AV-procd|sdf|9439|dock8
  -GOLD-   2272013 73D 1   1.00000     0.00000
 Structure written by MMmdl.
 47 48  0  0  0  0  0  0  0  0  2 V2000
  147.7266  127.8519  152.6947 C   0  0  0  0  0  0  0  0  0  0  0  0
  146.8804  129.0323  152.5591 N   0  0  0  0  0  0  0  0  0  0  0  0
  145.5399  128.9158  152.0000 C   0  0  0  0  0  0  0  0  0  0  0  0
  147.3961  130.3054  152.8850 C   0  0  0  0  0  0  0  0  0  0  0  0
  148.4817  130.4984  153.7738 C   0  0  0  0  0  0  0  0  0  0  0  0
  148.9398  131.8031  154.0489 C   0  0  0  0  0  0  0  0  0  0  0  0
  148.3108  132.9116  153.4448 C   0  0  0  0  0  0  0  0  0  0  0  0
  148.8197  134.2048  153.7449 N   0  0  0  0  0  0  0  0  0  0  0  0
  149.3850  134.6440  154.8829 C   0  0  0  0  0  0  0  0  0  0  0  0
  149.5912  133.9561  155.8816 O   0  0  0  0  0  0  0  0  0  0  0  0
  149.7180  135.9422  154.7838 N   0  0  0  0  0  0  0  0  0  0  0  0
  150.3528  136.8000  155.7963 C   0  0  0  0  0  0  0  0  0  0  0  0
  150.7635  138.1744  155.1850 C   0  0  0  0  0  0  0  0  0  0  0  0
  149.6048  139.0715  154.7072 C   0  0  0  0  0  0  0  0  0  0  0  0
  150.0945  140.0295  153.7944 O   0  0  0  0  0  0  0  0  0  0  0  0
  149.3199  136.9622  156.9400 C   0  0  0  0  0  0  0  0  0  0  0  0
  149.9298  137.5483  158.2256 C   0  0  0  0  0  0  0  0  0  0  0  0
  151.0148  136.7396  158.6578 O   0  0  0  0  0  0  0  0  0  0  0  0
  152.0735  136.6965  157.7113 C   0  0  0  0  0  0  0  0  0  0  0  0
  151.5839  136.0681  156.3944 C   0  0  0  0  0  0  0  0  0  0  0  0
  147.2368  132.6667  152.5561 C   0  0  0  0  0  0  0  0  0  0  0  0
  146.8318  131.4003  152.3196 N   0  3  0  0  0  0  0  0  0  0  0  0
  148.0650  127.7388  153.7253 H   0  0  0  0  0  0  0  0  0  0  0  0
  148.6015  127.9315  152.0484 H   0  0  0  0  0  0  0  0  0  0  0  0
  147.1891  126.9441  152.4199 H   0  0  0  0  0  0  0  0  0  0  0  0
  145.4548  129.4963  151.0810 H   0  0  0  0  0  0  0  0  0  0  0  0
  144.7960  129.2761  152.7111 H   0  0  0  0  0  0  0  0  0  0  0  0
  145.2976  127.8800  151.7618 H   0  0  0  0  0  0  0  0  0  0  0  0
  148.9756  129.6647  154.2501 H   0  0  0  0  0  0  0  0  0  0  0  0
  149.7699  131.9474  154.7249 H   0  0  0  0  0  0  0  0  0  0  0  0
  148.7791  134.8714  152.9876 H   0  0  0  0  0  0  0  0  0  0  0  0
  149.5014  136.3987  153.9098 H   0  0  0  0  0  0  0  0  0  0  0  0
  151.3590  138.7363  155.9037 H   0  0  0  0  0  0  0  0  0  0  0  0
  151.4335  138.0055  154.3413 H   0  0  0  0  0  0  0  0  0  0  0  0
  148.8281  138.4895  154.2118 H   0  0  0  0  0  0  0  0  0  0  0  0
  149.1406  139.5982  155.5402 H   0  0  0  0  0  0  0  0  0  0  0  0
  149.7627  139.8236  152.9337 H   0  0  0  0  0  0  0  0  0  0  0  0
  148.4689  137.5644  156.6240 H   0  0  0  0  0  0  0  0  0  0  0  0
  148.9065  135.9839  157.1915 H   0  0  0  0  0  0  0  0  0  0  0  0
  150.2576  138.5783  158.0809 H   0  0  0  0  0  0  0  0  0  0  0  0
  149.1783  137.5691  159.0150 H   0  0  0  0  0  0  0  0  0  0  0  0
  152.4749  137.6975  157.5487 H   0  0  0  0  0  0  0  0  0  0  0  0
  152.8857  136.0993  158.1260 H   0  0  0  0  0  0  0  0  0  0  0  0
  151.3258  135.0268  156.5946 H   0  0  0  0  0  0  0  0  0  0  0  0
  152.4083  136.0421  155.6814 H   0  0  0  0  0  0  0  0  0  0  0  0
  146.6887  133.4223  152.0141 H   0  0  0  0  0  0  0  0  0  0  0  0
  146.0545  131.2610  151.6736 H   0  0  0  0  0  0  0  0  0  0  0  0
  1  2  1  0  0  0  0
  1 23  1  0  0  0  0
  1 24  1  0  0  0  0
  1 25  1  0  0  0  0
  2  3  1  0  0  0  0
  2  4  1  0  0  0  0
  3 26  1  0  0  0  0
  3 27  1  0  0  0  0
  3 28  1  0  0  0  0
  4 22  1  0  0  0  0
  4  5  2  0  0  0  0
  5  6  1  0  0  0  0
  5 29  1  0  0  0  0
  6  7  2  0  0  0  0
  6 30  1  0  0  0  0
  7  8  1  0  0  0  0
  7 21  1  0  0  0  0
  8  9  1  0  0  0  0
  8 31  1  0  0  0  0
  9 10  2  0  0  0  0
  9 11  1  0  0  0  0
 11 12  1  0  0  0  0
 11 32  1  0  0  0  0
 12 20  1  0  0  0  0
 12 13  1  0  0  0  0
 12 16  1  0  0  0  0
 13 14  1  0  0  0  0
 13 33  1  0  0  0  0
 13 34  1  0  0  0  0
 14 15  1  0  0  0  0
 14 35  1  0  0  0  0
 14 36  1  0  0  0  0
 15 37  1  0  0  0  0
 16 17  1  0  0  0  0
 16 38  1  0  0  0  0
 16 39  1  0  0  0  0
 17 18  1  0  0  0  0
 17 40  1  0  0  0  0
 17 41  1  0  0  0  0
 18 19  1  0  0  0  0
 19 20  1  0  0  0  0
 19 42  1  0  0  0  0
 19 43  1  0  0  0  0
 20 44  1  0  0  0  0
 20 45  1  0  0  0  0
 21 22  2  0  0  0  0
 21 46  1  0  0  0  0
 22 47  1  0  0  0  0
M  CHG  1  22   1
M  END
> <s_m_source_file>
AV-unprocessed.smi

> <i_m_source_file_index>
2373

> <i_lp_mmshare_version>
43012

> <i_f3d_flags>
0

> <s_epik_input>
W0NIM11OKFtDSDNdKWMxW2NIXVtjSF1jKFtjSF1uMSlbTkhdQyg9TylbTkhdQzIoW0NIMl1bQ0gyXVtPSF0pW0NIMl1bQ0gyXU9bQ0gyXVtDSDJdMg==

> <s_epik_cmdline>
J2VwaWtfcHl0aG9uJywgJy1waCcsICc3LjAnLCAnLXRuJywgJzgnLCAnLW1hJywgJzIwMCcsICctbWV0YWxfYmluZGluZycsICctaW1hZScsICc8aW5maWxlLm1hZT4nLCAnLW9tYWUnLCAnPG91dGZpbGUubWFlPic=

> <r_lp_tautomer_probability>
0.999994

> <r_epik_Ionization_Penalty>
0.250535

> <r_epik_Ionization_Penalty_Charging>
0.250515

> <r_epik_Ionization_Penalty_Neutral>
1.96065e-05

> <r_epik_State_Penalty>
0.241842

> <r_epik_Charging_Adjusted_Penalty>
0.492357

> <i_epik_Tot_Q>
1

> <i_epik_Tot_abs_Q>
1

> <r_epik_Metal_State_Penalty>
0.533268

> <b_epik_Metal_Only>
0

> <s_lp_Force_Field>
OPLS_2005

> <r_lp_Energy>
24.7544

> <b_lp_Chiralities_Consistent>
1

> <s_lp_Variant>
AV-unprocessed.smi:2373-1

> <Gold.Version>
5.8.1

> <Gold.Id.Protein>
6NUR|6NUR_protein|mol2

> <Gold.PLP.Fitness>
46.9016

> <Gold.PLP.PLP>
-34.5364

> <Gold.PLP.part.hbond>
-6.0000

> <Gold.PLP.part.metal>
0.0000

> <Gold.PLP.part.buried>
-3.3941

> <Gold.PLP.part.nonpolar>
-25.5914

> <Gold.PLP.part.repulsive>
0.0570

> <Gold.PLP.ligand.clash>
0.0000

> <Gold.PLP.ligand.torsion>
0.6565

> <Gold.PLP.Chemscore.Hbond>
4.5475

> <Gold.PLP.Chemscore.CHOScore>
0.0000

> <Gold.PLP.Chemscore.Metal>
0.0000

> <Gold.Chemscore.Hbonds>
donor molecule, donor type, donor heavy atom, donor atom, acceptor molecule, acceptor atom, score
      L1  H     8    31       P1  7948  0.95
      L1  H    11    32       P1  7948  0.80
      L1  H    15    37       P1  7957  1.00
      P1  H  6896  6907       L1    18  0.90
      P1  H  7989  7998       L1    15  0.83

> <Gold.PLP.Chemscore.Internal.Correction>
0.0358

> <Gold.Rescore>
     Score         DG    S(hbond)    S(metal)    S(lipo)     H(rot)  DE(clash)    DE(int)     intcor
     15.66     -18.78       3.26        0.00      66.96       2.12       0.13       2.99       ----

> <Gold.Chemscore.Fitness>
15.6556

> <Gold.Chemscore.DG>
-18.7812

> <Gold.Chemscore.ZeroCoef>
-5.4800

> <Gold.Chemscore.Hbond>
3.2582

> <Gold.Chemscore.Metal>
0.0000

> <Gold.Chemscore.Lipo>
66.9635

> <Gold.Chemscore.Internal_Hbond>
0.0000

> <Gold.Chemscore.DEClash>
0.1324

> <Gold.Chemscore.DEInternal>
2.9931

> <Gold.Chemscore.Rot>
2.1155

> <Gold.Chemscore.Internal.Correction>
   9.000000E+99

> <Gold.Chemscore.Hbonds>
donor molecule, donor type, donor heavy atom, donor atom, acceptor molecule, acceptor atom, score
      L1  H     8    31       P1  7948  0.22
      L1  H    11    32       P1  7948  0.59
      L1  H    15    37       P1  7957  0.98
      P1  H  6896  6907       L1    18  0.54
      P1  H  7989  7998       L1    15  0.33

> <Gold.Chemscore.Hbond.Weighted>
-10.8822

> <Gold.Chemscore.Metal.Weighted>
-0.0000

> <Gold.Chemscore.Lipo.Weighted>
-7.8347

> <Gold.Chemscore.Internal_Hbond.Weighted>
0.0000

> <Gold.Chemscore.DEClash.Weighted>
0.1324

> <Gold.Chemscore.DEInternal.Weighted>
2.9931

> <Gold.Chemscore.Rot.Weighted>
5.4158

> <Gold.Chemscore.Internal.Correction.Weighted>
   9.000000E+99

> <Gold.Protein.RotatedTorsions>
[ 6907 6896 6895 6894 ] final  -28.54 input  -60.11 | X-H torsion
[ 7974 7965 7964 7962 ] final  126.75 input  175.53 | X-H torsion
[ 8008 7997 7996 7995 ] final  100.79 input   59.86 | X-H torsion
[ 10167 10162 10161 10158 ] final   82.03 input  -65.29 | X-H torsion
[ 10718 10713 10712 10709 ] final  133.63 input   66.30 | X-H torsion
[ 10763 10752 10751 10750 ] final   24.36 input  -60.55 | X-H torsion
[ 11005 11000 10999 10996 ] final  130.69 input  -57.11 | X-H torsion

> <Gold.Protein.ActiveResidues>
 VAL166  LYS551  ARG553  GLY616  TRP617  ASP618  TYR619  PRO620  LYS621  CYS622 
 ASP623  PHE694  ASN695  SER759  ASP760  ASP761  ALA762  ILE779  LEU786  VAL792 
 PHE793  MET794  SER795  GLU796  ALA797  LYS798  CYS799  TRP800  GLU811  SER814 

> <Gold.Protein.RotatedAtoms>
  151.1315  135.0133  159.8584 H   0  0  0  0  0  0  0  0  0  0  0  0  # atno 6907 bound_to 6896
  152.5451  134.1604  159.8565 H   0  0  0  0  0  0  0  0  0  0  0  0  # atno 6908 bound_to 6896
  151.1672  133.4762  159.2627 H   0  0  0  0  0  0  0  0  0  0  0  0  # atno 6909 bound_to 6896
  145.0583  139.3826  143.5019 H   0  0  0  0  0  0  0  0  0  0  0  0  # atno 7974 bound_to 7965
  156.1238  140.3207  155.8246 H   0  0  0  0  0  0  0  0  0  0  0  0  # atno 8008 bound_to 7997
  155.4457  140.0529  157.3023 H   0  0  0  0  0  0  0  0  0  0  0  0  # atno 8009 bound_to 7997
  154.4847  140.2067  155.9697 H   0  0  0  0  0  0  0  0  0  0  0  0  # atno 8010 bound_to 7997
  139.9330  144.6139  150.8326 H   0  0  0  0  0  0  0  0  0  0  0  0  # atno 10167 bound_to 10162
  157.4754  131.1082  150.9750 H   0  0  0  0  0  0  0  0  0  0  0  0  # atno 10718 bound_to 10713
  153.0770  135.6607  154.0125 H   0  0  0  0  0  0  0  0  0  0  0  0  # atno 10763 bound_to 10752
  153.9756  135.2960  155.3425 H   0  0  0  0  0  0  0  0  0  0  0  0  # atno 10764 bound_to 10752
  154.7160  135.5185  153.8810 H   0  0  0  0  0  0  0  0  0  0  0  0  # atno 10765 bound_to 10752
  139.9686  134.9584  156.9330 H   0  0  0  0  0  0  0  0  0  0  0  0  # atno 11005 bound_to 11000
  146.3523  140.0268  142.8654 LP  0  0  0  0  0  0  0  0  0  0  0  0  # atno 17320 bound_to 7965
  145.1441  140.9587  143.4471 LP  0  0  0  0  0  0  0  0  0  0  0  0  # atno 17321 bound_to 7965
  140.7632  143.3217  151.2607 LP  0  0  0  0  0  0  0  0  0  0  0  0  # atno 17342 bound_to 10162
  139.6766  143.9926  152.2785 LP  0  0  0  0  0  0  0  0  0  0  0  0  # atno 17343 bound_to 10162
  157.0501  130.5784  149.5369 LP  0  0  0  0  0  0  0  0  0  0  0  0  # atno 17370 bound_to 10713
  156.0094  130.5184  150.7938 LP  0  0  0  0  0  0  0  0  0  0  0  0  # atno 17371 bound_to 10713
  140.5342  134.0784  155.7324 LP  0  0  0  0  0  0  0  0  0  0  0  0  # atno 17394 bound_to 11000
  141.1366  133.9211  157.2420 LP  0  0  0  0  0  0  0  0  0  0  0  0  # atno 17395 bound_to 11000

$$$$
