AV-unprocessed.smi:288|AV-procd|sdf|2211|dock2
  -GOLD-   2262022 43D 1   1.00000     0.00000
 Structure written by MMmdl.
 33 34  0  0  0  0  0  0  0  0  1 V2000
  152.8897  139.4926  157.4370 O   0  0  0  0  0  0  0  0  0  0  0  0
  151.9366  139.9409  156.7981 C   0  0  0  0  0  0  0  0  0  0  0  0
  151.7128  139.6470  155.3876 C   0  0  0  0  0  0  0  0  0  0  0  0
  152.5864  138.8700  154.7251 F   0  0  0  0  0  0  0  0  0  0  0  0
  150.6524  140.1586  154.7265 C   0  0  0  0  0  0  0  0  0  0  0  0
  149.7006  140.9705  155.3260 N   0  0  0  0  0  0  0  0  0  0  0  0
  148.5551  141.6039  154.5499 C   0  0  2  0  0  0  0  0  0  0  0  0
  147.1592  141.2416  155.0748 C   0  0  0  0  0  0  0  0  0  0  0  0
  146.7310  140.0909  154.1681 C   0  0  0  0  0  0  0  0  0  0  0  0
  147.8995  139.9028  153.1946 C   0  0  0  0  0  0  0  0  0  0  0  0
  148.5999  141.1385  153.2390 O   0  0  0  0  0  0  0  0  0  0  0  0
  149.8742  141.3536  156.6753 C   0  0  0  0  0  0  0  0  0  0  0  0
  149.0889  142.1353  157.2176 O   0  0  0  0  0  0  0  0  0  0  0  0
  150.9763  140.8084  157.3757 N   0  0  0  0  0  0  0  0  0  0  0  0
  151.1319  141.1846  158.7731 C   0  0  0  0  0  0  0  0  0  0  0  0
  151.0662  142.7066  159.0495 C   0  0  1  0  0  0  0  0  0  0  0  0
  149.7992  142.9771  159.6150 O   0  0  0  0  0  0  0  0  0  0  0  0
  152.1638  143.2582  159.9847 C   0  0  0  0  0  0  0  0  0  0  0  0
  151.9815  144.5655  160.1730 F   0  0  0  0  0  0  0  0  0  0  0  0
  152.1469  142.6346  161.1630 F   0  0  0  0  0  0  0  0  0  0  0  0
  153.3649  143.1004  159.4294 F   0  0  0  0  0  0  0  0  0  0  0  0
  150.5730  139.9191  153.6781 H   0  0  0  0  0  0  0  0  0  0  0  0
  148.7304  142.6798  154.6003 H   0  0  0  0  0  0  0  0  0  0  0  0
  147.1531  141.0201  156.1417 H   0  0  0  0  0  0  0  0  0  0  0  0
  146.5027  142.0975  154.9137 H   0  0  0  0  0  0  0  0  0  0  0  0
  146.5256  139.1774  154.7269 H   0  0  0  0  0  0  0  0  0  0  0  0
  145.8232  140.3613  153.6278 H   0  0  0  0  0  0  0  0  0  0  0  0
  148.5558  139.0958  153.5234 H   0  0  0  0  0  0  0  0  0  0  0  0
  147.5668  139.6723  152.1823 H   0  0  0  0  0  0  0  0  0  0  0  0
  150.3436  140.6566  159.3138 H   0  0  0  0  0  0  0  0  0  0  0  0
  152.0563  140.7512  159.1559 H   0  0  0  0  0  0  0  0  0  0  0  0
  151.1066  143.2536  158.1073 H   0  0  0  0  0  0  0  0  0  0  0  0
  149.9076  143.1052  160.5449 H   0  0  0  0  0  0  0  0  0  0  0  0
  1  2  2  0  0  0  0
  2 14  1  0  0  0  0
  2  3  1  0  0  0  0
  3  4  1  0  0  0  0
  3  5  2  0  0  0  0
  5  6  1  0  0  0  0
  5 22  1  0  0  0  0
  6  7  1  0  0  0  0
  6 12  1  0  0  0  0
  7 11  1  0  0  0  0
  7  8  1  0  0  0  0
  7 23  1  0  0  0  0
  8  9  1  0  0  0  0
  8 24  1  0  0  0  0
  8 25  1  0  0  0  0
  9 10  1  0  0  0  0
  9 26  1  0  0  0  0
  9 27  1  0  0  0  0
 10 11  1  0  0  0  0
 10 28  1  0  0  0  0
 10 29  1  0  0  0  0
 12 13  2  0  0  0  0
 12 14  1  0  0  0  0
 14 15  1  0  0  0  0
 15 16  1  0  0  0  0
 15 30  1  0  0  0  0
 15 31  1  0  0  0  0
 16 17  1  0  0  0  0
 16 18  1  0  0  0  0
 16 32  1  0  0  0  0
 17 33  1  0  0  0  0
 18 19  1  0  0  0  0
 18 20  1  0  0  0  0
 18 21  1  0  0  0  0
M  END
> <s_m_source_file>
AV-unprocessed.smi

> <i_m_source_file_index>
288

> <i_lp_mmshare_version>
43012

> <i_f3d_flags>
0

> <s_epik_input>
TzFbQ0gyXVtDSDJdW0NIMl1bQ0BIXTFuKFtjSF1jKEYpYzI9TyljKD1PKW4yW0NIMl1bQ0BIXShbT0hdKUMoRikoRilG

> <s_epik_cmdline>
J2VwaWtfcHl0aG9uJywgJy1waCcsICc3LjAnLCAnLXRuJywgJzgnLCAnLW1hJywgJzIwMCcsICctbWV0YWxfYmluZGluZycsICctaW1hZScsICc8aW5maWxlLm1hZT4nLCAnLW9tYWUnLCAnPG91dGZpbGUubWFlPic=

> <r_lp_tautomer_probability>
1

> <r_epik_Ionization_Penalty>
0.000551119

> <r_epik_Ionization_Penalty_Charging>
2.51184e-08

> <r_epik_Ionization_Penalty_Neutral>
0.000551094

> <r_epik_State_Penalty>
0.000345115

> <r_epik_Charging_Adjusted_Penalty>
0.00034514

> <i_epik_Tot_Q>
0

> <i_epik_Tot_abs_Q>
0

> <r_epik_Metal_State_Penalty>
-0

> <b_epik_Metal_Only>
0

> <s_epik_Chemistry_Notes>
This compound contains an acetal/aminal-like group ( X-CH(R)-Y where X, Y are N, S, or O) that may be acid/base labile, releasing an aldehyde.

> <s_lp_Force_Field>
OPLS_2005

> <r_lp_Energy>
32.9649

> <b_lp_Chiralities_Consistent>
1

> <s_lp_Variant>
AV-unprocessed.smi:288-3

> <Gold.Version>
5.8.1

> <Gold.Id.Protein>
6NUR|6NUR_protein|mol2

> <Gold.PLP.Fitness>
45.9332

> <Gold.PLP.PLP>
-39.3373

> <Gold.PLP.part.hbond>
-3.0000

> <Gold.PLP.part.metal>
0.0000

> <Gold.PLP.part.buried>
1.4697

> <Gold.PLP.part.nonpolar>
-41.3949

> <Gold.PLP.part.repulsive>
5.2097

> <Gold.PLP.ligand.clash>
0.0000

> <Gold.PLP.ligand.torsion>
0.7678

> <Gold.PLP.Chemscore.Hbond>
1.9675

> <Gold.PLP.Chemscore.CHOScore>
0.7205

> <Gold.PLP.Chemscore.Metal>
0.0000

> <Gold.Chemscore.Hbonds>
donor molecule, donor type, donor heavy atom, donor atom, acceptor molecule, acceptor atom, score
      P1  H  7997  8010       L1     1  1.00
      P1  H  8011  8017       L1    11  0.98
      L1  C     5    22       P1  7957  0.61

> <Gold.PLP.Chemscore.Internal.Correction>
0.0676

> <Gold.Rescore>
     Score         DG    S(hbond)    S(metal)    S(lipo)     H(rot)  DE(clash)    DE(int)     intcor
      4.35      -8.54       1.00        0.00      53.90       2.57       1.41       2.78       ----

> <Gold.Chemscore.Fitness>
4.3497

> <Gold.Chemscore.DG>
-8.5446

> <Gold.Chemscore.ZeroCoef>
-5.4800

> <Gold.Chemscore.Hbond>
0.9958

> <Gold.Chemscore.Metal>
0.0000

> <Gold.Chemscore.Lipo>
53.9017

> <Gold.Chemscore.Internal_Hbond>
0.0000

> <Gold.Chemscore.DEClash>
1.4117

> <Gold.Chemscore.DEInternal>
2.7831

> <Gold.Chemscore.Rot>
2.5656

> <Gold.Chemscore.Internal.Correction>
   9.000000E+99

> <Gold.Chemscore.Hbonds>
donor molecule, donor type, donor heavy atom, donor atom, acceptor molecule, acceptor atom, score
      P1  H  7997  8010       L1     1  0.78
      P1  H  8011  8017       L1    11  0.41

> <Gold.Chemscore.Hbond.Weighted>
-3.3259

> <Gold.Chemscore.Metal.Weighted>
-0.0000

> <Gold.Chemscore.Lipo.Weighted>
-6.3065

> <Gold.Chemscore.Internal_Hbond.Weighted>
0.0000

> <Gold.Chemscore.DEClash.Weighted>
1.4117

> <Gold.Chemscore.DEInternal.Weighted>
2.7831

> <Gold.Chemscore.Rot.Weighted>
6.5679

> <Gold.Chemscore.Internal.Correction.Weighted>
   9.000000E+99

> <Gold.Protein.RotatedTorsions>
[ 6907 6896 6895 6894 ] final -152.97 input  -60.11 | X-H torsion
[ 7974 7965 7964 7962 ] final  -78.80 input  175.53 | X-H torsion
[ 8008 7997 7996 7995 ] final   51.71 input   59.86 | X-H torsion
[ 10167 10162 10161 10158 ] final  -59.61 input  -65.29 | X-H torsion
[ 10718 10713 10712 10709 ] final  -16.89 input   66.30 | X-H torsion
[ 10763 10752 10751 10750 ] final  142.66 input  -60.55 | X-H torsion
[ 11005 11000 10999 10996 ] final  173.12 input  -57.11 | X-H torsion

> <Gold.Protein.ActiveResidues>
 VAL166  LYS551  ARG553  GLY616  TRP617  ASP618  TYR619  PRO620  LYS621  CYS622 
 ASP623  PHE694  ASN695  SER759  ASP760  ASP761  ALA762  ILE779  LEU786  VAL792 
 PHE793  MET794  SER795  GLU796  ALA797  LYS798  CYS799  TRP800  GLU811  SER814 

> <Gold.Protein.RotatedAtoms>
  151.2356  133.4426  159.2605 H   0  0  0  0  0  0  0  0  0  0  0  0  # atno 6907 bound_to 6896
  151.0753  134.9824  159.8339 H   0  0  0  0  0  0  0  0  0  0  0  0  # atno 6908 bound_to 6896
  152.5417  134.2299  159.8873 H   0  0  0  0  0  0  0  0  0  0  0  0  # atno 6909 bound_to 6896
  145.5817  140.9447  143.1340 H   0  0  0  0  0  0  0  0  0  0  0  0  # atno 7974 bound_to 7965
  155.4397  140.3454  155.4288 H   0  0  0  0  0  0  0  0  0  0  0  0  # atno 8008 bound_to 7997
  156.1286  140.1507  156.9129 H   0  0  0  0  0  0  0  0  0  0  0  0  # atno 8009 bound_to 7997
  154.4877  140.0850  156.7504 H   0  0  0  0  0  0  0  0  0  0  0  0  # atno 8010 bound_to 7997
  140.6124  143.2391  151.5678 H   0  0  0  0  0  0  0  0  0  0  0  0  # atno 10167 bound_to 10162
  156.5813  130.4775  149.6319 H   0  0  0  0  0  0  0  0  0  0  0  0  # atno 10718 bound_to 10713
  153.9595  135.2961  155.3434 H   0  0  0  0  0  0  0  0  0  0  0  0  # atno 10763 bound_to 10752
  154.7382  135.5037  153.9081 H   0  0  0  0  0  0  0  0  0  0  0  0  # atno 10764 bound_to 10752
  153.0953  135.6719  153.9884 H   0  0  0  0  0  0  0  0  0  0  0  0  # atno 10765 bound_to 10752
  140.3371  134.7308  157.4176 H   0  0  0  0  0  0  0  0  0  0  0  0  # atno 11005 bound_to 11000
  144.7391  139.7500  143.7318 LP  0  0  0  0  0  0  0  0  0  0  0  0  # atno 17320 bound_to 7965
  146.1711  139.4862  142.9927 LP  0  0  0  0  0  0  0  0  0  0  0  0  # atno 17321 bound_to 7965
  139.5371  144.2749  152.1275 LP  0  0  0  0  0  0  0  0  0  0  0  0  # atno 17342 bound_to 10162
  140.1951  144.4713  150.6459 LP  0  0  0  0  0  0  0  0  0  0  0  0  # atno 17343 bound_to 10162
  156.2629  130.6973  151.1747 LP  0  0  0  0  0  0  0  0  0  0  0  0  # atno 17370 bound_to 10713
  157.7326  131.0598  150.5621 LP  0  0  0  0  0  0  0  0  0  0  0  0  # atno 17371 bound_to 10713
  140.0812  134.5728  155.8539 LP  0  0  0  0  0  0  0  0  0  0  0  0  # atno 17394 bound_to 11000
  141.2048  133.6642  156.6144 LP  0  0  0  0  0  0  0  0  0  0  0  0  # atno 17395 bound_to 11000

$$$$
