#       Name:                AV-unprocessed.smi:2540
#       Creating user name   scv26
#       Creation time:       Fri Mar 27 14:03:53 2020


#       File generated by GOLD software.
#

@<TRIPOS>MOLECULE
AV-unprocessed.smi:2540
    30    31     1
SMALL
NO_CHARGES


@<TRIPOS>ATOM
      1 ****        -3.2748  -0.0718  -1.2020 C.3            1 S1                 0.0000
      2 ****        -1.8599  -0.1102  -1.1531 O.3            1 S1                 0.0000
      3 ****        -1.3457  -1.4289  -1.2489 C.3            1 S1                 0.0000
      4 ****         0.1881  -1.3898  -1.2021 C.3            1 S1                 0.0000
      5 ****         0.6832  -0.7796   0.0241 N.pl3          1 S1                 0.0000
      6 ****         0.9269  -1.3709   1.2175 C.2            1 S1                 0.0000
      7 ****         0.6997  -2.7301   1.3762 N.pl3          1 S1                 0.0000
      8 ****         1.3805  -0.5855   2.1911 N.2            1 S1                 0.0000
      9 ****         1.4315   0.6488   1.5700 C.ar           1 S1                 0.0000
     10 ****         1.8282   1.9105   2.0685 C.ar           1 S1                 0.0000
     11 ****         1.7910   3.0501   1.2383 C.ar           1 S1                 0.0000
     12 ****         1.3587   2.9453  -0.0998 C.ar           1 S1                 0.0000
     13 ****         0.9613   1.6977  -0.6181 C.ar           1 S1                 0.0000
     14 ****         1.0001   0.5626   0.2139 C.ar           1 S1                 0.0000
     15 ****        -3.6151   0.9604  -1.1214 H              1 S1                 0.0000
     16 ****        -3.7144  -0.6372  -0.3792 H              1 S1                 0.0000
     17 ****        -3.6472  -0.4761  -2.1442 H              1 S1                 0.0000
     18 ****        -1.7297  -2.0403  -0.4306 H              1 S1                 0.0000
     19 ****        -1.6732  -1.8897  -2.1819 H              1 S1                 0.0000
     20 ****         0.5981  -2.3959  -1.2948 H              1 S1                 0.0000
     21 ****         0.5725  -0.8247  -2.0518 H              1 S1                 0.0000
     22 ****         0.3530  -3.2964   0.6151 H              1 S1                 0.0000
     23 ****         0.8712  -3.1965   2.2551 H              1 S1                 0.0000
     24 ****         2.1595   2.0016   3.0922 H              1 S1                 0.0000
     25 ****         2.0940   4.0096   1.6307 H              1 S1                 0.0000
     26 ****         1.3314   3.8234  -0.7282 H              1 S1                 0.0000
     27 ****         0.6265   1.6146  -1.6413 H              1 S1                 0.0000
     28 ****        -1.5585   0.2888  -0.2871 LP             1 S1                 0.0000
     29 ****        -1.4985   0.4303  -1.9129 LP             1 S1                 0.0000
     30 ****         1.6225  -0.8262   3.1310 LP             1 S1                 0.0000
@<TRIPOS>BOND
    1    1    2 1     
    2    1   15 1     
    3    1   16 1     
    4    1   17 1     
    5    2    3 1     
    6    3    4 1     
    7    3   18 1     
    8    3   19 1     
    9    4    5 1     
   10    4   20 1     
   11    4   21 1     
   12    5   14 1     
   13    5    6 1     
   14    6    7 1     
   15    6    8 2     
   16    7   22 1     
   17    7   23 1     
   18    8    9 1     
   19    9   14 ar    
   20    9   10 ar    
   21   10   11 ar    
   22   10   24 1     
   23   11   12 ar    
   24   11   25 1     
   25   12   13 ar    
   26   12   26 1     
   27   13   14 ar    
   28   13   27 1     
   29    2   28 1     
   30    2   29 1     
   31    8   30 1     
@<TRIPOS>SUBSTRUCTURE
      1 S1             1
@<TRIPOS>SET
LONE_PAIRS      STATIC     ATOMS    <user>   **** ""
3 28 29 30
DONOR_HYDROGENS      STATIC     ATOMS    <user>   **** ""
2 22 23
ATOM$BLUE        STATIC     ATOMS    COLORGROUP SYSTEM
3 28 29 30
ATOM$RED        STATIC     ATOMS    COLORGROUP SYSTEM
2 22 23
