#       Name:                AV-unprocessed.smi:218
#       Creating user name   scv26
#       Creation time:       Thu Mar 26 20:08:22 2020


#       File generated by GOLD software.
#

@<TRIPOS>MOLECULE
AV-unprocessed.smi:218
    68    71     1
SMALL
NO_CHARGES


@<TRIPOS>ATOM
      1 ****        -4.1920   7.0017  -0.8390 C.3            1 S1                 0.0000
      2 ****        -4.0225   6.2021   0.4584 C.3            1 S1                 0.0000
      3 ****        -3.1049   6.9380   1.4500 C.3            1 S1                 0.0000
      4 ****        -3.4554   4.9415   0.0963 O.3            1 S1                 0.0000
      5 ****        -3.5713   3.8576   0.9452 C.ar           1 S1                 0.0000
      6 ****        -2.9672   2.6428   0.5624 C.ar           1 S1                 0.0000
      7 ****        -3.0826   1.5249   1.4142 C.ar           1 S1                 0.0000
      8 ****        -2.4540   0.1990   1.0375 C.3            1 S1                 0.0000
      9 ****        -1.0282   0.3018   0.7579 N.pl3          1 S1                 0.0000
     10 ****        -0.3398  -0.7836   0.3457 C.ar           1 S1                 0.0000
     11 ****        -0.9627  -1.9758   0.1525 N.ar           1 S1                 0.0000
     12 ****        -0.2619  -3.0361  -0.2608 C.ar           1 S1                 0.0000
     13 ****         1.0428  -3.1205  -0.5298 N.ar           1 S1                 0.0000
     14 ****         1.6724  -1.9251  -0.3355 C.ar           1 S1                 0.0000
     15 ****         1.0557  -0.7190   0.0981 C.ar           1 S1                 0.0000
     16 ****         2.0057   0.2905   0.1849 N.2            1 S1                 0.0000
     17 ****         3.1189  -0.2914  -0.1743 C.2            1 S1                 0.0000
     18 ****         3.0098  -1.6257  -0.4982 N.pl3          1 S1                 0.0000
     19 ****         4.0955  -2.5538  -0.9486 C.3            1 S1                 0.0000
     20 ****         3.6383  -3.2067  -2.0898 O.3            1 S1                 0.0000
     21 ****         4.0879  -4.5534  -2.0771 C.3            1 S1                 0.0000
     22 ****         3.1716  -5.4137  -2.9603 C.3            1 S1                 0.0000
     23 ****         3.5634  -5.3088  -4.3126 O.3            1 S1                 0.0000
     24 ****         4.0266  -4.9217  -0.5916 C.3            1 S1                 0.0000
     25 ****         4.9328  -5.9675  -0.3025 O.3            1 S1                 0.0000
     26 ****         4.4543  -3.6325   0.0995 C.3            1 S1                 0.0000
     27 ****         3.8036  -3.4848   1.3492 O.3            1 S1                 0.0000
     28 ****        -3.8012   1.6654   2.6182 C.ar           1 S1                 0.0000
     29 ****        -4.3697   2.9192   2.9156 C.ar           1 S1                 0.0000
     30 ****        -4.2629   3.9927   2.1042 N.ar           1 S1                 0.0000
     31 ****         4.9372  -1.9037  -1.1910 H              1 S1                 0.0000
     32 ****         5.1228  -4.5860  -2.4254 H              1 S1                 0.0000
     33 ****         3.0104  -5.2022  -0.3097 H              1 S1                 0.0000
     34 ****         5.5356  -3.6048   0.2437 H              1 S1                 0.0000
     35 ****        -4.6340   7.9792  -0.6439 H              1 S1                 0.0000
     36 ****        -4.8444   6.4770  -1.5375 H              1 S1                 0.0000
     37 ****        -3.2338   7.1605  -1.3347 H              1 S1                 0.0000
     38 ****        -5.0161   6.0771   0.8916 H              1 S1                 0.0000
     39 ****        -3.5063   7.9213   1.6965 H              1 S1                 0.0000
     40 ****        -2.1085   7.0806   1.0311 H              1 S1                 0.0000
     41 ****        -2.9942   6.3883   2.3843 H              1 S1                 0.0000
     42 ****        -2.4290   2.5717  -0.3715 H              1 S1                 0.0000
     43 ****        -2.6109  -0.5202   1.8425 H              1 S1                 0.0000
     44 ****        -2.9719  -0.1836   0.1572 H              1 S1                 0.0000
     45 ****        -0.6089   1.2092   0.9027 H              1 S1                 0.0000
     46 ****        -0.8268  -3.9469  -0.3944 H              1 S1                 0.0000
     47 ****         4.0582   0.2409  -0.2100 H              1 S1                 0.0000
     48 ****         3.2550  -6.4634  -2.6776 H              1 S1                 0.0000
     49 ****         2.1257  -5.1285  -2.8421 H              1 S1                 0.0000
     50 ****         2.9948  -5.8553  -4.8334 H              1 S1                 0.0000
     51 ****         4.9120  -6.1300   0.6284 H              1 S1                 0.0000
     52 ****         2.8718  -3.4394   1.1947 H              1 S1                 0.0000
     53 ****        -3.9160   0.8358   3.3002 H              1 S1                 0.0000
     54 ****        -4.9261   3.0633   3.8298 H              1 S1                 0.0000
     55 ****        -2.4770   5.0953  -0.0423 LP             1 S1                 0.0000
     56 ****        -3.8769   4.6747  -0.7704 LP             1 S1                 0.0000
     57 ****        -1.9451  -2.0597   0.3195 LP             1 S1                 0.0000
     58 ****         1.5015  -3.9549  -0.8354 LP             1 S1                 0.0000
     59 ****         1.8692   1.2425   0.4589 LP             1 S1                 0.0000
     60 ****         3.9928  -2.7446  -2.9027 LP             1 S1                 0.0000
     61 ****         2.6386  -3.1892  -2.1058 LP             1 S1                 0.0000
     62 ****         4.5102  -5.6142  -4.4140 LP             1 S1                 0.0000
     63 ****         3.4858  -4.3582  -4.6134 LP             1 S1                 0.0000
     64 ****         5.8562  -5.7006  -0.5785 LP             1 S1                 0.0000
     65 ****         4.6633  -6.7944  -0.7961 LP             1 S1                 0.0000
     66 ****         4.1139  -2.6451   1.7950 LP             1 S1                 0.0000
     67 ****         4.0118  -4.2690   1.9337 LP             1 S1                 0.0000
     68 ****        -4.6832   4.8658   2.3514 LP             1 S1                 0.0000
@<TRIPOS>BOND
    1    1    2 1     
    2    1   35 1     
    3    1   36 1     
    4    1   37 1     
    5    2    3 1     
    6    2    4 1     
    7    2   38 1     
    8    3   39 1     
    9    3   40 1     
   10    3   41 1     
   11    4    5 1     
   12    5   30 ar    
   13    5    6 ar    
   14    6    7 ar    
   15    6   42 1     
   16    7    8 1     
   17    7   28 ar    
   18    8    9 1     
   19    8   43 1     
   20    8   44 1     
   21    9   10 1     
   22    9   45 1     
   23   10   15 ar    
   24   10   11 ar    
   25   11   12 ar    
   26   12   13 ar    
   27   12   46 1     
   28   13   14 ar    
   29   14   18 1     
   30   14   15 ar    
   31   15   16 1     
   32   16   17 2     
   33   17   18 1     
   34   17   47 1     
   35   18   19 1     
   36   19   31 1     
   37   19   26 1     
   38   19   20 1     
   39   20   21 1     
   40   21   32 1     
   41   21   22 1     
   42   21   24 1     
   43   22   23 1     
   44   22   48 1     
   45   22   49 1     
   46   23   50 1     
   47   24   33 1     
   48   24   25 1     
   49   24   26 1     
   50   25   51 1     
   51   26   34 1     
   52   26   27 1     
   53   27   52 1     
   54   28   29 ar    
   55   28   53 1     
   56   29   30 ar    
   57   29   54 1     
   58    4   55 1     
   59    4   56 1     
   60   11   57 1     
   61   13   58 1     
   62   16   59 1     
   63   20   60 1     
   64   20   61 1     
   65   23   62 1     
   66   23   63 1     
   67   25   64 1     
   68   25   65 1     
   69   27   66 1     
   70   27   67 1     
   71   30   68 1     
@<TRIPOS>SUBSTRUCTURE
      1 S1             1
@<TRIPOS>SET
LONE_PAIRS      STATIC     ATOMS    <user>   **** ""
14 55 56 57 58 59 60 61 62 63 64 65 66 67 68
DONOR_HYDROGENS      STATIC     ATOMS    <user>   **** ""
4 45 50 51 52
ATOM$BLUE        STATIC     ATOMS    COLORGROUP SYSTEM
14 55 56 57 58 59 60 61 62 63 64 65 66 67 68
ATOM$RED        STATIC     ATOMS    COLORGROUP SYSTEM
4 45 50 51 52
