AV-unprocessed.smi:598|AV-procd|sdf|3027|dock5
  -GOLD-   2262023533D 1   1.00000     0.00000
 Structure written by MMmdl.
 43 44  0  0  0  0  0  0  0  0  3 V2000
  151.4654  145.5974  160.1581 C   0  0  0  0  0  0  0  0  0  0  0  0
  151.4906  144.0679  160.0027 C   0  0  2  0  0  0  0  0  0  0  0  0
  152.8819  143.4830  160.3192 C   0  0  0  0  0  0  0  0  0  0  0  0
  152.8715  141.9472  160.2646 C   0  0  0  0  0  0  0  0  0  0  0  0
  152.3370  141.4318  158.9202 C   0  0  0  0  0  0  0  0  0  0  0  0
  150.9460  142.0225  158.6076 C   0  0  2  0  0  0  0  0  0  0  0  0
  150.4499  141.5291  157.3272 N   0  0  0  0  0  0  0  0  0  0  0  0
  149.2107  141.6939  156.8348 C   0  0  0  0  0  0  0  0  0  0  0  0
  148.3255  142.2954  157.4413 O   0  0  0  0  0  0  0  0  0  0  0  0
  148.8989  141.0954  155.4516 C   0  0  0  0  0  0  0  0  0  0  0  0
  149.5547  139.8027  155.1784 N   0  0  0  0  0  0  0  0  0  0  0  0
  150.9354  139.8352  154.8995 C   0  0  0  0  0  0  0  0  0  0  0  0
  151.6339  138.7202  154.6094 C   0  0  0  0  0  0  0  0  0  0  0  0
  153.0484  138.7745  154.3124 N   0  3  0  0  0  0  0  0  0  0  0  0
  153.6363  139.8433  154.4427 O   0  0  0  0  0  0  0  0  0  0  0  0
  153.6183  137.7530  153.9401 O   0  5  0  0  0  0  0  0  0  0  0  0
  150.9163  137.4602  154.5949 C   0  0  0  0  0  0  0  0  0  0  0  0
  149.5953  137.4226  154.8576 C   0  0  0  0  0  0  0  0  0  0  0  0
  148.8356  138.6384  155.1657 C   0  0  0  0  0  0  0  0  0  0  0  0
  147.6254  138.6130  155.3879 O   0  0  0  0  0  0  0  0  0  0  0  0
  150.9631  143.5737  158.6291 C   0  0  2  0  0  0  0  0  0  0  0  0
  151.7061  144.1938  157.4209 C   0  0  0  0  0  0  0  0  0  0  0  0
  152.2003  146.0832  159.5162 H   0  0  0  0  0  0  0  0  0  0  0  0
  151.6919  145.8864  161.1847 H   0  0  0  0  0  0  0  0  0  0  0  0
  150.4831  146.0022  159.9133 H   0  0  0  0  0  0  0  0  0  0  0  0
  150.8059  143.6792  160.7586 H   0  0  0  0  0  0  0  0  0  0  0  0
  153.6225  143.8715  159.6195 H   0  0  0  0  0  0  0  0  0  0  0  0
  153.2032  143.8049  161.3103 H   0  0  0  0  0  0  0  0  0  0  0  0
  153.8766  141.5618  160.4378 H   0  0  0  0  0  0  0  0  0  0  0  0
  152.2501  141.5601  161.0731 H   0  0  0  0  0  0  0  0  0  0  0  0
  153.0406  141.6819  158.1257 H   0  0  0  0  0  0  0  0  0  0  0  0
  152.2849  140.3428  158.9483 H   0  0  0  0  0  0  0  0  0  0  0  0
  150.2560  141.6923  159.3868 H   0  0  0  0  0  0  0  0  0  0  0  0
  151.1118  141.0192  156.7605 H   0  0  0  0  0  0  0  0  0  0  0  0
  147.8164  140.9884  155.3675 H   0  0  0  0  0  0  0  0  0  0  0  0
  149.1661  141.8291  154.6891 H   0  0  0  0  0  0  0  0  0  0  0  0
  151.3737  140.8227  154.9268 H   0  0  0  0  0  0  0  0  0  0  0  0
  151.4329  136.5379  154.3736 H   0  0  0  0  0  0  0  0  0  0  0  0
  149.0804  136.4731  154.8409 H   0  0  0  0  0  0  0  0  0  0  0  0
  149.9257  143.9028  158.5483 H   0  0  0  0  0  0  0  0  0  0  0  0
  152.7639  143.9335  157.4123 H   0  0  0  0  0  0  0  0  0  0  0  0
  151.6347  145.2808  157.4233 H   0  0  0  0  0  0  0  0  0  0  0  0
  151.2809  143.8647  156.4727 H   0  0  0  0  0  0  0  0  0  0  0  0
  1  2  1  0  0  0  0
  1 23  1  0  0  0  0
  1 24  1  0  0  0  0
  1 25  1  0  0  0  0
  2 21  1  0  0  0  0
  2  3  1  0  0  0  0
  2 26  1  0  0  0  0
  3  4  1  0  0  0  0
  3 27  1  0  0  0  0
  3 28  1  0  0  0  0
  4  5  1  0  0  0  0
  4 29  1  0  0  0  0
  4 30  1  0  0  0  0
  5  6  1  0  0  0  0
  5 31  1  0  0  0  0
  5 32  1  0  0  0  0
  6  7  1  0  0  0  0
  6 21  1  0  0  0  0
  6 33  1  0  0  0  0
  7  8  1  0  0  0  0
  7 34  1  0  0  0  0
  8  9  2  0  0  0  0
  8 10  1  0  0  0  0
 10 11  1  0  0  0  0
 10 35  1  0  0  0  0
 10 36  1  0  0  0  0
 11 19  1  0  0  0  0
 11 12  1  0  0  0  0
 12 13  2  0  0  0  0
 12 37  1  0  0  0  0
 13 14  1  0  0  0  0
 13 17  1  0  0  0  0
 14 15  2  0  0  0  0
 14 16  1  0  0  0  0
 17 18  2  0  0  0  0
 17 38  1  0  0  0  0
 18 19  1  0  0  0  0
 18 39  1  0  0  0  0
 19 20  2  0  0  0  0
 21 22  1  0  0  0  0
 21 40  1  0  0  0  0
 22 41  1  0  0  0  0
 22 42  1  0  0  0  0
 22 43  1  0  0  0  0
M  CHG  1  14   1
M  CHG  1  16  -1
M  END
> <s_m_source_file>
AV-unprocessed.smi

> <i_m_source_file_index>
598

> <i_lp_mmshare_version>
43012

> <i_f3d_flags>
0

> <s_epik_input>
W0NIM11bQ0BASF0xW0NIMl1bQ0gyXVtDSDJdW0NASF0oW0NASF0xW0NIM10pW05IXUMoPU8pW0NIMl1uMltjSF1jKFtOK10oPU8pW08tXSlbY0hdW2NIXWMyPU8=

> <s_epik_cmdline>
J2VwaWtfcHl0aG9uJywgJy1waCcsICc3LjAnLCAnLXRuJywgJzgnLCAnLW1hJywgJzIwMCcsICctbWV0YWxfYmluZGluZycsICctaW1hZScsICc8aW5maWxlLm1hZT4nLCAnLW9tYWUnLCAnPG91dGZpbGUubWFlPic=

> <r_lp_tautomer_probability>
1

> <r_epik_Ionization_Penalty>
1.91291e-08

> <r_epik_Ionization_Penalty_Charging>
8.21931e-11

> <r_epik_Ionization_Penalty_Neutral>
1.90469e-08

> <r_epik_State_Penalty>
-0

> <r_epik_Charging_Adjusted_Penalty>
8.21931e-11

> <i_epik_Tot_Q>
0

> <i_epik_Tot_abs_Q>
2

> <r_epik_Metal_State_Penalty>
-0

> <b_epik_Metal_Only>
0

> <s_lp_Force_Field>
OPLS_2005

> <r_lp_Energy>
25.0261

> <b_lp_Chiralities_Consistent>
1

> <s_lp_Variant>
AV-unprocessed.smi:598-7

> <Gold.Version>
5.8.1

> <Gold.Id.Protein>
6NUR|6NUR_protein|mol2

> <Gold.PLP.Fitness>
45.3942

> <Gold.PLP.PLP>
-42.8895

> <Gold.PLP.part.hbond>
-2.2898

> <Gold.PLP.part.metal>
0.0000

> <Gold.PLP.part.buried>
-3.1741

> <Gold.PLP.part.nonpolar>
-37.4732

> <Gold.PLP.part.repulsive>
1.4482

> <Gold.PLP.ligand.clash>
0.0084

> <Gold.PLP.ligand.torsion>
0.5646

> <Gold.PLP.Chemscore.Hbond>
1.2080

> <Gold.PLP.Chemscore.CHOScore>
0.0000

> <Gold.PLP.Chemscore.Metal>
0.0000

> <Gold.Chemscore.Hbonds>
donor molecule, donor type, donor heavy atom, donor atom, acceptor molecule, acceptor atom, score
      P1  H  7997  8008       L1    15  1.00
      P1  H 10752 10765       L1    16  0.22

> <Gold.PLP.Chemscore.Internal.Correction>
0.0183

> <Gold.Rescore>
     Score         DG    S(hbond)    S(metal)    S(lipo)     H(rot)  DE(clash)    DE(int)     intcor
     18.06     -19.85       1.47        0.00     114.46       1.54       0.15       1.64       ----

> <Gold.Chemscore.Fitness>
18.0565

> <Gold.Chemscore.DG>
-19.8458

> <Gold.Chemscore.ZeroCoef>
-5.4800

> <Gold.Chemscore.Hbond>
1.4714

> <Gold.Chemscore.Metal>
0.0000

> <Gold.Chemscore.Lipo>
114.4627

> <Gold.Chemscore.Internal_Hbond>
0.0000

> <Gold.Chemscore.DEClash>
0.1531

> <Gold.Chemscore.DEInternal>
1.6361

> <Gold.Chemscore.Rot>
1.5393

> <Gold.Chemscore.Internal.Correction>
   9.000000E+99

> <Gold.Chemscore.Hbonds>
donor molecule, donor type, donor heavy atom, donor atom, acceptor molecule, acceptor atom, score
      P1  H  7997  8008       L1    15  0.98
      P1  H 10752 10765       L1    16  0.21

> <Gold.Chemscore.Hbond.Weighted>
-4.9144

> <Gold.Chemscore.Metal.Weighted>
-0.0000

> <Gold.Chemscore.Lipo.Weighted>
-13.3921

> <Gold.Chemscore.Internal_Hbond.Weighted>
0.0000

> <Gold.Chemscore.DEClash.Weighted>
0.1531

> <Gold.Chemscore.DEInternal.Weighted>
1.6361

> <Gold.Chemscore.Rot.Weighted>
3.9407

> <Gold.Chemscore.Internal.Correction.Weighted>
   9.000000E+99

> <Gold.Protein.RotatedTorsions>
[ 6907 6896 6895 6894 ] final  160.69 input  -60.11 | X-H torsion
[ 7974 7965 7964 7962 ] final   57.24 input  175.53 | X-H torsion
[ 8008 7997 7996 7995 ] final  -11.89 input   59.86 | X-H torsion
[ 10167 10162 10161 10158 ] final  116.89 input  -65.29 | X-H torsion
[ 10718 10713 10712 10709 ] final  -43.31 input   66.30 | X-H torsion
[ 10763 10752 10751 10750 ] final  126.18 input  -60.55 | X-H torsion
[ 11005 11000 10999 10996 ] final   31.83 input  -57.11 | X-H torsion

> <Gold.Protein.ActiveResidues>
 VAL166  LYS551  ARG553  GLY616  TRP617  ASP618  TYR619  PRO620  LYS621  CYS622 
 ASP623  PHE694  ASN695  SER759  ASP760  ASP761  ALA762  ILE779  LEU786  VAL792 
 PHE793  MET794  SER795  GLU796  ALA797  LYS798  CYS799  TRP800  GLU811  SER814 

> <Gold.Protein.RotatedAtoms>
  151.9669  133.3713  159.4056 H   0  0  0  0  0  0  0  0  0  0  0  0  # atno 6907 bound_to 6896
  150.6955  134.4181  159.5202 H   0  0  0  0  0  0  0  0  0  0  0  0  # atno 6908 bound_to 6896
  152.1879  134.8697  160.0571 H   0  0  0  0  0  0  0  0  0  0  0  0  # atno 6909 bound_to 6896
  145.9312  139.3809  143.0420 H   0  0  0  0  0  0  0  0  0  0  0  0  # atno 7974 bound_to 7965
  154.5425  140.2290  155.8617 H   0  0  0  0  0  0  0  0  0  0  0  0  # atno 8008 bound_to 7997
  156.1872  140.3086  155.9223 H   0  0  0  0  0  0  0  0  0  0  0  0  # atno 8009 bound_to 7997
  155.3229  140.0441  157.3030 H   0  0  0  0  0  0  0  0  0  0  0  0  # atno 8010 bound_to 7997
  139.6216  144.7102  151.2622 H   0  0  0  0  0  0  0  0  0  0  0  0  # atno 10167 bound_to 10162
  156.2503  130.4187  149.8657 H   0  0  0  0  0  0  0  0  0  0  0  0  # atno 10718 bound_to 10713
  153.6892  135.3301  155.3198 H   0  0  0  0  0  0  0  0  0  0  0  0  # atno 10763 bound_to 10752
  154.8445  135.4427  154.1526 H   0  0  0  0  0  0  0  0  0  0  0  0  # atno 10764 bound_to 10752
  153.2563  135.6986  153.7703 H   0  0  0  0  0  0  0  0  0  0  0  0  # atno 10765 bound_to 10752
  140.2798  134.2986  155.7804 H   0  0  0  0  0  0  0  0  0  0  0  0  # atno 11005 bound_to 11000
  145.8424  140.9573  143.0792 LP  0  0  0  0  0  0  0  0  0  0  0  0  # atno 17320 bound_to 7965
  144.6765  140.0301  143.7482 LP  0  0  0  0  0  0  0  0  0  0  0  0  # atno 17321 bound_to 7965
  140.7385  143.6645  150.8135 LP  0  0  0  0  0  0  0  0  0  0  0  0  # atno 17342 bound_to 10162
  140.0256  143.5496  152.2782 LP  0  0  0  0  0  0  0  0  0  0  0  0  # atno 17343 bound_to 10162
  156.6208  130.8625  151.3475 LP  0  0  0  0  0  0  0  0  0  0  0  0  # atno 17370 bound_to 10713
  157.7212  130.9561  150.1446 LP  0  0  0  0  0  0  0  0  0  0  0  0  # atno 17371 bound_to 10713
  141.2164  133.7518  156.9463 LP  0  0  0  0  0  0  0  0  0  0  0  0  # atno 17394 bound_to 11000
  140.1294  134.9366  157.2316 LP  0  0  0  0  0  0  0  0  0  0  0  0  # atno 17395 bound_to 11000

$$$$
