AV-unprocessed.smi:2324|AV-procd|sdf|9294|dock8
  -GOLD-   2272012513D 1   1.00000     0.00000
 Structure written by MMmdl.
 37 39  0  0  0  0  0  0  0  0  1 V2000
  150.5904  135.3874  155.9782 O   0  0  0  0  0  0  0  0  0  0  0  0
  149.9882  135.5819  154.9236 C   0  0  0  0  0  0  0  0  0  0  0  0
  149.5785  134.5480  154.1582 N   0  0  0  0  0  0  0  0  0  0  0  0
  149.7079  133.1380  154.3237 C   0  0  0  0  0  0  0  0  0  0  0  0
  149.0025  132.3657  153.3759 C   0  0  0  0  0  0  0  0  0  0  0  0
  149.0737  130.9651  153.4660 C   0  0  0  0  0  0  0  0  0  0  0  0
  149.8508  130.4261  154.5051 C   0  0  0  0  0  0  0  0  0  0  0  0
  150.5107  131.2013  155.3921 N   0  0  0  0  0  0  0  0  0  0  0  0
  150.4372  132.5331  155.2990 N   0  0  0  0  0  0  0  0  0  0  0  0
  149.6994  136.8129  154.4701 N   0  0  0  0  0  0  0  0  0  0  0  0
  150.0452  138.0641  155.1368 C   0  0  1  0  0  0  0  0  0  0  0  0
  151.5703  138.2255  155.1834 C   0  0  0  0  0  0  0  0  0  0  0  0
  151.9524  139.5888  155.7792 C   0  0  0  0  0  0  0  0  0  0  0  0
  151.3437  140.6454  155.0395 O   0  0  0  0  0  0  0  0  0  0  0  0
  149.9165  140.6082  154.9815 C   0  0  2  0  0  0  0  0  0  0  0  0
  149.2833  140.9409  156.3261 C   0  0  0  0  0  0  0  0  0  0  0  0
  150.1188  141.5025  157.4524 C   0  0  0  0  0  0  0  0  0  0  0  0
  149.5749  140.0968  157.5444 C   0  0  0  0  0  0  0  0  0  0  0  0
  149.4339  139.2664  154.3966 C   0  0  0  0  0  0  0  0  0  0  0  0
  149.0925  134.8235  153.3171 H   0  0  0  0  0  0  0  0  0  0  0  0
  148.4183  132.8328  152.5963 H   0  0  0  0  0  0  0  0  0  0  0  0
  148.5525  130.3289  152.7661 H   0  0  0  0  0  0  0  0  0  0  0  0
  149.9447  129.3575  154.6288 H   0  0  0  0  0  0  0  0  0  0  0  0
  149.1996  136.8866  153.5949 H   0  0  0  0  0  0  0  0  0  0  0  0
  149.6698  138.0352  156.1611 H   0  0  0  0  0  0  0  0  0  0  0  0
  152.0189  137.4232  155.7703 H   0  0  0  0  0  0  0  0  0  0  0  0
  151.9840  138.1452  154.1771 H   0  0  0  0  0  0  0  0  0  0  0  0
  151.6734  139.6449  156.8315 H   0  0  0  0  0  0  0  0  0  0  0  0
  153.0339  139.7191  155.7402 H   0  0  0  0  0  0  0  0  0  0  0  0
  149.6229  141.3954  154.2860 H   0  0  0  0  0  0  0  0  0  0  0  0
  148.2726  141.3373  156.2619 H   0  0  0  0  0  0  0  0  0  0  0  0
  151.1874  141.6183  157.2828 H   0  0  0  0  0  0  0  0  0  0  0  0
  149.6621  142.2622  158.0831 H   0  0  0  0  0  0  0  0  0  0  0  0
  148.7558  139.9177  158.2379 H   0  0  0  0  0  0  0  0  0  0  0  0
  150.2821  139.2769  157.4363 H   0  0  0  0  0  0  0  0  0  0  0  0
  149.7205  139.2222  153.3448 H   0  0  0  0  0  0  0  0  0  0  0  0
  148.3444  139.2192  154.4182 H   0  0  0  0  0  0  0  0  0  0  0  0
  1  2  2  0  0  0  0
  2  3  1  0  0  0  0
  2 10  1  0  0  0  0
  3  4  1  0  0  0  0
  3 20  1  0  0  0  0
  4  9  1  0  0  0  0
  4  5  2  0  0  0  0
  5  6  1  0  0  0  0
  5 21  1  0  0  0  0
  6  7  2  0  0  0  0
  6 22  1  0  0  0  0
  7  8  1  0  0  0  0
  7 23  1  0  0  0  0
  8  9  2  0  0  0  0
 10 11  1  0  0  0  0
 10 24  1  0  0  0  0
 11 19  1  0  0  0  0
 11 12  1  0  0  0  0
 11 25  1  0  0  0  0
 12 13  1  0  0  0  0
 12 26  1  0  0  0  0
 12 27  1  0  0  0  0
 13 14  1  0  0  0  0
 13 28  1  0  0  0  0
 13 29  1  0  0  0  0
 14 15  1  0  0  0  0
 15 16  1  0  0  0  0
 15 19  1  0  0  0  0
 15 30  1  0  0  0  0
 16 18  1  0  0  0  0
 16 17  1  0  0  0  0
 16 31  1  0  0  0  0
 17 18  1  0  0  0  0
 17 32  1  0  0  0  0
 17 33  1  0  0  0  0
 18 34  1  0  0  0  0
 18 35  1  0  0  0  0
 19 36  1  0  0  0  0
 19 37  1  0  0  0  0
M  END
> <s_m_source_file>
AV-unprocessed.smi

> <i_m_source_file_index>
2324

> <i_lp_mmshare_version>
43012

> <i_f3d_flags>
0

> <s_epik_input>
bjFuW2NIXVtjSF1bY0hdYzFbTkhdQyg9TylbTkhdW0NAQEhdMltDSDJdW0NIMl1PW0NASF0oW0NIMl0yKVtDSF0zW0NIMl1bQ0gyXTM=

> <s_epik_cmdline>
J2VwaWtfcHl0aG9uJywgJy1waCcsICc3LjAnLCAnLXRuJywgJzgnLCAnLW1hJywgJzIwMCcsICctbWV0YWxfYmluZGluZycsICctaW1hZScsICc8aW5maWxlLm1hZT4nLCAnLW9tYWUnLCAnPG91dGZpbGUubWFlPic=

> <r_lp_tautomer_probability>
1

> <r_epik_Ionization_Penalty>
0.00521499

> <r_epik_Ionization_Penalty_Charging>
0

> <r_epik_Ionization_Penalty_Neutral>
0.00521499

> <r_epik_State_Penalty>
-0

> <r_epik_Charging_Adjusted_Penalty>
0

> <i_epik_Tot_Q>
0

> <i_epik_Tot_abs_Q>
0

> <r_epik_Metal_State_Penalty>
-0

> <b_epik_Metal_Only>
0

> <s_lp_Force_Field>
OPLS_2005

> <r_lp_Energy>
28.1305

> <b_lp_Chiralities_Consistent>
1

> <s_lp_Variant>
AV-unprocessed.smi:2324-4

> <Gold.Version>
5.8.1

> <Gold.Id.Protein>
6NUR|6NUR_protein|mol2

> <Gold.PLP.Fitness>
37.5219

> <Gold.PLP.PLP>
-30.0379

> <Gold.PLP.part.hbond>
-2.7192

> <Gold.PLP.part.metal>
0.0000

> <Gold.PLP.part.buried>
-2.7852

> <Gold.PLP.part.nonpolar>
-24.4568

> <Gold.PLP.part.repulsive>
0.1534

> <Gold.PLP.ligand.clash>
0.0000

> <Gold.PLP.ligand.torsion>
0.6981

> <Gold.PLP.Chemscore.Hbond>
2.6006

> <Gold.PLP.Chemscore.CHOScore>
0.0000

> <Gold.PLP.Chemscore.Metal>
0.0000

> <Gold.Chemscore.Hbonds>
donor molecule, donor type, donor heavy atom, donor atom, acceptor molecule, acceptor atom, score
      L1  H     3    20       P1  7948  0.72
      L1  H    10    24       P1  7948  0.93
      P1  H  7989  7998       L1    14  0.81

> <Gold.PLP.Chemscore.Internal.Correction>
1.0783

> <Gold.Rescore>
     Score         DG    S(hbond)    S(metal)    S(lipo)     H(rot)  DE(clash)    DE(int)     intcor
     11.41     -14.73       1.69        0.00      58.06       1.25       0.29       3.02       ----

> <Gold.Chemscore.Fitness>
11.4144

> <Gold.Chemscore.DG>
-14.7309

> <Gold.Chemscore.ZeroCoef>
-5.4800

> <Gold.Chemscore.Hbond>
1.6920

> <Gold.Chemscore.Metal>
0.0000

> <Gold.Chemscore.Lipo>
58.0648

> <Gold.Chemscore.Internal_Hbond>
0.0000

> <Gold.Chemscore.DEClash>
0.2946

> <Gold.Chemscore.DEInternal>
3.0220

> <Gold.Chemscore.Rot>
1.2476

> <Gold.Chemscore.Internal.Correction>
   9.000000E+99

> <Gold.Chemscore.Hbonds>
donor molecule, donor type, donor heavy atom, donor atom, acceptor molecule, acceptor atom, score
      L1  H     3    20       P1  7948  0.10
      L1  H    10    24       P1  7948  0.89
      P1  H  7989  7998       L1    14  0.18

> <Gold.Chemscore.Hbond.Weighted>
-5.6511

> <Gold.Chemscore.Metal.Weighted>
-0.0000

> <Gold.Chemscore.Lipo.Weighted>
-6.7936

> <Gold.Chemscore.Internal_Hbond.Weighted>
0.0000

> <Gold.Chemscore.DEClash.Weighted>
0.2946

> <Gold.Chemscore.DEInternal.Weighted>
3.0220

> <Gold.Chemscore.Rot.Weighted>
3.1938

> <Gold.Chemscore.Internal.Correction.Weighted>
   9.000000E+99

> <Gold.Protein.RotatedTorsions>
[ 6907 6896 6895 6894 ] final -141.11 input  -60.11 | X-H torsion
[ 7974 7965 7964 7962 ] final  103.52 input  175.53 | X-H torsion
[ 8008 7997 7996 7995 ] final  -17.42 input   59.86 | X-H torsion
[ 10167 10162 10161 10158 ] final  -81.58 input  -65.29 | X-H torsion
[ 10718 10713 10712 10709 ] final  -44.15 input   66.30 | X-H torsion
[ 10763 10752 10751 10750 ] final  -79.31 input  -60.55 | X-H torsion
[ 11005 11000 10999 10996 ] final   22.41 input  -57.11 | X-H torsion

> <Gold.Protein.ActiveResidues>
 VAL166  LYS551  ARG553  GLY616  TRP617  ASP618  TYR619  PRO620  LYS621  CYS622 
 ASP623  PHE694  ASN695  SER759  ASP760  ASP761  ALA762  ILE779  LEU786  VAL792 
 PHE793  MET794  SER795  GLU796  ALA797  LYS798  CYS799  TRP800  GLU811  SER814 

> <Gold.Protein.RotatedAtoms>
  151.0694  133.5478  159.2627 H   0  0  0  0  0  0  0  0  0  0  0  0  # atno 6907 bound_to 6896
  151.2423  135.0592  159.9040 H   0  0  0  0  0  0  0  0  0  0  0  0  # atno 6908 bound_to 6896
  152.5409  134.0467  159.8145 H   0  0  0  0  0  0  0  0  0  0  0  0  # atno 6909 bound_to 6896
  145.3448  139.2453  143.3590 H   0  0  0  0  0  0  0  0  0  0  0  0  # atno 7974 bound_to 7965
  154.4980  140.2143  155.9406 H   0  0  0  0  0  0  0  0  0  0  0  0  # atno 8008 bound_to 7997
  156.1396  140.3182  155.8442 H   0  0  0  0  0  0  0  0  0  0  0  0  # atno 8009 bound_to 7997
  155.4145  140.0493  157.3020 H   0  0  0  0  0  0  0  0  0  0  0  0  # atno 8010 bound_to 7997
  140.4398  143.2518  151.8641 H   0  0  0  0  0  0  0  0  0  0  0  0  # atno 10167 bound_to 10162
  156.2416  130.4180  149.8754 H   0  0  0  0  0  0  0  0  0  0  0  0  # atno 10718 bound_to 10713
  154.5371  135.5700  153.6807 H   0  0  0  0  0  0  0  0  0  0  0  0  # atno 10763 bound_to 10752
  152.9954  135.6218  154.2552 H   0  0  0  0  0  0  0  0  0  0  0  0  # atno 10764 bound_to 10752
  154.2481  135.2860  155.2807 H   0  0  0  0  0  0  0  0  0  0  0  0  # atno 10765 bound_to 10752
  140.3808  134.1922  155.7663 H   0  0  0  0  0  0  0  0  0  0  0  0  # atno 11005 bound_to 11000
  146.2993  140.4052  142.8710 LP  0  0  0  0  0  0  0  0  0  0  0  0  # atno 17320 bound_to 7965
  144.8763  140.7340  143.6015 LP  0  0  0  0  0  0  0  0  0  0  0  0  # atno 17321 bound_to 7965
  139.4789  144.5241  151.8759 LP  0  0  0  0  0  0  0  0  0  0  0  0  # atno 17342 bound_to 10162
  140.4331  144.2088  150.5888 LP  0  0  0  0  0  0  0  0  0  0  0  0  # atno 17343 bound_to 10162
  156.6334  130.8675  151.3500 LP  0  0  0  0  0  0  0  0  0  0  0  0  # atno 17370 bound_to 10713
  157.7177  130.9518  150.1319 LP  0  0  0  0  0  0  0  0  0  0  0  0  # atno 17371 bound_to 10713
  141.1924  133.8174  157.0841 LP  0  0  0  0  0  0  0  0  0  0  0  0  # atno 17394 bound_to 11000
  140.0480  134.9820  157.1084 LP  0  0  0  0  0  0  0  0  0  0  0  0  # atno 17395 bound_to 11000

$$$$
