#       Name:                AV-unprocessed.smi:3331
#       Creating user name   scv26
#       Creation time:       Fri Mar 27 19:20:25 2020


#       File generated by GOLD software.
#

@<TRIPOS>MOLECULE
AV-unprocessed.smi:3331
    50    51     1
SMALL
NO_CHARGES


@<TRIPOS>ATOM
      1 ****        -3.4353  -3.5109   2.1285 C.3            1 S1                 0.0000
      2 ****        -2.7866  -2.5308   1.1416 C.3            1 S1                 0.0000
      3 ****        -2.5544  -3.1886  -0.2376 C.3            1 S1                 0.0000
      4 ****        -1.7792  -2.2777  -1.2159 C.3            1 S1                 0.0000
      5 ****        -2.6718  -1.1763  -1.8149 C.3            1 S1                 0.0000
      6 ****        -0.5176  -1.7137  -0.5257 C.3            1 S1                 0.0000
      7 ****        -0.8960  -1.0237   0.7173 N.am           1 S1                 0.0000
      8 ****        -0.8351   0.3139   0.9458 C.2            1 S1                 0.0000
      9 ****        -1.2002   0.8057   2.0154 O.2            1 S1                 0.0000
     10 ****        -0.2876   1.2543  -0.1495 C.3            1 S1                 0.0000
     11 ****        -0.7365   2.7150   0.0794 C.3            1 S1                 0.0000
     12 ****         1.1796   1.1471  -0.2077 N.3            1 S1                 0.0000
     13 ****         1.7416   1.7058  -1.4313 C.3            1 S1                 0.0000
     14 ****         3.2647   1.4954  -1.4611 C.3            1 S1                 0.0000
     15 ****         3.9483   2.2572  -0.4304 N.pl3          1 S1                 0.0000
     16 ****         4.1441   3.6206  -0.3621 C.2            1 S1                 0.0000
     17 ****         4.8371   3.8748   0.7867 C.2            1 S1                 0.0000
     18 ****         5.0253   2.5860   1.3596 C.2            1 S1                 0.0000
     19 ****         4.4947   1.6197   0.6277 N.2            1 S1                 0.0000
     20 ****        -1.4613  -1.9655   1.6933 C.3            1 S1                 0.0000
     21 ****        -2.7927  -4.3724   2.3119 H              1 S1                 0.0000
     22 ****        -4.3874  -3.8798   1.7461 H              1 S1                 0.0000
     23 ****        -3.6297  -3.0304   3.0878 H              1 S1                 0.0000
     24 ****        -3.4784  -1.6974   1.0106 H              1 S1                 0.0000
     25 ****        -1.9812  -4.1058  -0.0952 H              1 S1                 0.0000
     26 ****        -3.5043  -3.4954  -0.6773 H              1 S1                 0.0000
     27 ****        -1.4492  -2.8981  -2.0502 H              1 S1                 0.0000
     28 ****        -3.0558  -0.5003  -1.0509 H              1 S1                 0.0000
     29 ****        -3.5286  -1.6071  -2.3335 H              1 S1                 0.0000
     30 ****        -2.1188  -0.5774  -2.5388 H              1 S1                 0.0000
     31 ****         0.1551  -2.5348  -0.2732 H              1 S1                 0.0000
     32 ****         0.0485  -1.0991  -1.2224 H              1 S1                 0.0000
     33 ****        -0.7174   0.9399  -1.1003 H              1 S1                 0.0000
     34 ****        -1.8122   2.7776   0.2492 H              1 S1                 0.0000
     35 ****        -0.5244   3.3435  -0.7849 H              1 S1                 0.0000
     36 ****        -0.2371   3.1585   0.9419 H              1 S1                 0.0000
     37 ****         1.4746   0.1835  -0.1372 H              1 S1                 0.0000
     38 ****         1.2947   1.2071  -2.2924 H              1 S1                 0.0000
     39 ****         1.5151   2.7679  -1.5194 H              1 S1                 0.0000
     40 ****         3.5101   0.4369  -1.3570 H              1 S1                 0.0000
     41 ****         3.6605   1.8113  -2.4268 H              1 S1                 0.0000
     42 ****         3.7752   4.2885  -1.1266 H              1 S1                 0.0000
     43 ****         5.1603   4.8347   1.1608 H              1 S1                 0.0000
     44 ****         5.5296   2.3255   2.2784 H              1 S1                 0.0000
     45 ****        -1.6304  -1.5101   2.6700 H              1 S1                 0.0000
     46 ****        -0.7495  -2.7738   1.8683 H              1 S1                 0.0000
     47 ****        -1.5524   0.2162   2.7424 LP             1 S1                 0.0000
     48 ****        -1.1442   1.7941   2.1563 LP             1 S1                 0.0000
     49 ****         1.5192   1.6770   0.5694 LP             1 S1                 0.0000
     50 ****         4.4976   0.6375   0.8158 LP             1 S1                 0.0000
@<TRIPOS>BOND
    1    1    2 1     
    2    1   21 1     
    3    1   22 1     
    4    1   23 1     
    5    2   20 1     
    6    2    3 1     
    7    2   24 1     
    8    3    4 1     
    9    3   25 1     
   10    3   26 1     
   11    4    5 1     
   12    4    6 1     
   13    4   27 1     
   14    5   28 1     
   15    5   29 1     
   16    5   30 1     
   17    6    7 1     
   18    6   31 1     
   19    6   32 1     
   20    7    8 am    
   21    7   20 1     
   22    8    9 2     
   23    8   10 1     
   24   10   11 1     
   25   10   12 1     
   26   10   33 1     
   27   11   34 1     
   28   11   35 1     
   29   11   36 1     
   30   12   13 1     
   31   12   37 1     
   32   13   14 1     
   33   13   38 1     
   34   13   39 1     
   35   14   15 1     
   36   14   40 1     
   37   14   41 1     
   38   15   19 1     
   39   15   16 1     
   40   16   17 2     
   41   16   42 1     
   42   17   18 1     
   43   17   43 1     
   44   18   19 2     
   45   18   44 1     
   46   20   45 1     
   47   20   46 1     
   48    9   47 1     
   49    9   48 1     
   50   12   49 1     
   51   19   50 1     
@<TRIPOS>SUBSTRUCTURE
      1 S1             1
@<TRIPOS>SET
LONE_PAIRS      STATIC     ATOMS    <user>   **** ""
4 47 48 49 50
DONOR_HYDROGENS      STATIC     ATOMS    <user>   **** ""
1 37
ATOM$BLUE        STATIC     ATOMS    COLORGROUP SYSTEM
4 47 48 49 50
ATOM$RED        STATIC     ATOMS    COLORGROUP SYSTEM
1 37
