#       Name:                AV-unprocessed.smi:2517
#       Creating user name   scv26
#       Creation time:       Fri Mar 27 13:53:46 2020


#       File generated by GOLD software.
#

@<TRIPOS>MOLECULE
AV-unprocessed.smi:2517
    46    47     1
SMALL
NO_CHARGES


@<TRIPOS>ATOM
      1 ****        -3.0756  -3.4530   0.1833 C.3            1 S1                 0.0000
      2 ****        -2.8740  -2.6514  -1.1074 C.3            1 S1                 0.0000
      3 ****        -3.2838  -1.2133  -0.9460 C.2            1 S1                 0.0000
      4 ****        -4.5621  -0.8743  -1.0453 N.2            1 S1                 0.0000
      5 ****        -4.5917   0.4647  -0.8439 N.pl3          1 S1                 0.0000
      6 ****        -5.8602   1.1595  -0.8878 C.3            1 S1                 0.0000
      7 ****        -3.3355   0.9872  -0.6137 C.2            1 S1                 0.0000
      8 ****        -2.4781  -0.0751  -0.6716 C.2            1 S1                 0.0000
      9 ****        -1.0712  -0.1006  -0.4930 N.am           1 S1                 0.0000
     10 ****        -0.2596   0.9408  -0.2487 C.2            1 S1                 0.0000
     11 ****        -0.6177   2.1158  -0.1667 O.2            1 S1                 0.0000
     12 ****         1.0102   0.5432  -0.1036 N.am           1 S1                 0.0000
     13 ****         2.1260   1.4342   0.1851 C.3            1 S1                 0.0000
     14 ****         3.3879   0.6303   0.5273 C.3            1 S1                 0.0000
     15 ****         3.1669  -0.2728   1.6111 O.3            1 S1                 0.0000
     16 ****         2.8666   0.3228   2.8666 C.3            1 S1                 0.0000
     17 ****         4.0715  -0.1507  -0.6111 C.3            1 S1                 0.0000
     18 ****         5.0670   1.0019  -0.7530 C.3            1 S1                 0.0000
     19 ****         4.7250   1.3812   0.6886 C.3            1 S1                 0.0000
     20 ****        -2.7717  -4.4909   0.0476 H              1 S1                 0.0000
     21 ****        -4.1216  -3.4497   0.4908 H              1 S1                 0.0000
     22 ****        -2.4846  -3.0364   0.9993 H              1 S1                 0.0000
     23 ****        -1.8282  -2.7101  -1.4097 H              1 S1                 0.0000
     24 ****        -3.4447  -3.1139  -1.9136 H              1 S1                 0.0000
     25 ****        -5.7174   2.2148  -0.6535 H              1 S1                 0.0000
     26 ****        -6.5452   0.7246  -0.1593 H              1 S1                 0.0000
     27 ****        -6.2934   1.0728  -1.8845 H              1 S1                 0.0000
     28 ****        -3.1762   2.0395  -0.4308 H              1 S1                 0.0000
     29 ****        -0.6383  -1.0110  -0.5473 H              1 S1                 0.0000
     30 ****         1.2206  -0.4410  -0.1824 H              1 S1                 0.0000
     31 ****         2.3006   2.0609  -0.6905 H              1 S1                 0.0000
     32 ****         1.8636   2.1169   0.9940 H              1 S1                 0.0000
     33 ****         2.8333  -0.4532   3.6312 H              1 S1                 0.0000
     34 ****         1.8927   0.8118   2.8597 H              1 S1                 0.0000
     35 ****         3.6226   1.0493   3.1649 H              1 S1                 0.0000
     36 ****         4.5477  -1.0739  -0.2754 H              1 S1                 0.0000
     37 ****         3.4516  -0.3202  -1.4919 H              1 S1                 0.0000
     38 ****         6.1012   0.6960  -0.9128 H              1 S1                 0.0000
     39 ****         4.7473   1.7525  -1.4775 H              1 S1                 0.0000
     40 ****         4.6296   2.4532   0.8629 H              1 S1                 0.0000
     41 ****         5.3994   0.9162   1.4101 H              1 S1                 0.0000
     42 ****        -5.3378  -1.4779  -1.2294 LP             1 S1                 0.0000
     43 ****        -1.5816   2.3542  -0.2856 LP             1 S1                 0.0000
     44 ****         0.0553   2.8319   0.0187 LP             1 S1                 0.0000
     45 ****         3.9937  -0.8239   1.7237 LP             1 S1                 0.0000
     46 ****         2.4016  -0.8668   1.3633 LP             1 S1                 0.0000
@<TRIPOS>BOND
    1    1    2 1     
    2    1   20 1     
    3    1   21 1     
    4    1   22 1     
    5    2    3 1     
    6    2   23 1     
    7    2   24 1     
    8    3    8 1     
    9    3    4 2     
   10    4    5 1     
   11    5    6 1     
   12    5    7 1     
   13    6   25 1     
   14    6   26 1     
   15    6   27 1     
   16    7    8 2     
   17    7   28 1     
   18    8    9 1     
   19    9   10 am    
   20    9   29 1     
   21   10   11 2     
   22   10   12 am    
   23   12   13 1     
   24   12   30 1     
   25   13   14 1     
   26   13   31 1     
   27   13   32 1     
   28   14   19 1     
   29   14   15 1     
   30   14   17 1     
   31   15   16 1     
   32   16   33 1     
   33   16   34 1     
   34   16   35 1     
   35   17   18 1     
   36   17   36 1     
   37   17   37 1     
   38   18   19 1     
   39   18   38 1     
   40   18   39 1     
   41   19   40 1     
   42   19   41 1     
   43    4   42 1     
   44   11   43 1     
   45   11   44 1     
   46   15   45 1     
   47   15   46 1     
@<TRIPOS>SUBSTRUCTURE
      1 S1             1
@<TRIPOS>SET
LONE_PAIRS      STATIC     ATOMS    <user>   **** ""
5 42 43 44 45 46
DONOR_HYDROGENS      STATIC     ATOMS    <user>   **** ""
2 29 30
ATOM$BLUE        STATIC     ATOMS    COLORGROUP SYSTEM
5 42 43 44 45 46
ATOM$RED        STATIC     ATOMS    COLORGROUP SYSTEM
2 29 30
