#       Name:                AV-unprocessed.smi:3278
#       Creating user name   scv26
#       Creation time:       Fri Mar 27 18:46:05 2020


#       File generated by GOLD software.
#

@<TRIPOS>MOLECULE
AV-unprocessed.smi:3278
    42    43     1
SMALL
NO_CHARGES


@<TRIPOS>ATOM
      1 ****        -3.8632  -1.5141   3.2070 C.3            1 S1                 0.0000
      2 ****        -3.1285  -0.5859   2.3745 N.pl3          1 S1                 0.0000
      3 ****        -3.0150  -0.5678   1.0015 C.2            1 S1                 0.0000
      4 ****        -2.2209   0.4940   0.6650 C.2            1 S1                 0.0000
      5 ****        -1.7740   0.9584  -0.7056 C.3            1 S1                 0.0000
      6 ****        -2.3680   2.3455  -1.0033 C.3            1 S1                 0.0000
      7 ****        -2.2480   0.1139  -1.7380 O.3            1 S1                 0.0000
      8 ****        -0.2339   1.0085  -0.8209 C.3            1 S1                 0.0000
      9 ****         0.3925  -0.2523  -0.4125 N.3            1 S1                 0.0000
     10 ****         1.8538  -0.2309  -0.3044 C.3            1 S1                 0.0000
     11 ****         2.5315  -0.0103  -1.6771 C.3            1 S1                 0.0000
     12 ****         4.0647   0.0601  -1.5819 C.3            1 S1                 0.0000
     13 ****         4.6816  -1.2256  -1.0164 C.3            1 S1                 0.0000
     14 ****         4.1085  -1.5308   0.6748 S.3            1 S1                 0.0000
     15 ****         2.3246  -1.5426   0.3499 C.3            1 S1                 0.0000
     16 ****        -1.8998   1.0700   1.9293 C.2            1 S1                 0.0000
     17 ****        -2.4429   0.4234   2.9475 N.2            1 S1                 0.0000
     18 ****        -4.1703  -2.3796   2.6193 H              1 S1                 0.0000
     19 ****        -4.7507  -1.0242   3.6082 H              1 S1                 0.0000
     20 ****        -3.2353  -1.8524   4.0319 H              1 S1                 0.0000
     21 ****        -3.5022  -1.3061   0.3815 H              1 S1                 0.0000
     22 ****        -2.0346   3.0849  -0.2744 H              1 S1                 0.0000
     23 ****        -3.4584   2.3252  -0.9738 H              1 S1                 0.0000
     24 ****        -2.0715   2.7042  -1.9898 H              1 S1                 0.0000
     25 ****        -1.9240   0.4394  -2.5637 H              1 S1                 0.0000
     26 ****         0.0487   1.2720  -1.8399 H              1 S1                 0.0000
     27 ****         0.1371   1.8104  -0.1813 H              1 S1                 0.0000
     28 ****        -0.0095  -0.5566   0.4688 H              1 S1                 0.0000
     29 ****         2.1402   0.5885   0.3566 H              1 S1                 0.0000
     30 ****         2.2439  -0.8070  -2.3646 H              1 S1                 0.0000
     31 ****         2.1871   0.9202  -2.1272 H              1 S1                 0.0000
     32 ****         4.4766   0.2482  -2.5738 H              1 S1                 0.0000
     33 ****         4.3574   0.9104  -0.9648 H              1 S1                 0.0000
     34 ****         4.4228  -2.0807  -1.6415 H              1 S1                 0.0000
     35 ****         5.7693  -1.1512  -1.0089 H              1 S1                 0.0000
     36 ****         1.8108  -1.6996   1.2992 H              1 S1                 0.0000
     37 ****         2.0860  -2.3965  -0.2858 H              1 S1                 0.0000
     38 ****        -1.2871   1.9355   2.1344 H              1 S1                 0.0000
     39 ****        -3.2480   0.1163  -1.7434 LP             1 S1                 0.0000
     40 ****        -1.9176  -0.8182  -1.5898 LP             1 S1                 0.0000
     41 ****         0.1982  -0.8949  -1.1536 LP             1 S1                 0.0000
     42 ****        -2.3630   0.6353   3.9215 LP             1 S1                 0.0000
@<TRIPOS>BOND
    1    1    2 1     
    2    1   18 1     
    3    1   19 1     
    4    1   20 1     
    5    2   17 1     
    6    2    3 1     
    7    3    4 2     
    8    3   21 1     
    9    4    5 1     
   10    4   16 1     
   11    5    6 1     
   12    5    7 1     
   13    5    8 1     
   14    6   22 1     
   15    6   23 1     
   16    6   24 1     
   17    7   25 1     
   18    8    9 1     
   19    8   26 1     
   20    8   27 1     
   21    9   10 1     
   22    9   28 1     
   23   10   15 1     
   24   10   11 1     
   25   10   29 1     
   26   11   12 1     
   27   11   30 1     
   28   11   31 1     
   29   12   13 1     
   30   12   32 1     
   31   12   33 1     
   32   13   14 1     
   33   13   34 1     
   34   13   35 1     
   35   14   15 1     
   36   15   36 1     
   37   15   37 1     
   38   16   17 2     
   39   16   38 1     
   40    7   39 1     
   41    7   40 1     
   42    9   41 1     
   43   17   42 1     
@<TRIPOS>SUBSTRUCTURE
      1 S1             1
@<TRIPOS>SET
LONE_PAIRS      STATIC     ATOMS    <user>   **** ""
4 39 40 41 42
DONOR_HYDROGENS      STATIC     ATOMS    <user>   **** ""
2 25 28
ATOM$BLUE        STATIC     ATOMS    COLORGROUP SYSTEM
4 39 40 41 42
ATOM$RED        STATIC     ATOMS    COLORGROUP SYSTEM
2 25 28
