AV-unprocessed.smi:2999|AV-procd|sdf|11427|dock1
  -GOLD-   2272016353D 1   1.00000     0.00000
 Structure written by MMmdl.
 37 39  0  0  0  0  0  0  0  0  3 V2000
  150.7748  137.2362  159.8063 O   0  0  0  0  0  0  0  0  0  0  0  0
  149.8008  136.8337  159.1660 C   0  0  0  0  0  0  0  0  0  0  0  0
  149.3466  137.5410  158.1214 N   0  0  0  0  0  0  0  0  0  0  0  0
  149.8819  138.8124  157.6410 C   0  0  0  0  0  0  0  0  0  0  0  0
  149.3270  139.2054  156.2579 C   0  0  2  0  0  0  0  0  0  0  0  0
  149.2422  138.0339  155.2511 C   0  0  0  0  0  0  0  0  0  0  0  0
  148.7548  138.4878  153.9283 N   0  3  1  0  0  0  0  0  0  0  0  0
  147.2925  138.7205  153.8855 C   0  0  0  0  0  0  0  0  0  0  0  0
  146.4982  137.5053  153.4669 C   0  0  0  0  0  0  0  0  0  0  0  0
  146.7102  138.6435  152.4937 C   0  0  0  0  0  0  0  0  0  0  0  0
  149.5503  139.6382  153.4382 C   0  0  0  0  0  0  0  0  0  0  0  0
  149.6275  140.7569  154.4939 C   0  0  0  0  0  0  0  0  0  0  0  0
  150.1454  140.2363  155.7123 O   0  0  0  0  0  0  0  0  0  0  0  0
  149.0865  135.7135  159.4134 N   0  5  0  0  0  0  0  0  0  0  0  0
  148.3747  135.6071  160.5473 C   0  0  0  0  0  0  0  0  0  0  0  0
  148.3516  136.5606  161.4856 N   0  0  0  0  0  0  0  0  0  0  0  0
  147.5399  136.2454  162.5771 C   0  0  0  0  0  0  0  0  0  0  0  0
  146.9252  135.0266  162.4636 C   0  0  0  0  0  0  0  0  0  0  0  0
  147.3505  134.2334  160.9738 S   0  0  0  0  0  0  0  0  0  0  0  0
  148.5478  137.1695  157.6282 H   0  0  0  0  0  0  0  0  0  0  0  0
  149.6911  139.6100  158.3606 H   0  0  0  0  0  0  0  0  0  0  0  0
  150.9663  138.7166  157.5832 H   0  0  0  0  0  0  0  0  0  0  0  0
  148.3278  139.6123  156.4200 H   0  0  0  0  0  0  0  0  0  0  0  0
  150.2286  137.5971  155.0953 H   0  0  0  0  0  0  0  0  0  0  0  0
  148.6063  137.2360  155.6362 H   0  0  0  0  0  0  0  0  0  0  0  0
  146.8824  139.4177  154.6134 H   0  0  0  0  0  0  0  0  0  0  0  0
  147.0360  136.5774  153.2806 H   0  0  0  0  0  0  0  0  0  0  0  0
  145.5018  137.3882  153.8882 H   0  0  0  0  0  0  0  0  0  0  0  0
  145.8531  139.2761  152.2725 H   0  0  0  0  0  0  0  0  0  0  0  0
  147.3882  138.4707  151.6597 H   0  0  0  0  0  0  0  0  0  0  0  0
  150.5576  139.2869  153.2110 H   0  0  0  0  0  0  0  0  0  0  0  0
  149.1342  140.0157  152.5034 H   0  0  0  0  0  0  0  0  0  0  0  0
  150.2862  141.5525  154.1457 H   0  0  0  0  0  0  0  0  0  0  0  0
  148.6502  141.2107  154.6632 H   0  0  0  0  0  0  0  0  0  0  0  0
  147.4566  136.9496  163.3915 H   0  0  0  0  0  0  0  0  0  0  0  0
  146.2519  134.5495  163.1596 H   0  0  0  0  0  0  0  0  0  0  0  0
  148.9260  137.7263  153.2869 H   0  0  0  0  0  0  0  0  0  0  0  0
  1  2  2  0  0  0  0
  2  3  1  0  0  0  0
  2 14  1  0  0  0  0
  3  4  1  0  0  0  0
  3 20  1  0  0  0  0
  4  5  1  0  0  0  0
  4 21  1  0  0  0  0
  4 22  1  0  0  0  0
  5 13  1  0  0  0  0
  5  6  1  0  0  0  0
  5 23  1  0  0  0  0
  6  7  1  0  0  0  0
  6 24  1  0  0  0  0
  6 25  1  0  0  0  0
  7  8  1  0  0  0  0
  7 11  1  0  0  0  0
  7 37  1  0  0  0  0
  8 10  1  0  0  0  0
  8  9  1  0  0  0  0
  8 26  1  0  0  0  0
  9 10  1  0  0  0  0
  9 27  1  0  0  0  0
  9 28  1  0  0  0  0
 10 29  1  0  0  0  0
 10 30  1  0  0  0  0
 11 12  1  0  0  0  0
 11 31  1  0  0  0  0
 11 32  1  0  0  0  0
 12 13  1  0  0  0  0
 12 33  1  0  0  0  0
 12 34  1  0  0  0  0
 14 15  1  0  0  0  0
 15 19  1  0  0  0  0
 15 16  2  0  0  0  0
 16 17  1  0  0  0  0
 17 18  2  0  0  0  0
 17 35  1  0  0  0  0
 18 19  1  0  0  0  0
 18 36  1  0  0  0  0
M  CHG  1   7   1
M  CHG  1  14  -1
M  END
> <s_m_source_file>
AV-unprocessed.smi

> <i_m_source_file_index>
2999

> <i_lp_mmshare_version>
43012

> <i_f3d_flags>
0

> <s_epik_input>
czFbY0hdW2NIXW5jMVtOSF1DKD1PKVtOSF1bQ0gyXVtDQEBIXTJbQ0gyXU4oW0NIMl1bQ0gyXU8yKVtDSF0zW0NIMl1bQ0gyXTM=

> <s_epik_cmdline>
J2VwaWtfcHl0aG9uJywgJy1waCcsICc3LjAnLCAnLXRuJywgJzgnLCAnLW1hJywgJzIwMCcsICctbWV0YWxfYmluZGluZycsICctaW1hZScsICc8aW5maWxlLm1hZT4nLCAnLW9tYWUnLCAnPG91dGZpbGUubWFlPic=

> <r_lp_tautomer_probability>
0.999

> <r_epik_Ionization_Penalty>
7.79196

> <r_epik_Ionization_Penalty_Charging>
6.93299

> <r_epik_Ionization_Penalty_Neutral>
0.858963

> <r_epik_State_Penalty>
7.05108

> <r_epik_Charging_Adjusted_Penalty>
13.9841

> <i_epik_Tot_Q>
0

> <i_epik_Tot_abs_Q>
2

> <r_epik_Metal_State_Penalty>
3.05936

> <b_epik_Metal_Only>
1

> <s_lp_Force_Field>
OPLS_2005

> <r_lp_Energy>
16.1762

> <b_lp_Chiralities_Consistent>
1

> <s_lp_Variant>
AV-unprocessed.smi:2999-11

> <Gold.Version>
5.8.1

> <Gold.Id.Protein>
6NUR|6NUR_protein|mol2

> <Gold.PLP.Fitness>
39.7846

> <Gold.PLP.PLP>
-26.3624

> <Gold.PLP.part.hbond>
-4.0418

> <Gold.PLP.part.metal>
0.0000

> <Gold.PLP.part.buried>
1.2613

> <Gold.PLP.part.nonpolar>
-24.3446

> <Gold.PLP.part.repulsive>
0.1759

> <Gold.PLP.ligand.clash>
0.0000

> <Gold.PLP.ligand.torsion>
1.4650

> <Gold.PLP.Chemscore.Hbond>
5.0000

> <Gold.PLP.Chemscore.CHOScore>
0.0000

> <Gold.PLP.Chemscore.Metal>
0.0000

> <Gold.Chemscore.Hbonds>
donor molecule, donor type, donor heavy atom, donor atom, acceptor molecule, acceptor atom, score
      L1  H     7    37       P1  7948  1.92
      P1  H  6896  6909       L1    14  1.20
      P1  H  6931  6943       L1    16  1.00

> <Gold.PLP.Chemscore.Internal.Correction>
1.3522

> <Gold.Rescore>
     Score         DG    S(hbond)    S(metal)    S(lipo)     H(rot)  DE(clash)    DE(int)     intcor
     13.44     -16.83       2.53        0.00      58.79       1.55       1.84       1.55       ----

> <Gold.Chemscore.Fitness>
13.4385

> <Gold.Chemscore.DG>
-16.8295

> <Gold.Chemscore.ZeroCoef>
-5.4800

> <Gold.Chemscore.Hbond>
2.5270

> <Gold.Chemscore.Metal>
0.0000

> <Gold.Chemscore.Lipo>
58.7898

> <Gold.Chemscore.Internal_Hbond>
0.0000

> <Gold.Chemscore.DEClash>
1.8421

> <Gold.Chemscore.DEInternal>
1.5489

> <Gold.Chemscore.Rot>
1.5504

> <Gold.Chemscore.Internal.Correction>
   9.000000E+99

> <Gold.Chemscore.Hbonds>
donor molecule, donor type, donor heavy atom, donor atom, acceptor molecule, acceptor atom, score
      L1  H     7    37       P1  7948  0.91
      P1  H  6896  6909       L1    14  0.03
      P1  H  6931  6943       L1    16  0.45

> <Gold.Chemscore.Hbond.Weighted>
-8.4401

> <Gold.Chemscore.Metal.Weighted>
-0.0000

> <Gold.Chemscore.Lipo.Weighted>
-6.8784

> <Gold.Chemscore.Internal_Hbond.Weighted>
0.0000

> <Gold.Chemscore.DEClash.Weighted>
1.8421

> <Gold.Chemscore.DEInternal.Weighted>
1.5489

> <Gold.Chemscore.Rot.Weighted>
3.9690

> <Gold.Chemscore.Internal.Correction.Weighted>
   9.000000E+99

> <Gold.Protein.RotatedTorsions>
[ 6907 6896 6895 6894 ] final   54.73 input  -60.11 | X-H torsion
[ 7974 7965 7964 7962 ] final  179.27 input  175.53 | X-H torsion
[ 8008 7997 7996 7995 ] final  152.89 input   59.86 | X-H torsion
[ 10167 10162 10161 10158 ] final  -39.08 input  -65.29 | X-H torsion
[ 10718 10713 10712 10709 ] final   18.12 input   66.30 | X-H torsion
[ 10763 10752 10751 10750 ] final -130.98 input  -60.55 | X-H torsion
[ 11005 11000 10999 10996 ] final  -67.29 input  -57.11 | X-H torsion

> <Gold.Protein.ActiveResidues>
 VAL166  LYS551  ARG553  GLY616  TRP617  ASP618  TYR619  PRO620  LYS621  CYS622 
 ASP623  PHE694  ASN695  SER759  ASP760  ASP761  ALA762  ILE779  LEU786  VAL792 
 PHE793  MET794  SER795  GLU796  ALA797  LYS798  CYS799  TRP800  GLU811  SER814 

> <Gold.Protein.RotatedAtoms>
  152.3468  134.7060  160.0247 H   0  0  0  0  0  0  0  0  0  0  0  0  # atno 6907 bound_to 6896
  151.7427  133.3317  159.3378 H   0  0  0  0  0  0  0  0  0  0  0  0  # atno 6908 bound_to 6896
  150.7514  134.6196  159.6174 H   0  0  0  0  0  0  0  0  0  0  0  0  # atno 6909 bound_to 6896
  144.7147  140.0523  143.6435 H   0  0  0  0  0  0  0  0  0  0  0  0  # atno 7974 bound_to 7965
  156.2608  140.2008  156.6404 H   0  0  0  0  0  0  0  0  0  0  0  0  # atno 8008 bound_to 7997
  154.6614  140.0560  157.0091 H   0  0  0  0  0  0  0  0  0  0  0  0  # atno 8009 bound_to 7997
  155.1271  140.3230  155.4486 H   0  0  0  0  0  0  0  0  0  0  0  0  # atno 8010 bound_to 7997
  140.7074  143.3236  151.2732 H   0  0  0  0  0  0  0  0  0  0  0  0  # atno 10167 bound_to 10162
  157.0919  130.6431  149.5851 H   0  0  0  0  0  0  0  0  0  0  0  0  # atno 10718 bound_to 10713
  154.8753  135.3845  154.4172 H   0  0  0  0  0  0  0  0  0  0  0  0  # atno 10763 bound_to 10752
  153.4879  135.7030  153.5906 H   0  0  0  0  0  0  0  0  0  0  0  0  # atno 10764 bound_to 10752
  153.4292  135.3882  155.2127 H   0  0  0  0  0  0  0  0  0  0  0  0  # atno 10765 bound_to 10752
  141.1504  133.6716  156.6270 H   0  0  0  0  0  0  0  0  0  0  0  0  # atno 11005 bound_to 11000
  145.9934  139.3033  143.0971 LP  0  0  0  0  0  0  0  0  0  0  0  0  # atno 17320 bound_to 7965
  145.8877  140.9323  143.0568 LP  0  0  0  0  0  0  0  0  0  0  0  0  # atno 17321 bound_to 7965
  139.6698  144.0041  152.2746 LP  0  0  0  0  0  0  0  0  0  0  0  0  # atno 17342 bound_to 10162
  139.9635  144.6541  150.8056 LP  0  0  0  0  0  0  0  0  0  0  0  0  # atno 17343 bound_to 10162
  155.9896  130.4944  150.7220 LP  0  0  0  0  0  0  0  0  0  0  0  0  # atno 17370 bound_to 10713
  157.4714  131.0893  151.0638 LP  0  0  0  0  0  0  0  0  0  0  0  0  # atno 17371 bound_to 10713
  140.3496  134.7780  157.4457 LP  0  0  0  0  0  0  0  0  0  0  0  0  # atno 17394 bound_to 11000
  140.0872  134.5651  155.8481 LP  0  0  0  0  0  0  0  0  0  0  0  0  # atno 17395 bound_to 11000

$$$$
