#       Name:                AV-unprocessed.smi:53
#       Creating user name   scv26
#       Creation time:       Thu Mar 26 16:39:02 2020


#       File generated by GOLD software.
#

@<TRIPOS>MOLECULE
AV-unprocessed.smi:53
    41    42     1
SMALL
NO_CHARGES


@<TRIPOS>ATOM
      1 ****        -4.7145  -0.4694  -0.2001 N.pl3          1 S1                 0.0000
      2 ****        -3.3837  -0.5601  -0.3304 C.2            1 S1                 0.0000
      3 ****        -2.6555   0.4288  -1.0899 C.2            1 S1                 0.0000
      4 ****        -1.3155   0.2742  -1.1665 C.2            1 S1                 0.0000
      5 ****        -0.6429  -0.7552  -0.5153 N.am           1 S1                 0.0000
      6 ****         0.8627  -0.9394  -0.6524 C.3            1 S1                 0.0000
      7 ****         1.4188   0.2029  -1.2436 O.3            1 S1                 0.0000
      8 ****         2.0882   1.0225  -0.2864 C.3            1 S1                 0.0000
      9 ****         1.1121   2.0281   0.3680 C.3            1 S1                 0.0000
     10 ****         0.8100   3.0652  -0.5408 O.3            1 S1                 0.0000
     11 ****         2.6643  -0.0356   0.6600 C.3            1 S1                 0.0000
     12 ****         2.9635   0.4697   1.9466 O.3            1 S1                 0.0000
     13 ****         1.5807  -1.1059   0.7111 C.3            1 S1                 0.0000
     14 ****         2.1911  -2.3755   0.8400 O.3            1 S1                 0.0000
     15 ****        -1.3988  -1.7465   0.1611 C.2            1 S1                 0.0000
     16 ****        -0.8735  -2.7417   0.6571 O.2            1 S1                 0.0000
     17 ****        -2.7544  -1.5709   0.2347 N.2            1 S1                 0.0000
     18 ****         0.9710  -1.7910  -1.3267 H              1 S1                 0.0000
     19 ****         2.8996   1.5702  -0.7678 H              1 S1                 0.0000
     20 ****         3.5752  -0.4390   0.2139 H              1 S1                 0.0000
     21 ****         0.8891  -0.9143   1.5332 H              1 S1                 0.0000
     22 ****        -5.2212  -1.1677   0.3240 H              1 S1                 0.0000
     23 ****        -5.2085   0.3011  -0.6271 H              1 S1                 0.0000
     24 ****        -3.1282   1.2649  -1.5851 H              1 S1                 0.0000
     25 ****        -0.7770   1.0024  -1.7540 H              1 S1                 0.0000
     26 ****         0.2004   1.5554   0.7300 H              1 S1                 0.0000
     27 ****         1.5776   2.5058   1.2299 H              1 S1                 0.0000
     28 ****         0.2406   3.6846  -0.1106 H              1 S1                 0.0000
     29 ****         3.2656  -0.2462   2.4850 H              1 S1                 0.0000
     30 ****         2.7630  -2.5107   0.1001 H              1 S1                 0.0000
     31 ****         0.6876   0.7351  -1.6704 LP             1 S1                 0.0000
     32 ****         2.0756  -0.0812  -1.9421 LP             1 S1                 0.0000
     33 ****         0.3507   2.6865  -1.3443 LP             1 S1                 0.0000
     34 ****         1.6533   3.5223  -0.8235 LP             1 S1                 0.0000
     35 ****         2.1425   0.8731   2.3505 LP             1 S1                 0.0000
     36 ****         3.6780   1.1660   1.8784 LP             1 S1                 0.0000
     37 ****         1.4887  -3.0870   0.8576 LP             1 S1                 0.0000
     38 ****         2.7217  -2.4100   1.6869 LP             1 S1                 0.0000
     39 ****         0.1159  -2.8707   0.5901 LP             1 S1                 0.0000
     40 ****        -1.4357  -3.4219   1.1274 LP             1 S1                 0.0000
     41 ****        -3.2938  -2.2427   0.7423 LP             1 S1                 0.0000
@<TRIPOS>BOND
    1    1    2 1     
    2    1   22 1     
    3    1   23 1     
    4    2   17 2     
    5    2    3 1     
    6    3    4 2     
    7    3   24 1     
    8    4    5 1     
    9    4   25 1     
   10    5    6 1     
   11    5   15 am    
   12    6   18 1     
   13    6   13 1     
   14    6    7 1     
   15    7    8 1     
   16    8   19 1     
   17    8    9 1     
   18    8   11 1     
   19    9   10 1     
   20    9   26 1     
   21    9   27 1     
   22   10   28 1     
   23   11   20 1     
   24   11   12 1     
   25   11   13 1     
   26   12   29 1     
   27   13   21 1     
   28   13   14 1     
   29   14   30 1     
   30   15   16 2     
   31   15   17 1     
   32    7   31 1     
   33    7   32 1     
   34   10   33 1     
   35   10   34 1     
   36   12   35 1     
   37   12   36 1     
   38   14   37 1     
   39   14   38 1     
   40   16   39 1     
   41   16   40 1     
   42   17   41 1     
@<TRIPOS>SUBSTRUCTURE
      1 S1             1
@<TRIPOS>SET
LONE_PAIRS      STATIC     ATOMS    <user>   **** ""
11 31 32 33 34 35 36 37 38 39 40 41
DONOR_HYDROGENS      STATIC     ATOMS    <user>   **** ""
5 22 23 28 29 30
ATOM$BLUE        STATIC     ATOMS    COLORGROUP SYSTEM
11 31 32 33 34 35 36 37 38 39 40 41
ATOM$RED        STATIC     ATOMS    COLORGROUP SYSTEM
5 22 23 28 29 30
