#       Name:                AV-unprocessed.smi:734
#       Creating user name   scv26
#       Creation time:       Fri Mar 27 00:52:28 2020


#       File generated by GOLD software.
#

@<TRIPOS>MOLECULE
AV-unprocessed.smi:734
    43    44     1
SMALL
NO_CHARGES


@<TRIPOS>ATOM
      1 ****        -5.9262   1.6435   0.2256 C.3            1 S1                 0.0000
      2 ****        -5.4138   1.0162  -1.0791 C.3            1 S1                 0.0000
      3 ****        -6.3844  -0.0154  -1.6729 C.3            1 S1                 0.0000
      4 ****        -4.0274   0.4693  -0.9362 C.2            1 S1                 0.0000
      5 ****        -3.7247  -0.5451  -0.1147 N.2            1 S1                 0.0000
      6 ****        -2.3780  -0.8752  -0.1564 N.2            1 S1                 0.0000
      7 ****        -1.6998  -0.1008  -1.0138 C.2            1 S1                 0.0000
      8 ****        -0.3046  -0.2225  -1.2516 N.am           1 S1                 0.0000
      9 ****         0.5514  -1.1207  -0.7329 C.2            1 S1                 0.0000
     10 ****         0.2517  -2.0204   0.0520 O.2            1 S1                 0.0000
     11 ****         1.8001  -0.9198  -1.1786 N.am           1 S1                 0.0000
     12 ****         2.9543  -1.7531  -0.8478 C.3            1 S1                 0.0000
     13 ****         3.3978  -1.6364   0.6268 C.3            1 S1                 0.0000
     14 ****         3.5294  -0.2325   1.0838 N.4            1 S1                 1.0000
     15 ****         4.6070   0.5485   0.4124 C.3            1 S1                 0.0000
     16 ****         5.1572   1.3973   1.5235 C.2            1 S1                 0.0000
     17 ****         4.6428   1.0520   2.6986 C.2            1 S1                 0.0000
     18 ****         3.6666  -0.0822   2.5594 C.3            1 S1                 0.0000
     19 ****        -2.6608   1.1117  -1.8422 S.3            1 S1                 0.0000
     20 ****        -5.2530   2.4267   0.5755 H              1 S1                 0.0000
     21 ****        -6.0113   0.8984   1.0174 H              1 S1                 0.0000
     22 ****        -6.9100   2.0919   0.0856 H              1 S1                 0.0000
     23 ****        -5.3502   1.8287  -1.8040 H              1 S1                 0.0000
     24 ****        -6.0314  -0.3749  -2.6401 H              1 S1                 0.0000
     25 ****        -7.3740   0.4170  -1.8224 H              1 S1                 0.0000
     26 ****        -6.4959  -0.8795  -1.0170 H              1 S1                 0.0000
     27 ****         0.0829   0.4478  -1.8991 H              1 S1                 0.0000
     28 ****         1.9567  -0.1617  -1.8273 H              1 S1                 0.0000
     29 ****         2.7366  -2.7940  -1.0917 H              1 S1                 0.0000
     30 ****         3.7733  -1.4544  -1.5024 H              1 S1                 0.0000
     31 ****         2.6620  -2.1334   1.2603 H              1 S1                 0.0000
     32 ****         4.3387  -2.1665   0.7808 H              1 S1                 0.0000
     33 ****         5.3981  -0.0913   0.0185 H              1 S1                 0.0000
     34 ****         4.2016   1.1575  -0.3958 H              1 S1                 0.0000
     35 ****         5.8952   2.1690   1.3598 H              1 S1                 0.0000
     36 ****         4.8921   1.4959   3.6514 H              1 S1                 0.0000
     37 ****         2.7061   0.1538   3.0182 H              1 S1                 0.0000
     38 ****         4.0788  -0.9766   3.0289 H              1 S1                 0.0000
     39 ****         2.6640   0.2322   0.8490 H              1 S1                 0.0000
     40 ****        -4.3942  -1.0117   0.4633 LP             1 S1                 0.0000
     41 ****        -1.9631  -1.6040   0.3883 LP             1 S1                 0.0000
     42 ****        -0.6959  -2.1260   0.3533 LP             1 S1                 0.0000
     43 ****         0.9559  -2.6457   0.3882 LP             1 S1                 0.0000
@<TRIPOS>BOND
    1    1    2 1     
    2    1   20 1     
    3    1   21 1     
    4    1   22 1     
    5    2    3 1     
    6    2    4 1     
    7    2   23 1     
    8    3   24 1     
    9    3   25 1     
   10    3   26 1     
   11    4   19 1     
   12    4    5 2     
   13    5    6 1     
   14    6    7 2     
   15    7    8 1     
   16    7   19 1     
   17    8    9 am    
   18    8   27 1     
   19    9   10 2     
   20    9   11 am    
   21   11   12 1     
   22   11   28 1     
   23   12   13 1     
   24   12   29 1     
   25   12   30 1     
   26   13   14 1     
   27   13   31 1     
   28   13   32 1     
   29   14   18 1     
   30   14   15 1     
   31   14   39 1     
   32   15   16 1     
   33   15   33 1     
   34   15   34 1     
   35   16   17 2     
   36   16   35 1     
   37   17   18 1     
   38   17   36 1     
   39   18   37 1     
   40   18   38 1     
   41    5   40 1     
   42    6   41 1     
   43   10   42 1     
   44   10   43 1     
@<TRIPOS>SUBSTRUCTURE
      1 S1             1
@<TRIPOS>SET
LONE_PAIRS      STATIC     ATOMS    <user>   **** ""
4 40 41 42 43
DONOR_HYDROGENS      STATIC     ATOMS    <user>   **** ""
3 27 28 39
ATOM$BLUE        STATIC     ATOMS    COLORGROUP SYSTEM
4 40 41 42 43
ATOM$RED        STATIC     ATOMS    COLORGROUP SYSTEM
3 27 28 39
