AV-unprocessed.smi:863|AV-procd|sdf|3985|dock5
  -GOLD-   22720 1463D 1   1.00000     0.00000
 Structure written by MMmdl.
 42 44  0  0  0  0  0  0  0  0  1 V2000
  146.6935  138.4571  154.3174 O   0  0  0  0  0  0  0  0  0  0  0  0
  147.2737  138.6516  153.2491 C   0  0  0  0  0  0  0  0  0  0  0  0
  146.4968  138.5839  151.9340 C   0  0  0  0  0  0  0  0  0  0  0  0
  145.7252  137.2944  151.8541 C   0  0  0  0  0  0  0  0  0  0  0  0
  145.8926  136.2205  150.9357 C   0  0  0  0  0  0  0  0  0  0  0  0
  144.9397  135.3213  151.3185 C   0  0  0  0  0  0  0  0  0  0  0  0
  144.2421  135.7923  152.3829 O   0  0  0  0  0  0  0  0  0  0  0  0
  144.7521  137.0514  152.7197 N   0  0  0  0  0  0  0  0  0  0  0  0
  148.5848  138.9250  153.1568 N   0  0  0  0  0  0  0  0  0  0  0  0
  149.5078  139.0167  154.2839 C   0  0  1  0  0  0  0  0  0  0  0  0
  150.9278  138.6197  153.8565 C   0  0  0  0  0  0  0  0  0  0  0  0
  151.9211  138.8509  155.0030 C   0  0  0  0  0  0  0  0  0  0  0  0
  151.8565  140.2012  155.4580 O   0  0  0  0  0  0  0  0  0  0  0  0
  150.5852  140.6549  155.9415 C   0  0  0  0  0  0  0  0  0  0  0  0
  150.1816  139.9386  157.2594 C   0  0  0  0  0  0  0  0  0  0  0  0
  151.1723  140.2121  158.4029 C   0  0  0  0  0  0  0  0  0  0  0  0
  151.3254  141.7177  158.6564 C   0  0  0  0  0  0  0  0  0  0  0  0
  151.7385  142.4498  157.3723 C   0  0  0  0  0  0  0  0  0  0  0  0
  150.7549  142.1663  156.2232 C   0  0  0  0  0  0  0  0  0  0  0  0
  149.5304  140.4547  154.8254 C   0  0  0  0  0  0  0  0  0  0  0  0
  145.8178  139.4352  151.8739 H   0  0  0  0  0  0  0  0  0  0  0  0
  147.1871  138.6810  151.0945 H   0  0  0  0  0  0  0  0  0  0  0  0
  146.5989  136.1272  150.1241 H   0  0  0  0  0  0  0  0  0  0  0  0
  144.6477  134.3483  150.9521 H   0  0  0  0  0  0  0  0  0  0  0  0
  148.9748  139.0666  152.2359 H   0  0  0  0  0  0  0  0  0  0  0  0
  149.1675  138.3465  155.0748 H   0  0  0  0  0  0  0  0  0  0  0  0
  150.9567  137.5748  153.5455 H   0  0  0  0  0  0  0  0  0  0  0  0
  151.2335  139.2114  152.9925 H   0  0  0  0  0  0  0  0  0  0  0  0
  151.7420  138.1548  155.8218 H   0  0  0  0  0  0  0  0  0  0  0  0
  152.9355  138.6554  154.6550 H   0  0  0  0  0  0  0  0  0  0  0  0
  149.1928  140.2841  157.5641 H   0  0  0  0  0  0  0  0  0  0  0  0
  150.0811  138.8634  157.1212 H   0  0  0  0  0  0  0  0  0  0  0  0
  150.8330  139.7165  159.3127 H   0  0  0  0  0  0  0  0  0  0  0  0
  152.1433  139.7787  158.1600 H   0  0  0  0  0  0  0  0  0  0  0  0
  150.3827  142.1253  159.0235 H   0  0  0  0  0  0  0  0  0  0  0  0
  152.0643  141.8912  159.4390 H   0  0  0  0  0  0  0  0  0  0  0  0
  151.7906  143.5229  157.5588 H   0  0  0  0  0  0  0  0  0  0  0  0
  152.7432  142.1401  157.0820 H   0  0  0  0  0  0  0  0  0  0  0  0
  151.0951  142.6797  155.3230 H   0  0  0  0  0  0  0  0  0  0  0  0
  149.7859  142.6015  156.4724 H   0  0  0  0  0  0  0  0  0  0  0  0
  149.7532  141.1344  154.0010 H   0  0  0  0  0  0  0  0  0  0  0  0
  148.5408  140.7354  155.1885 H   0  0  0  0  0  0  0  0  0  0  0  0
  1  2  2  0  0  0  0
  2  3  1  0  0  0  0
  2  9  1  0  0  0  0
  3  4  1  0  0  0  0
  3 21  1  0  0  0  0
  3 22  1  0  0  0  0
  4  8  2  0  0  0  0
  4  5  1  0  0  0  0
  5  6  2  0  0  0  0
  5 23  1  0  0  0  0
  6  7  1  0  0  0  0
  6 24  1  0  0  0  0
  7  8  1  0  0  0  0
  9 10  1  0  0  0  0
  9 25  1  0  0  0  0
 10 20  1  0  0  0  0
 10 11  1  0  0  0  0
 10 26  1  0  0  0  0
 11 12  1  0  0  0  0
 11 27  1  0  0  0  0
 11 28  1  0  0  0  0
 12 13  1  0  0  0  0
 12 29  1  0  0  0  0
 12 30  1  0  0  0  0
 13 14  1  0  0  0  0
 14 19  1  0  0  0  0
 14 15  1  0  0  0  0
 14 20  1  0  0  0  0
 15 16  1  0  0  0  0
 15 31  1  0  0  0  0
 15 32  1  0  0  0  0
 16 17  1  0  0  0  0
 16 33  1  0  0  0  0
 16 34  1  0  0  0  0
 17 18  1  0  0  0  0
 17 35  1  0  0  0  0
 17 36  1  0  0  0  0
 18 19  1  0  0  0  0
 18 37  1  0  0  0  0
 18 38  1  0  0  0  0
 19 39  1  0  0  0  0
 19 40  1  0  0  0  0
 20 41  1  0  0  0  0
 20 42  1  0  0  0  0
M  END
> <s_m_source_file>
AV-unprocessed.smi

> <i_m_source_file_index>
863

> <i_lp_mmshare_version>
43012

> <i_f3d_flags>
0

> <s_epik_input>
bjFvW2NIXVtjSF1jMVtDSDJdQyg9TylbTkhdW0NAQEhdKFtDSDJdMilbQ0gyXVtDSDJdT0MyM1tDSDJdW0NIMl1bQ0gyXVtDSDJdW0NIMl0z

> <s_epik_cmdline>
J2VwaWtfcHl0aG9uJywgJy1waCcsICc3LjAnLCAnLXRuJywgJzgnLCAnLW1hJywgJzIwMCcsICctbWV0YWxfYmluZGluZycsICctaW1hZScsICc8aW5maWxlLm1hZT4nLCAnLW9tYWUnLCAnPG91dGZpbGUubWFlPic=

> <r_lp_tautomer_probability>
1

> <r_epik_Ionization_Penalty>
1.10177e-07

> <r_epik_Ionization_Penalty_Charging>
0

> <r_epik_Ionization_Penalty_Neutral>
1.10177e-07

> <r_epik_State_Penalty>
-0

> <r_epik_Charging_Adjusted_Penalty>
0

> <i_epik_Tot_Q>
0

> <i_epik_Tot_abs_Q>
0

> <r_epik_Metal_State_Penalty>
-0

> <b_epik_Metal_Only>
0

> <s_lp_Force_Field>
OPLS_2005

> <r_lp_Energy>
15.5582

> <b_lp_Chiralities_Consistent>
1

> <s_lp_Variant>
AV-unprocessed.smi:863-2

> <Gold.Version>
5.8.1

> <Gold.Id.Protein>
6NUR|6NUR_protein|mol2

> <Gold.PLP.Fitness>
38.2561

> <Gold.PLP.PLP>
-35.0672

> <Gold.PLP.part.hbond>
-2.8870

> <Gold.PLP.part.metal>
0.0000

> <Gold.PLP.part.buried>
-2.8129

> <Gold.PLP.part.nonpolar>
-29.9200

> <Gold.PLP.part.repulsive>
0.5116

> <Gold.PLP.ligand.clash>
0.0000

> <Gold.PLP.ligand.torsion>
0.4574

> <Gold.PLP.Chemscore.Hbond>
1.3676

> <Gold.PLP.Chemscore.CHOScore>
0.0000

> <Gold.PLP.Chemscore.Metal>
0.0000

> <Gold.Chemscore.Hbonds>
donor molecule, donor type, donor heavy atom, donor atom, acceptor molecule, acceptor atom, score
      L1  H     9    25       P1  7957  1.00
      P1  H  7989  7998       L1    13  0.37

> <Gold.PLP.Chemscore.Internal.Correction>
0.0009

> <Gold.Rescore>
     Score         DG    S(hbond)    S(metal)    S(lipo)     H(rot)  DE(clash)    DE(int)     intcor
     14.16     -16.70       0.98        0.00      98.88       1.42       0.84       1.70       ----

> <Gold.Chemscore.Fitness>
14.1571

> <Gold.Chemscore.DG>
-16.6955

> <Gold.Chemscore.ZeroCoef>
-5.4800

> <Gold.Chemscore.Hbond>
0.9799

> <Gold.Chemscore.Metal>
0.0000

> <Gold.Chemscore.Lipo>
98.8759

> <Gold.Chemscore.Internal_Hbond>
0.0000

> <Gold.Chemscore.DEClash>
0.8352

> <Gold.Chemscore.DEInternal>
1.7031

> <Gold.Chemscore.Rot>
1.4164

> <Gold.Chemscore.Internal.Correction>
   9.000000E+99

> <Gold.Chemscore.Hbonds>
donor molecule, donor type, donor heavy atom, donor atom, acceptor molecule, acceptor atom, score
      L1  H     9    25       P1  7957  0.90

> <Gold.Chemscore.Hbond.Weighted>
-3.2729

> <Gold.Chemscore.Metal.Weighted>
-0.0000

> <Gold.Chemscore.Lipo.Weighted>
-11.5685

> <Gold.Chemscore.Internal_Hbond.Weighted>
0.0000

> <Gold.Chemscore.DEClash.Weighted>
0.8352

> <Gold.Chemscore.DEInternal.Weighted>
1.7031

> <Gold.Chemscore.Rot.Weighted>
3.6259

> <Gold.Chemscore.Internal.Correction.Weighted>
   9.000000E+99

> <Gold.Protein.RotatedTorsions>
[ 6907 6896 6895 6894 ] final -129.32 input  -60.11 | X-H torsion
[ 7974 7965 7964 7962 ] final -162.96 input  175.53 | X-H torsion
[ 8008 7997 7996 7995 ] final  152.04 input   59.86 | X-H torsion
[ 10167 10162 10161 10158 ] final -141.70 input  -65.29 | X-H torsion
[ 10718 10713 10712 10709 ] final -127.20 input   66.30 | X-H torsion
[ 10763 10752 10751 10750 ] final   17.37 input  -60.55 | X-H torsion
[ 11005 11000 10999 10996 ] final -166.49 input  -57.11 | X-H torsion

> <Gold.Protein.ActiveResidues>
 VAL166  LYS551  ARG553  GLY616  TRP617  ASP618  TYR619  PRO620  LYS621  CYS622 
 ASP623  PHE694  ASN695  SER759  ASP760  ASP761  ALA762  ILE779  LEU786  VAL792 
 PHE793  MET794  SER795  GLU796  ALA797  LYS798  CYS799  TRP800  GLU811  SER814 

> <Gold.Protein.RotatedAtoms>
  150.9275  133.6807  159.2817 H   0  0  0  0  0  0  0  0  0  0  0  0  # atno 6907 bound_to 6896
  151.4240  135.1000  159.9632 H   0  0  0  0  0  0  0  0  0  0  0  0  # atno 6908 bound_to 6896
  152.5010  133.8720  159.7358 H   0  0  0  0  0  0  0  0  0  0  0  0  # atno 6909 bound_to 6896
  144.7341  140.3177  143.6176 H   0  0  0  0  0  0  0  0  0  0  0  0  # atno 7974 bound_to 7965
  156.2647  140.2031  156.6270 H   0  0  0  0  0  0  0  0  0  0  0  0  # atno 8008 bound_to 7997
  154.6712  140.0550  157.0192 H   0  0  0  0  0  0  0  0  0  0  0  0  # atno 8009 bound_to 7997
  155.1134  140.3217  155.4518 H   0  0  0  0  0  0  0  0  0  0  0  0  # atno 8010 bound_to 7997
  139.8159  143.7639  152.2665 H   0  0  0  0  0  0  0  0  0  0  0  0  # atno 10167 bound_to 10162
  156.1835  130.6748  151.0335 H   0  0  0  0  0  0  0  0  0  0  0  0  # atno 10718 bound_to 10713
  153.1345  135.6747  153.9124 H   0  0  0  0  0  0  0  0  0  0  0  0  # atno 10763 bound_to 10752
  153.8600  135.3082  155.3438 H   0  0  0  0  0  0  0  0  0  0  0  0  # atno 10764 bound_to 10752
  154.7736  135.4926  153.9781 H   0  0  0  0  0  0  0  0  0  0  0  0  # atno 10765 bound_to 10752
  140.5639  134.5306  157.5148 H   0  0  0  0  0  0  0  0  0  0  0  0  # atno 11005 bound_to 11000
  145.7600  139.1821  143.2272 LP  0  0  0  0  0  0  0  0  0  0  0  0  # atno 17320 bound_to 7965
  146.0994  140.7562  142.9557 LP  0  0  0  0  0  0  0  0  0  0  0  0  # atno 17321 bound_to 7965
  139.7802  144.7447  151.0098 LP  0  0  0  0  0  0  0  0  0  0  0  0  # atno 17342 bound_to 10162
  140.7816  143.4550  151.0359 LP  0  0  0  0  0  0  0  0  0  0  0  0  # atno 17343 bound_to 10162
  157.6884  131.0818  150.7178 LP  0  0  0  0  0  0  0  0  0  0  0  0  # atno 17370 bound_to 10713
  156.7235  130.4688  149.5517 LP  0  0  0  0  0  0  0  0  0  0  0  0  # atno 17371 bound_to 10713
  139.9394  134.7814  156.0717 LP  0  0  0  0  0  0  0  0  0  0  0  0  # atno 17394 bound_to 11000
  141.1098  133.6647  156.2950 LP  0  0  0  0  0  0  0  0  0  0  0  0  # atno 17395 bound_to 11000

$$$$
