AV-unprocessed.smi:2414|AV-procd|sdf|9541|dock3
  -GOLD-   2272013173D 1   1.00000     0.00000
 Structure written by MMmdl.
 43 44  0  0  0  0  0  0  0  0  1 V2000
  152.0793  139.9432  155.4819 C   0  0  0  0  0  0  0  0  0  0  0  0
  150.7362  139.6129  154.9242 C   0  0  0  0  0  0  0  0  0  0  0  0
  150.2507  138.3729  154.5911 C   0  0  0  0  0  0  0  0  0  0  0  0
  148.9466  138.3925  154.0916 N   0  0  0  0  0  0  0  0  0  0  0  0
  148.4366  139.6266  154.0406 C   0  0  0  0  0  0  0  0  0  0  0  0
  147.0583  139.9378  153.5476 C   0  0  1  0  0  0  0  0  0  0  0  0
  146.7531  141.4436  153.6315 C   0  0  0  0  0  0  0  0  0  0  0  0
  146.7992  139.3156  152.1585 C   0  0  0  0  0  0  0  0  0  0  0  0
  146.9249  137.8619  152.1623 N   0  0  0  0  0  0  0  0  0  0  0  0
  145.8995  137.0018  152.2224 C   0  0  0  0  0  0  0  0  0  0  0  0
  144.7187  137.3395  152.3089 O   0  0  0  0  0  0  0  0  0  0  0  0
  146.3159  135.7310  152.1667 N   0  0  0  0  0  0  0  0  0  0  0  0
  145.4405  134.5649  152.1908 C   0  0  0  0  0  0  0  0  0  0  0  0
  146.2312  133.2515  152.0055 C   0  0  2  0  0  0  0  0  0  0  0  0
  147.5221  133.2192  152.8455 C   0  0  0  0  0  0  0  0  0  0  0  0
  146.5184  132.9842  150.5165 C   0  0  0  0  0  0  0  0  0  0  0  0
  145.3975  132.0551  150.1043 C   0  0  0  0  0  0  0  0  0  0  0  0
  145.2152  131.2348  151.3715 C   0  0  0  0  0  0  0  0  0  0  0  0
  145.3849  132.1763  152.4231 O   0  0  0  0  0  0  0  0  0  0  0  0
  149.5535  140.8583  154.6184 S   0  0  0  0  0  0  0  0  0  0  0  0
  152.8464  139.2927  155.0609 H   0  0  0  0  0  0  0  0  0  0  0  0
  152.0878  139.8185  156.5648 H   0  0  0  0  0  0  0  0  0  0  0  0
  152.3550  140.9741  155.2585 H   0  0  0  0  0  0  0  0  0  0  0  0
  150.7630  137.4258  154.6768 H   0  0  0  0  0  0  0  0  0  0  0  0
  146.3753  139.4503  154.2446 H   0  0  0  0  0  0  0  0  0  0  0  0
  146.9079  141.8166  154.6443 H   0  0  0  0  0  0  0  0  0  0  0  0
  145.7196  141.6603  153.3614 H   0  0  0  0  0  0  0  0  0  0  0  0
  147.3982  142.0155  152.9638 H   0  0  0  0  0  0  0  0  0  0  0  0
  145.7923  139.5630  151.8211 H   0  0  0  0  0  0  0  0  0  0  0  0
  147.4824  139.7396  151.4202 H   0  0  0  0  0  0  0  0  0  0  0  0
  147.8592  137.4855  152.0949 H   0  0  0  0  0  0  0  0  0  0  0  0
  147.3072  135.5525  152.0975 H   0  0  0  0  0  0  0  0  0  0  0  0
  144.9041  134.5561  153.1405 H   0  0  0  0  0  0  0  0  0  0  0  0
  144.6878  134.6481  151.4047 H   0  0  0  0  0  0  0  0  0  0  0  0
  148.1958  134.0279  152.5609 H   0  0  0  0  0  0  0  0  0  0  0  0
  148.0567  132.2788  152.7097 H   0  0  0  0  0  0  0  0  0  0  0  0
  147.3151  133.3188  153.9112 H   0  0  0  0  0  0  0  0  0  0  0  0
  146.5592  133.8915  149.9126 H   0  0  0  0  0  0  0  0  0  0  0  0
  147.4713  132.4672  150.3927 H   0  0  0  0  0  0  0  0  0  0  0  0
  144.4920  132.6234  149.8871 H   0  0  0  0  0  0  0  0  0  0  0  0
  145.6415  131.4473  149.2328 H   0  0  0  0  0  0  0  0  0  0  0  0
  144.2432  130.7444  151.4230 H   0  0  0  0  0  0  0  0  0  0  0  0
  145.9900  130.4706  151.4486 H   0  0  0  0  0  0  0  0  0  0  0  0
  1  2  1  0  0  0  0
  1 21  1  0  0  0  0
  1 22  1  0  0  0  0
  1 23  1  0  0  0  0
  2 20  1  0  0  0  0
  2  3  2  0  0  0  0
  3  4  1  0  0  0  0
  3 24  1  0  0  0  0
  4  5  2  0  0  0  0
  5  6  1  0  0  0  0
  5 20  1  0  0  0  0
  6  7  1  0  0  0  0
  6  8  1  0  0  0  0
  6 25  1  0  0  0  0
  7 26  1  0  0  0  0
  7 27  1  0  0  0  0
  7 28  1  0  0  0  0
  8  9  1  0  0  0  0
  8 29  1  0  0  0  0
  8 30  1  0  0  0  0
  9 10  1  0  0  0  0
  9 31  1  0  0  0  0
 10 11  2  0  0  0  0
 10 12  1  0  0  0  0
 12 13  1  0  0  0  0
 12 32  1  0  0  0  0
 13 14  1  0  0  0  0
 13 33  1  0  0  0  0
 13 34  1  0  0  0  0
 14 19  1  0  0  0  0
 14 15  1  0  0  0  0
 14 16  1  0  0  0  0
 15 35  1  0  0  0  0
 15 36  1  0  0  0  0
 15 37  1  0  0  0  0
 16 17  1  0  0  0  0
 16 38  1  0  0  0  0
 16 39  1  0  0  0  0
 17 18  1  0  0  0  0
 17 40  1  0  0  0  0
 17 41  1  0  0  0  0
 18 19  1  0  0  0  0
 18 42  1  0  0  0  0
 18 43  1  0  0  0  0
M  END
> <s_m_source_file>
AV-unprocessed.smi

> <i_m_source_file_index>
2414

> <i_lp_mmshare_version>
43012

> <i_f3d_flags>
0

> <s_epik_input>
W0NIM11jMVtjSF1uYyhzMSlbQ0BIXShbQ0gzXSlbQ0gyXVtOSF1DKD1PKVtOSF1bQ0gyXVtDQEBdMihbQ0gzXSlbQ0gyXVtDSDJdW0NIMl1PMg==

> <s_epik_cmdline>
J2VwaWtfcHl0aG9uJywgJy1waCcsICc3LjAnLCAnLXRuJywgJzgnLCAnLW1hJywgJzIwMCcsICctbWV0YWxfYmluZGluZycsICctaW1hZScsICc8aW5maWxlLm1hZT4nLCAnLW9tYWUnLCAnPG91dGZpbGUubWFlPic=

> <r_epik_Ionization_Penalty>
0.000646956

> <r_epik_Ionization_Penalty_Charging>
0

> <r_epik_Ionization_Penalty_Neutral>
0.000646956

> <r_epik_State_Penalty>
0.000375727

> <r_epik_Charging_Adjusted_Penalty>
0.000375727

> <i_epik_Tot_Q>
0

> <i_epik_Tot_abs_Q>
0

> <r_epik_Metal_State_Penalty>
-0

> <b_epik_Metal_Only>
0

> <s_lp_Force_Field>
OPLS_2005

> <r_lp_Energy>
8.05024

> <b_lp_Chiralities_Consistent>
1

> <s_lp_Variant>
AV-unprocessed.smi:2414-4

> <Gold.Version>
5.8.1

> <Gold.Id.Protein>
6NUR|6NUR_protein|mol2

> <Gold.PLP.Fitness>
43.0452

> <Gold.PLP.PLP>
-37.8580

> <Gold.PLP.part.hbond>
-2.0000

> <Gold.PLP.part.metal>
0.0000

> <Gold.PLP.part.buried>
-1.8711

> <Gold.PLP.part.nonpolar>
-35.3246

> <Gold.PLP.part.repulsive>
2.3610

> <Gold.PLP.ligand.clash>
0.0000

> <Gold.PLP.ligand.torsion>
0.4755

> <Gold.PLP.Chemscore.Hbond>
1.9920

> <Gold.PLP.Chemscore.CHOScore>
0.0000

> <Gold.PLP.Chemscore.Metal>
0.0000

> <Gold.Chemscore.Hbonds>
donor molecule, donor type, donor heavy atom, donor atom, acceptor molecule, acceptor atom, score
      L1  H     9    31       P1  7948  1.00
      L1  H    12    32       P1  7948  0.96

> <Gold.PLP.Chemscore.Internal.Correction>
0.1622

> <Gold.Rescore>
     Score         DG    S(hbond)    S(metal)    S(lipo)     H(rot)  DE(clash)    DE(int)     intcor
     18.58     -19.60       1.95        0.00     101.21       1.65       0.58       0.44       ----

> <Gold.Chemscore.Fitness>
18.5817

> <Gold.Chemscore.DG>
-19.6044

> <Gold.Chemscore.ZeroCoef>
-5.4800

> <Gold.Chemscore.Hbond>
1.9497

> <Gold.Chemscore.Metal>
0.0000

> <Gold.Chemscore.Lipo>
101.2122

> <Gold.Chemscore.Internal_Hbond>
0.0000

> <Gold.Chemscore.DEClash>
0.5817

> <Gold.Chemscore.DEInternal>
0.4411

> <Gold.Chemscore.Rot>
1.6522

> <Gold.Chemscore.Internal.Correction>
   9.000000E+99

> <Gold.Chemscore.Hbonds>
donor molecule, donor type, donor heavy atom, donor atom, acceptor molecule, acceptor atom, score
      L1  H     9    31       P1  7948  0.97
      L1  H    12    32       P1  7948  0.92

> <Gold.Chemscore.Hbond.Weighted>
-6.5121

> <Gold.Chemscore.Metal.Weighted>
-0.0000

> <Gold.Chemscore.Lipo.Weighted>
-11.8418

> <Gold.Chemscore.Internal_Hbond.Weighted>
0.0000

> <Gold.Chemscore.DEClash.Weighted>
0.5817

> <Gold.Chemscore.DEInternal.Weighted>
0.4411

> <Gold.Chemscore.Rot.Weighted>
4.2295

> <Gold.Chemscore.Internal.Correction.Weighted>
   9.000000E+99

> <Gold.Protein.RotatedTorsions>
[ 6907 6896 6895 6894 ] final    1.10 input  -60.11 | X-H torsion
[ 7974 7965 7964 7962 ] final  -91.54 input  175.53 | X-H torsion
[ 8008 7997 7996 7995 ] final  126.02 input   59.86 | X-H torsion
[ 10167 10162 10161 10158 ] final   36.13 input  -65.29 | X-H torsion
[ 10718 10713 10712 10709 ] final  124.58 input   66.30 | X-H torsion
[ 10763 10752 10751 10750 ] final -128.64 input  -60.55 | X-H torsion
[ 11005 11000 10999 10996 ] final   78.19 input  -57.11 | X-H torsion

> <Gold.Protein.ActiveResidues>
 VAL166  LYS551  ARG553  GLY616  TRP617  ASP618  TYR619  PRO620  LYS621  CYS622 
 ASP623  PHE694  ASN695  SER759  ASP760  ASP761  ALA762  ILE779  LEU786  VAL792 
 PHE793  MET794  SER795  GLU796  ALA797  LYS798  CYS799  TRP800  GLU811  SER814 

> <Gold.Protein.RotatedAtoms>
  151.5872  135.1055  160.0030 H   0  0  0  0  0  0  0  0  0  0  0  0  # atno 6907 bound_to 6896
  152.4325  133.7298  159.6591 H   0  0  0  0  0  0  0  0  0  0  0  0  # atno 6908 bound_to 6896
  150.8218  133.8168  159.3158 H   0  0  0  0  0  0  0  0  0  0  0  0  # atno 6909 bound_to 6896
  145.4118  140.9545  143.2230 H   0  0  0  0  0  0  0  0  0  0  0  0  # atno 7974 bound_to 7965
  156.2851  140.2702  156.2043 H   0  0  0  0  0  0  0  0  0  0  0  0  # atno 8008 bound_to 7997
  155.0329  140.0386  157.2499 H   0  0  0  0  0  0  0  0  0  0  0  0  # atno 8009 bound_to 7997
  154.7339  140.2712  155.6437 H   0  0  0  0  0  0  0  0  0  0  0  0  # atno 8010 bound_to 7997
  140.4156  144.1531  150.6143 H   0  0  0  0  0  0  0  0  0  0  0  0  # atno 10167 bound_to 10162
  157.5573  131.1091  150.8599 H   0  0  0  0  0  0  0  0  0  0  0  0  # atno 10718 bound_to 10713
  154.8756  135.3922  154.3790 H   0  0  0  0  0  0  0  0  0  0  0  0  # atno 10763 bound_to 10752
  153.4540  135.7028  153.6096 H   0  0  0  0  0  0  0  0  0  0  0  0  # atno 10764 bound_to 10752
  153.4624  135.3809  155.2314 H   0  0  0  0  0  0  0  0  0  0  0  0  # atno 10765 bound_to 10752
  139.9223  134.7743  156.1618 H   0  0  0  0  0  0  0  0  0  0  0  0  # atno 11005 bound_to 11000
  144.8304  139.5638  143.6946 LP  0  0  0  0  0  0  0  0  0  0  0  0  # atno 17320 bound_to 7965
  146.2701  139.6615  142.9302 LP  0  0  0  0  0  0  0  0  0  0  0  0  # atno 17321 bound_to 7965
  140.4590  143.2456  151.9246 LP  0  0  0  0  0  0  0  0  0  0  0  0  # atno 17342 bound_to 10162
  139.4782  144.5487  151.8419 LP  0  0  0  0  0  0  0  0  0  0  0  0  # atno 17343 bound_to 10162
  156.9107  130.5279  149.5280 LP  0  0  0  0  0  0  0  0  0  0  0  0  # atno 17370 bound_to 10713
  156.0630  130.5679  150.9232 LP  0  0  0  0  0  0  0  0  0  0  0  0  # atno 17371 bound_to 10713
  141.0753  133.6778  156.2224 LP  0  0  0  0  0  0  0  0  0  0  0  0  # atno 17394 bound_to 11000
  140.6438  134.5138  157.5572 LP  0  0  0  0  0  0  0  0  0  0  0  0  # atno 17395 bound_to 11000

$$$$
