AV-unprocessed.smi:875|AV-procd|sdf|4018|dock10
  -GOLD-   22720 1503D 1   1.00000     0.00000
 Structure written by MMmdl.
 37 38  0  0  0  0  0  0  0  0  1 V2000
  146.6530  138.9749  151.5172 C   0  0  0  0  0  0  0  0  0  0  0  0
  147.6915  138.5928  152.4611 N   0  0  0  0  0  0  0  0  0  0  0  0
  148.1301  139.3744  153.4595 C   0  0  0  0  0  0  0  0  0  0  0  0
  147.7005  140.5092  153.6664 O   0  0  0  0  0  0  0  0  0  0  0  0
  149.2292  138.7981  154.3563 C   0  0  0  0  0  0  0  0  0  0  0  0
  149.7930  139.8488  155.2602 C   0  0  0  0  0  0  0  0  0  0  0  0
  150.1984  141.0227  154.7889 N   0  0  0  0  0  0  0  0  0  0  0  0
  150.6388  141.6979  155.9364 O   0  0  0  0  0  0  0  0  0  0  0  0
  150.4472  140.8412  156.9680 C   0  0  0  0  0  0  0  0  0  0  0  0
  150.8332  141.2761  158.3434 C   0  0  0  0  0  0  0  0  0  0  0  0
  152.2305  141.5344  158.3295 O   0  0  0  0  0  0  0  0  0  0  0  0
  152.6192  142.7161  159.0173 C   0  0  0  0  0  0  0  0  0  0  0  0
  152.0377  142.7478  160.4471 C   0  0  0  0  0  0  0  0  0  0  0  0
  152.3412  144.0834  161.1460 C   0  0  0  0  0  0  0  0  0  0  0  0
  151.8340  145.2760  160.3201 C   0  0  0  0  0  0  0  0  0  0  0  0
  152.4084  145.2477  158.8950 C   0  0  0  0  0  0  0  0  0  0  0  0
  152.1010  143.9119  158.1988 C   0  0  0  0  0  0  0  0  0  0  0  0
  149.9309  139.6690  156.6034 N   0  0  0  0  0  0  0  0  0  0  0  0
  146.4576  138.1539  150.8273 H   0  0  0  0  0  0  0  0  0  0  0  0
  146.9590  139.8451  150.9352 H   0  0  0  0  0  0  0  0  0  0  0  0
  145.7232  139.2116  152.0363 H   0  0  0  0  0  0  0  0  0  0  0  0
  148.0957  137.6727  152.3576 H   0  0  0  0  0  0  0  0  0  0  0  0
  148.8215  137.9792  154.9505 H   0  0  0  0  0  0  0  0  0  0  0  0
  150.0270  138.3773  153.7427 H   0  0  0  0  0  0  0  0  0  0  0  0
  150.2590  142.1645  158.6053 H   0  0  0  0  0  0  0  0  0  0  0  0
  150.5920  140.4853  159.0552 H   0  0  0  0  0  0  0  0  0  0  0  0
  153.7085  142.7760  159.0600 H   0  0  0  0  0  0  0  0  0  0  0  0
  150.9583  142.5953  160.4066 H   0  0  0  0  0  0  0  0  0  0  0  0
  152.4422  141.9335  161.0475 H   0  0  0  0  0  0  0  0  0  0  0  0
  151.8846  144.0968  162.1361 H   0  0  0  0  0  0  0  0  0  0  0  0
  153.4168  144.1781  161.3004 H   0  0  0  0  0  0  0  0  0  0  0  0
  150.7442  145.2528  160.2760 H   0  0  0  0  0  0  0  0  0  0  0  0
  152.1036  146.2112  160.8116 H   0  0  0  0  0  0  0  0  0  0  0  0
  151.9980  146.0733  158.3131 H   0  0  0  0  0  0  0  0  0  0  0  0
  153.4876  145.4009  158.9319 H   0  0  0  0  0  0  0  0  0  0  0  0
  152.5476  143.9033  157.2040 H   0  0  0  0  0  0  0  0  0  0  0  0
  151.0238  143.8183  158.0539 H   0  0  0  0  0  0  0  0  0  0  0  0
  1  2  1  0  0  0  0
  1 19  1  0  0  0  0
  1 20  1  0  0  0  0
  1 21  1  0  0  0  0
  2  3  1  0  0  0  0
  2 22  1  0  0  0  0
  3  4  2  0  0  0  0
  3  5  1  0  0  0  0
  5  6  1  0  0  0  0
  5 23  1  0  0  0  0
  5 24  1  0  0  0  0
  6 18  1  0  0  0  0
  6  7  2  0  0  0  0
  7  8  1  0  0  0  0
  8  9  1  0  0  0  0
  9 10  1  0  0  0  0
  9 18  2  0  0  0  0
 10 11  1  0  0  0  0
 10 25  1  0  0  0  0
 10 26  1  0  0  0  0
 11 12  1  0  0  0  0
 12 17  1  0  0  0  0
 12 13  1  0  0  0  0
 12 27  1  0  0  0  0
 13 14  1  0  0  0  0
 13 28  1  0  0  0  0
 13 29  1  0  0  0  0
 14 15  1  0  0  0  0
 14 30  1  0  0  0  0
 14 31  1  0  0  0  0
 15 16  1  0  0  0  0
 15 32  1  0  0  0  0
 15 33  1  0  0  0  0
 16 17  1  0  0  0  0
 16 34  1  0  0  0  0
 16 35  1  0  0  0  0
 17 36  1  0  0  0  0
 17 37  1  0  0  0  0
M  END
> <s_m_source_file>
AV-unprocessed.smi

> <i_m_source_file_index>
875

> <i_lp_mmshare_version>
43012

> <i_f3d_flags>
0

> <s_epik_input>
W0NIM11bTkhdQyg9TylbQ0gyXWMxbm9jKG4xKVtDSDJdT1tDSF0yW0NIMl1bQ0gyXVtDSDJdW0NIMl1bQ0gyXTI=

> <s_epik_cmdline>
J2VwaWtfcHl0aG9uJywgJy1waCcsICc3LjAnLCAnLXRuJywgJzgnLCAnLW1hJywgJzIwMCcsICctbWV0YWxfYmluZGluZycsICctaW1hZScsICc8aW5maWxlLm1hZT4nLCAnLW9tYWUnLCAnPG91dGZpbGUubWFlPic=

> <r_lp_tautomer_probability>
1

> <r_epik_Ionization_Penalty>
1.02915e-07

> <r_epik_Ionization_Penalty_Charging>
0

> <r_epik_Ionization_Penalty_Neutral>
1.02915e-07

> <r_epik_State_Penalty>
-0

> <r_epik_Charging_Adjusted_Penalty>
0

> <i_epik_Tot_Q>
0

> <i_epik_Tot_abs_Q>
0

> <r_epik_Metal_State_Penalty>
-0

> <b_epik_Metal_Only>
0

> <s_lp_Force_Field>
OPLS_2005

> <r_lp_Energy>
10.4582

> <b_lp_Chiralities_Consistent>
1

> <s_lp_Variant>
AV-unprocessed.smi:875-1

> <Gold.Version>
5.8.1

> <Gold.Id.Protein>
6NUR|6NUR_protein|mol2

> <Gold.PLP.Fitness>
43.8816

> <Gold.PLP.PLP>
-39.8651

> <Gold.PLP.part.hbond>
-3.0000

> <Gold.PLP.part.metal>
0.0000

> <Gold.PLP.part.buried>
-2.7704

> <Gold.PLP.part.nonpolar>
-33.6930

> <Gold.PLP.part.repulsive>
0.4022

> <Gold.PLP.ligand.clash>
0.0000

> <Gold.PLP.ligand.torsion>
0.5325

> <Gold.PLP.Chemscore.Hbond>
1.6880

> <Gold.PLP.Chemscore.CHOScore>
0.0000

> <Gold.PLP.Chemscore.Metal>
0.0000

> <Gold.Chemscore.Hbonds>
donor molecule, donor type, donor heavy atom, donor atom, acceptor molecule, acceptor atom, score
      L1  H     2    22       P1  7948  1.00
      P1  H  7989  7998       L1     7  0.67

> <Gold.PLP.Chemscore.Internal.Correction>
0.0175

> <Gold.Rescore>
     Score         DG    S(hbond)    S(metal)    S(lipo)     H(rot)  DE(clash)    DE(int)     intcor
     14.74     -16.58       1.64        0.00      95.68       2.18       0.04       1.80       ----

> <Gold.Chemscore.Fitness>
14.7352

> <Gold.Chemscore.DG>
-16.5763

> <Gold.Chemscore.ZeroCoef>
-5.4800

> <Gold.Chemscore.Hbond>
1.6386

> <Gold.Chemscore.Metal>
0.0000

> <Gold.Chemscore.Lipo>
95.6795

> <Gold.Chemscore.Internal_Hbond>
0.0000

> <Gold.Chemscore.DEClash>
0.0414

> <Gold.Chemscore.DEInternal>
1.7996

> <Gold.Chemscore.Rot>
2.1763

> <Gold.Chemscore.Internal.Correction>
   9.000000E+99

> <Gold.Chemscore.Hbonds>
donor molecule, donor type, donor heavy atom, donor atom, acceptor molecule, acceptor atom, score
      L1  H     2    22       P1  7948  1.00
      P1  H  7989  7998       L1     7  0.43

> <Gold.Chemscore.Hbond.Weighted>
-5.4730

> <Gold.Chemscore.Metal.Weighted>
-0.0000

> <Gold.Chemscore.Lipo.Weighted>
-11.1945

> <Gold.Chemscore.Internal_Hbond.Weighted>
0.0000

> <Gold.Chemscore.DEClash.Weighted>
0.0414

> <Gold.Chemscore.DEInternal.Weighted>
1.7996

> <Gold.Chemscore.Rot.Weighted>
5.5712

> <Gold.Chemscore.Internal.Correction.Weighted>
   9.000000E+99

> <Gold.Protein.RotatedTorsions>
[ 6907 6896 6895 6894 ] final  129.58 input  -60.11 | X-H torsion
[ 7974 7965 7964 7962 ] final  177.74 input  175.53 | X-H torsion
[ 8008 7997 7996 7995 ] final   30.14 input   59.86 | X-H torsion
[ 10167 10162 10161 10158 ] final  -12.26 input  -65.29 | X-H torsion
[ 10718 10713 10712 10709 ] final  -22.74 input   66.30 | X-H torsion
[ 10763 10752 10751 10750 ] final -130.38 input  -60.55 | X-H torsion
[ 11005 11000 10999 10996 ] final  -81.69 input  -57.11 | X-H torsion

> <Gold.Protein.ActiveResidues>
 VAL166  LYS551  ARG553  GLY616  TRP617  ASP618  TYR619  PRO620  LYS621  CYS622 
 ASP623  PHE694  ASN695  SER759  ASP760  ASP761  ALA762  ILE779  LEU786  VAL792 
 PHE793  MET794  SER795  GLU796  ALA797  LYS798  CYS799  TRP800  GLU811  SER814 

> <Gold.Protein.RotatedAtoms>
  152.3610  133.6296  159.6014 H   0  0  0  0  0  0  0  0  0  0  0  0  # atno 6907 bound_to 6896
  150.7601  133.9424  159.3469 H   0  0  0  0  0  0  0  0  0  0  0  0  # atno 6908 bound_to 6896
  151.7262  135.0885  160.0343 H   0  0  0  0  0  0  0  0  0  0  0  0  # atno 6909 bound_to 6896
  144.7165  140.0293  143.6439 H   0  0  0  0  0  0  0  0  0  0  0  0  # atno 7974 bound_to 7965
  155.0857  140.3215  155.4588 H   0  0  0  0  0  0  0  0  0  0  0  0  # atno 8008 bound_to 7997
  156.2756  140.2087  156.5930 H   0  0  0  0  0  0  0  0  0  0  0  0  # atno 8009 bound_to 7997
  154.6943  140.0513  157.0382 H   0  0  0  0  0  0  0  0  0  0  0  0  # atno 8010 bound_to 7997
  140.7157  143.5552  150.9257 H   0  0  0  0  0  0  0  0  0  0  0  0  # atno 10167 bound_to 10162
  156.5005  130.4587  149.6704 H   0  0  0  0  0  0  0  0  0  0  0  0  # atno 10718 bound_to 10713
  154.8755  135.3864  154.4073 H   0  0  0  0  0  0  0  0  0  0  0  0  # atno 10763 bound_to 10752
  153.4791  135.7030  153.5953 H   0  0  0  0  0  0  0  0  0  0  0  0  # atno 10764 bound_to 10752
  153.4377  135.3863  155.2176 H   0  0  0  0  0  0  0  0  0  0  0  0  # atno 10765 bound_to 10752
  141.1666  133.7209  156.8461 H   0  0  0  0  0  0  0  0  0  0  0  0  # atno 11005 bound_to 11000
  146.0116  139.3174  143.0867 LP  0  0  0  0  0  0  0  0  0  0  0  0  # atno 17320 bound_to 7965
  145.8675  140.9439  143.0668 LP  0  0  0  0  0  0  0  0  0  0  0  0  # atno 17321 bound_to 7965
  139.9276  143.6531  152.3083 LP  0  0  0  0  0  0  0  0  0  0  0  0  # atno 17342 bound_to 10162
  139.6970  144.7640  151.1339 LP  0  0  0  0  0  0  0  0  0  0  0  0  # atno 17343 bound_to 10162
  156.3338  130.7345  151.2279 LP  0  0  0  0  0  0  0  0  0  0  0  0  # atno 17370 bound_to 10713
  157.7463  131.0422  150.4686 LP  0  0  0  0  0  0  0  0  0  0  0  0  # atno 17371 bound_to 10713
  140.1949  134.8939  157.3103 LP  0  0  0  0  0  0  0  0  0  0  0  0  # atno 17394 bound_to 11000
  140.2250  134.3977  155.7548 LP  0  0  0  0  0  0  0  0  0  0  0  0  # atno 17395 bound_to 11000

$$$$
