AV-unprocessed.smi:2539|AV-procd|sdf|9985|dock6
  -GOLD-   2272014 33D 1   1.00000     0.00000
 Structure written by MMmdl.
 40 41  0  0  0  0  0  0  0  0  1 V2000
  144.5034  137.0647  154.3573 O   0  0  0  0  0  0  0  0  0  0  0  0
  145.3023  136.8305  153.4493 C   0  0  0  0  0  0  0  0  0  0  0  0
  146.6333  136.9027  153.6283 N   0  0  0  0  0  0  0  0  0  0  0  0
  147.3110  137.1512  154.8984 C   0  0  0  0  0  0  0  0  0  0  0  0
  148.5956  137.9838  154.7144 C   0  0  0  0  0  0  0  0  0  0  0  0
  148.3336  139.4555  154.4430 C   0  0  0  0  0  0  0  0  0  0  0  0
  147.0180  139.9600  154.3720 C   0  0  0  0  0  0  0  0  0  0  0  0
  146.8300  141.3252  154.0839 C   0  0  0  0  0  0  0  0  0  0  0  0
  147.9682  142.1307  153.8810 C   0  0  0  0  0  0  0  0  0  0  0  0
  149.2319  141.6605  153.9521 N   0  0  0  0  0  0  0  0  0  0  0  0
  149.4038  140.3498  154.2274 C   0  0  0  0  0  0  0  0  0  0  0  0
  144.9206  136.4153  152.2156 N   0  0  0  0  0  0  0  0  0  0  0  0
  145.8030  136.1658  151.0660 C   0  0  0  0  0  0  0  0  0  0  0  0
  145.9569  134.6433  150.8873 C   0  0  0  0  0  0  0  0  0  0  0  0
  144.5884  133.9276  150.7368 C   0  0  0  0  0  0  0  0  0  0  0  0
  144.0605  134.2726  149.4680 O   0  0  0  0  0  0  0  0  0  0  0  0
  144.7472  132.3883  150.7603 C   0  0  0  0  0  0  0  0  0  0  0  0
  145.5044  131.9892  149.7382 F   0  0  0  0  0  0  0  0  0  0  0  0
  145.3345  131.9943  151.8911 F   0  0  0  0  0  0  0  0  0  0  0  0
  143.5597  131.7903  150.6540 F   0  0  0  0  0  0  0  0  0  0  0  0
  143.5815  134.4167  151.8119 C   0  0  0  0  0  0  0  0  0  0  0  0
  143.5571  135.9532  151.9386 C   0  0  0  0  0  0  0  0  0  0  0  0
  147.2225  136.6946  152.8355 H   0  0  0  0  0  0  0  0  0  0  0  0
  146.6218  137.6841  155.5535 H   0  0  0  0  0  0  0  0  0  0  0  0
  147.5416  136.2110  155.4023 H   0  0  0  0  0  0  0  0  0  0  0  0
  149.2215  137.8931  155.6032 H   0  0  0  0  0  0  0  0  0  0  0  0
  149.1814  137.5759  153.8900 H   0  0  0  0  0  0  0  0  0  0  0  0
  146.1668  139.3126  154.5229 H   0  0  0  0  0  0  0  0  0  0  0  0
  145.8375  141.7453  154.0171 H   0  0  0  0  0  0  0  0  0  0  0  0
  147.8606  143.1816  153.6567 H   0  0  0  0  0  0  0  0  0  0  0  0
  150.4256  140.0017  154.2657 H   0  0  0  0  0  0  0  0  0  0  0  0
  145.3599  136.6053  150.1712 H   0  0  0  0  0  0  0  0  0  0  0  0
  146.7822  136.6365  151.1558 H   0  0  0  0  0  0  0  0  0  0  0  0
  146.5926  134.4332  150.0263 H   0  0  0  0  0  0  0  0  0  0  0  0
  146.4832  134.2449  151.7555 H   0  0  0  0  0  0  0  0  0  0  0  0
  144.7319  134.1327  148.8176 H   0  0  0  0  0  0  0  0  0  0  0  0
  142.5792  134.0465  151.5932 H   0  0  0  0  0  0  0  0  0  0  0  0
  143.8525  133.9954  152.7810 H   0  0  0  0  0  0  0  0  0  0  0  0
  142.8452  136.2496  152.7103 H   0  0  0  0  0  0  0  0  0  0  0  0
  143.1949  136.4076  151.0155 H   0  0  0  0  0  0  0  0  0  0  0  0
  1  2  2  0  0  0  0
  2  3  1  0  0  0  0
  2 12  1  0  0  0  0
  3  4  1  0  0  0  0
  3 23  1  0  0  0  0
  4  5  1  0  0  0  0
  4 24  1  0  0  0  0
  4 25  1  0  0  0  0
  5  6  1  0  0  0  0
  5 26  1  0  0  0  0
  5 27  1  0  0  0  0
  6 11  1  0  0  0  0
  6  7  2  0  0  0  0
  7  8  1  0  0  0  0
  7 28  1  0  0  0  0
  8  9  2  0  0  0  0
  8 29  1  0  0  0  0
  9 10  1  0  0  0  0
  9 30  1  0  0  0  0
 10 11  2  0  0  0  0
 11 31  1  0  0  0  0
 12 22  1  0  0  0  0
 12 13  1  0  0  0  0
 13 14  1  0  0  0  0
 13 32  1  0  0  0  0
 13 33  1  0  0  0  0
 14 15  1  0  0  0  0
 14 34  1  0  0  0  0
 14 35  1  0  0  0  0
 15 16  1  0  0  0  0
 15 17  1  0  0  0  0
 15 21  1  0  0  0  0
 16 36  1  0  0  0  0
 17 18  1  0  0  0  0
 17 19  1  0  0  0  0
 17 20  1  0  0  0  0
 21 22  1  0  0  0  0
 21 37  1  0  0  0  0
 21 38  1  0  0  0  0
 22 39  1  0  0  0  0
 22 40  1  0  0  0  0
M  END
> <s_m_source_file>
AV-unprocessed.smi

> <i_m_source_file_index>
2539

> <i_lp_mmshare_version>
43012

> <i_f3d_flags>
0

> <s_epik_input>
RkMoRikoRilDMShbT0hdKVtDSDJdW0NIMl1OKFtDSDJdW0NIMl0xKUMoPU8pW05IXVtDSDJdW0NIMl1jMltjSF1bY0hdW2NIXW5bY0hdMg==

> <s_epik_cmdline>
J2VwaWtfcHl0aG9uJywgJy1waCcsICc3LjAnLCAnLXRuJywgJzgnLCAnLW1hJywgJzIwMCcsICctbWV0YWxfYmluZGluZycsICctaW1hZScsICc8aW5maWxlLm1hZT4nLCAnLW9tYWUnLCAnPG91dGZpbGUubWFlPic=

> <r_epik_Ionization_Penalty>
0.0144431

> <r_epik_Ionization_Penalty_Charging>
0

> <r_epik_Ionization_Penalty_Neutral>
0.0144431

> <r_epik_State_Penalty>
0.0112443

> <r_epik_Charging_Adjusted_Penalty>
0.0112443

> <i_epik_Tot_Q>
0

> <i_epik_Tot_abs_Q>
0

> <r_epik_Metal_State_Penalty>
0.0109773

> <b_epik_Metal_Only>
0

> <s_lp_Force_Field>
OPLS_2005

> <r_lp_Energy>
34.3491

> <b_lp_Chiralities_Consistent>
1

> <s_lp_Variant>
AV-unprocessed.smi:2539-1

> <Gold.Version>
5.8.1

> <Gold.Id.Protein>
6NUR|6NUR_protein|mol2

> <Gold.PLP.Fitness>
48.8413

> <Gold.PLP.PLP>
-39.5873

> <Gold.PLP.part.hbond>
-4.4583

> <Gold.PLP.part.metal>
0.0000

> <Gold.PLP.part.buried>
-2.5767

> <Gold.PLP.part.nonpolar>
-30.3707

> <Gold.PLP.part.repulsive>
0.2397

> <Gold.PLP.ligand.clash>
0.0000

> <Gold.PLP.ligand.torsion>
0.3308

> <Gold.PLP.Chemscore.Hbond>
2.5600

> <Gold.PLP.Chemscore.CHOScore>
0.7288

> <Gold.PLP.Chemscore.Metal>
0.0000

> <Gold.Chemscore.Hbonds>
donor molecule, donor type, donor heavy atom, donor atom, acceptor molecule, acceptor atom, score
      L1  H     3    23       P1  7948  0.99
      L1  H    16    36       P1  7921  1.00
      P1  H  8011  8017       L1    10  0.47
      L1  C     9    30       P1  8028  0.42

> <Gold.PLP.Chemscore.Internal.Correction>
0.0492

> <Gold.Rescore>
     Score         DG    S(hbond)    S(metal)    S(lipo)     H(rot)  DE(clash)    DE(int)     intcor
     16.07     -16.48       2.25        0.00      72.95       1.97       0.16       0.26       ----

> <Gold.Chemscore.Fitness>
16.0670

> <Gold.Chemscore.DG>
-16.4832

> <Gold.Chemscore.ZeroCoef>
-5.4800

> <Gold.Chemscore.Hbond>
2.2516

> <Gold.Chemscore.Metal>
0.0000

> <Gold.Chemscore.Lipo>
72.9535

> <Gold.Chemscore.Internal_Hbond>
0.0000

> <Gold.Chemscore.DEClash>
0.1588

> <Gold.Chemscore.DEInternal>
0.2574

> <Gold.Chemscore.Rot>
1.9737

> <Gold.Chemscore.Internal.Correction>
   9.000000E+99

> <Gold.Chemscore.Hbonds>
donor molecule, donor type, donor heavy atom, donor atom, acceptor molecule, acceptor atom, score
      L1  H     3    23       P1  7948  0.91
      L1  H    16    36       P1  7921  0.94
      P1  H  8011  8017       L1    10  0.06

> <Gold.Chemscore.Hbond.Weighted>
-7.5204

> <Gold.Chemscore.Metal.Weighted>
-0.0000

> <Gold.Chemscore.Lipo.Weighted>
-8.5356

> <Gold.Chemscore.Internal_Hbond.Weighted>
0.0000

> <Gold.Chemscore.DEClash.Weighted>
0.1588

> <Gold.Chemscore.DEInternal.Weighted>
0.2574

> <Gold.Chemscore.Rot.Weighted>
5.0528

> <Gold.Chemscore.Internal.Correction.Weighted>
   9.000000E+99

> <Gold.Protein.RotatedTorsions>
[ 6907 6896 6895 6894 ] final   52.44 input  -60.11 | X-H torsion
[ 7974 7965 7964 7962 ] final  -16.02 input  175.53 | X-H torsion
[ 8008 7997 7996 7995 ] final  -35.86 input   59.86 | X-H torsion
[ 10167 10162 10161 10158 ] final  169.49 input  -65.29 | X-H torsion
[ 10718 10713 10712 10709 ] final   10.79 input   66.30 | X-H torsion
[ 10763 10752 10751 10750 ] final   52.27 input  -60.55 | X-H torsion
[ 11005 11000 10999 10996 ] final   53.20 input  -57.11 | X-H torsion

> <Gold.Protein.ActiveResidues>
 VAL166  LYS551  ARG553  GLY616  TRP617  ASP618  TYR619  PRO620  LYS621  CYS622 
 ASP623  PHE694  ASN695  SER759  ASP760  ASP761  ALA762  ILE779  LEU786  VAL792 
 PHE793  MET794  SER795  GLU796  ALA797  LYS798  CYS799  TRP800  GLU811  SER814 

> <Gold.Protein.RotatedAtoms>
  152.3232  134.7353  160.0308 H   0  0  0  0  0  0  0  0  0  0  0  0  # atno 6907 bound_to 6896
  151.7794  133.3343  159.3475 H   0  0  0  0  0  0  0  0  0  0  0  0  # atno 6908 bound_to 6896
  150.7381  134.5876  159.6015 H   0  0  0  0  0  0  0  0  0  0  0  0  # atno 6909 bound_to 6896
  146.2006  140.3576  142.8424 H   0  0  0  0  0  0  0  0  0  0  0  0  # atno 7974 bound_to 7965
  154.4086  140.1646  156.2279 H   0  0  0  0  0  0  0  0  0  0  0  0  # atno 8008 bound_to 7997
  155.9307  140.3415  155.6224 H   0  0  0  0  0  0  0  0  0  0  0  0  # atno 8009 bound_to 7997
  155.7109  140.0756  157.2362 H   0  0  0  0  0  0  0  0  0  0  0  0  # atno 8010 bound_to 7997
  139.4994  144.3700  151.9735 H   0  0  0  0  0  0  0  0  0  0  0  0  # atno 10167 bound_to 10162
  156.9861  130.6024  149.5681 H   0  0  0  0  0  0  0  0  0  0  0  0  # atno 10718 bound_to 10713
  152.9788  135.5818  154.4550 H   0  0  0  0  0  0  0  0  0  0  0  0  # atno 10763 bound_to 10752
  154.4134  135.2770  155.2024 H   0  0  0  0  0  0  0  0  0  0  0  0  # atno 10764 bound_to 10752
  154.3804  135.6148  153.5842 H   0  0  0  0  0  0  0  0  0  0  0  0  # atno 10765 bound_to 10752
  140.0786  134.5370  155.8970 H   0  0  0  0  0  0  0  0  0  0  0  0  # atno 11005 bound_to 11000
  144.8676  140.7227  143.6067 LP  0  0  0  0  0  0  0  0  0  0  0  0  # atno 17320 bound_to 7965
  145.3495  139.1710  143.4442 LP  0  0  0  0  0  0  0  0  0  0  0  0  # atno 17321 bound_to 7965
  140.3136  144.3510  150.6027 LP  0  0  0  0  0  0  0  0  0  0  0  0  # atno 17342 bound_to 10162
  140.5779  143.2175  151.7481 LP  0  0  0  0  0  0  0  0  0  0  0  0  # atno 17343 bound_to 10162
  156.0225  130.5320  150.8315 LP  0  0  0  0  0  0  0  0  0  0  0  0  # atno 17370 bound_to 10713
  157.5492  131.0943  150.9720 LP  0  0  0  0  0  0  0  0  0  0  0  0  # atno 17371 bound_to 10713
  141.2038  133.6635  156.6087 LP  0  0  0  0  0  0  0  0  0  0  0  0  # atno 17394 bound_to 11000
  140.3521  134.7760  157.4474 LP  0  0  0  0  0  0  0  0  0  0  0  0  # atno 17395 bound_to 11000

$$$$
