AV-unprocessed.smi:2667|AV-procd|sdf|10337|dock1
  -GOLD-   2272014353D 1   1.00000     0.00000
 Structure written by MMmdl.
 45 47  0  0  0  0  0  0  0  0  2 V2000
  147.7891  134.7449  162.8344 C   0  0  0  0  0  0  0  0  0  0  0  0
  148.2831  135.5246  161.6056 C   0  0  0  0  0  0  0  0  0  0  0  0
  148.1817  134.7415  160.2873 C   0  0  0  0  0  0  0  0  0  0  0  0
  147.5672  133.6743  160.2552 O   0  0  0  0  0  0  0  0  0  0  0  0
  148.8492  135.3275  159.0886 C   0  0  0  0  0  0  0  0  0  0  0  0
  148.8734  134.6584  157.8425 C   0  0  0  0  0  0  0  0  0  0  0  0
  149.5106  135.2422  156.7310 C   0  0  0  0  0  0  0  0  0  0  0  0
  150.1344  136.5008  156.8325 C   0  0  0  0  0  0  0  0  0  0  0  0
  150.7269  136.9967  155.6924 O   0  0  0  0  0  0  0  0  0  0  0  0
  150.7847  138.4054  155.5146 C   0  0  0  0  0  0  0  0  0  0  0  0
  152.1154  138.9757  156.0436 C   0  0  1  0  0  0  0  0  0  0  0  0
  152.7040  139.7799  155.0427 O   0  0  0  0  0  0  0  0  0  0  0  0
  152.0636  139.6879  157.4184 C   0  0  0  0  0  0  0  0  0  0  0  0
  151.5862  141.0799  157.3914 N   0  0  0  0  0  0  0  0  0  0  0  0
  150.7497  141.6949  156.5100 C   0  0  0  0  0  0  0  0  0  0  0  0
  150.6102  142.9896  156.9067 N   0  3  0  0  0  0  0  0  0  0  0  0
  151.3518  143.2023  158.0704 C   0  0  0  0  0  0  0  0  0  0  0  0
  151.5176  144.3446  158.8479 C   0  0  0  0  0  0  0  0  0  0  0  0
  152.3419  144.2220  159.9857 C   0  0  0  0  0  0  0  0  0  0  0  0
  152.9620  142.9993  160.3146 C   0  0  0  0  0  0  0  0  0  0  0  0
  152.7864  141.8477  159.5194 C   0  0  0  0  0  0  0  0  0  0  0  0
  151.9750  141.9776  158.3927 C   0  0  0  0  0  0  0  0  0  0  0  0
  150.1149  137.1713  158.0793 C   0  0  0  0  0  0  0  0  0  0  0  0
  149.4781  136.5889  159.1921 C   0  0  0  0  0  0  0  0  0  0  0  0
  147.8911  135.3479  163.7367 H   0  0  0  0  0  0  0  0  0  0  0  0
  148.3639  133.8299  162.9838 H   0  0  0  0  0  0  0  0  0  0  0  0
  146.7374  134.4730  162.7374 H   0  0  0  0  0  0  0  0  0  0  0  0
  147.7063  136.4447  161.5090 H   0  0  0  0  0  0  0  0  0  0  0  0
  149.3231  135.8132  161.7591 H   0  0  0  0  0  0  0  0  0  0  0  0
  148.4086  133.6927  157.7127 H   0  0  0  0  0  0  0  0  0  0  0  0
  149.5195  134.7174  155.7868 H   0  0  0  0  0  0  0  0  0  0  0  0
  150.7043  138.6418  154.4523 H   0  0  0  0  0  0  0  0  0  0  0  0
  149.9464  138.8837  156.0241 H   0  0  0  0  0  0  0  0  0  0  0  0
  152.7917  138.1279  156.1588 H   0  0  0  0  0  0  0  0  0  0  0  0
  152.0299  140.3136  154.6511 H   0  0  0  0  0  0  0  0  0  0  0  0
  151.3933  139.1386  158.0809 H   0  0  0  0  0  0  0  0  0  0  0  0
  153.0414  139.6672  157.9008 H   0  0  0  0  0  0  0  0  0  0  0  0
  150.2942  141.2413  155.6416 H   0  0  0  0  0  0  0  0  0  0  0  0
  151.0413  145.2818  158.5999 H   0  0  0  0  0  0  0  0  0  0  0  0
  152.5006  145.0826  160.6196 H   0  0  0  0  0  0  0  0  0  0  0  0
  153.5863  142.9432  161.1946 H   0  0  0  0  0  0  0  0  0  0  0  0
  153.2663  140.9168  159.7807 H   0  0  0  0  0  0  0  0  0  0  0  0
  150.5826  138.1352  158.2099 H   0  0  0  0  0  0  0  0  0  0  0  0
  149.4801  137.1269  160.1292 H   0  0  0  0  0  0  0  0  0  0  0  0
  150.0467  143.6742  156.4189 H   0  0  0  0  0  0  0  0  0  0  0  0
  1  2  1  0  0  0  0
  1 25  1  0  0  0  0
  1 26  1  0  0  0  0
  1 27  1  0  0  0  0
  2  3  1  0  0  0  0
  2 28  1  0  0  0  0
  2 29  1  0  0  0  0
  3  4  2  0  0  0  0
  3  5  1  0  0  0  0
  5 24  1  0  0  0  0
  5  6  2  0  0  0  0
  6  7  1  0  0  0  0
  6 30  1  0  0  0  0
  7  8  2  0  0  0  0
  7 31  1  0  0  0  0
  8  9  1  0  0  0  0
  8 23  1  0  0  0  0
  9 10  1  0  0  0  0
 10 11  1  0  0  0  0
 10 32  1  0  0  0  0
 10 33  1  0  0  0  0
 11 12  1  0  0  0  0
 11 13  1  0  0  0  0
 11 34  1  0  0  0  0
 12 35  1  0  0  0  0
 13 14  1  0  0  0  0
 13 36  1  0  0  0  0
 13 37  1  0  0  0  0
 14 22  1  0  0  0  0
 14 15  1  0  0  0  0
 15 16  2  0  0  0  0
 15 38  1  0  0  0  0
 16 17  1  0  0  0  0
 16 45  1  0  0  0  0
 17 22  2  0  0  0  0
 17 18  1  0  0  0  0
 18 19  2  0  0  0  0
 18 39  1  0  0  0  0
 19 20  1  0  0  0  0
 19 40  1  0  0  0  0
 20 21  2  0  0  0  0
 20 41  1  0  0  0  0
 21 22  1  0  0  0  0
 21 42  1  0  0  0  0
 23 24  2  0  0  0  0
 23 43  1  0  0  0  0
 24 44  1  0  0  0  0
M  CHG  1  16   1
M  END
> <s_m_source_file>
AV-unprocessed.smi

> <i_m_source_file_index>
2667

> <i_lp_mmshare_version>
43012

> <i_f3d_flags>
0

> <s_epik_input>
W0NIM11bQ0gyXUMoPU8pYzFbY0hdW2NIXWMoW2NIXVtjSF0xKU9bQ0gyXVtDQEhdKFtPSF0pW0NIMl1uKFtjSF1uMiljKGMyMylbY0hdW2NIXVtjSF1bY0hdMw==

> <s_epik_cmdline>
J2VwaWtfcHl0aG9uJywgJy1waCcsICc3LjAnLCAnLXRuJywgJzgnLCAnLW1hJywgJzIwMCcsICctbWV0YWxfYmluZGluZycsICctaW1hZScsICc8aW5maWxlLm1hZT4nLCAnLW9tYWUnLCAnPG91dGZpbGUubWFlPic=

> <r_lp_tautomer_probability>
0.9999

> <r_epik_Ionization_Penalty>
1.40272

> <r_epik_Ionization_Penalty_Charging>
1.40272

> <r_epik_Ionization_Penalty_Neutral>
2.3993e-06

> <r_epik_State_Penalty>
1.48501

> <r_epik_Charging_Adjusted_Penalty>
2.88772

> <i_epik_Tot_Q>
1

> <i_epik_Tot_abs_Q>
1

> <r_epik_Metal_State_Penalty>
5.5274

> <b_epik_Metal_Only>
0

> <s_lp_Force_Field>
OPLS_2005

> <r_lp_Energy>
30.2485

> <b_lp_Chiralities_Consistent>
1

> <s_lp_Variant>
AV-unprocessed.smi:2667-4

> <Gold.Version>
5.8.1

> <Gold.Id.Protein>
6NUR|6NUR_protein|mol2

> <Gold.PLP.Fitness>
55.0038

> <Gold.PLP.PLP>
-49.0918

> <Gold.PLP.part.hbond>
-2.9923

> <Gold.PLP.part.metal>
0.0000

> <Gold.PLP.part.buried>
-7.7533

> <Gold.PLP.part.nonpolar>
-39.5061

> <Gold.PLP.part.repulsive>
0.1428

> <Gold.PLP.ligand.clash>
0.0000

> <Gold.PLP.ligand.torsion>
1.8672

> <Gold.PLP.Chemscore.Hbond>
3.0000

> <Gold.PLP.Chemscore.CHOScore>
0.0000

> <Gold.PLP.Chemscore.Metal>
0.0000

> <Gold.Chemscore.Hbonds>
donor molecule, donor type, donor heavy atom, donor atom, acceptor molecule, acceptor atom, score
      L1  H    16    45       P1  8028  2.00
      P1  H  7997  8009       L1    12  1.00

> <Gold.PLP.Chemscore.Internal.Correction>
0.6465

> <Gold.Rescore>
     Score         DG    S(hbond)    S(metal)    S(lipo)     H(rot)  DE(clash)    DE(int)     intcor
     18.09     -19.85       1.94        0.00     124.16       2.59       0.08       1.67       ----

> <Gold.Chemscore.Fitness>
18.0939

> <Gold.Chemscore.DG>
-19.8468

> <Gold.Chemscore.ZeroCoef>
-5.4800

> <Gold.Chemscore.Hbond>
1.9352

> <Gold.Chemscore.Metal>
0.0000

> <Gold.Chemscore.Lipo>
124.1614

> <Gold.Chemscore.Internal_Hbond>
0.0000

> <Gold.Chemscore.DEClash>
0.0829

> <Gold.Chemscore.DEInternal>
1.6700

> <Gold.Chemscore.Rot>
2.5873

> <Gold.Chemscore.Internal.Correction>
   9.000000E+99

> <Gold.Chemscore.Hbonds>
donor molecule, donor type, donor heavy atom, donor atom, acceptor molecule, acceptor atom, score
      L1  H    16    45       P1  8028  1.00
      P1  H  7997  8009       L1    12  0.25

> <Gold.Chemscore.Hbond.Weighted>
-6.4634

> <Gold.Chemscore.Metal.Weighted>
-0.0000

> <Gold.Chemscore.Lipo.Weighted>
-14.5269

> <Gold.Chemscore.Internal_Hbond.Weighted>
0.0000

> <Gold.Chemscore.DEClash.Weighted>
0.0829

> <Gold.Chemscore.DEInternal.Weighted>
1.6700

> <Gold.Chemscore.Rot.Weighted>
6.6235

> <Gold.Chemscore.Internal.Correction.Weighted>
   9.000000E+99

> <Gold.Protein.RotatedTorsions>
[ 6907 6896 6895 6894 ] final -169.95 input  -60.11 | X-H torsion
[ 7974 7965 7964 7962 ] final  100.15 input  175.53 | X-H torsion
[ 8008 7997 7996 7995 ] final -137.17 input   59.86 | X-H torsion
[ 10167 10162 10161 10158 ] final   27.99 input  -65.29 | X-H torsion
[ 10718 10713 10712 10709 ] final  159.38 input   66.30 | X-H torsion
[ 10763 10752 10751 10750 ] final   -7.81 input  -60.55 | X-H torsion
[ 11005 11000 10999 10996 ] final   85.43 input  -57.11 | X-H torsion

> <Gold.Protein.ActiveResidues>
 VAL166  LYS551  ARG553  GLY616  TRP617  ASP618  TYR619  PRO620  LYS621  CYS622 
 ASP623  PHE694  ASN695  SER759  ASP760  ASP761  ALA762  ILE779  LEU786  VAL792 
 PHE793  MET794  SER795  GLU796  ALA797  LYS798  CYS799  TRP800  GLU811  SER814 

> <Gold.Protein.RotatedAtoms>
  151.4999  133.3506  159.2866 H   0  0  0  0  0  0  0  0  0  0  0  0  # atno 6907 bound_to 6896
  150.8780  134.8168  159.7215 H   0  0  0  0  0  0  0  0  0  0  0  0  # atno 6908 bound_to 6896
  152.4743  134.4893  159.9742 H   0  0  0  0  0  0  0  0  0  0  0  0  # atno 6909 bound_to 6896
  145.3894  139.2365  143.3360 H   0  0  0  0  0  0  0  0  0  0  0  0  # atno 7974 bound_to 7965
  155.4074  140.0510  157.3033 H   0  0  0  0  0  0  0  0  0  0  0  0  # atno 8008 bound_to 7997
  154.4962  140.2139  155.9402 H   0  0  0  0  0  0  0  0  0  0  0  0  # atno 8009 bound_to 7997
  156.1408  140.3154  155.8498 H   0  0  0  0  0  0  0  0  0  0  0  0  # atno 8010 bound_to 7997
  140.4891  144.0496  150.6291 H   0  0  0  0  0  0  0  0  0  0  0  0  # atno 10167 bound_to 10162
  157.1650  131.0596  151.2212 H   0  0  0  0  0  0  0  0  0  0  0  0  # atno 10718 bound_to 10713
  153.4316  135.7012  153.6227 H   0  0  0  0  0  0  0  0  0  0  0  0  # atno 10763 bound_to 10752
  153.4639  135.3730  155.2354 H   0  0  0  0  0  0  0  0  0  0  0  0  # atno 10764 bound_to 10752
  154.8725  135.4027  154.3700 H   0  0  0  0  0  0  0  0  0  0  0  0  # atno 10765 bound_to 10752
  139.8972  134.8286  156.2581 H   0  0  0  0  0  0  0  0  0  0  0  0  # atno 11005 bound_to 11000
  146.2805  140.4574  142.8778 LP  0  0  0  0  0  0  0  0  0  0  0  0  # atno 17320 bound_to 7965
  144.8451  140.6916  143.6204 LP  0  0  0  0  0  0  0  0  0  0  0  0  # atno 17321 bound_to 7965
  140.3760  143.2829  152.0225 LP  0  0  0  0  0  0  0  0  0  0  0  0  # atno 17342 bound_to 10162
  139.4847  144.6193  151.7286 LP  0  0  0  0  0  0  0  0  0  0  0  0  # atno 17343 bound_to 10162
  157.4097  130.7378  149.6829 LP  0  0  0  0  0  0  0  0  0  0  0  0  # atno 17370 bound_to 10713
  155.9747  130.4099  150.3900 LP  0  0  0  0  0  0  0  0  0  0  0  0  # atno 17371 bound_to 10713
  141.0180  133.7057  156.1221 LP  0  0  0  0  0  0  0  0  0  0  0  0  # atno 17394 bound_to 11000
  140.7273  134.4293  157.5569 LP  0  0  0  0  0  0  0  0  0  0  0  0  # atno 17395 bound_to 11000

$$$$
