AV-unprocessed.smi:548|AV-procd|sdf|2890|dock2
  -GOLD-   2262023383D 1   1.00000     0.00000
 Structure written by MMmdl.
 25 25  0  0  0  0  0  0  0  0  3 V2000
  150.5237  138.8599  157.5919 C   0  0  0  0  0  0  0  0  0  0  0  0
  150.9523  139.3094  156.1731 C   0  0  0  0  0  0  0  0  0  0  0  0
  151.5118  140.7512  156.2548 C   0  0  0  0  0  0  0  0  0  0  0  0
  152.0752  138.3627  155.6645 C   0  0  0  0  0  0  0  0  0  0  0  0
  153.1861  138.8678  155.3864 O   0  0  0  0  0  0  0  0  0  0  0  0
  151.7961  137.1519  155.5130 O   0  5  0  0  0  0  0  0  0  0  0  0
  149.7386  139.2677  155.2166 C   0  0  0  0  0  0  0  0  0  0  0  0
  148.6749  140.1817  155.4186 C   0  0  0  0  0  0  0  0  0  0  0  0
  147.5525  140.1728  154.5660 C   0  0  0  0  0  0  0  0  0  0  0  0
  147.5022  139.2433  153.5099 C   0  0  0  0  0  0  0  0  0  0  0  0
  146.4243  139.1776  152.6297 N   0  0  0  0  0  0  0  0  0  0  0  0
  148.5247  138.3820  153.3340 N   0  3  0  0  0  0  0  0  0  0  0  0
  149.6165  138.3598  154.1295 C   0  0  0  0  0  0  0  0  0  0  0  0
  150.0463  137.8790  157.5793 H   0  0  0  0  0  0  0  0  0  0  0  0
  149.8132  139.5549  158.0395 H   0  0  0  0  0  0  0  0  0  0  0  0
  151.3785  138.8033  158.2673 H   0  0  0  0  0  0  0  0  0  0  0  0
  151.7557  141.1480  155.2682 H   0  0  0  0  0  0  0  0  0  0  0  0
  152.4172  140.7938  156.8622 H   0  0  0  0  0  0  0  0  0  0  0  0
  150.7961  141.4380  156.7067 H   0  0  0  0  0  0  0  0  0  0  0  0
  148.7122  140.8955  156.2275 H   0  0  0  0  0  0  0  0  0  0  0  0
  146.7454  140.8727  154.7265 H   0  0  0  0  0  0  0  0  0  0  0  0
  145.6329  139.7990  152.7171 H   0  0  0  0  0  0  0  0  0  0  0  0
  146.3979  138.5062  151.8759 H   0  0  0  0  0  0  0  0  0  0  0  0
  150.3453  137.6110  153.8560 H   0  0  0  0  0  0  0  0  0  0  0  0
  148.4757  137.7136  152.5651 H   0  0  0  0  0  0  0  0  0  0  0  0
  1  2  1  0  0  0  0
  1 14  1  0  0  0  0
  1 15  1  0  0  0  0
  1 16  1  0  0  0  0
  2  3  1  0  0  0  0
  2  4  1  0  0  0  0
  2  7  1  0  0  0  0
  3 17  1  0  0  0  0
  3 18  1  0  0  0  0
  3 19  1  0  0  0  0
  4  5  2  0  0  0  0
  4  6  1  0  0  0  0
  7 13  1  0  0  0  0
  7  8  2  0  0  0  0
  8  9  1  0  0  0  0
  8 20  1  0  0  0  0
  9 10  2  0  0  0  0
  9 21  1  0  0  0  0
 10 11  1  0  0  0  0
 10 12  1  0  0  0  0
 11 22  1  0  0  0  0
 11 23  1  0  0  0  0
 12 13  2  0  0  0  0
 12 25  1  0  0  0  0
 13 24  1  0  0  0  0
M  CHG  1   6  -1
M  CHG  1  12   1
M  END
> <s_m_source_file>
AV-unprocessed.smi

> <i_m_source_file_index>
548

> <i_lp_mmshare_version>
43012

> <i_f3d_flags>
0

> <s_epik_input>
Tz1DKFtPSF0pQyhbQ0gzXSkoW0NIM10pYzFbY0hdW2NIXWMoW05IMl0pbltjSF0x

> <s_epik_cmdline>
J2VwaWtfcHl0aG9uJywgJy1waCcsICc3LjAnLCAnLXRuJywgJzgnLCAnLW1hJywgJzIwMCcsICctbWV0YWxfYmluZGluZycsICctaW1hZScsICc8aW5maWxlLm1hZT4nLCAnLW9tYWUnLCAnPG91dGZpbGUubWFlPic=

> <r_lp_tautomer_probability>
0.999994

> <r_epik_Ionization_Penalty>
0.0472787

> <r_epik_Ionization_Penalty_Charging>
0.0472785

> <r_epik_Ionization_Penalty_Neutral>
2.36651e-07

> <r_epik_State_Penalty>
0.0398874

> <r_epik_Charging_Adjusted_Penalty>
0.0871658

> <i_epik_Tot_Q>
0

> <i_epik_Tot_abs_Q>
2

> <r_epik_Metal_State_Penalty>
2.52256

> <b_epik_Metal_Only>
0

> <s_lp_Force_Field>
OPLS_2005

> <r_lp_Energy>
11.9737

> <b_lp_Chiralities_Consistent>
1

> <s_lp_Variant>
AV-unprocessed.smi:548-1

> <Gold.Version>
5.8.1

> <Gold.Id.Protein>
6NUR|6NUR_protein|mol2

> <Gold.PLP.Fitness>
42.2325

> <Gold.PLP.PLP>
-19.1311

> <Gold.PLP.part.hbond>
-5.0000

> <Gold.PLP.part.metal>
0.0000

> <Gold.PLP.part.buried>
-2.4982

> <Gold.PLP.part.nonpolar>
-12.6742

> <Gold.PLP.part.repulsive>
0.1564

> <Gold.PLP.ligand.clash>
0.0000

> <Gold.PLP.ligand.torsion>
0.1678

> <Gold.PLP.Chemscore.Hbond>
7.8080

> <Gold.PLP.Chemscore.CHOScore>
0.0000

> <Gold.PLP.Chemscore.Metal>
0.0000

> <Gold.Chemscore.Hbonds>
donor molecule, donor type, donor heavy atom, donor atom, acceptor molecule, acceptor atom, score
      L1  H    11    22       P1 10175  1.79
      L1  H    12    25       P1  7948  2.00
      P1  H  7997  8010       L1     5  2.00
      P1  H 10752 10765       L1     6  1.53

> <Gold.PLP.Chemscore.Internal.Correction>
0.0130

> <Gold.Rescore>
     Score         DG    S(hbond)    S(metal)    S(lipo)     H(rot)  DE(clash)    DE(int)     intcor
     16.52     -18.24       3.69        0.00      36.38       1.50       0.22       1.50       ----

> <Gold.Chemscore.Fitness>
16.5223

> <Gold.Chemscore.DG>
-18.2437

> <Gold.Chemscore.ZeroCoef>
-5.4800

> <Gold.Chemscore.Hbond>
3.6936

> <Gold.Chemscore.Metal>
0.0000

> <Gold.Chemscore.Lipo>
36.3837

> <Gold.Chemscore.Internal_Hbond>
0.0000

> <Gold.Chemscore.DEClash>
0.2213

> <Gold.Chemscore.DEInternal>
1.5001

> <Gold.Chemscore.Rot>
1.4961

> <Gold.Chemscore.Internal.Correction>
   9.000000E+99

> <Gold.Chemscore.Hbonds>
donor molecule, donor type, donor heavy atom, donor atom, acceptor molecule, acceptor atom, score
      L1  H    11    22       P1 10175  0.84
      L1  H    12    25       P1  7948  0.94
      P1  H  7997  8010       L1     5  0.98
      P1  H 10752 10765       L1     6  0.73

> <Gold.Chemscore.Hbond.Weighted>
-12.3368

> <Gold.Chemscore.Metal.Weighted>
-0.0000

> <Gold.Chemscore.Lipo.Weighted>
-4.2569

> <Gold.Chemscore.Internal_Hbond.Weighted>
0.0000

> <Gold.Chemscore.DEClash.Weighted>
0.2213

> <Gold.Chemscore.DEInternal.Weighted>
1.5001

> <Gold.Chemscore.Rot.Weighted>
3.8299

> <Gold.Chemscore.Internal.Correction.Weighted>
   9.000000E+99

> <Gold.Protein.RotatedTorsions>
[ 6907 6896 6895 6894 ] final   93.91 input  -60.11 | X-H torsion
[ 7974 7965 7964 7962 ] final  160.19 input  175.53 | X-H torsion
[ 8008 7997 7996 7995 ] final  100.39 input   59.86 | X-H torsion
[ 10167 10162 10161 10158 ] final   74.93 input  -65.29 | X-H torsion
[ 10718 10713 10712 10709 ] final    1.75 input   66.30 | X-H torsion
[ 10763 10752 10751 10750 ] final -177.61 input  -60.55 | X-H torsion
[ 11005 11000 10999 10996 ] final   56.13 input  -57.11 | X-H torsion

> <Gold.Protein.ActiveResidues>
 VAL166  LYS551  ARG553  GLY616  TRP617  ASP618  TYR619  PRO620  LYS621  CYS622 
 ASP623  PHE694  ASN695  SER759  ASP760  ASP761  ALA762  ILE779  LEU786  VAL792 
 PHE793  MET794  SER795  GLU796  ALA797  LYS798  CYS799  TRP800  GLU811  SER814 

> <Gold.Protein.RotatedAtoms>
  152.5451  134.1275  159.8424 H   0  0  0  0  0  0  0  0  0  0  0  0  # atno 6907 bound_to 6896
  151.1324  133.5020  159.2606 H   0  0  0  0  0  0  0  0  0  0  0  0  # atno 6908 bound_to 6896
  151.1661  135.0306  159.8786 H   0  0  0  0  0  0  0  0  0  0  0  0  # atno 6909 bound_to 6896
  144.7750  139.7722  143.6282 H   0  0  0  0  0  0  0  0  0  0  0  0  # atno 7974 bound_to 7965
  156.1198  140.3214  155.8192 H   0  0  0  0  0  0  0  0  0  0  0  0  # atno 8008 bound_to 7997
  155.4524  140.0533  157.3017 H   0  0  0  0  0  0  0  0  0  0  0  0  # atno 8009 bound_to 7997
  154.4819  140.2056  155.9757 H   0  0  0  0  0  0  0  0  0  0  0  0  # atno 8010 bound_to 7997
  140.0084  144.5633  150.7679 H   0  0  0  0  0  0  0  0  0  0  0  0  # atno 10167 bound_to 10162
  156.8528  130.5559  149.5668 H   0  0  0  0  0  0  0  0  0  0  0  0  # atno 10718 bound_to 10713
  154.5579  135.2818  155.0947 H   0  0  0  0  0  0  0  0  0  0  0  0  # atno 10763 bound_to 10752
  154.2367  135.6364  153.5197 H   0  0  0  0  0  0  0  0  0  0  0  0  # atno 10764 bound_to 10752
  153.0021  135.5550  154.6165 H   0  0  0  0  0  0  0  0  0  0  0  0  # atno 10765 bound_to 10752
  140.0553  134.5679  155.9215 H   0  0  0  0  0  0  0  0  0  0  0  0  # atno 11005 bound_to 11000
  146.1923  139.5170  142.9797 LP  0  0  0  0  0  0  0  0  0  0  0  0  # atno 17320 bound_to 7965
  145.6212  141.0322  143.1914 LP  0  0  0  0  0  0  0  0  0  0  0  0  # atno 17321 bound_to 7965
  140.7391  143.2787  151.3664 LP  0  0  0  0  0  0  0  0  0  0  0  0  # atno 17342 bound_to 10162
  139.6222  144.0884  152.2402 LP  0  0  0  0  0  0  0  0  0  0  0  0  # atno 17343 bound_to 10162
  156.0819  130.5827  150.9578 LP  0  0  0  0  0  0  0  0  0  0  0  0  # atno 17370 bound_to 10713
  157.6294  131.0922  150.8471 LP  0  0  0  0  0  0  0  0  0  0  0  0  # atno 17371 bound_to 10713
  141.1949  133.6585  156.5617 LP  0  0  0  0  0  0  0  0  0  0  0  0  # atno 17394 bound_to 11000
  140.3854  134.7487  157.4688 LP  0  0  0  0  0  0  0  0  0  0  0  0  # atno 17395 bound_to 11000

$$$$
