AV-unprocessed.smi:1554|AV-procd|sdf|6258|dock9
  -GOLD-   22720 6443D 1   1.00000     0.00000
 Structure written by MMmdl.
 49 51  0  0  0  0  0  0  0  0  3 V2000
  152.1422  140.4013  156.5094 C   0  0  0  0  0  0  0  0  0  0  0  0
  150.8834  140.2928  155.6656 C   0  0  0  0  0  0  0  0  0  0  0  0
  150.0310  141.4168  155.5781 C   0  0  0  0  0  0  0  0  0  0  0  0
  148.8902  141.2882  154.7948 C   0  0  0  0  0  0  0  0  0  0  0  0
  147.8687  142.1963  154.5074 N   0  3  0  0  0  0  0  0  0  0  0  0
  146.9579  141.6103  153.6816 C   0  0  0  0  0  0  0  0  0  0  0  0
  147.3847  140.3414  153.4354 N   0  0  0  0  0  0  0  0  0  0  0  0
  146.7888  139.2842  152.6075 C   0  0  0  0  0  0  0  0  0  0  0  0
  145.8545  138.3569  153.4099 C   0  0  2  0  0  0  0  0  0  0  0  0
  144.9513  139.1466  154.1598 O   0  0  0  0  0  0  0  0  0  0  0  0
  146.6355  137.4379  154.3703 C   0  0  0  0  0  0  0  0  0  0  0  0
  147.0167  136.1461  153.7366 N   0  3  2  0  0  0  0  0  0  0  0  0
  145.9655  135.5799  152.8565 C   0  0  0  0  0  0  0  0  0  0  0  0
  144.8566  134.9012  153.6801 C   0  0  0  0  0  0  0  0  0  0  0  0
  145.4302  133.8949  154.5058 O   0  0  0  0  0  0  0  0  0  0  0  0
  146.3644  134.4232  155.4411 C   0  0  1  0  0  0  0  0  0  0  0  0
  146.8643  133.2709  156.3191 C   0  0  0  0  0  0  0  0  0  0  0  0
  147.5179  135.1107  154.6778 C   0  0  0  0  0  0  0  0  0  0  0  0
  148.5835  140.0950  154.1127 C   0  0  0  0  0  0  0  0  0  0  0  0
  149.4100  138.9768  154.1911 C   0  0  0  0  0  0  0  0  0  0  0  0
  150.5760  139.0879  154.9817 C   0  0  0  0  0  0  0  0  0  0  0  0
  151.4983  137.8850  155.0846 C   0  0  0  0  0  0  0  0  0  0  0  0
  152.2260  141.3826  156.9772 H   0  0  0  0  0  0  0  0  0  0  0  0
  153.0291  140.2492  155.8937 H   0  0  0  0  0  0  0  0  0  0  0  0
  152.1381  139.6533  157.3023 H   0  0  0  0  0  0  0  0  0  0  0  0
  150.2585  142.3368  156.0966 H   0  0  0  0  0  0  0  0  0  0  0  0
  146.0630  142.0718  153.2894 H   0  0  0  0  0  0  0  0  0  0  0  0
  146.2563  139.7574  151.7815 H   0  0  0  0  0  0  0  0  0  0  0  0
  147.6055  138.7132  152.1631 H   0  0  0  0  0  0  0  0  0  0  0  0
  145.2733  137.7603  152.7084 H   0  0  0  0  0  0  0  0  0  0  0  0
  144.4165  139.6472  153.5623 H   0  0  0  0  0  0  0  0  0  0  0  0
  147.5253  137.9474  154.7400 H   0  0  0  0  0  0  0  0  0  0  0  0
  146.0138  137.2494  155.2469 H   0  0  0  0  0  0  0  0  0  0  0  0
  145.5511  136.3488  152.2035 H   0  0  0  0  0  0  0  0  0  0  0  0
  146.4287  134.8411  152.2011 H   0  0  0  0  0  0  0  0  0  0  0  0
  144.3125  135.6261  154.2874 H   0  0  0  0  0  0  0  0  0  0  0  0
  144.1290  134.4359  153.0151 H   0  0  0  0  0  0  0  0  0  0  0  0
  145.8557  135.1417  156.0850 H   0  0  0  0  0  0  0  0  0  0  0  0
  147.5734  133.6266  157.0672 H   0  0  0  0  0  0  0  0  0  0  0  0
  147.3621  132.5056  155.7229 H   0  0  0  0  0  0  0  0  0  0  0  0
  146.0366  132.7959  156.8462 H   0  0  0  0  0  0  0  0  0  0  0  0
  148.0580  134.3643  154.0936 H   0  0  0  0  0  0  0  0  0  0  0  0
  148.2426  135.5283  155.3754 H   0  0  0  0  0  0  0  0  0  0  0  0
  149.1762  138.0603  153.6703 H   0  0  0  0  0  0  0  0  0  0  0  0
  151.1286  137.0466  154.4934 H   0  0  0  0  0  0  0  0  0  0  0  0
  151.5790  137.5524  156.1197 H   0  0  0  0  0  0  0  0  0  0  0  0
  152.4957  138.1339  154.7213 H   0  0  0  0  0  0  0  0  0  0  0  0
  147.7881  136.3778  153.1263 H   0  0  0  0  0  0  0  0  0  0  0  0
  147.7971  143.1472  154.8468 H   0  0  0  0  0  0  0  0  0  0  0  0
  1  2  1  0  0  0  0
  1 23  1  0  0  0  0
  1 24  1  0  0  0  0
  1 25  1  0  0  0  0
  2 21  1  0  0  0  0
  2  3  2  0  0  0  0
  3  4  1  0  0  0  0
  3 26  1  0  0  0  0
  4 19  2  0  0  0  0
  4  5  1  0  0  0  0
  5  6  2  0  0  0  0
  5 49  1  0  0  0  0
  6  7  1  0  0  0  0
  6 27  1  0  0  0  0
  7  8  1  0  0  0  0
  7 19  1  0  0  0  0
  8  9  1  0  0  0  0
  8 28  1  0  0  0  0
  8 29  1  0  0  0  0
  9 10  1  0  0  0  0
  9 11  1  0  0  0  0
  9 30  1  0  0  0  0
 10 31  1  0  0  0  0
 11 12  1  0  0  0  0
 11 32  1  0  0  0  0
 11 33  1  0  0  0  0
 12 18  1  0  0  0  0
 12 13  1  0  0  0  0
 12 48  1  0  0  0  0
 13 14  1  0  0  0  0
 13 34  1  0  0  0  0
 13 35  1  0  0  0  0
 14 15  1  0  0  0  0
 14 36  1  0  0  0  0
 14 37  1  0  0  0  0
 15 16  1  0  0  0  0
 16 17  1  0  0  0  0
 16 18  1  0  0  0  0
 16 38  1  0  0  0  0
 17 39  1  0  0  0  0
 17 40  1  0  0  0  0
 17 41  1  0  0  0  0
 18 42  1  0  0  0  0
 18 43  1  0  0  0  0
 19 20  1  0  0  0  0
 20 21  2  0  0  0  0
 20 44  1  0  0  0  0
 21 22  1  0  0  0  0
 22 45  1  0  0  0  0
 22 46  1  0  0  0  0
 22 47  1  0  0  0  0
M  CHG  1   5   1
M  CHG  1  12   1
M  END
> <s_m_source_file>
AV-unprocessed.smi

> <i_m_source_file_index>
1554

> <i_lp_mmshare_version>
43012

> <i_f3d_flags>
0

> <s_epik_input>
W0NIM11jKFtjSF0xKWMoW0NIM10pW2NIXWMoYzEyKW4oW2NIXW4yKVtDSDJdW0NASF0oW09IXSlbQ0gyXU4zW0NIMl1bQ0gyXU9bQ0BASF0oW0NIM10pW0NIMl0z

> <s_epik_cmdline>
J2VwaWtfcHl0aG9uJywgJy1waCcsICc3LjAnLCAnLXRuJywgJzgnLCAnLW1hJywgJzIwMCcsICctbWV0YWxfYmluZGluZycsICctaW1hZScsICc8aW5maWxlLm1hZT4nLCAnLW9tYWUnLCAnPG91dGZpbGUubWFlPic=

> <r_epik_Ionization_Penalty>
1.8848

> <r_epik_Ionization_Penalty_Charging>
1.88479

> <r_epik_Ionization_Penalty_Neutral>
1.42224e-05

> <r_epik_State_Penalty>
1.94551

> <r_epik_Charging_Adjusted_Penalty>
3.8303

> <i_epik_Tot_Q>
2

> <i_epik_Tot_abs_Q>
2

> <r_epik_Metal_State_Penalty>
5.95849

> <b_epik_Metal_Only>
0

> <s_lp_Force_Field>
OPLS_2005

> <r_lp_Energy>
31.481

> <b_lp_Chiralities_Consistent>
1

> <s_lp_Variant>
AV-unprocessed.smi:1554-19

> <Gold.Version>
5.8.1

> <Gold.Id.Protein>
6NUR|6NUR_protein|mol2

> <Gold.PLP.Fitness>
45.6036

> <Gold.PLP.PLP>
-32.4863

> <Gold.PLP.part.hbond>
-2.8753

> <Gold.PLP.part.metal>
0.0000

> <Gold.PLP.part.buried>
-0.0271

> <Gold.PLP.part.nonpolar>
-28.5113

> <Gold.PLP.part.repulsive>
0.2692

> <Gold.PLP.ligand.clash>
0.0000

> <Gold.PLP.ligand.torsion>
0.9530

> <Gold.PLP.Chemscore.Hbond>
5.0000

> <Gold.PLP.Chemscore.CHOScore>
0.0000

> <Gold.PLP.Chemscore.Metal>
0.0000

> <Gold.Chemscore.Hbonds>
donor molecule, donor type, donor heavy atom, donor atom, acceptor molecule, acceptor atom, score
      L1  H     5    49       P1  8028  1.75
      L1  H    10    31       P1 10175  1.00
      L1  H    12    48       P1  7948  2.00

> <Gold.PLP.Chemscore.Internal.Correction>
0.0233

> <Gold.Rescore>
     Score         DG    S(hbond)    S(metal)    S(lipo)     H(rot)  DE(clash)    DE(int)     intcor
     17.61     -18.66       2.93        0.00      75.31       2.11       0.24       0.81       ----

> <Gold.Chemscore.Fitness>
17.6092

> <Gold.Chemscore.DG>
-18.6576

> <Gold.Chemscore.ZeroCoef>
-5.4800

> <Gold.Chemscore.Hbond>
2.9264

> <Gold.Chemscore.Metal>
0.0000

> <Gold.Chemscore.Lipo>
75.3062

> <Gold.Chemscore.Internal_Hbond>
0.0000

> <Gold.Chemscore.DEClash>
0.2384

> <Gold.Chemscore.DEInternal>
0.8101

> <Gold.Chemscore.Rot>
2.1122

> <Gold.Chemscore.Internal.Correction>
   9.000000E+99

> <Gold.Chemscore.Hbonds>
donor molecule, donor type, donor heavy atom, donor atom, acceptor molecule, acceptor atom, score
      L1  H     5    49       P1  8028  0.60
      L1  H    10    31       P1 10175  0.94
      L1  H    12    48       P1  7948  0.99

> <Gold.Chemscore.Hbond.Weighted>
-9.7741

> <Gold.Chemscore.Metal.Weighted>
-0.0000

> <Gold.Chemscore.Lipo.Weighted>
-8.8108

> <Gold.Chemscore.Internal_Hbond.Weighted>
0.0000

> <Gold.Chemscore.DEClash.Weighted>
0.2384

> <Gold.Chemscore.DEInternal.Weighted>
0.8101

> <Gold.Chemscore.Rot.Weighted>
5.4073

> <Gold.Chemscore.Internal.Correction.Weighted>
   9.000000E+99

> <Gold.Protein.RotatedTorsions>
[ 6907 6896 6895 6894 ] final  -91.06 input  -60.11 | X-H torsion
[ 7974 7965 7964 7962 ] final   17.41 input  175.53 | X-H torsion
[ 8008 7997 7996 7995 ] final -176.13 input   59.86 | X-H torsion
[ 10167 10162 10161 10158 ] final   44.07 input  -65.29 | X-H torsion
[ 10718 10713 10712 10709 ] final  -32.56 input   66.30 | X-H torsion
[ 10763 10752 10751 10750 ] final   -7.99 input  -60.55 | X-H torsion
[ 11005 11000 10999 10996 ] final   84.77 input  -57.11 | X-H torsion

> <Gold.Protein.ActiveResidues>
 VAL166  LYS551  ARG553  GLY616  TRP617  ASP618  TYR619  PRO620  LYS621  CYS622 
 ASP623  PHE694  ASN695  SER759  ASP760  ASP761  ALA762  ILE779  LEU786  VAL792 
 PHE793  MET794  SER795  GLU796  ALA797  LYS798  CYS799  TRP800  GLU811  SER814 

> <Gold.Protein.RotatedAtoms>
  150.6888  134.2335  159.4443 H   0  0  0  0  0  0  0  0  0  0  0  0  # atno 6907 bound_to 6896
  152.0284  134.9780  160.0581 H   0  0  0  0  0  0  0  0  0  0  0  0  # atno 6908 bound_to 6896
  152.1329  133.4383  159.4766 H   0  0  0  0  0  0  0  0  0  0  0  0  # atno 6909 bound_to 6896
  146.2219  139.8606  142.8605 H   0  0  0  0  0  0  0  0  0  0  0  0  # atno 7974 bound_to 7965
  155.9911  140.1201  157.0637 H   0  0  0  0  0  0  0  0  0  0  0  0  # atno 8008 bound_to 7997
  154.4212  140.1125  156.5635 H   0  0  0  0  0  0  0  0  0  0  0  0  # atno 8009 bound_to 7997
  155.6342  140.3473  155.4695 H   0  0  0  0  0  0  0  0  0  0  0  0  # atno 8010 bound_to 7997
  140.3380  144.2506  150.6159 H   0  0  0  0  0  0  0  0  0  0  0  0  # atno 10167 bound_to 10162
  156.3733  130.4343  149.7527 H   0  0  0  0  0  0  0  0  0  0  0  0  # atno 10718 bound_to 10713
  153.4341  135.7012  153.6211 H   0  0  0  0  0  0  0  0  0  0  0  0  # atno 10763 bound_to 10752
  153.4613  135.3735  155.2340 H   0  0  0  0  0  0  0  0  0  0  0  0  # atno 10764 bound_to 10752
  154.8726  135.4020  154.3730 H   0  0  0  0  0  0  0  0  0  0  0  0  # atno 10765 bound_to 10752
  139.8990  134.8240  156.2491 H   0  0  0  0  0  0  0  0  0  0  0  0  # atno 11005 bound_to 11000
  145.2708  141.0108  143.3773 LP  0  0  0  0  0  0  0  0  0  0  0  0  # atno 17320 bound_to 7965
  144.9225  139.4395  143.6534 LP  0  0  0  0  0  0  0  0  0  0  0  0  # atno 17321 bound_to 7965
  140.5336  143.2238  151.8199 LP  0  0  0  0  0  0  0  0  0  0  0  0  # atno 17342 bound_to 10162
  139.4845  144.4690  151.9449 LP  0  0  0  0  0  0  0  0  0  0  0  0  # atno 17343 bound_to 10162
  156.4646  130.7968  151.2987 LP  0  0  0  0  0  0  0  0  0  0  0  0  # atno 17370 bound_to 10713
  157.7486  131.0055  150.3116 LP  0  0  0  0  0  0  0  0  0  0  0  0  # atno 17371 bound_to 10713
  141.0236  133.7028  156.1309 LP  0  0  0  0  0  0  0  0  0  0  0  0  # atno 17394 bound_to 11000
  140.7199  134.4370  157.5575 LP  0  0  0  0  0  0  0  0  0  0  0  0  # atno 17395 bound_to 11000

$$$$
