AV-unprocessed.smi:287|AV-procd|sdf|2206|dock7
  -GOLD-   2262022 33D 1   1.00000     0.00000
 Structure written by MMmdl.
 55 58  0  0  0  0  0  0  0  0  1 V2000
  144.4878  132.4389  151.3809 C   0  0  0  0  0  0  0  0  0  0  0  0
  145.5348  133.0393  152.2550 C   0  0  0  0  0  0  0  0  0  0  0  0
  145.6149  134.1950  152.9756 C   0  0  0  0  0  0  0  0  0  0  0  0
  146.8861  134.2061  153.6237 C   0  0  0  0  0  0  0  0  0  0  0  0
  147.4077  135.3031  154.5423 C   0  0  2  0  0  0  0  0  0  0  0  0
  146.5448  135.3771  155.8132 C   0  0  0  0  0  0  0  0  0  0  0  0
  147.3278  136.5911  153.9631 O   0  0  0  0  0  0  0  0  0  0  0  0
  148.8922  135.0953  154.9192 C   0  0  0  0  0  0  0  0  0  0  0  0
  149.3362  135.9857  155.9868 N   0  0  0  0  0  0  0  0  0  0  0  0
  149.9085  137.1707  155.6886 C   0  0  0  0  0  0  0  0  0  0  0  0
  150.1244  137.5391  154.3990 N   0  0  0  0  0  0  0  0  0  0  0  0
  150.6916  138.7185  154.1295 C   0  0  0  0  0  0  0  0  0  0  0  0
  151.1085  139.6575  154.9814 N   0  0  0  0  0  0  0  0  0  0  0  0
  150.8930  139.2937  156.2789 C   0  0  0  0  0  0  0  0  0  0  0  0
  150.3033  138.0725  156.7101 C   0  0  0  0  0  0  0  0  0  0  0  0
  150.2457  138.0397  158.0967 N   0  0  0  0  0  0  0  0  0  0  0  0
  150.7721  139.1777  158.4603 C   0  0  0  0  0  0  0  0  0  0  0  0
  151.1906  139.9939  157.4326 N   0  0  0  0  0  0  0  0  0  0  0  0
  151.8269  141.3465  157.5566 C   0  0  2  0  0  0  0  0  0  0  0  0
  152.0421  141.6416  158.9063 O   0  0  0  0  0  0  0  0  0  0  0  0
  151.3370  142.8255  159.2811 C   0  0  1  0  0  0  0  0  0  0  0  0
  152.1188  143.5744  160.3715 C   0  0  0  0  0  0  0  0  0  0  0  0
  151.6811  143.1669  161.6500 O   0  0  0  0  0  0  0  0  0  0  0  0
  151.2401  143.5932  157.9616 C   0  0  2  0  0  0  0  0  0  0  0  0
  150.2352  144.5891  157.9609 O   0  0  0  0  0  0  0  0  0  0  0  0
  150.9730  142.4807  156.9583 C   0  0  2  0  0  0  0  0  0  0  0  0
  149.5934  142.1611  156.8529 O   0  0  0  0  0  0  0  0  0  0  0  0
  147.4911  133.0365  153.2291 C   0  0  0  0  0  0  0  0  0  0  0  0
  148.8138  132.4035  153.5123 C   0  0  0  0  0  0  0  0  0  0  0  0
  146.6774  132.3231  152.4013 O   0  0  0  0  0  0  0  0  0  0  0  0
  152.7941  141.2419  157.0634 H   0  0  0  0  0  0  0  0  0  0  0  0
  150.3340  142.5660  159.6243 H   0  0  0  0  0  0  0  0  0  0  0  0
  152.2016  144.0581  157.7376 H   0  0  0  0  0  0  0  0  0  0  0  0
  151.3438  142.7328  155.9642 H   0  0  0  0  0  0  0  0  0  0  0  0
  143.5844  133.0488  151.3810 H   0  0  0  0  0  0  0  0  0  0  0  0
  144.2209  131.4403  151.7273 H   0  0  0  0  0  0  0  0  0  0  0  0
  144.8419  132.3589  150.3531 H   0  0  0  0  0  0  0  0  0  0  0  0
  144.8442  134.9489  153.0374 H   0  0  0  0  0  0  0  0  0  0  0  0
  146.5700  134.4363  156.3643 H   0  0  0  0  0  0  0  0  0  0  0  0
  145.5017  135.5878  155.5727 H   0  0  0  0  0  0  0  0  0  0  0  0
  146.8931  136.1594  156.4887 H   0  0  0  0  0  0  0  0  0  0  0  0
  148.0491  136.6943  153.3616 H   0  0  0  0  0  0  0  0  0  0  0  0
  149.0858  134.0544  155.1829 H   0  0  0  0  0  0  0  0  0  0  0  0
  149.5076  135.3153  154.0455 H   0  0  0  0  0  0  0  0  0  0  0  0
  149.1367  135.6821  156.9296 H   0  0  0  0  0  0  0  0  0  0  0  0
  150.8311  138.9428  153.0825 H   0  0  0  0  0  0  0  0  0  0  0  0
  150.8723  139.4550  159.4997 H   0  0  0  0  0  0  0  0  0  0  0  0
  153.1931  143.4178  160.2694 H   0  0  0  0  0  0  0  0  0  0  0  0
  151.9390  144.6470  160.2925 H   0  0  0  0  0  0  0  0  0  0  0  0
  151.6822  143.9189  162.2223 H   0  0  0  0  0  0  0  0  0  0  0  0
  149.8687  144.6371  157.0904 H   0  0  0  0  0  0  0  0  0  0  0  0
  149.1364  142.9158  156.5140 H   0  0  0  0  0  0  0  0  0  0  0  0
  149.6293  133.0671  153.2249 H   0  0  0  0  0  0  0  0  0  0  0  0
  148.9314  131.4704  152.9612 H   0  0  0  0  0  0  0  0  0  0  0  0
  148.9153  132.1802  154.5743 H   0  0  0  0  0  0  0  0  0  0  0  0
  1  2  1  0  0  0  0
  1 35  1  0  0  0  0
  1 36  1  0  0  0  0
  1 37  1  0  0  0  0
  2 30  1  0  0  0  0
  2  3  2  0  0  0  0
  3  4  1  0  0  0  0
  3 38  1  0  0  0  0
  4  5  1  0  0  0  0
  4 28  2  0  0  0  0
  5  6  1  0  0  0  0
  5  7  1  0  0  0  0
  5  8  1  0  0  0  0
  6 39  1  0  0  0  0
  6 40  1  0  0  0  0
  6 41  1  0  0  0  0
  7 42  1  0  0  0  0
  8  9  1  0  0  0  0
  8 43  1  0  0  0  0
  8 44  1  0  0  0  0
  9 10  1  0  0  0  0
  9 45  1  0  0  0  0
 10 15  1  0  0  0  0
 10 11  2  0  0  0  0
 11 12  1  0  0  0  0
 12 13  2  0  0  0  0
 12 46  1  0  0  0  0
 13 14  1  0  0  0  0
 14 18  1  0  0  0  0
 14 15  2  0  0  0  0
 15 16  1  0  0  0  0
 16 17  2  0  0  0  0
 17 18  1  0  0  0  0
 17 47  1  0  0  0  0
 18 19  1  0  0  0  0
 19 31  1  0  0  0  0
 19 26  1  0  0  0  0
 19 20  1  0  0  0  0
 20 21  1  0  0  0  0
 21 32  1  0  0  0  0
 21 22  1  0  0  0  0
 21 24  1  0  0  0  0
 22 23  1  0  0  0  0
 22 48  1  0  0  0  0
 22 49  1  0  0  0  0
 23 50  1  0  0  0  0
 24 33  1  0  0  0  0
 24 25  1  0  0  0  0
 24 26  1  0  0  0  0
 25 51  1  0  0  0  0
 26 34  1  0  0  0  0
 26 27  1  0  0  0  0
 27 52  1  0  0  0  0
 28 29  1  0  0  0  0
 28 30  1  0  0  0  0
 29 53  1  0  0  0  0
 29 54  1  0  0  0  0
 29 55  1  0  0  0  0
M  END
> <s_m_source_file>
AV-unprocessed.smi

> <i_m_source_file_index>
287

> <i_lp_mmshare_version>
43012

> <i_f3d_flags>
0

> <s_epik_input>
W0NIM11jMVtjSF1jKGMobzEpW0NIM10pW0NAQF0oW0NIM10pKFtPSF0pW0NIMl1bTkhdYyhuW2NIXW4yKWMoYzIzKW5bY0hdbjNbQ0BASF00T1tDQEhdKFtDSDJdW09IXSlbQ0BASF0oW09IXSlbQ0BIXTRbT0hd

> <s_epik_cmdline>
J2VwaWtfcHl0aG9uJywgJy1waCcsICc3LjAnLCAnLXRuJywgJzgnLCAnLW1hJywgJzIwMCcsICctbWV0YWxfYmluZGluZycsICctaW1hZScsICc8aW5maWxlLm1hZT4nLCAnLW9tYWUnLCAnPG91dGZpbGUubWFlPic=

> <r_lp_tautomer_probability>
1

> <r_epik_Ionization_Penalty>
0.000992612

> <r_epik_Ionization_Penalty_Charging>
0

> <r_epik_Ionization_Penalty_Neutral>
0.000992612

> <r_epik_State_Penalty>
-0

> <r_epik_Charging_Adjusted_Penalty>
0

> <i_epik_Tot_Q>
0

> <i_epik_Tot_abs_Q>
0

> <r_epik_Metal_State_Penalty>
-0

> <b_epik_Metal_Only>
0

> <s_epik_Chemistry_Notes>
This compound contains an acetal/aminal-like group ( X-CH(R)-Y where X, Y are N, S, or O) that may be acid/base labile, releasing an aldehyde.

> <s_lp_Force_Field>
OPLS_2005

> <r_lp_Energy>
49.5285

> <b_lp_Chiralities_Consistent>
1

> <s_lp_Variant>
AV-unprocessed.smi:287-30

> <Gold.Version>
5.8.1

> <Gold.Id.Protein>
6NUR|6NUR_protein|mol2

> <Gold.PLP.Fitness>
52.8005

> <Gold.PLP.PLP>
-39.6644

> <Gold.PLP.part.hbond>
-6.6261

> <Gold.PLP.part.metal>
0.0000

> <Gold.PLP.part.buried>
-6.2763

> <Gold.PLP.part.nonpolar>
-27.4236

> <Gold.PLP.part.repulsive>
0.8250

> <Gold.PLP.ligand.clash>
0.0000

> <Gold.PLP.ligand.torsion>
0.8179

> <Gold.PLP.Chemscore.Hbond>
3.8973

> <Gold.PLP.Chemscore.CHOScore>
0.9947

> <Gold.PLP.Chemscore.Metal>
0.0000

> <Gold.Chemscore.Hbonds>
donor molecule, donor type, donor heavy atom, donor atom, acceptor molecule, acceptor atom, score
      L1  H     7    42       P1  7948  1.00
      L1  H    25    51       P1  8028  1.00
      L1  H    27    52       P1  8028  1.00
      P1  H  6933  6945       L1    23  0.31
      P1  H  7989  7998       L1    13  0.60
      L1  C    12    46       P1  7957  1.00

> <Gold.PLP.Chemscore.Internal.Correction>
0.0961

> <Gold.Rescore>
     Score         DG    S(hbond)    S(metal)    S(lipo)     H(rot)  DE(clash)    DE(int)     intcor
      6.99      -9.12       2.36        0.00      79.02       5.27       0.61       1.53       ----

> <Gold.Chemscore.Fitness>
6.9880

> <Gold.Chemscore.DG>
-9.1232

> <Gold.Chemscore.ZeroCoef>
-5.4800

> <Gold.Chemscore.Hbond>
2.3597

> <Gold.Chemscore.Metal>
0.0000

> <Gold.Chemscore.Lipo>
79.0220

> <Gold.Chemscore.Internal_Hbond>
0.0000

> <Gold.Chemscore.DEClash>
0.6082

> <Gold.Chemscore.DEInternal>
1.5269

> <Gold.Chemscore.Rot>
5.2672

> <Gold.Chemscore.Internal.Correction>
   9.000000E+99

> <Gold.Chemscore.Hbonds>
donor molecule, donor type, donor heavy atom, donor atom, acceptor molecule, acceptor atom, score
      L1  H     7    42       P1  7948  0.96
      L1  H    25    51       P1  8028  0.26
      L1  H    27    52       P1  8028  0.95
      P1  H  6933  6945       L1    23  0.22
      P1  H  7989  7998       L1    13  0.04

> <Gold.Chemscore.Hbond.Weighted>
-7.8815

> <Gold.Chemscore.Metal.Weighted>
-0.0000

> <Gold.Chemscore.Lipo.Weighted>
-9.2456

> <Gold.Chemscore.Internal_Hbond.Weighted>
0.0000

> <Gold.Chemscore.DEClash.Weighted>
0.6082

> <Gold.Chemscore.DEInternal.Weighted>
1.5269

> <Gold.Chemscore.Rot.Weighted>
13.4839

> <Gold.Chemscore.Internal.Correction.Weighted>
   9.000000E+99

> <Gold.Protein.RotatedTorsions>
[ 6907 6896 6895 6894 ] final  156.44 input  -60.11 | X-H torsion
[ 7974 7965 7964 7962 ] final   25.15 input  175.53 | X-H torsion
[ 8008 7997 7996 7995 ] final  -64.76 input   59.86 | X-H torsion
[ 10167 10162 10161 10158 ] final   55.20 input  -65.29 | X-H torsion
[ 10718 10713 10712 10709 ] final    8.56 input   66.30 | X-H torsion
[ 10763 10752 10751 10750 ] final -179.66 input  -60.55 | X-H torsion
[ 11005 11000 10999 10996 ] final   88.27 input  -57.11 | X-H torsion

> <Gold.Protein.ActiveResidues>
 VAL166  LYS551  ARG553  GLY616  TRP617  ASP618  TYR619  PRO620  LYS621  CYS622 
 ASP623  PHE694  ASN695  SER759  ASP760  ASP761  ALA762  ILE779  LEU786  VAL792 
 PHE793  MET794  SER795  GLU796  ALA797  LYS798  CYS799  TRP800  GLU811  SER814 

> <Gold.Protein.RotatedAtoms>
  152.0296  133.3932  159.4291 H   0  0  0  0  0  0  0  0  0  0  0  0  # atno 6907 bound_to 6896
  150.6883  134.3536  159.4929 H   0  0  0  0  0  0  0  0  0  0  0  0  # atno 6908 bound_to 6896
  152.1320  134.9127  160.0609 H   0  0  0  0  0  0  0  0  0  0  0  0  # atno 6909 bound_to 6896
  146.1903  139.7506  142.8837 H   0  0  0  0  0  0  0  0  0  0  0  0  # atno 7974 bound_to 7965
  154.4631  140.0947  156.6946 H   0  0  0  0  0  0  0  0  0  0  0  0  # atno 8008 bound_to 7997
  155.4937  140.3471  155.4341 H   0  0  0  0  0  0  0  0  0  0  0  0  # atno 8009 bound_to 7997
  156.0906  140.1396  156.9585 H   0  0  0  0  0  0  0  0  0  0  0  0  # atno 8010 bound_to 7997
  140.2219  144.3779  150.6447 H   0  0  0  0  0  0  0  0  0  0  0  0  # atno 10167 bound_to 10162
  156.9535  130.5906  149.5658 H   0  0  0  0  0  0  0  0  0  0  0  0  # atno 10718 bound_to 10713
  154.5323  135.2800  155.1169 H   0  0  0  0  0  0  0  0  0  0  0  0  # atno 10763 bound_to 10752
  154.2684  135.6308  153.5305 H   0  0  0  0  0  0  0  0  0  0  0  0  # atno 10764 bound_to 10752
  152.9959  135.5622  154.5840 H   0  0  0  0  0  0  0  0  0  0  0  0  # atno 10765 bound_to 10752
  139.8900  134.8477  156.2977 H   0  0  0  0  0  0  0  0  0  0  0  0  # atno 11005 bound_to 11000
  145.3813  141.0358  143.3176 LP  0  0  0  0  0  0  0  0  0  0  0  0  # atno 17320 bound_to 7965
  144.8474  139.5376  143.6872 LP  0  0  0  0  0  0  0  0  0  0  0  0  # atno 17321 bound_to 7965
  140.6248  143.2180  151.6618 LP  0  0  0  0  0  0  0  0  0  0  0  0  # atno 17342 bound_to 10162
  139.5141  144.3422  152.0730 LP  0  0  0  0  0  0  0  0  0  0  0  0  # atno 17343 bound_to 10162
  156.0353  130.5441  150.8637 LP  0  0  0  0  0  0  0  0  0  0  0  0  # atno 17370 bound_to 10713
  157.5706  131.0946  150.9423 LP  0  0  0  0  0  0  0  0  0  0  0  0  # atno 17371 bound_to 10713
  140.9934  133.7195  156.0848 LP  0  0  0  0  0  0  0  0  0  0  0  0  # atno 17394 bound_to 11000
  140.7595  134.3955  157.5528 LP  0  0  0  0  0  0  0  0  0  0  0  0  # atno 17395 bound_to 11000

$$$$
