#       Name:                AV-unprocessed.smi:3047
#       Creating user name   scv26
#       Creation time:       Fri Mar 27 17:01:02 2020


#       File generated by GOLD software.
#

@<TRIPOS>MOLECULE
AV-unprocessed.smi:3047
    41    42     1
SMALL
NO_CHARGES


@<TRIPOS>ATOM
      1 ****        -2.5251   2.9827   2.5424 C.3            1 S1                 0.0000
      2 ****        -2.5476   1.1647   2.2695 S.o2           1 S1                 0.0000
      3 ****        -1.3423   0.5923   2.8888 O.2            1 S1                 0.0000
      4 ****        -3.8747   0.6382   2.6231 O.2            1 S1                 0.0000
      5 ****        -2.3652   1.0327   0.5540 N.3            1 S1                 0.0000
      6 ****        -3.4059   1.5977  -0.3163 C.3            1 S1                 0.0000
      7 ****        -3.3089   0.8261  -1.6302 C.3            1 S1                 0.0000
      8 ****        -2.8010  -0.5405  -1.1908 C.3            1 S1                 0.0000
      9 ****        -1.8654  -0.2315  -0.0093 C.3            1 S1                 0.0000
     10 ****        -0.3858  -0.1502  -0.4104 C.2            1 S1                 0.0000
     11 ****        -0.0546   0.3233  -1.4982 O.2            1 S1                 0.0000
     12 ****         0.4988  -0.6032   0.4912 N.am           1 S1                 0.0000
     13 ****         1.9468  -0.5854   0.3252 C.3            1 S1                 0.0000
     14 ****         2.4291  -1.7182  -0.5961 C.3            1 S1                 0.0000
     15 ****         3.8698  -1.7006  -0.7463 N.pl3          1 S1                 0.0000
     16 ****         4.6083  -0.9229  -1.6284 C.2            1 S1                 0.0000
     17 ****         5.9315  -1.2372  -1.4156 C.2            1 S1                 0.0000
     18 ****         6.0295  -2.2003  -0.4136 N.2            1 S1                 0.0000
     19 ****         4.7689  -2.4249  -0.0659 C.2            1 S1                 0.0000
     20 ****        -2.6042   3.1888   3.6094 H              1 S1                 0.0000
     21 ****        -3.3648   3.4440   2.0233 H              1 S1                 0.0000
     22 ****        -1.5908   3.3957   2.1624 H              1 S1                 0.0000
     23 ****        -4.3850   1.4405   0.1377 H              1 S1                 0.0000
     24 ****        -3.2595   2.6694  -0.4519 H              1 S1                 0.0000
     25 ****        -4.2597   0.7736  -2.1611 H              1 S1                 0.0000
     26 ****        -2.5811   1.3018  -2.2889 H              1 S1                 0.0000
     27 ****        -3.6365  -1.1505  -0.8446 H              1 S1                 0.0000
     28 ****        -2.3191  -1.0842  -2.0048 H              1 S1                 0.0000
     29 ****        -1.9764  -1.0263   0.7307 H              1 S1                 0.0000
     30 ****         0.1428  -0.9632   1.3652 H              1 S1                 0.0000
     31 ****         2.2633   0.3854  -0.0606 H              1 S1                 0.0000
     32 ****         2.4005  -0.6892   1.3112 H              1 S1                 0.0000
     33 ****         2.1296  -2.6889  -0.1984 H              1 S1                 0.0000
     34 ****         1.9824  -1.6289  -1.5873 H              1 S1                 0.0000
     35 ****         4.1441  -0.2291  -2.3140 H              1 S1                 0.0000
     36 ****         6.8136  -0.8475  -1.9021 H              1 S1                 0.0000
     37 ****         4.4939  -3.1327   0.7025 H              1 S1                 0.0000
     38 ****        -1.6000   1.6759   0.5273 LP             1 S1                 0.0000
     39 ****        -0.7525   0.6597  -2.1305 LP             1 S1                 0.0000
     40 ****         0.9122   0.3713  -1.7491 LP             1 S1                 0.0000
     41 ****         6.8565  -2.6233  -0.0432 LP             1 S1                 0.0000
@<TRIPOS>BOND
    1    1    2 1     
    2    1   20 1     
    3    1   21 1     
    4    1   22 1     
    5    2    3 2     
    6    2    4 2     
    7    2    5 1     
    8    5    9 1     
    9    5    6 1     
   10    6    7 1     
   11    6   23 1     
   12    6   24 1     
   13    7    8 1     
   14    7   25 1     
   15    7   26 1     
   16    8    9 1     
   17    8   27 1     
   18    8   28 1     
   19    9   10 1     
   20    9   29 1     
   21   10   11 2     
   22   10   12 am    
   23   12   13 1     
   24   12   30 1     
   25   13   14 1     
   26   13   31 1     
   27   13   32 1     
   28   14   15 1     
   29   14   33 1     
   30   14   34 1     
   31   15   19 1     
   32   15   16 1     
   33   16   17 2     
   34   16   35 1     
   35   17   18 1     
   36   17   36 1     
   37   18   19 2     
   38   19   37 1     
   39    5   38 1     
   40   11   39 1     
   41   11   40 1     
   42   18   41 1     
@<TRIPOS>SUBSTRUCTURE
      1 S1             1
@<TRIPOS>SET
LONE_PAIRS      STATIC     ATOMS    <user>   **** ""
6 3 4 38 39 40 41
DONOR_HYDROGENS      STATIC     ATOMS    <user>   **** ""
1 30
ATOM$BLUE        STATIC     ATOMS    COLORGROUP SYSTEM
6 3 4 38 39 40 41
ATOM$RED        STATIC     ATOMS    COLORGROUP SYSTEM
1 30
