AV-unprocessed.smi:2856|AV-procd|sdf|10995|dock9
  -GOLD-   2272015453D 1   1.00000     0.00000
 Structure written by MMmdl.
 37 38  0  0  0  0  0  0  0  0  1 V2000
  147.6985  141.0649  153.6034 C   0  0  0  0  0  0  0  0  0  0  0  0
  146.9601  139.4724  154.0556 S   0  0  0  0  0  0  0  0  0  0  0  0
  148.3460  138.6802  154.9336 C   0  0  2  0  0  0  0  0  0  0  0  0
  149.6520  138.8300  154.1291 C   0  0  0  0  0  0  0  0  0  0  0  0
  150.8439  138.1980  154.8653 C   0  0  0  0  0  0  0  0  0  0  0  0
  150.5748  136.7233  155.1999 C   0  0  0  0  0  0  0  0  0  0  0  0
  149.2728  136.5635  156.0035 C   0  0  0  0  0  0  0  0  0  0  0  0
  148.0617  137.1988  155.2862 C   0  0  2  0  0  0  0  0  0  0  0  0
  147.7063  136.4342  154.0900 N   0  0  0  0  0  0  0  0  0  0  0  0
  146.5221  135.8480  153.8656 C   0  0  0  0  0  0  0  0  0  0  0  0
  145.5860  135.8767  154.6650 O   0  0  0  0  0  0  0  0  0  0  0  0
  146.5013  135.2364  152.6693 N   0  0  0  0  0  0  0  0  0  0  0  0
  145.4280  134.5170  152.0850 C   0  0  0  0  0  0  0  0  0  0  0  0
  145.6006  133.8168  150.8614 C   0  0  0  0  0  0  0  0  0  0  0  0
  144.3667  133.2712  150.6423 C   0  0  0  0  0  0  0  0  0  0  0  0
  143.8143  132.4164  149.5538 C   0  0  0  0  0  0  0  0  0  0  0  0
  143.5133  133.6109  151.6463 O   0  0  0  0  0  0  0  0  0  0  0  0
  144.2000  134.4090  152.5689 N   0  0  0  0  0  0  0  0  0  0  0  0
  147.0031  141.6361  152.9886 H   0  0  0  0  0  0  0  0  0  0  0  0
  148.6163  140.9137  153.0354 H   0  0  0  0  0  0  0  0  0  0  0  0
  147.9277  141.6529  154.4917 H   0  0  0  0  0  0  0  0  0  0  0  0
  148.4744  139.2315  155.8662 H   0  0  0  0  0  0  0  0  0  0  0  0
  149.5417  138.3658  153.1481 H   0  0  0  0  0  0  0  0  0  0  0  0
  149.8560  139.8855  153.9464 H   0  0  0  0  0  0  0  0  0  0  0  0
  151.7443  138.2827  154.2563 H   0  0  0  0  0  0  0  0  0  0  0  0
  151.0395  138.7509  155.7849 H   0  0  0  0  0  0  0  0  0  0  0  0
  150.5137  136.1433  154.2781 H   0  0  0  0  0  0  0  0  0  0  0  0
  151.4116  136.3128  155.7657 H   0  0  0  0  0  0  0  0  0  0  0  0
  149.0866  135.5082  156.2061 H   0  0  0  0  0  0  0  0  0  0  0  0
  149.3975  137.0381  156.9776 H   0  0  0  0  0  0  0  0  0  0  0  0
  147.2171  137.1695  155.9753 H   0  0  0  0  0  0  0  0  0  0  0  0
  148.4154  136.3614  153.3755 H   0  0  0  0  0  0  0  0  0  0  0  0
  147.3434  135.2933  152.1161 H   0  0  0  0  0  0  0  0  0  0  0  0
  146.4819  133.7280  150.2436 H   0  0  0  0  0  0  0  0  0  0  0  0
  144.6148  131.9927  148.9472 H   0  0  0  0  0  0  0  0  0  0  0  0
  143.1651  132.9980  148.8992 H   0  0  0  0  0  0  0  0  0  0  0  0
  143.2304  131.5928  149.9651 H   0  0  0  0  0  0  0  0  0  0  0  0
  1  2  1  0  0  0  0
  1 19  1  0  0  0  0
  1 20  1  0  0  0  0
  1 21  1  0  0  0  0
  2  3  1  0  0  0  0
  3  8  1  0  0  0  0
  3  4  1  0  0  0  0
  3 22  1  0  0  0  0
  4  5  1  0  0  0  0
  4 23  1  0  0  0  0
  4 24  1  0  0  0  0
  5  6  1  0  0  0  0
  5 25  1  0  0  0  0
  5 26  1  0  0  0  0
  6  7  1  0  0  0  0
  6 27  1  0  0  0  0
  6 28  1  0  0  0  0
  7  8  1  0  0  0  0
  7 29  1  0  0  0  0
  7 30  1  0  0  0  0
  8  9  1  0  0  0  0
  8 31  1  0  0  0  0
  9 10  1  0  0  0  0
  9 32  1  0  0  0  0
 10 11  2  0  0  0  0
 10 12  1  0  0  0  0
 12 13  1  0  0  0  0
 12 33  1  0  0  0  0
 13 18  2  0  0  0  0
 13 14  1  0  0  0  0
 14 15  2  0  0  0  0
 14 34  1  0  0  0  0
 15 16  1  0  0  0  0
 15 17  1  0  0  0  0
 16 35  1  0  0  0  0
 16 36  1  0  0  0  0
 16 37  1  0  0  0  0
 17 18  1  0  0  0  0
M  END
> <s_m_source_file>
AV-unprocessed.smi

> <i_m_source_file_index>
2856

> <i_lp_mmshare_version>
43012

> <i_f3d_flags>
0

> <s_epik_input>
W0NIM11TW0NAQEhdMVtDSDJdW0NIMl1bQ0gyXVtDSDJdW0NASF0xW05IXUMoPU8pW05IXWMyW2NIXWMoW0NIM10pb24y

> <s_epik_cmdline>
J2VwaWtfcHl0aG9uJywgJy1waCcsICc3LjAnLCAnLXRuJywgJzgnLCAnLW1hJywgJzIwMCcsICctbWV0YWxfYmluZGluZycsICctaW1hZScsICc8aW5maWxlLm1hZT4nLCAnLW9tYWUnLCAnPG91dGZpbGUubWFlPic=

> <r_lp_tautomer_probability>
1

> <r_epik_Ionization_Penalty>
2.20874e-05

> <r_epik_Ionization_Penalty_Charging>
0

> <r_epik_Ionization_Penalty_Neutral>
2.20874e-05

> <r_epik_State_Penalty>
-0

> <r_epik_Charging_Adjusted_Penalty>
0

> <i_epik_Tot_Q>
0

> <i_epik_Tot_abs_Q>
0

> <r_epik_Metal_State_Penalty>
-0

> <b_epik_Metal_Only>
0

> <s_lp_Force_Field>
OPLS_2005

> <r_lp_Energy>
4.88366

> <b_lp_Chiralities_Consistent>
1

> <s_lp_Variant>
AV-unprocessed.smi:2856-3

> <Gold.Version>
5.8.1

> <Gold.Id.Protein>
6NUR|6NUR_protein|mol2

> <Gold.PLP.Fitness>
30.6839

> <Gold.PLP.PLP>
-25.0303

> <Gold.PLP.part.hbond>
-2.0000

> <Gold.PLP.part.metal>
0.0000

> <Gold.PLP.part.buried>
-3.3784

> <Gold.PLP.part.nonpolar>
-19.9117

> <Gold.PLP.part.repulsive>
0.3092

> <Gold.PLP.ligand.clash>
0.0000

> <Gold.PLP.ligand.torsion>
0.0730

> <Gold.PLP.Chemscore.Hbond>
1.9280

> <Gold.PLP.Chemscore.CHOScore>
0.0000

> <Gold.PLP.Chemscore.Metal>
0.0000

> <Gold.Chemscore.Hbonds>
donor molecule, donor type, donor heavy atom, donor atom, acceptor molecule, acceptor atom, score
      L1  H     9    32       P1  7948  1.00
      L1  H    12    33       P1  7948  0.93

> <Gold.PLP.Chemscore.Internal.Correction>
0.0155

> <Gold.Rescore>
     Score         DG    S(hbond)    S(metal)    S(lipo)     H(rot)  DE(clash)    DE(int)     intcor
     14.79     -16.11       1.92        0.00      62.62       1.21       0.02       1.30       ----

> <Gold.Chemscore.Fitness>
14.7879

> <Gold.Chemscore.DG>
-16.1112

> <Gold.Chemscore.ZeroCoef>
-5.4800

> <Gold.Chemscore.Hbond>
1.9175

> <Gold.Chemscore.Metal>
0.0000

> <Gold.Chemscore.Lipo>
62.6212

> <Gold.Chemscore.Internal_Hbond>
0.0000

> <Gold.Chemscore.DEClash>
0.0199

> <Gold.Chemscore.DEInternal>
1.3034

> <Gold.Chemscore.Rot>
1.2109

> <Gold.Chemscore.Internal.Correction>
   9.000000E+99

> <Gold.Chemscore.Hbonds>
donor molecule, donor type, donor heavy atom, donor atom, acceptor molecule, acceptor atom, score
      L1  H     9    32       P1  7948  0.97
      L1  H    12    33       P1  7948  0.91

> <Gold.Chemscore.Hbond.Weighted>
-6.4046

> <Gold.Chemscore.Metal.Weighted>
-0.0000

> <Gold.Chemscore.Lipo.Weighted>
-7.3267

> <Gold.Chemscore.Internal_Hbond.Weighted>
0.0000

> <Gold.Chemscore.DEClash.Weighted>
0.0199

> <Gold.Chemscore.DEInternal.Weighted>
1.3034

> <Gold.Chemscore.Rot.Weighted>
3.1000

> <Gold.Chemscore.Internal.Correction.Weighted>
   9.000000E+99

> <Gold.Protein.RotatedTorsions>
[ 6907 6896 6895 6894 ] final   18.01 input  -60.11 | X-H torsion
[ 7974 7965 7964 7962 ] final  158.51 input  175.53 | X-H torsion
[ 8008 7997 7996 7995 ] final  -72.50 input   59.86 | X-H torsion
[ 10167 10162 10161 10158 ] final -134.78 input  -65.29 | X-H torsion
[ 10718 10713 10712 10709 ] final  -72.92 input   66.30 | X-H torsion
[ 10763 10752 10751 10750 ] final -138.65 input  -60.55 | X-H torsion
[ 11005 11000 10999 10996 ] final -125.47 input  -57.11 | X-H torsion

> <Gold.Protein.ActiveResidues>
 VAL166  LYS551  ARG553  GLY616  TRP617  ASP618  TYR619  PRO620  LYS621  CYS622 
 ASP623  PHE694  ASN695  SER759  ASP760  ASP761  ALA762  ILE779  LEU786  VAL792 
 PHE793  MET794  SER795  GLU796  ALA797  LYS798  CYS799  TRP800  GLU811  SER814 

> <Gold.Protein.RotatedAtoms>
  151.8585  135.0532  160.0466 H   0  0  0  0  0  0  0  0  0  0  0  0  # atno 6907 bound_to 6896
  152.2681  133.5353  159.5431 H   0  0  0  0  0  0  0  0  0  0  0  0  # atno 6908 bound_to 6896
  150.7141  134.0652  159.3887 H   0  0  0  0  0  0  0  0  0  0  0  0  # atno 6909 bound_to 6896
  144.7842  139.7488  143.6248 H   0  0  0  0  0  0  0  0  0  0  0  0  # atno 7974 bound_to 7965
  154.5171  140.0796  156.8102 H   0  0  0  0  0  0  0  0  0  0  0  0  # atno 8008 bound_to 7997
  155.3656  140.3420  155.4223 H   0  0  0  0  0  0  0  0  0  0  0  0  # atno 8009 bound_to 7997
  156.1640  140.1598  156.8550 H   0  0  0  0  0  0  0  0  0  0  0  0  # atno 8010 bound_to 7997
  139.8845  143.6797  152.2622 H   0  0  0  0  0  0  0  0  0  0  0  0  # atno 10167 bound_to 10162
  156.0301  130.4382  150.2664 H   0  0  0  0  0  0  0  0  0  0  0  0  # atno 10718 bound_to 10713
  154.8631  135.3606  154.5418 H   0  0  0  0  0  0  0  0  0  0  0  0  # atno 10763 bound_to 10752
  153.6040  135.7011  153.5378 H   0  0  0  0  0  0  0  0  0  0  0  0  # atno 10764 bound_to 10752
  153.3266  135.4136  155.1422 H   0  0  0  0  0  0  0  0  0  0  0  0  # atno 10765 bound_to 10752
  140.9759  134.0740  157.3818 H   0  0  0  0  0  0  0  0  0  0  0  0  # atno 11005 bound_to 11000
  146.2065  139.5393  142.9709 LP  0  0  0  0  0  0  0  0  0  0  0  0  # atno 17320 bound_to 7965
  145.5968  141.0361  143.2040 LP  0  0  0  0  0  0  0  0  0  0  0  0  # atno 17321 bound_to 7965
  139.7165  144.7611  151.1025 LP  0  0  0  0  0  0  0  0  0  0  0  0  # atno 17342 bound_to 10162
  140.7738  143.5262  150.9477 LP  0  0  0  0  0  0  0  0  0  0  0  0  # atno 17343 bound_to 10162
  157.0767  131.0132  151.3171 LP  0  0  0  0  0  0  0  0  0  0  0  0  # atno 17370 bound_to 10713
  157.4958  130.7850  149.7554 LP  0  0  0  0  0  0  0  0  0  0  0  0  # atno 17371 bound_to 10713
  139.8930  135.0128  156.6878 LP  0  0  0  0  0  0  0  0  0  0  0  0  # atno 17394 bound_to 11000
  140.7259  133.9101  155.8178 LP  0  0  0  0  0  0  0  0  0  0  0  0  # atno 17395 bound_to 11000

$$$$
