AV-unprocessed.smi:1145|AV-procd|sdf|4883|dock1
  -GOLD-   22720 3453D 1   1.00000     0.00000
 Structure written by MMmdl.
 36 37  0  0  0  0  0  0  0  0  1 V2000
  145.5668  135.9916  150.8962 C   0  0  0  0  0  0  0  0  0  0  0  0
  145.2029  135.8491  152.3804 C   0  0  1  0  0  0  0  0  0  0  0  0
  144.2304  134.6720  152.6094 C   0  0  0  0  0  0  0  0  0  0  0  0
  144.5818  133.4922  151.8387 N   0  0  0  0  0  0  0  0  0  0  0  0
  143.8079  132.7996  150.9312 C   0  0  0  0  0  0  0  0  0  0  0  0
  144.5685  131.7742  150.4477 C   0  0  0  0  0  0  0  0  0  0  0  0
  145.8072  131.9209  151.1324 C   0  0  0  0  0  0  0  0  0  0  0  0
  145.8108  132.9474  151.9675 N   0  0  0  0  0  0  0  0  0  0  0  0
  146.4304  135.6655  153.1543 N   0  0  0  0  0  0  0  0  0  0  0  0
  146.4978  135.4226  154.4733 C   0  0  0  0  0  0  0  0  0  0  0  0
  145.5071  135.3584  155.2018 O   0  0  0  0  0  0  0  0  0  0  0  0
  147.8997  135.1956  155.0533 C   0  0  2  0  0  0  0  0  0  0  0  0
  148.5808  133.9954  154.3759 C   0  0  0  0  0  0  0  0  0  0  0  0
  150.0095  133.7991  154.9077 C   0  0  0  0  0  0  0  0  0  0  0  0
  150.1077  133.8778  156.4386 C   0  0  0  0  0  0  0  0  0  0  0  0
  151.1027  133.4302  157.0039 O   0  0  0  0  0  0  0  0  0  0  0  0
  149.1158  134.4704  157.1264 N   0  0  0  0  0  0  0  0  0  0  0  0
  147.8507  134.9601  156.5782 C   0  0  0  0  0  0  0  0  0  0  0  0
  144.6770  136.1606  150.2890 H   0  0  0  0  0  0  0  0  0  0  0  0
  146.0608  135.0954  150.5192 H   0  0  0  0  0  0  0  0  0  0  0  0
  146.2383  136.8357  150.7359 H   0  0  0  0  0  0  0  0  0  0  0  0
  144.7099  136.7758  152.6798 H   0  0  0  0  0  0  0  0  0  0  0  0
  144.2197  134.3935  153.6643 H   0  0  0  0  0  0  0  0  0  0  0  0
  143.2104  134.9637  152.3554 H   0  0  0  0  0  0  0  0  0  0  0  0
  142.7951  133.0963  150.7017 H   0  0  0  0  0  0  0  0  0  0  0  0
  144.2845  131.0330  149.7155 H   0  0  0  0  0  0  0  0  0  0  0  0
  146.6981  131.3159  151.0484 H   0  0  0  0  0  0  0  0  0  0  0  0
  147.2981  135.7008  152.6390 H   0  0  0  0  0  0  0  0  0  0  0  0
  148.5055  136.0834  154.8611 H   0  0  0  0  0  0  0  0  0  0  0  0
  148.0023  133.0861  154.5484 H   0  0  0  0  0  0  0  0  0  0  0  0
  148.6127  134.1379  153.2948 H   0  0  0  0  0  0  0  0  0  0  0  0
  150.4073  132.8432  154.5656 H   0  0  0  0  0  0  0  0  0  0  0  0
  150.6594  134.5723  154.4969 H   0  0  0  0  0  0  0  0  0  0  0  0
  149.2239  134.5344  158.1285 H   0  0  0  0  0  0  0  0  0  0  0  0
  147.5829  135.8835  157.0926 H   0  0  0  0  0  0  0  0  0  0  0  0
  147.0835  134.2275  156.8334 H   0  0  0  0  0  0  0  0  0  0  0  0
  1  2  1  0  0  0  0
  1 19  1  0  0  0  0
  1 20  1  0  0  0  0
  1 21  1  0  0  0  0
  2  3  1  0  0  0  0
  2  9  1  0  0  0  0
  2 22  1  0  0  0  0
  3  4  1  0  0  0  0
  3 23  1  0  0  0  0
  3 24  1  0  0  0  0
  4  8  1  0  0  0  0
  4  5  1  0  0  0  0
  5  6  2  0  0  0  0
  5 25  1  0  0  0  0
  6  7  1  0  0  0  0
  6 26  1  0  0  0  0
  7  8  2  0  0  0  0
  7 27  1  0  0  0  0
  9 10  1  0  0  0  0
  9 28  1  0  0  0  0
 10 11  2  0  0  0  0
 10 12  1  0  0  0  0
 12 18  1  0  0  0  0
 12 13  1  0  0  0  0
 12 29  1  0  0  0  0
 13 14  1  0  0  0  0
 13 30  1  0  0  0  0
 13 31  1  0  0  0  0
 14 15  1  0  0  0  0
 14 32  1  0  0  0  0
 14 33  1  0  0  0  0
 15 16  2  0  0  0  0
 15 17  1  0  0  0  0
 17 18  1  0  0  0  0
 17 34  1  0  0  0  0
 18 35  1  0  0  0  0
 18 36  1  0  0  0  0
M  END
> <s_m_source_file>
AV-unprocessed.smi

> <i_m_source_file_index>
1145

> <i_lp_mmshare_version>
43012

> <i_f3d_flags>
0

> <s_epik_input>
bjFbY0hdW2NIXVtjSF1uMVtDSDJdW0NAQEhdKFtDSDNdKVtOSF1DKD1PKVtDQEBIXTJbQ0gyXVtDSDJdQyg9TylbTkhdW0NIMl0y

> <s_epik_cmdline>
J2VwaWtfcHl0aG9uJywgJy1waCcsICc3LjAnLCAnLXRuJywgJzgnLCAnLW1hJywgJzIwMCcsICctbWV0YWxfYmluZGluZycsICctaW1hZScsICc8aW5maWxlLm1hZT4nLCAnLW9tYWUnLCAnPG91dGZpbGUubWFlPic=

> <r_lp_tautomer_probability>
1

> <r_epik_Ionization_Penalty>
0.000314064

> <r_epik_Ionization_Penalty_Charging>
0

> <r_epik_Ionization_Penalty_Neutral>
0.000314064

> <r_epik_State_Penalty>
-0

> <r_epik_Charging_Adjusted_Penalty>
0

> <i_epik_Tot_Q>
0

> <i_epik_Tot_abs_Q>
0

> <r_epik_Metal_State_Penalty>
-0

> <b_epik_Metal_Only>
0

> <s_lp_Force_Field>
OPLS_2005

> <r_lp_Energy>
11.8785

> <b_lp_Chiralities_Consistent>
1

> <s_lp_Variant>
AV-unprocessed.smi:1145-2

> <Gold.Version>
5.8.1

> <Gold.Id.Protein>
6NUR|6NUR_protein|mol2

> <Gold.PLP.Fitness>
36.2893

> <Gold.PLP.PLP>
-25.4364

> <Gold.PLP.part.hbond>
-2.0000

> <Gold.PLP.part.metal>
0.0000

> <Gold.PLP.part.buried>
-4.6222

> <Gold.PLP.part.nonpolar>
-19.7374

> <Gold.PLP.part.repulsive>
0.1911

> <Gold.PLP.ligand.clash>
0.0000

> <Gold.PLP.ligand.torsion>
0.2184

> <Gold.PLP.Chemscore.Hbond>
1.7520

> <Gold.PLP.Chemscore.CHOScore>
2.0000

> <Gold.PLP.Chemscore.Metal>
0.0000

> <Gold.Chemscore.Hbonds>
donor molecule, donor type, donor heavy atom, donor atom, acceptor molecule, acceptor atom, score
      L1  H     9    28       P1  7948  1.00
      P1  H  6896  6907       L1    16  0.41
      L1  C     5    25       P1 10186  1.00
      L1  C     7    27       P1 10747  1.00

> <Gold.PLP.Chemscore.Internal.Correction>
0.0338

> <Gold.Rescore>
     Score         DG    S(hbond)    S(metal)    S(lipo)     H(rot)  DE(clash)    DE(int)     intcor
     14.14     -14.48       1.97        0.00      60.02       1.80       0.17       0.18       ----

> <Gold.Chemscore.Fitness>
14.1379

> <Gold.Chemscore.DG>
-14.4839

> <Gold.Chemscore.ZeroCoef>
-5.4800

> <Gold.Chemscore.Hbond>
1.9717

> <Gold.Chemscore.Metal>
0.0000

> <Gold.Chemscore.Lipo>
60.0158

> <Gold.Chemscore.Internal_Hbond>
0.0000

> <Gold.Chemscore.DEClash>
0.1679

> <Gold.Chemscore.DEInternal>
0.1780

> <Gold.Chemscore.Rot>
1.7982

> <Gold.Chemscore.Internal.Correction>
   9.000000E+99

> <Gold.Chemscore.Hbonds>
donor molecule, donor type, donor heavy atom, donor atom, acceptor molecule, acceptor atom, score
      L1  H     9    28       P1  7948  1.00
      P1  H  6896  6907       L1    16  0.36

> <Gold.Chemscore.Hbond.Weighted>
-6.5855

> <Gold.Chemscore.Metal.Weighted>
-0.0000

> <Gold.Chemscore.Lipo.Weighted>
-7.0219

> <Gold.Chemscore.Internal_Hbond.Weighted>
0.0000

> <Gold.Chemscore.DEClash.Weighted>
0.1679

> <Gold.Chemscore.DEInternal.Weighted>
0.1780

> <Gold.Chemscore.Rot.Weighted>
4.6035

> <Gold.Chemscore.Internal.Correction.Weighted>
   9.000000E+99

> <Gold.Protein.RotatedTorsions>
[ 6907 6896 6895 6894 ] final -138.09 input  -60.11 | X-H torsion
[ 7974 7965 7964 7962 ] final -145.76 input  175.53 | X-H torsion
[ 8008 7997 7996 7995 ] final   11.42 input   59.86 | X-H torsion
[ 10167 10162 10161 10158 ] final  102.58 input  -65.29 | X-H torsion
[ 10718 10713 10712 10709 ] final  -61.14 input   66.30 | X-H torsion
[ 10763 10752 10751 10750 ] final  144.65 input  -60.55 | X-H torsion
[ 11005 11000 10999 10996 ] final -152.17 input  -57.11 | X-H torsion

> <Gold.Protein.ActiveResidues>
 VAL166  LYS551  ARG553  GLY616  TRP617  ASP618  TYR619  PRO620  LYS621  CYS622 
 ASP623  PHE694  ASN695  SER759  ASP760  ASP761  ALA762  ILE779  LEU786  VAL792 
 PHE793  MET794  SER795  GLU796  ALA797  LYS798  CYS799  TRP800  GLU811  SER814 

> <Gold.Protein.RotatedAtoms>
  151.0307  133.5793  159.2660 H   0  0  0  0  0  0  0  0  0  0  0  0  # atno 6907 bound_to 6896
  151.2876  135.0731  159.9202 H   0  0  0  0  0  0  0  0  0  0  0  0  # atno 6908 bound_to 6896
  152.5344  134.0011  159.7949 H   0  0  0  0  0  0  0  0  0  0  0  0  # atno 6909 bound_to 6896
  144.8206  140.5543  143.5581 H   0  0  0  0  0  0  0  0  0  0  0  0  # atno 7974 bound_to 7965
  154.8067  140.2861  155.5882 H   0  0  0  0  0  0  0  0  0  0  0  0  # atno 8008 bound_to 7997
  156.2983  140.2576  156.2876 H   0  0  0  0  0  0  0  0  0  0  0  0  # atno 8009 bound_to 7997
  154.9495  140.0379  157.2126 H   0  0  0  0  0  0  0  0  0  0  0  0  # atno 8010 bound_to 7997
  139.7338  144.7029  151.0681 H   0  0  0  0  0  0  0  0  0  0  0  0  # atno 10167 bound_to 10162
  156.0942  130.4195  150.0953 H   0  0  0  0  0  0  0  0  0  0  0  0  # atno 10718 bound_to 10713
  153.9924  135.2931  155.3410 H   0  0  0  0  0  0  0  0  0  0  0  0  # atno 10763 bound_to 10752
  154.7207  135.5110  153.8810 H   0  0  0  0  0  0  0  0  0  0  0  0  # atno 10764 bound_to 10752
  153.0803  135.6677  154.0175 H   0  0  0  0  0  0  0  0  0  0  0  0  # atno 10765 bound_to 10752
  140.7218  134.3719  157.5182 H   0  0  0  0  0  0  0  0  0  0  0  0  # atno 11005 bound_to 11000
  145.5115  139.1479  143.3602 LP  0  0  0  0  0  0  0  0  0  0  0  0  # atno 17320 bound_to 7965
  146.2511  140.5255  142.8893 LP  0  0  0  0  0  0  0  0  0  0  0  0  # atno 17321 bound_to 7965
  140.7775  143.5010  150.9771 LP  0  0  0  0  0  0  0  0  0  0  0  0  # atno 17342 bound_to 10162
  139.8698  143.7207  152.3167 LP  0  0  0  0  0  0  0  0  0  0  0  0  # atno 17343 bound_to 10162
  156.8956  130.9603  151.3583 LP  0  0  0  0  0  0  0  0  0  0  0  0  # atno 17370 bound_to 10713
  157.6099  130.8575  149.8934 LP  0  0  0  0  0  0  0  0  0  0  0  0  # atno 17371 bound_to 10713
  139.8846  134.8960  156.2691 LP  0  0  0  0  0  0  0  0  0  0  0  0  # atno 17394 bound_to 11000
  140.9997  133.7159  156.0941 LP  0  0  0  0  0  0  0  0  0  0  0  0  # atno 17395 bound_to 11000

$$$$
