AV-unprocessed.smi:1344|AV-procd|sdf|5509|dock6
  -GOLD-   22720 5 93D 1   1.00000     0.00000
 Structure written by MMmdl.
 32 34  0  0  0  0  0  0  0  0  1 V2000
  148.2976  139.2682  155.9827 O   0  0  0  0  0  0  0  0  0  0  0  0
  149.0048  139.3040  154.9756 C   0  0  0  0  0  0  0  0  0  0  0  0
  150.5279  139.3510  155.1116 C   0  0  0  0  0  0  0  0  0  0  0  0
  150.9297  140.4439  156.0595 C   0  0  0  0  0  0  0  0  0  0  0  0
  150.5511  141.7629  156.0016 C   0  0  0  0  0  0  0  0  0  0  0  0
  151.2370  142.6982  157.3020 S   0  0  0  0  0  0  0  0  0  0  0  0
  152.0316  141.2349  157.8899 C   0  0  0  0  0  0  0  0  0  0  0  0
  152.8583  141.1271  159.0469 N   0  0  0  0  0  0  0  0  0  0  0  0
  152.9131  142.1844  160.0516 C   0  0  0  0  0  0  0  0  0  0  0  0
  153.9360  141.6757  161.0626 C   0  0  0  0  0  0  0  0  0  0  0  0
  154.3037  140.3956  160.5047 N   0  0  0  0  0  0  0  0  0  0  0  0
  153.6792  140.1053  159.3611 C   0  0  0  0  0  0  0  0  0  0  0  0
  153.8484  139.0634  158.7304 O   0  0  0  0  0  0  0  0  0  0  0  0
  151.7790  140.1603  157.1352 N   0  0  0  0  0  0  0  0  0  0  0  0
  148.5197  139.2998  153.7247 N   0  0  0  0  0  0  0  0  0  0  0  0
  147.1402  139.2343  153.3674 C   0  0  0  0  0  0  0  0  0  0  0  0
  146.3923  137.9607  153.6977 C   0  0  0  0  0  0  0  0  0  0  0  0
  146.7442  138.2716  152.2690 C   0  0  0  0  0  0  0  0  0  0  0  0
  150.8944  138.3833  155.4571 H   0  0  0  0  0  0  0  0  0  0  0  0
  150.9701  139.5127  154.1275 H   0  0  0  0  0  0  0  0  0  0  0  0
  149.9074  142.2387  155.2765 H   0  0  0  0  0  0  0  0  0  0  0  0
  153.2294  143.1276  159.6034 H   0  0  0  0  0  0  0  0  0  0  0  0
  151.9349  142.3279  160.5130 H   0  0  0  0  0  0  0  0  0  0  0  0
  154.8071  142.3285  161.1281 H   0  0  0  0  0  0  0  0  0  0  0  0
  153.5058  141.5537  162.0572 H   0  0  0  0  0  0  0  0  0  0  0  0
  154.9715  139.7831  160.9503 H   0  0  0  0  0  0  0  0  0  0  0  0
  149.1836  139.3295  152.9643 H   0  0  0  0  0  0  0  0  0  0  0  0
  146.5634  140.1562  153.4267 H   0  0  0  0  0  0  0  0  0  0  0  0
  146.9427  137.1591  154.1873 H   0  0  0  0  0  0  0  0  0  0  0  0
  145.3481  138.0537  153.9895 H   0  0  0  0  0  0  0  0  0  0  0  0
  145.9356  138.5729  151.6063 H   0  0  0  0  0  0  0  0  0  0  0  0
  147.5294  137.6778  151.8043 H   0  0  0  0  0  0  0  0  0  0  0  0
  1  2  2  0  0  0  0
  2  3  1  0  0  0  0
  2 15  1  0  0  0  0
  3  4  1  0  0  0  0
  3 19  1  0  0  0  0
  3 20  1  0  0  0  0
  4 14  1  0  0  0  0
  4  5  2  0  0  0  0
  5  6  1  0  0  0  0
  5 21  1  0  0  0  0
  6  7  1  0  0  0  0
  7  8  1  0  0  0  0
  7 14  2  0  0  0  0
  8 12  1  0  0  0  0
  8  9  1  0  0  0  0
  9 10  1  0  0  0  0
  9 22  1  0  0  0  0
  9 23  1  0  0  0  0
 10 11  1  0  0  0  0
 10 24  1  0  0  0  0
 10 25  1  0  0  0  0
 11 12  1  0  0  0  0
 11 26  1  0  0  0  0
 12 13  2  0  0  0  0
 15 16  1  0  0  0  0
 15 27  1  0  0  0  0
 16 18  1  0  0  0  0
 16 17  1  0  0  0  0
 16 28  1  0  0  0  0
 17 18  1  0  0  0  0
 17 29  1  0  0  0  0
 17 30  1  0  0  0  0
 18 31  1  0  0  0  0
 18 32  1  0  0  0  0
M  END
> <s_m_source_file>
AV-unprocessed.smi

> <i_m_source_file_index>
1344

> <i_lp_mmshare_version>
43012

> <i_f3d_flags>
0

> <s_epik_input>
W0NIMl0xW0NIMl1bQ0hdMVtOSF1DKD1PKVtDSDJdYzJbY0hdc2MobjIpTjNbQ0gyXVtDSDJdW05IXUMzPU8=

> <s_epik_cmdline>
J2VwaWtfcHl0aG9uJywgJy1waCcsICc3LjAnLCAnLXRuJywgJzgnLCAnLW1hJywgJzIwMCcsICctbWV0YWxfYmluZGluZycsICctaW1hZScsICc8aW5maWxlLm1hZT4nLCAnLW9tYWUnLCAnPG91dGZpbGUubWFlPic=

> <r_lp_tautomer_probability>
1

> <r_epik_Ionization_Penalty>
0.000119825

> <r_epik_Ionization_Penalty_Charging>
0

> <r_epik_Ionization_Penalty_Neutral>
0.000119825

> <r_epik_State_Penalty>
-0

> <r_epik_Charging_Adjusted_Penalty>
0

> <i_epik_Tot_Q>
0

> <i_epik_Tot_abs_Q>
0

> <r_epik_Metal_State_Penalty>
-0

> <b_epik_Metal_Only>
0

> <s_lp_Force_Field>
OPLS_2005

> <r_lp_Energy>
42.6691

> <b_lp_Chiralities_Consistent>
1

> <s_lp_Variant>
AV-unprocessed.smi:1344-1

> <Gold.Version>
5.8.1

> <Gold.Id.Protein>
6NUR|6NUR_protein|mol2

> <Gold.PLP.Fitness>
43.3643

> <Gold.PLP.PLP>
-34.9919

> <Gold.PLP.part.hbond>
-2.0000

> <Gold.PLP.part.metal>
0.0000

> <Gold.PLP.part.buried>
-2.0500

> <Gold.PLP.part.nonpolar>
-31.2170

> <Gold.PLP.part.repulsive>
0.1471

> <Gold.PLP.ligand.clash>
0.0000

> <Gold.PLP.ligand.torsion>
0.3308

> <Gold.PLP.Chemscore.Hbond>
2.0000

> <Gold.PLP.Chemscore.CHOScore>
0.9977

> <Gold.PLP.Chemscore.Metal>
0.0000

> <Gold.Chemscore.Hbonds>
donor molecule, donor type, donor heavy atom, donor atom, acceptor molecule, acceptor atom, score
      L1  H    15    27       P1  7957  0.94
      P1  H  7997  8010       L1    13  0.53
      L1  C     5    21       P1  8028  0.48

> <Gold.PLP.Chemscore.Internal.Correction>
0.0409

> <Gold.Rescore>
     Score         DG    S(hbond)    S(metal)    S(lipo)     H(rot)  DE(clash)    DE(int)     intcor
     12.67     -14.67       1.65        0.00      66.50       1.61       0.26       1.74       ----

> <Gold.Chemscore.Fitness>
12.6694

> <Gold.Chemscore.DG>
-14.6653

> <Gold.Chemscore.ZeroCoef>
-5.4800

> <Gold.Chemscore.Hbond>
1.6520

> <Gold.Chemscore.Metal>
0.0000

> <Gold.Chemscore.Lipo>
66.5032

> <Gold.Chemscore.Internal_Hbond>
0.0000

> <Gold.Chemscore.DEClash>
0.2557

> <Gold.Chemscore.DEInternal>
1.7402

> <Gold.Chemscore.Rot>
1.6067

> <Gold.Chemscore.Internal.Correction>
   9.000000E+99

> <Gold.Chemscore.Hbonds>
donor molecule, donor type, donor heavy atom, donor atom, acceptor molecule, acceptor atom, score
      L1  H    15    27       P1  7957  0.89
      P1  H  7997  8010       L1    13  0.06

> <Gold.Chemscore.Hbond.Weighted>
-5.5176

> <Gold.Chemscore.Metal.Weighted>
-0.0000

> <Gold.Chemscore.Lipo.Weighted>
-7.7809

> <Gold.Chemscore.Internal_Hbond.Weighted>
0.0000

> <Gold.Chemscore.DEClash.Weighted>
0.2557

> <Gold.Chemscore.DEInternal.Weighted>
1.7402

> <Gold.Chemscore.Rot.Weighted>
4.1132

> <Gold.Chemscore.Internal.Correction.Weighted>
   9.000000E+99

> <Gold.Protein.RotatedTorsions>
[ 6907 6896 6895 6894 ] final  148.55 input  -60.11 | X-H torsion
[ 7974 7965 7964 7962 ] final -147.20 input  175.53 | X-H torsion
[ 8008 7997 7996 7995 ] final   41.16 input   59.86 | X-H torsion
[ 10167 10162 10161 10158 ] final -157.13 input  -65.29 | X-H torsion
[ 10718 10713 10712 10709 ] final  -30.02 input   66.30 | X-H torsion
[ 10763 10752 10751 10750 ] final   22.24 input  -60.55 | X-H torsion
[ 11005 11000 10999 10996 ] final   87.26 input  -57.11 | X-H torsion

> <Gold.Protein.ActiveResidues>
 VAL166  LYS551  ARG553  GLY616  TRP617  ASP618  TYR619  PRO620  LYS621  CYS622 
 ASP623  PHE694  ASN695  SER759  ASP760  ASP761  ALA762  ILE779  LEU786  VAL792 
 PHE793  MET794  SER795  GLU796  ALA797  LYS798  CYS799  TRP800  GLU811  SER814 

> <Gold.Protein.RotatedAtoms>
  152.1400  133.4458  159.4761 H   0  0  0  0  0  0  0  0  0  0  0  0  # atno 6907 bound_to 6896
  150.6885  134.2317  159.4446 H   0  0  0  0  0  0  0  0  0  0  0  0  # atno 6908 bound_to 6896
  152.0207  134.9824  160.0621 H   0  0  0  0  0  0  0  0  0  0  0  0  # atno 6909 bound_to 6896
  144.8109  140.5358  143.5643 H   0  0  0  0  0  0  0  0  0  0  0  0  # atno 7974 bound_to 7965
  155.2650  140.3362  155.4270 H   0  0  0  0  0  0  0  0  0  0  0  0  # atno 8008 bound_to 7997
  156.2158  140.1788  156.7635 H   0  0  0  0  0  0  0  0  0  0  0  0  # atno 8009 bound_to 7997
  154.5751  140.0663  156.9007 H   0  0  0  0  0  0  0  0  0  0  0  0  # atno 8010 bound_to 7997
  139.6795  143.9606  152.2329 H   0  0  0  0  0  0  0  0  0  0  0  0  # atno 10167 bound_to 10162
  156.4051  130.4397  149.7293 H   0  0  0  0  0  0  0  0  0  0  0  0  # atno 10718 bound_to 10713
  153.0931  135.6652  153.9815 H   0  0  0  0  0  0  0  0  0  0  0  0  # atno 10763 bound_to 10752
  153.9406  135.2994  155.3444 H   0  0  0  0  0  0  0  0  0  0  0  0  # atno 10764 bound_to 10752
  154.7348  135.5107  153.9096 H   0  0  0  0  0  0  0  0  0  0  0  0  # atno 10765 bound_to 10752
  139.8924  134.8411  156.2836 H   0  0  0  0  0  0  0  0  0  0  0  0  # atno 11005 bound_to 11000
  145.5326  139.1475  143.3491 LP  0  0  0  0  0  0  0  0  0  0  0  0  # atno 17320 bound_to 7965
  146.2407  140.5467  142.8935 LP  0  0  0  0  0  0  0  0  0  0  0  0  # atno 17321 bound_to 7965
  139.9392  144.6692  150.8284 LP  0  0  0  0  0  0  0  0  0  0  0  0  # atno 17342 bound_to 10162
  140.7647  143.3256  151.2524 LP  0  0  0  0  0  0  0  0  0  0  0  0  # atno 17343 bound_to 10162
  156.4294  130.7807  151.2827 LP  0  0  0  0  0  0  0  0  0  0  0  0  # atno 17370 bound_to 10713
  157.7505  131.0158  150.3521 LP  0  0  0  0  0  0  0  0  0  0  0  0  # atno 17371 bound_to 10713
  141.0023  133.7144  156.0979 LP  0  0  0  0  0  0  0  0  0  0  0  0  # atno 17394 bound_to 11000
  140.7481  134.4075  157.5545 LP  0  0  0  0  0  0  0  0  0  0  0  0  # atno 17395 bound_to 11000

$$$$
