AV-unprocessed.smi:2307|AV-procd|sdf|9251|dock5
  -GOLD-   2272012473D 1   1.00000     0.00000
 Structure written by MMmdl.
 38 39  0  0  0  0  0  0  0  0  1 V2000
  152.4939  143.8427  160.2395 C   0  0  0  0  0  0  0  0  0  0  0  0
  152.0249  142.8297  159.2103 C   0  0  0  0  0  0  0  0  0  0  0  0
  150.8957  143.1973  158.4725 N   0  0  0  0  0  0  0  0  0  0  0  0
  150.4261  142.3982  157.5710 C   0  0  0  0  0  0  0  0  0  0  0  0
  151.0237  141.1562  157.3032 N   0  0  0  0  0  0  0  0  0  0  0  0
  150.3926  140.3418  156.2513 C   0  0  0  0  0  0  0  0  0  0  0  0
  149.8776  141.2008  155.0754 C   0  0  1  0  0  0  0  0  0  0  0  0
  150.1282  140.5109  153.8665 O   0  0  0  0  0  0  0  0  0  0  0  0
  148.3983  141.5144  155.2395 C   0  0  0  0  0  0  0  0  0  0  0  0
  147.6449  141.9465  154.1293 C   0  0  0  0  0  0  0  0  0  0  0  0
  146.2777  142.2493  154.2738 C   0  0  0  0  0  0  0  0  0  0  0  0
  145.6377  142.1293  155.5243 C   0  0  0  0  0  0  0  0  0  0  0  0
  144.2954  142.4470  155.5695 O   0  0  0  0  0  0  0  0  0  0  0  0
  143.8791  143.7409  155.6364 C   0  0  0  0  0  0  0  0  0  0  0  0
  142.5260  143.7758  155.6963 F   0  0  0  0  0  0  0  0  0  0  0  0
  144.3387  144.3642  156.7505 F   0  0  0  0  0  0  0  0  0  0  0  0
  144.2434  144.4482  154.5375 F   0  0  0  0  0  0  0  0  0  0  0  0
  146.4002  141.6997  156.6397 C   0  0  0  0  0  0  0  0  0  0  0  0
  147.7683  141.3976  156.4966 C   0  0  0  0  0  0  0  0  0  0  0  0
  152.1216  140.7155  157.9833 C   0  0  0  0  0  0  0  0  0  0  0  0
  152.6286  139.6163  157.7503 O   0  0  0  0  0  0  0  0  0  0  0  0
  152.6466  141.6367  159.0042 C   0  0  0  0  0  0  0  0  0  0  0  0
  153.8789  141.1829  159.7767 C   0  0  0  0  0  0  0  0  0  0  0  0
  153.5130  144.1639  160.0224 H   0  0  0  0  0  0  0  0  0  0  0  0
  152.4696  143.4103  161.2400 H   0  0  0  0  0  0  0  0  0  0  0  0
  151.8582  144.7291  160.2437 H   0  0  0  0  0  0  0  0  0  0  0  0
  149.5450  142.6352  156.9722 H   0  0  0  0  0  0  0  0  0  0  0  0
  151.0471  139.5462  155.8889 H   0  0  0  0  0  0  0  0  0  0  0  0
  149.5515  139.8107  156.7015 H   0  0  0  0  0  0  0  0  0  0  0  0
  150.4205  142.1458  155.0311 H   0  0  0  0  0  0  0  0  0  0  0  0
  150.0959  139.5824  154.0402 H   0  0  0  0  0  0  0  0  0  0  0  0
  148.1133  142.0508  153.1614 H   0  0  0  0  0  0  0  0  0  0  0  0
  145.7133  142.5786  153.4138 H   0  0  0  0  0  0  0  0  0  0  0  0
  145.9590  141.5950  157.6188 H   0  0  0  0  0  0  0  0  0  0  0  0
  148.3336  141.0776  157.3597 H   0  0  0  0  0  0  0  0  0  0  0  0
  153.6702  140.2526  160.3065 H   0  0  0  0  0  0  0  0  0  0  0  0
  154.2169  141.9104  160.5129 H   0  0  0  0  0  0  0  0  0  0  0  0
  154.7067  141.0027  159.0901 H   0  0  0  0  0  0  0  0  0  0  0  0
  1  2  1  0  0  0  0
  1 24  1  0  0  0  0
  1 25  1  0  0  0  0
  1 26  1  0  0  0  0
  2 22  2  0  0  0  0
  2  3  1  0  0  0  0
  3  4  2  0  0  0  0
  4  5  1  0  0  0  0
  4 27  1  0  0  0  0
  5  6  1  0  0  0  0
  5 20  1  0  0  0  0
  6  7  1  0  0  0  0
  6 28  1  0  0  0  0
  6 29  1  0  0  0  0
  7  8  1  0  0  0  0
  7  9  1  0  0  0  0
  7 30  1  0  0  0  0
  8 31  1  0  0  0  0
  9 19  1  0  0  0  0
  9 10  2  0  0  0  0
 10 11  1  0  0  0  0
 10 32  1  0  0  0  0
 11 12  2  0  0  0  0
 11 33  1  0  0  0  0
 12 13  1  0  0  0  0
 12 18  1  0  0  0  0
 13 14  1  0  0  0  0
 14 15  1  0  0  0  0
 14 16  1  0  0  0  0
 14 17  1  0  0  0  0
 18 19  2  0  0  0  0
 18 34  1  0  0  0  0
 19 35  1  0  0  0  0
 20 21  2  0  0  0  0
 20 22  1  0  0  0  0
 22 23  1  0  0  0  0
 23 36  1  0  0  0  0
 23 37  1  0  0  0  0
 23 38  1  0  0  0  0
M  END
> <s_m_source_file>
AV-unprocessed.smi

> <i_m_source_file_index>
2307

> <i_lp_mmshare_version>
43012

> <i_f3d_flags>
0

> <s_epik_input>
W0NIM11jMW5bY0hdbihjKD1PKWMxW0NIM10pW0NIMl1bQ0BIXShbT0hdKWMyW2NIXVtjSF1jKE9DKEYpKEYpRilbY0hdW2NIXTI=

> <s_epik_cmdline>
J2VwaWtfcHl0aG9uJywgJy1waCcsICc3LjAnLCAnLXRuJywgJzgnLCAnLW1hJywgJzIwMCcsICctbWV0YWxfYmluZGluZycsICctaW1hZScsICc8aW5maWxlLm1hZT4nLCAnLW9tYWUnLCAnPG91dGZpbGUubWFlPic=

> <r_lp_tautomer_probability>
1

> <r_epik_Ionization_Penalty>
5.07003e-05

> <r_epik_Ionization_Penalty_Charging>
7.56727e-08

> <r_epik_Ionization_Penalty_Neutral>
5.06246e-05

> <r_epik_State_Penalty>
-0

> <r_epik_Charging_Adjusted_Penalty>
7.56727e-08

> <i_epik_Tot_Q>
0

> <i_epik_Tot_abs_Q>
0

> <r_epik_Metal_State_Penalty>
-0

> <b_epik_Metal_Only>
0

> <s_lp_Force_Field>
OPLS_2005

> <r_lp_Energy>
18.0652

> <b_lp_Chiralities_Consistent>
1

> <s_lp_Variant>
AV-unprocessed.smi:2307-2

> <Gold.Version>
5.8.1

> <Gold.Id.Protein>
6NUR|6NUR_protein|mol2

> <Gold.PLP.Fitness>
46.6167

> <Gold.PLP.PLP>
-41.0861

> <Gold.PLP.part.hbond>
-2.7156

> <Gold.PLP.part.metal>
0.0000

> <Gold.PLP.part.buried>
-3.5993

> <Gold.PLP.part.nonpolar>
-34.2818

> <Gold.PLP.part.repulsive>
0.2442

> <Gold.PLP.ligand.clash>
0.0000

> <Gold.PLP.ligand.torsion>
1.6480

> <Gold.PLP.Chemscore.Hbond>
1.8884

> <Gold.PLP.Chemscore.CHOScore>
1.0000

> <Gold.PLP.Chemscore.Metal>
0.0000

> <Gold.Chemscore.Hbonds>
donor molecule, donor type, donor heavy atom, donor atom, acceptor molecule, acceptor atom, score
      P1  H  7989  7998       L1     8  0.69
      P1  H  7997  8009       L1    21  0.86
      L1  C     4    27       P1  8028  0.96

> <Gold.PLP.Chemscore.Internal.Correction>
0.1615

> <Gold.Rescore>
     Score         DG    S(hbond)    S(metal)    S(lipo)     H(rot)  DE(clash)    DE(int)     intcor
     10.46     -13.28       1.46        0.00      83.72       2.69       0.09       2.73       ----

> <Gold.Chemscore.Fitness>
10.4605

> <Gold.Chemscore.DG>
-13.2781

> <Gold.Chemscore.ZeroCoef>
-5.4800

> <Gold.Chemscore.Hbond>
1.4604

> <Gold.Chemscore.Metal>
0.0000

> <Gold.Chemscore.Lipo>
83.7216

> <Gold.Chemscore.Internal_Hbond>
0.0000

> <Gold.Chemscore.DEClash>
0.0889

> <Gold.Chemscore.DEInternal>
2.7287

> <Gold.Chemscore.Rot>
2.6856

> <Gold.Chemscore.Internal.Correction>
   9.000000E+99

> <Gold.Chemscore.Hbonds>
donor molecule, donor type, donor heavy atom, donor atom, acceptor molecule, acceptor atom, score
      P1  H  7989  7998       L1     8  0.24
      P1  H  7997  8009       L1    21  0.38
      P1  H  8011  8017       L1     8  0.01

> <Gold.Chemscore.Hbond.Weighted>
-4.8778

> <Gold.Chemscore.Metal.Weighted>
-0.0000

> <Gold.Chemscore.Lipo.Weighted>
-9.7954

> <Gold.Chemscore.Internal_Hbond.Weighted>
0.0000

> <Gold.Chemscore.DEClash.Weighted>
0.0889

> <Gold.Chemscore.DEInternal.Weighted>
2.7287

> <Gold.Chemscore.Rot.Weighted>
6.8751

> <Gold.Chemscore.Internal.Correction.Weighted>
   9.000000E+99

> <Gold.Protein.RotatedTorsions>
[ 6907 6896 6895 6894 ] final  -51.78 input  -60.11 | X-H torsion
[ 7974 7965 7964 7962 ] final -122.73 input  175.53 | X-H torsion
[ 8008 7997 7996 7995 ] final  168.26 input   59.86 | X-H torsion
[ 10167 10162 10161 10158 ] final   68.21 input  -65.29 | X-H torsion
[ 10718 10713 10712 10709 ] final   64.20 input   66.30 | X-H torsion
[ 10763 10752 10751 10750 ] final  -90.37 input  -60.55 | X-H torsion
[ 11005 11000 10999 10996 ] final  144.54 input  -57.11 | X-H torsion

> <Gold.Protein.ActiveResidues>
 VAL166  LYS551  ARG553  GLY616  TRP617  ASP618  TYR619  PRO620  LYS621  CYS622 
 ASP623  PHE694  ASN695  SER759  ASP760  ASP761  ALA762  ILE779  LEU786  VAL792 
 PHE793  MET794  SER795  GLU796  ALA797  LYS798  CYS799  TRP800  GLU811  SER814 

> <Gold.Protein.RotatedAtoms>
  150.8579  134.7923  159.7059 H   0  0  0  0  0  0  0  0  0  0  0  0  # atno 6907 bound_to 6896
  152.4625  134.5148  159.9774 H   0  0  0  0  0  0  0  0  0  0  0  0  # atno 6908 bound_to 6896
  151.5257  133.3420  159.2945 H   0  0  0  0  0  0  0  0  0  0  0  0  # atno 6909 bound_to 6896
  145.0263  140.8031  143.4350 H   0  0  0  0  0  0  0  0  0  0  0  0  # atno 7974 bound_to 7965
  156.1562  140.1595  156.8688 H   0  0  0  0  0  0  0  0  0  0  0  0  # atno 8008 bound_to 7997
  154.5117  140.0799  156.8039 H   0  0  0  0  0  0  0  0  0  0  0  0  # atno 8009 bound_to 7997
  155.3798  140.3404  155.4248 H   0  0  0  0  0  0  0  0  0  0  0  0  # atno 8010 bound_to 7997
  140.0812  144.5069  150.7161 H   0  0  0  0  0  0  0  0  0  0  0  0  # atno 10167 bound_to 10162
  157.6023  130.9147  149.9815 H   0  0  0  0  0  0  0  0  0  0  0  0  # atno 10718 bound_to 10713
  154.6650  135.5307  153.8066 H   0  0  0  0  0  0  0  0  0  0  0  0  # atno 10763 bound_to 10752
  153.0465  135.6515  154.0813 H   0  0  0  0  0  0  0  0  0  0  0  0  # atno 10764 bound_to 10752
  154.0718  135.2953  155.3286 H   0  0  0  0  0  0  0  0  0  0  0  0  # atno 10765 bound_to 10752
  140.0641  134.9188  157.1234 H   0  0  0  0  0  0  0  0  0  0  0  0  # atno 11005 bound_to 11000
  145.1829  139.2342  143.5283 LP  0  0  0  0  0  0  0  0  0  0  0  0  # atno 17320 bound_to 7965
  146.3492  140.1607  142.8591 LP  0  0  0  0  0  0  0  0  0  0  0  0  # atno 17321 bound_to 7965
  140.7077  143.2480  151.4677 LP  0  0  0  0  0  0  0  0  0  0  0  0  # atno 17342 bound_to 10162
  139.5779  144.1778  152.1928 LP  0  0  0  0  0  0  0  0  0  0  0  0  # atno 17343 bound_to 10162
  156.1100  130.3650  150.0066 LP  0  0  0  0  0  0  0  0  0  0  0  0  # atno 17370 bound_to 10713
  156.8166  130.9344  151.3642 LP  0  0  0  0  0  0  0  0  0  0  0  0  # atno 17371 bound_to 10713
  140.3726  134.2374  155.7177 LP  0  0  0  0  0  0  0  0  0  0  0  0  # atno 17394 bound_to 11000
  141.1985  133.8033  157.0578 LP  0  0  0  0  0  0  0  0  0  0  0  0  # atno 17395 bound_to 11000

$$$$
