AV-unprocessed.smi:1432|AV-procd|sdf|5833|dock4
  -GOLD-   22720 5493D 1   1.00000     0.00000
 Structure written by MMmdl.
 47 48  0  0  0  0  0  0  0  0  2 V2000
  147.8178  133.3985  151.9699 C   0  0  0  0  0  0  0  0  0  0  0  0
  146.4339  132.8797  152.4178 C   0  0  2  0  0  0  0  0  0  0  0  0
  145.4846  132.6355  151.2258 C   0  0  0  0  0  0  0  0  0  0  0  0
  144.9747  133.9490  150.6149 C   0  0  0  0  0  0  0  0  0  0  0  0
  144.3346  134.8207  151.7020 C   0  0  0  0  0  0  0  0  0  0  0  0
  145.3011  135.0461  152.8764 C   0  0  0  0  0  0  0  0  0  0  0  0
  145.7743  133.7506  153.4371 N   0  3  2  0  0  0  0  0  0  0  0  0
  146.5531  133.8925  154.6943 C   0  0  0  0  0  0  0  0  0  0  0  0
  146.0905  135.0984  155.5340 C   0  0  0  0  0  0  0  0  0  0  0  0
  147.0026  135.3647  156.6401 N   0  0  0  0  0  0  0  0  0  0  0  0
  146.6244  135.7026  157.8821 C   0  0  0  0  0  0  0  0  0  0  0  0
  145.4441  135.7964  158.2219 O   0  0  0  0  0  0  0  0  0  0  0  0
  147.7565  135.9496  158.8893 C   0  0  0  0  0  0  0  0  0  0  0  0
  147.6899  135.0665  160.0661 N   0  0  0  0  0  0  0  0  0  0  0  0
  147.6048  133.6808  159.8261 C   0  0  0  0  0  0  0  0  0  0  0  0
  147.5193  132.7698  160.8143 C   0  0  0  0  0  0  0  0  0  0  0  0
  147.4775  131.2773  160.5250 C   0  0  0  0  0  0  0  0  0  0  0  0
  147.6060  131.0372  159.2198 F   0  0  0  0  0  0  0  0  0  0  0  0
  148.4756  130.6648  161.1603 F   0  0  0  0  0  0  0  0  0  0  0  0
  146.3298  130.7389  160.9392 F   0  0  0  0  0  0  0  0  0  0  0  0
  147.5555  133.2830  162.1698 C   0  0  0  0  0  0  0  0  0  0  0  0
  147.6426  134.6045  162.4169 C   0  0  0  0  0  0  0  0  0  0  0  0
  147.7066  135.5849  161.3307 C   0  0  0  0  0  0  0  0  0  0  0  0
  147.7710  136.7959  161.5431 O   0  0  0  0  0  0  0  0  0  0  0  0
  148.2652  132.7197  151.2437 H   0  0  0  0  0  0  0  0  0  0  0  0
  148.5138  133.4691  152.8059 H   0  0  0  0  0  0  0  0  0  0  0  0
  147.7625  134.3806  151.5012 H   0  0  0  0  0  0  0  0  0  0  0  0
  146.5976  131.9084  152.8874 H   0  0  0  0  0  0  0  0  0  0  0  0
  145.9806  132.0354  150.4621 H   0  0  0  0  0  0  0  0  0  0  0  0
  144.6305  132.0464  151.5636 H   0  0  0  0  0  0  0  0  0  0  0  0
  145.7960  134.4884  150.1419 H   0  0  0  0  0  0  0  0  0  0  0  0
  144.2499  133.7396  149.8276 H   0  0  0  0  0  0  0  0  0  0  0  0
  144.0306  135.7793  151.2800 H   0  0  0  0  0  0  0  0  0  0  0  0
  143.4248  134.3413  152.0657 H   0  0  0  0  0  0  0  0  0  0  0  0
  146.1505  135.6517  152.5588 H   0  0  0  0  0  0  0  0  0  0  0  0
  144.7843  135.6222  153.6427 H   0  0  0  0  0  0  0  0  0  0  0  0
  146.4265  132.9886  155.2919 H   0  0  0  0  0  0  0  0  0  0  0  0
  147.6177  133.9670  154.4673 H   0  0  0  0  0  0  0  0  0  0  0  0
  146.0488  136.0016  154.9268 H   0  0  0  0  0  0  0  0  0  0  0  0
  145.0812  134.9346  155.9155 H   0  0  0  0  0  0  0  0  0  0  0  0
  147.9919  135.3069  156.4438 H   0  0  0  0  0  0  0  0  0  0  0  0
  148.7070  135.8246  158.3690 H   0  0  0  0  0  0  0  0  0  0  0  0
  147.7408  136.9946  159.2049 H   0  0  0  0  0  0  0  0  0  0  0  0
  147.6075  133.4041  158.7817 H   0  0  0  0  0  0  0  0  0  0  0  0
  147.5070  132.5967  163.0023 H   0  0  0  0  0  0  0  0  0  0  0  0
  147.6642  134.9516  163.4396 H   0  0  0  0  0  0  0  0  0  0  0  0
  144.9393  133.2467  153.7005 H   0  0  0  0  0  0  0  0  0  0  0  0
  1  2  1  0  0  0  0
  1 25  1  0  0  0  0
  1 26  1  0  0  0  0
  1 27  1  0  0  0  0
  2  7  1  0  0  0  0
  2  3  1  0  0  0  0
  2 28  1  0  0  0  0
  3  4  1  0  0  0  0
  3 29  1  0  0  0  0
  3 30  1  0  0  0  0
  4  5  1  0  0  0  0
  4 31  1  0  0  0  0
  4 32  1  0  0  0  0
  5  6  1  0  0  0  0
  5 33  1  0  0  0  0
  5 34  1  0  0  0  0
  6  7  1  0  0  0  0
  6 35  1  0  0  0  0
  6 36  1  0  0  0  0
  7  8  1  0  0  0  0
  7 47  1  0  0  0  0
  8  9  1  0  0  0  0
  8 37  1  0  0  0  0
  8 38  1  0  0  0  0
  9 10  1  0  0  0  0
  9 39  1  0  0  0  0
  9 40  1  0  0  0  0
 10 11  1  0  0  0  0
 10 41  1  0  0  0  0
 11 12  2  0  0  0  0
 11 13  1  0  0  0  0
 13 14  1  0  0  0  0
 13 42  1  0  0  0  0
 13 43  1  0  0  0  0
 14 23  1  0  0  0  0
 14 15  1  0  0  0  0
 15 16  2  0  0  0  0
 15 44  1  0  0  0  0
 16 17  1  0  0  0  0
 16 21  1  0  0  0  0
 17 18  1  0  0  0  0
 17 19  1  0  0  0  0
 17 20  1  0  0  0  0
 21 22  2  0  0  0  0
 21 45  1  0  0  0  0
 22 23  1  0  0  0  0
 22 46  1  0  0  0  0
 23 24  2  0  0  0  0
M  CHG  1   7   1
M  END
> <s_m_source_file>
AV-unprocessed.smi

> <i_m_source_file_index>
1432

> <i_lp_mmshare_version>
43012

> <i_f3d_flags>
0

> <s_epik_input>
W0NIM11bQ0BASF0xW0NIMl1bQ0gyXVtDSDJdW0NIMl1OMVtDSDJdW0NIMl1bTkhdQyg9TylbQ0gyXW4yW2NIXWMoQyhGKShGKUYpW2NIXVtjSF1jMj1P

> <s_epik_cmdline>
J2VwaWtfcHl0aG9uJywgJy1waCcsICc3LjAnLCAnLXRuJywgJzgnLCAnLW1hJywgJzIwMCcsICctbWV0YWxfYmluZGluZycsICctaW1hZScsICc8aW5maWxlLm1hZT4nLCAnLW9tYWUnLCAnPG91dGZpbGUubWFlPic=

> <r_lp_tautomer_probability>
1

> <r_epik_Ionization_Penalty>
0.00237222

> <r_epik_Ionization_Penalty_Charging>
0.00237213

> <r_epik_Ionization_Penalty_Neutral>
8.2065e-08

> <r_epik_State_Penalty>
0.00163922

> <r_epik_Charging_Adjusted_Penalty>
0.00401135

> <i_epik_Tot_Q>
1

> <i_epik_Tot_abs_Q>
1

> <r_epik_Metal_State_Penalty>
-0

> <b_epik_Metal_Only>
0

> <s_lp_Force_Field>
OPLS_2005

> <r_lp_Energy>
31.3892

> <b_lp_Chiralities_Consistent>
1

> <s_lp_Variant>
AV-unprocessed.smi:1432-3

> <Gold.Version>
5.8.1

> <Gold.Id.Protein>
6NUR|6NUR_protein|mol2

> <Gold.PLP.Fitness>
45.6599

> <Gold.PLP.PLP>
-36.7897

> <Gold.PLP.part.hbond>
-3.0000

> <Gold.PLP.part.metal>
0.0000

> <Gold.PLP.part.buried>
-4.7068

> <Gold.PLP.part.nonpolar>
-29.0372

> <Gold.PLP.part.repulsive>
0.0000

> <Gold.PLP.ligand.clash>
1.3638

> <Gold.PLP.ligand.torsion>
0.5370

> <Gold.PLP.Chemscore.Hbond>
3.7280

> <Gold.PLP.Chemscore.CHOScore>
0.0000

> <Gold.PLP.Chemscore.Metal>
0.0000

> <Gold.Chemscore.Hbonds>
donor molecule, donor type, donor heavy atom, donor atom, acceptor molecule, acceptor atom, score
      P1  H  6931  6943       L1    24  1.00
      P1  H  6934  6947       L1    24  0.10

> <Gold.PLP.Chemscore.Internal.Correction>
0.1240

> <Gold.Rescore>
     Score         DG    S(hbond)    S(metal)    S(lipo)     H(rot)  DE(clash)    DE(int)     intcor
     16.46     -17.17       2.72        0.00      67.58       2.08       0.03       0.68       ----

> <Gold.Chemscore.Fitness>
16.4587

> <Gold.Chemscore.DG>
-17.1660

> <Gold.Chemscore.ZeroCoef>
-5.4800

> <Gold.Chemscore.Hbond>
2.7227

> <Gold.Chemscore.Metal>
0.0000

> <Gold.Chemscore.Lipo>
67.5815

> <Gold.Chemscore.Internal_Hbond>
0.0000

> <Gold.Chemscore.DEClash>
0.0270

> <Gold.Chemscore.DEInternal>
0.6802

> <Gold.Chemscore.Rot>
2.0762

> <Gold.Chemscore.Internal.Correction>
   9.000000E+99

> <Gold.Chemscore.Hbonds>
donor molecule, donor type, donor heavy atom, donor atom, acceptor molecule, acceptor atom, score
      P1  H  6931  6943       L1    24  0.98
      P1  H  6934  6947       L1    24  0.13

> <Gold.Chemscore.Hbond.Weighted>
-9.0939

> <Gold.Chemscore.Metal.Weighted>
-0.0000

> <Gold.Chemscore.Lipo.Weighted>
-7.9070

> <Gold.Chemscore.Internal_Hbond.Weighted>
0.0000

> <Gold.Chemscore.DEClash.Weighted>
0.0270

> <Gold.Chemscore.DEInternal.Weighted>
0.6802

> <Gold.Chemscore.Rot.Weighted>
5.3150

> <Gold.Chemscore.Internal.Correction.Weighted>
   9.000000E+99

> <Gold.Protein.RotatedTorsions>
[ 6907 6896 6895 6894 ] final  -58.39 input  -60.11 | X-H torsion
[ 7974 7965 7964 7962 ] final   96.10 input  175.53 | X-H torsion
[ 8008 7997 7996 7995 ] final -114.79 input   59.86 | X-H torsion
[ 10167 10162 10161 10158 ] final  154.01 input  -65.29 | X-H torsion
[ 10718 10713 10712 10709 ] final  161.00 input   66.30 | X-H torsion
[ 10763 10752 10751 10750 ] final -141.40 input  -60.55 | X-H torsion
[ 11005 11000 10999 10996 ] final  -82.75 input  -57.11 | X-H torsion

> <Gold.Protein.ActiveResidues>
 VAL166  LYS551  ARG553  GLY616  TRP617  ASP618  TYR619  PRO620  LYS621  CYS622 
 ASP623  PHE694  ASN695  SER759  ASP760  ASP761  ALA762  ILE779  LEU786  VAL792 
 PHE793  MET794  SER795  GLU796  ALA797  LYS798  CYS799  TRP800  GLU811  SER814 

> <Gold.Protein.RotatedAtoms>
  150.8010  134.7104  159.6600 H   0  0  0  0  0  0  0  0  0  0  0  0  # atno 6907 bound_to 6896
  152.4127  134.6092  160.0031 H   0  0  0  0  0  0  0  0  0  0  0  0  # atno 6908 bound_to 6896
  151.6331  133.3294  159.3149 H   0  0  0  0  0  0  0  0  0  0  0  0  # atno 6909 bound_to 6896
  145.4433  139.2299  143.3080 H   0  0  0  0  0  0  0  0  0  0  0  0  # atno 7974 bound_to 7965
  155.0419  140.0392  157.2512 H   0  0  0  0  0  0  0  0  0  0  0  0  # atno 8008 bound_to 7997
  154.7209  140.2711  155.6518 H   0  0  0  0  0  0  0  0  0  0  0  0  # atno 8009 bound_to 7997
  156.2816  140.2703  156.1880 H   0  0  0  0  0  0  0  0  0  0  0  0  # atno 8010 bound_to 7997
  139.4825  144.5223  151.7856 H   0  0  0  0  0  0  0  0  0  0  0  0  # atno 10167 bound_to 10162
  157.1426  131.0544  151.2319 H   0  0  0  0  0  0  0  0  0  0  0  0  # atno 10718 bound_to 10713
  154.8546  135.3525  154.5862 H   0  0  0  0  0  0  0  0  0  0  0  0  # atno 10763 bound_to 10752
  153.6473  135.6995  153.5226 H   0  0  0  0  0  0  0  0  0  0  0  0  # atno 10764 bound_to 10752
  153.2923  135.4231  155.1136 H   0  0  0  0  0  0  0  0  0  0  0  0  # atno 10765 bound_to 10752
  141.1661  133.7260  156.8618 H   0  0  0  0  0  0  0  0  0  0  0  0  # atno 11005 bound_to 11000
  146.2544  140.5184  142.8880 LP  0  0  0  0  0  0  0  0  0  0  0  0  # atno 17320 bound_to 7965
  144.8107  140.6381  143.6417 LP  0  0  0  0  0  0  0  0  0  0  0  0  # atno 17321 bound_to 7965
  140.4739  144.1547  150.5922 LP  0  0  0  0  0  0  0  0  0  0  0  0  # atno 17342 bound_to 10162
  140.4352  143.2550  151.9544 LP  0  0  0  0  0  0  0  0  0  0  0  0  # atno 17343 bound_to 10162
  157.4293  130.7481  149.6977 LP  0  0  0  0  0  0  0  0  0  0  0  0  # atno 17370 bound_to 10713
  155.9785  130.4050  150.3641 LP  0  0  0  0  0  0  0  0  0  0  0  0  # atno 17371 bound_to 10713
  140.1843  134.9011  157.2986 LP  0  0  0  0  0  0  0  0  0  0  0  0  # atno 17394 bound_to 11000
  140.2360  134.3852  155.7501 LP  0  0  0  0  0  0  0  0  0  0  0  0  # atno 17395 bound_to 11000

$$$$
