AV-unprocessed.smi:1983|AV-procd|sdf|8029|dock4
  -GOLD-   2272010223D 1   1.00000     0.00000
 Structure written by MMmdl.
 49 50  0  0  0  0  0  0  0  0  1 V2000
  149.0957  133.5926  155.3546 C   0  0  0  0  0  0  0  0  0  0  0  0
  148.9131  134.9598  156.0374 C   0  0  1  0  0  0  0  0  0  0  0  0
  150.0809  135.3018  156.9785 C   0  0  0  0  0  0  0  0  0  0  0  0
  151.1770  135.8059  156.2459 O   0  0  0  0  0  0  0  0  0  0  0  0
  148.7817  136.0152  155.0366 N   0  0  0  0  0  0  0  0  0  0  0  0
  148.6889  137.3262  155.3003 C   0  0  0  0  0  0  0  0  0  0  0  0
  148.6974  137.8056  156.4344 O   0  0  0  0  0  0  0  0  0  0  0  0
  148.5796  138.0525  154.1794 N   0  0  0  0  0  0  0  0  0  0  0  0
  148.4298  139.5023  154.1431 C   0  0  0  0  0  0  0  0  0  0  0  0
  149.3158  140.2099  155.1528 C   0  0  0  0  0  0  0  0  0  0  0  0
  150.6566  139.8214  155.3383 C   0  0  0  0  0  0  0  0  0  0  0  0
  151.4370  140.5024  156.2918 C   0  0  0  0  0  0  0  0  0  0  0  0
  150.8552  141.5570  157.0345 C   0  0  0  0  0  0  0  0  0  0  0  0
  151.6226  142.2517  157.9934 N   0  0  0  0  0  0  0  0  0  0  0  0
  152.0974  141.4490  159.1163 C   0  0  0  0  0  0  0  0  0  0  0  0
  153.1687  142.2185  159.9126 C   0  0  2  0  0  0  0  0  0  0  0  0
  153.6004  141.4623  161.1734 C   0  0  0  0  0  0  0  0  0  0  0  0
  152.6442  143.4837  160.3077 O   0  0  0  0  0  0  0  0  0  0  0  0
  152.2873  144.2979  159.1936 C   0  0  2  0  0  0  0  0  0  0  0  0
  151.8295  145.6621  159.7194 C   0  0  0  0  0  0  0  0  0  0  0  0
  151.1848  143.5893  158.3849 C   0  0  0  0  0  0  0  0  0  0  0  0
  149.5648  141.9304  156.8483 N   0  0  0  0  0  0  0  0  0  0  0  0
  148.8198  141.2709  155.9364 C   0  0  0  0  0  0  0  0  0  0  0  0
  149.1788  132.7932  156.0910 H   0  0  0  0  0  0  0  0  0  0  0  0
  149.9955  133.5721  154.7393 H   0  0  0  0  0  0  0  0  0  0  0  0
  148.2479  133.3531  154.7121 H   0  0  0  0  0  0  0  0  0  0  0  0
  147.9961  134.9388  156.6299 H   0  0  0  0  0  0  0  0  0  0  0  0
  149.7786  136.0277  157.7343 H   0  0  0  0  0  0  0  0  0  0  0  0
  150.4187  134.4087  157.5059 H   0  0  0  0  0  0  0  0  0  0  0  0
  150.9019  136.5882  155.7931 H   0  0  0  0  0  0  0  0  0  0  0  0
  148.7631  135.7232  154.0705 H   0  0  0  0  0  0  0  0  0  0  0  0
  148.5851  137.5700  153.2928 H   0  0  0  0  0  0  0  0  0  0  0  0
  148.6250  139.8769  153.1366 H   0  0  0  0  0  0  0  0  0  0  0  0
  147.3905  139.7453  154.3643 H   0  0  0  0  0  0  0  0  0  0  0  0
  151.0831  139.0135  154.7621 H   0  0  0  0  0  0  0  0  0  0  0  0
  152.4696  140.2199  156.4329 H   0  0  0  0  0  0  0  0  0  0  0  0
  151.2486  141.2126  159.7595 H   0  0  0  0  0  0  0  0  0  0  0  0
  152.5138  140.4997  158.7812 H   0  0  0  0  0  0  0  0  0  0  0  0
  154.0480  142.3765  159.2855 H   0  0  0  0  0  0  0  0  0  0  0  0
  154.0166  140.4865  160.9222 H   0  0  0  0  0  0  0  0  0  0  0  0
  152.7572  141.3035  161.8466 H   0  0  0  0  0  0  0  0  0  0  0  0
  154.3628  142.0184  161.7195 H   0  0  0  0  0  0  0  0  0  0  0  0
  153.1662  144.4476  158.5637 H   0  0  0  0  0  0  0  0  0  0  0  0
  151.5581  146.3277  158.8996 H   0  0  0  0  0  0  0  0  0  0  0  0
  152.6227  146.1452  160.2904 H   0  0  0  0  0  0  0  0  0  0  0  0
  150.9615  145.5633  160.3722 H   0  0  0  0  0  0  0  0  0  0  0  0
  150.9478  144.1797  157.4987 H   0  0  0  0  0  0  0  0  0  0  0  0
  150.2733  143.5106  158.9790 H   0  0  0  0  0  0  0  0  0  0  0  0
  147.7975  141.6019  155.8287 H   0  0  0  0  0  0  0  0  0  0  0  0
  1  2  1  0  0  0  0
  1 24  1  0  0  0  0
  1 25  1  0  0  0  0
  1 26  1  0  0  0  0
  2  3  1  0  0  0  0
  2  5  1  0  0  0  0
  2 27  1  0  0  0  0
  3  4  1  0  0  0  0
  3 28  1  0  0  0  0
  3 29  1  0  0  0  0
  4 30  1  0  0  0  0
  5  6  1  0  0  0  0
  5 31  1  0  0  0  0
  6  7  2  0  0  0  0
  6  8  1  0  0  0  0
  8  9  1  0  0  0  0
  8 32  1  0  0  0  0
  9 10  1  0  0  0  0
  9 33  1  0  0  0  0
  9 34  1  0  0  0  0
 10 23  1  0  0  0  0
 10 11  2  0  0  0  0
 11 12  1  0  0  0  0
 11 35  1  0  0  0  0
 12 13  2  0  0  0  0
 12 36  1  0  0  0  0
 13 14  1  0  0  0  0
 13 22  1  0  0  0  0
 14 21  1  0  0  0  0
 14 15  1  0  0  0  0
 15 16  1  0  0  0  0
 15 37  1  0  0  0  0
 15 38  1  0  0  0  0
 16 17  1  0  0  0  0
 16 18  1  0  0  0  0
 16 39  1  0  0  0  0
 17 40  1  0  0  0  0
 17 41  1  0  0  0  0
 17 42  1  0  0  0  0
 18 19  1  0  0  0  0
 19 20  1  0  0  0  0
 19 21  1  0  0  0  0
 19 43  1  0  0  0  0
 20 44  1  0  0  0  0
 20 45  1  0  0  0  0
 20 46  1  0  0  0  0
 21 47  1  0  0  0  0
 21 48  1  0  0  0  0
 22 23  2  0  0  0  0
 23 49  1  0  0  0  0
M  END
> <s_m_source_file>
AV-unprocessed.smi

> <i_m_source_file_index>
1983

> <i_lp_mmshare_version>
43012

> <i_f3d_flags>
0

> <s_epik_input>
W09IXVtDSDJdW0NAQEhdKFtDSDNdKVtOSF1DKD1PKVtOSF1bQ0gyXWMxW2NIXVtjSF1jKG5bY0hdMSlOMltDSDJdW0NAQEhdKFtDSDNdKU9bQ0BASF0oW0NIM10pW0NIMl0y

> <s_epik_cmdline>
J2VwaWtfcHl0aG9uJywgJy1waCcsICc3LjAnLCAnLXRuJywgJzgnLCAnLW1hJywgJzIwMCcsICctbWV0YWxfYmluZGluZycsICctaW1hZScsICc8aW5maWxlLm1hZT4nLCAnLW9tYWUnLCAnPG91dGZpbGUubWFlPic=

> <r_lp_tautomer_probability>
1

> <r_epik_Ionization_Penalty>
0.00801967

> <r_epik_Ionization_Penalty_Charging>
0

> <r_epik_Ionization_Penalty_Neutral>
0.00801967

> <r_epik_State_Penalty>
0.00598289

> <r_epik_Charging_Adjusted_Penalty>
0.00598289

> <i_epik_Tot_Q>
0

> <i_epik_Tot_abs_Q>
0

> <r_epik_Metal_State_Penalty>
0.00590297

> <b_epik_Metal_Only>
0

> <s_lp_Force_Field>
OPLS_2005

> <r_lp_Energy>
11.3831

> <b_lp_Chiralities_Consistent>
1

> <s_lp_Variant>
AV-unprocessed.smi:1983-2

> <Gold.Version>
5.8.1

> <Gold.Id.Protein>
6NUR|6NUR_protein|mol2

> <Gold.PLP.Fitness>
51.1482

> <Gold.PLP.PLP>
-43.5653

> <Gold.PLP.part.hbond>
-3.0000

> <Gold.PLP.part.metal>
0.0000

> <Gold.PLP.part.buried>
-5.0651

> <Gold.PLP.part.nonpolar>
-36.3484

> <Gold.PLP.part.repulsive>
0.2240

> <Gold.PLP.ligand.clash>
0.0000

> <Gold.PLP.ligand.torsion>
0.8785

> <Gold.PLP.Chemscore.Hbond>
3.0000

> <Gold.PLP.Chemscore.CHOScore>
0.0000

> <Gold.PLP.Chemscore.Metal>
0.0000

> <Gold.Chemscore.Hbonds>
donor molecule, donor type, donor heavy atom, donor atom, acceptor molecule, acceptor atom, score
      L1  H     5    31       P1  7948  0.44
      L1  H     8    32       P1  7948  1.00
      P1  H 10752 10764       L1     4  0.22

> <Gold.PLP.Chemscore.Internal.Correction>
0.3399

> <Gold.Rescore>
     Score         DG    S(hbond)    S(metal)    S(lipo)     H(rot)  DE(clash)    DE(int)     intcor
     17.96     -20.43       2.86        0.00     103.29       2.61       0.04       2.42       ----

> <Gold.Chemscore.Fitness>
17.9637

> <Gold.Chemscore.DG>
-20.4284

> <Gold.Chemscore.ZeroCoef>
-5.4800

> <Gold.Chemscore.Hbond>
2.8576

> <Gold.Chemscore.Metal>
0.0000

> <Gold.Chemscore.Lipo>
103.2904

> <Gold.Chemscore.Internal_Hbond>
0.0000

> <Gold.Chemscore.DEClash>
0.0418

> <Gold.Chemscore.DEInternal>
2.4229

> <Gold.Chemscore.Rot>
2.6097

> <Gold.Chemscore.Internal.Correction>
   9.000000E+99

> <Gold.Chemscore.Hbonds>
donor molecule, donor type, donor heavy atom, donor atom, acceptor molecule, acceptor atom, score
      L1  H     5    31       P1  7948  0.40
      L1  H     8    32       P1  7948  0.97
      P1  H 10752 10764       L1     4  0.02

> <Gold.Chemscore.Hbond.Weighted>
-9.5444

> <Gold.Chemscore.Metal.Weighted>
-0.0000

> <Gold.Chemscore.Lipo.Weighted>
-12.0850

> <Gold.Chemscore.Internal_Hbond.Weighted>
0.0000

> <Gold.Chemscore.DEClash.Weighted>
0.0418

> <Gold.Chemscore.DEInternal.Weighted>
2.4229

> <Gold.Chemscore.Rot.Weighted>
6.6809

> <Gold.Chemscore.Internal.Correction.Weighted>
   9.000000E+99

> <Gold.Protein.RotatedTorsions>
[ 6907 6896 6895 6894 ] final   74.75 input  -60.11 | X-H torsion
[ 7974 7965 7964 7962 ] final    6.59 input  175.53 | X-H torsion
[ 8008 7997 7996 7995 ] final  -37.74 input   59.86 | X-H torsion
[ 10167 10162 10161 10158 ] final   86.22 input  -65.29 | X-H torsion
[ 10718 10713 10712 10709 ] final  -42.94 input   66.30 | X-H torsion
[ 10763 10752 10751 10750 ] final  -39.32 input  -60.55 | X-H torsion
[ 11005 11000 10999 10996 ] final  175.35 input  -57.11 | X-H torsion

> <Gold.Protein.ActiveResidues>
 VAL166  LYS551  ARG553  GLY616  TRP617  ASP618  TYR619  PRO620  LYS621  CYS622 
 ASP623  PHE694  ASN695  SER759  ASP760  ASP761  ALA762  ILE779  LEU786  VAL792 
 PHE793  MET794  SER795  GLU796  ALA797  LYS798  CYS799  TRP800  GLU811  SER814 

> <Gold.Protein.RotatedAtoms>
  152.4992  134.4224  159.9484 H   0  0  0  0  0  0  0  0  0  0  0  0  # atno 6907 bound_to 6896
  151.4197  133.3696  159.2762 H   0  0  0  0  0  0  0  0  0  0  0  0  # atno 6908 bound_to 6896
  150.9231  134.8671  159.7561 H   0  0  0  0  0  0  0  0  0  0  0  0  # atno 6909 bound_to 6896
  146.2433  140.0210  142.8398 H   0  0  0  0  0  0  0  0  0  0  0  0  # atno 7974 bound_to 7965
  154.4048  140.1596  156.2585 H   0  0  0  0  0  0  0  0  0  0  0  0  # atno 8008 bound_to 7997
  155.9057  140.3430  155.6038 H   0  0  0  0  0  0  0  0  0  0  0  0  # atno 8009 bound_to 7997
  155.7396  140.0791  157.2242 H   0  0  0  0  0  0  0  0  0  0  0  0  # atno 8010 bound_to 7997
  139.8897  144.6392  150.8752 H   0  0  0  0  0  0  0  0  0  0  0  0  # atno 10167 bound_to 10162
  156.2542  130.4191  149.8615 H   0  0  0  0  0  0  0  0  0  0  0  0  # atno 10718 bound_to 10713
  153.9275  135.6775  153.4746 H   0  0  0  0  0  0  0  0  0  0  0  0  # atno 10763 bound_to 10752
  153.0996  135.4834  154.8840 H   0  0  0  0  0  0  0  0  0  0  0  0  # atno 10764 bound_to 10752
  154.7445  135.3169  154.8626 H   0  0  0  0  0  0  0  0  0  0  0  0  # atno 10765 bound_to 10752
  140.3613  134.7110  157.4333 H   0  0  0  0  0  0  0  0  0  0  0  0  # atno 11005 bound_to 11000
  145.1241  140.9480  143.4583 LP  0  0  0  0  0  0  0  0  0  0  0  0  # atno 17320 bound_to 7965
  145.0452  139.3227  143.5956 LP  0  0  0  0  0  0  0  0  0  0  0  0  # atno 17321 bound_to 7965
  140.7729  143.3520  151.1996 LP  0  0  0  0  0  0  0  0  0  0  0  0  # atno 17342 bound_to 10162
  139.7121  143.9360  152.2951 LP  0  0  0  0  0  0  0  0  0  0  0  0  # atno 17343 bound_to 10162
  156.6153  130.8603  151.3463 LP  0  0  0  0  0  0  0  0  0  0  0  0  # atno 17370 bound_to 10713
  157.7226  130.9579  150.1501 LP  0  0  0  0  0  0  0  0  0  0  0  0  # atno 17371 bound_to 10713
  140.0625  134.5976  155.8733 LP  0  0  0  0  0  0  0  0  0  0  0  0  # atno 17394 bound_to 11000
  141.1983  133.6601  156.5786 LP  0  0  0  0  0  0  0  0  0  0  0  0  # atno 17395 bound_to 11000

$$$$
