#       Name:                AV-unprocessed.smi:18
#       Creating user name   scv26
#       Creation time:       Thu Mar 26 15:26:48 2020


#       File generated by GOLD software.
#

@<TRIPOS>MOLECULE
AV-unprocessed.smi:18
    57    60     1
SMALL
NO_CHARGES


@<TRIPOS>ATOM
      1 ****        -3.7017   2.0515  -3.0384 O.3            1 S1                 0.0000
      2 ****        -3.4316   2.4220  -1.7013 C.3            1 S1                 0.0000
      3 ****        -4.0755   1.4425  -0.7037 C.3            1 S1                 0.0000
      4 ****        -3.5399   0.0103  -0.9131 C.3            1 S1                 0.0000
      5 ****        -2.0881  -0.0912  -0.9089 N.pl3          1 S1                 0.0000
      6 ****        -1.2671  -0.1551  -2.0134 C.2            1 S1                 0.0000
      7 ****         0.0096  -0.2412  -1.7564 N.2            1 S1                 0.0000
      8 ****         0.0717  -0.2516  -0.3692 C.ar           1 S1                 0.0000
      9 ****         1.1355  -0.3342   0.5680 C.ar           1 S1                 0.0000
     10 ****         2.4306  -0.3980   0.1744 N.3            1 S1                 0.0000
     11 ****         2.9402   0.9494  -0.0605 C.3            1 S1                 0.0000
     12 ****         4.3434   0.8951  -0.6763 C.3            1 S1                 0.0000
     13 ****         5.1916   0.1516   0.1863 O.3            1 S1                 0.0000
     14 ****         4.7544  -1.1950   0.3225 C.3            1 S1                 0.0000
     15 ****         3.3407  -1.2557   0.9487 C.3            1 S1                 0.0000
     16 ****         2.8398  -2.7221   1.0231 C.3            1 S1                 0.0000
     17 ****         3.6834  -3.6337   1.9278 C.3            1 S1                 0.0000
     18 ****         3.7026  -3.1683   3.1765 F              1 S1                 0.0000
     19 ****         3.1693  -4.8629   1.9313 F              1 S1                 0.0000
     20 ****         0.8179  -0.3082   1.8900 N.ar           1 S1                 0.0000
     21 ****        -0.4611  -0.2279   2.2692 C.ar           1 S1                 0.0000
     22 ****        -1.5545  -0.1538   1.5072 N.ar           1 S1                 0.0000
     23 ****        -1.2377  -0.1635   0.1808 C.ar           1 S1                 0.0000
     24 ****        -4.1004   1.9461   0.7468 C.3            1 S1                 0.0000
     25 ****        -5.4823   2.3478   0.6415 O.3            1 S1                 0.0000
     26 ****        -5.5992   1.5710  -0.5691 C.3            1 S1                 0.0000
     27 ****        -3.3242   2.7010  -3.6122 H              1 S1                 0.0000
     28 ****        -2.3532   2.4929  -1.5587 H              1 S1                 0.0000
     29 ****        -3.8199   3.4300  -1.5515 H              1 S1                 0.0000
     30 ****        -3.9220  -0.6580  -0.1404 H              1 S1                 0.0000
     31 ****        -3.9060  -0.3986  -1.8556 H              1 S1                 0.0000
     32 ****        -1.6482  -0.1271  -3.0241 H              1 S1                 0.0000
     33 ****         2.2722   1.4981  -0.7262 H              1 S1                 0.0000
     34 ****         2.9717   1.4952   0.8840 H              1 S1                 0.0000
     35 ****         4.3198   0.4448  -1.6699 H              1 S1                 0.0000
     36 ****         4.7446   1.9022  -0.7892 H              1 S1                 0.0000
     37 ****         4.7733  -1.6887  -0.6507 H              1 S1                 0.0000
     38 ****         5.4771  -1.7106   0.9534 H              1 S1                 0.0000
     39 ****         3.4030  -0.8517   1.9601 H              1 S1                 0.0000
     40 ****         1.8153  -2.7601   1.3922 H              1 S1                 0.0000
     41 ****         2.8072  -3.1435   0.0176 H              1 S1                 0.0000
     42 ****         4.7144  -3.7270   1.5890 H              1 S1                 0.0000
     43 ****        -0.6325  -0.2189   3.3355 H              1 S1                 0.0000
     44 ****        -3.9708   1.1642   1.4960 H              1 S1                 0.0000
     45 ****        -3.4298   2.7843   0.9392 H              1 S1                 0.0000
     46 ****        -6.0743   2.1246  -1.3798 H              1 S1                 0.0000
     47 ****        -6.1104   0.6229  -0.3937 H              1 S1                 0.0000
     48 ****        -4.6902   2.0075  -3.1830 LP             1 S1                 0.0000
     49 ****        -3.2968   1.1571  -3.2288 LP             1 S1                 0.0000
     50 ****         0.7672  -0.2887  -2.4073 LP             1 S1                 0.0000
     51 ****         2.4147  -0.9062  -0.6867 LP             1 S1                 0.0000
     52 ****         5.1956   0.5837   1.0881 LP             1 S1                 0.0000
     53 ****         6.1185   0.1549  -0.1890 LP             1 S1                 0.0000
     54 ****         1.5418  -0.3492   2.5788 LP             1 S1                 0.0000
     55 ****        -2.4872  -0.0983   1.8636 LP             1 S1                 0.0000
     56 ****        -5.6155   3.3305   0.5132 LP             1 S1                 0.0000
     57 ****        -6.0610   2.0282   1.3918 LP             1 S1                 0.0000
@<TRIPOS>BOND
    1    1    2 1     
    2    1   27 1     
    3    2    3 1     
    4    2   28 1     
    5    2   29 1     
    6    3   26 1     
    7    3    4 1     
    8    3   24 1     
    9    4    5 1     
   10    4   30 1     
   11    4   31 1     
   12    5   23 1     
   13    5    6 1     
   14    6    7 2     
   15    6   32 1     
   16    7    8 1     
   17    8   23 ar    
   18    8    9 ar    
   19    9   10 1     
   20    9   20 ar    
   21   10   15 1     
   22   10   11 1     
   23   11   12 1     
   24   11   33 1     
   25   11   34 1     
   26   12   13 1     
   27   12   35 1     
   28   12   36 1     
   29   13   14 1     
   30   14   15 1     
   31   14   37 1     
   32   14   38 1     
   33   15   16 1     
   34   15   39 1     
   35   16   17 1     
   36   16   40 1     
   37   16   41 1     
   38   17   18 1     
   39   17   19 1     
   40   17   42 1     
   41   20   21 ar    
   42   21   22 ar    
   43   21   43 1     
   44   22   23 ar    
   45   24   25 1     
   46   24   44 1     
   47   24   45 1     
   48   25   26 1     
   49   26   46 1     
   50   26   47 1     
   51    1   48 1     
   52    1   49 1     
   53    7   50 1     
   54   10   51 1     
   55   13   52 1     
   56   13   53 1     
   57   20   54 1     
   58   22   55 1     
   59   25   56 1     
   60   25   57 1     
@<TRIPOS>SUBSTRUCTURE
      1 S1             1
@<TRIPOS>SET
LONE_PAIRS      STATIC     ATOMS    <user>   **** ""
10 48 49 50 51 52 53 54 55 56 57
DONOR_HYDROGENS      STATIC     ATOMS    <user>   **** ""
1 27
ATOM$BLUE        STATIC     ATOMS    COLORGROUP SYSTEM
10 48 49 50 51 52 53 54 55 56 57
ATOM$RED        STATIC     ATOMS    COLORGROUP SYSTEM
1 27
