AV-unprocessed.smi:1856|AV-procd|sdf|7537|dock5
  -GOLD-   22720 9253D 1   1.00000     0.00000
 Structure written by MMmdl.
 45 46  0  0  0  0  0  0  0  0  2 V2000
  144.7847  133.9732  150.3574 C   0  0  0  0  0  0  0  0  0  0  0  0
  145.1846  135.3997  150.7506 C   0  0  0  0  0  0  0  0  0  0  0  0
  145.4263  135.5467  152.2636 C   0  0  0  0  0  0  0  0  0  0  0  0
  145.4620  137.0073  152.7234 C   0  0  0  0  0  0  0  0  0  0  0  0
  144.5306  137.4786  153.3759 O   0  0  0  0  0  0  0  0  0  0  0  0
  146.5518  137.7108  152.3787 N   0  0  0  0  0  0  0  0  0  0  0  0
  146.8071  139.1068  152.7206 C   0  0  2  0  0  0  0  0  0  0  0  0
  146.7788  139.9731  151.4506 C   0  0  0  0  0  0  0  0  0  0  0  0
  148.1032  139.2311  153.4635 C   0  0  0  0  0  0  0  0  0  0  0  0
  149.0511  138.2601  153.6094 N   0  3  0  0  0  0  0  0  0  0  0  0
  150.1028  138.7358  154.3927 C   0  0  0  0  0  0  0  0  0  0  0  0
  151.2834  138.1243  154.8026 C   0  0  0  0  0  0  0  0  0  0  0  0
  152.1487  138.8948  155.6068 C   0  0  0  0  0  0  0  0  0  0  0  0
  151.8260  140.2173  155.9749 C   0  0  0  0  0  0  0  0  0  0  0  0
  150.6250  140.8258  155.5540 C   0  0  0  0  0  0  0  0  0  0  0  0
  149.7768  140.0575  154.7572 C   0  0  0  0  0  0  0  0  0  0  0  0
  148.5351  140.3184  154.1678 N   0  0  0  0  0  0  0  0  0  0  0  0
  147.9066  141.6325  154.3769 C   0  0  0  0  0  0  0  0  0  0  0  0
  146.3671  141.5685  154.3873 C   0  0  2  0  0  0  0  0  0  0  0  0
  145.7315  142.9636  154.4161 C   0  0  0  0  0  0  0  0  0  0  0  0
  145.9178  140.8453  155.5152 O   0  0  0  0  0  0  0  0  0  0  0  0
  144.6231  133.8979  149.2816 H   0  0  0  0  0  0  0  0  0  0  0  0
  143.8614  133.6729  150.8539 H   0  0  0  0  0  0  0  0  0  0  0  0
  145.5607  133.2566  150.6283 H   0  0  0  0  0  0  0  0  0  0  0  0
  146.0856  135.6818  150.2037 H   0  0  0  0  0  0  0  0  0  0  0  0
  144.3999  136.0862  150.4288 H   0  0  0  0  0  0  0  0  0  0  0  0
  144.6390  135.0336  152.8170 H   0  0  0  0  0  0  0  0  0  0  0  0
  146.3649  135.0587  152.5313 H   0  0  0  0  0  0  0  0  0  0  0  0
  147.2663  137.2369  151.8451 H   0  0  0  0  0  0  0  0  0  0  0  0
  146.0230  139.4748  153.3841 H   0  0  0  0  0  0  0  0  0  0  0  0
  146.9543  141.0230  151.6877 H   0  0  0  0  0  0  0  0  0  0  0  0
  145.8089  139.9081  150.9563 H   0  0  0  0  0  0  0  0  0  0  0  0
  147.5360  139.6596  150.7310 H   0  0  0  0  0  0  0  0  0  0  0  0
  151.5322  137.1109  154.5229 H   0  0  0  0  0  0  0  0  0  0  0  0
  153.0782  138.4626  155.9489 H   0  0  0  0  0  0  0  0  0  0  0  0
  152.5136  140.7768  156.5925 H   0  0  0  0  0  0  0  0  0  0  0  0
  150.3869  141.8395  155.8410 H   0  0  0  0  0  0  0  0  0  0  0  0
  148.2748  142.0323  155.3225 H   0  0  0  0  0  0  0  0  0  0  0  0
  148.2627  142.3125  153.6020 H   0  0  0  0  0  0  0  0  0  0  0  0
  146.0175  141.0431  153.4982 H   0  0  0  0  0  0  0  0  0  0  0  0
  146.0315  143.5476  153.5457 H   0  0  0  0  0  0  0  0  0  0  0  0
  146.0288  143.5176  155.3074 H   0  0  0  0  0  0  0  0  0  0  0  0
  144.6428  142.9002  154.4108 H   0  0  0  0  0  0  0  0  0  0  0  0
  145.2753  141.3678  155.9699 H   0  0  0  0  0  0  0  0  0  0  0  0
  148.9803  137.3386  153.1971 H   0  0  0  0  0  0  0  0  0  0  0  0
  1  2  1  0  0  0  0
  1 22  1  0  0  0  0
  1 23  1  0  0  0  0
  1 24  1  0  0  0  0
  2  3  1  0  0  0  0
  2 25  1  0  0  0  0
  2 26  1  0  0  0  0
  3  4  1  0  0  0  0
  3 27  1  0  0  0  0
  3 28  1  0  0  0  0
  4  5  2  0  0  0  0
  4  6  1  0  0  0  0
  6  7  1  0  0  0  0
  6 29  1  0  0  0  0
  7  8  1  0  0  0  0
  7  9  1  0  0  0  0
  7 30  1  0  0  0  0
  8 31  1  0  0  0  0
  8 32  1  0  0  0  0
  8 33  1  0  0  0  0
  9 17  1  0  0  0  0
  9 10  2  0  0  0  0
 10 11  1  0  0  0  0
 10 45  1  0  0  0  0
 11 16  2  0  0  0  0
 11 12  1  0  0  0  0
 12 13  2  0  0  0  0
 12 34  1  0  0  0  0
 13 14  1  0  0  0  0
 13 35  1  0  0  0  0
 14 15  2  0  0  0  0
 14 36  1  0  0  0  0
 15 16  1  0  0  0  0
 15 37  1  0  0  0  0
 16 17  1  0  0  0  0
 17 18  1  0  0  0  0
 18 19  1  0  0  0  0
 18 38  1  0  0  0  0
 18 39  1  0  0  0  0
 19 20  1  0  0  0  0
 19 21  1  0  0  0  0
 19 40  1  0  0  0  0
 20 41  1  0  0  0  0
 20 42  1  0  0  0  0
 20 43  1  0  0  0  0
 21 44  1  0  0  0  0
M  CHG  1  10   1
M  END
> <s_m_source_file>
AV-unprocessed.smi

> <i_m_source_file_index>
1856

> <i_lp_mmshare_version>
43012

> <i_f3d_flags>
0

> <s_epik_input>
W0NIM11bQ0gyXVtDSDJdQyg9TylbTkhdW0NASF0oW0NIM10pYyhuMSluKFtDSDJdW0NASF0oW0NIM10pW09IXSljKGMxMilbY0hdW2NIXVtjSF1bY0hdMg==

> <s_epik_cmdline>
J2VwaWtfcHl0aG9uJywgJy1waCcsICc3LjAnLCAnLXRuJywgJzgnLCAnLW1hJywgJzIwMCcsICctbWV0YWxfYmluZGluZycsICctaW1hZScsICc8aW5maWxlLm1hZT4nLCAnLW9tYWUnLCAnPG91dGZpbGUubWFlPic=

> <r_epik_Ionization_Penalty>
0.945588

> <r_epik_Ionization_Penalty_Charging>
0.945588

> <r_epik_Ionization_Penalty_Neutral>
8.64698e-08

> <r_epik_State_Penalty>
0.989378

> <r_epik_Charging_Adjusted_Penalty>
1.93497

> <i_epik_Tot_Q>
1

> <i_epik_Tot_abs_Q>
1

> <r_epik_Metal_State_Penalty>
1.10045

> <b_epik_Metal_Only>
0

> <s_lp_Force_Field>
OPLS_2005

> <r_lp_Energy>
9.41994

> <b_lp_Chiralities_Consistent>
1

> <s_lp_Variant>
AV-unprocessed.smi:1856-5

> <Gold.Version>
5.8.1

> <Gold.Id.Protein>
6NUR|6NUR_protein|mol2

> <Gold.PLP.Fitness>
50.5149

> <Gold.PLP.PLP>
-43.1787

> <Gold.PLP.part.hbond>
-2.9014

> <Gold.PLP.part.metal>
0.0000

> <Gold.PLP.part.buried>
1.5722

> <Gold.PLP.part.nonpolar>
-42.3742

> <Gold.PLP.part.repulsive>
0.3573

> <Gold.PLP.ligand.clash>
0.0000

> <Gold.PLP.ligand.torsion>
0.8552

> <Gold.PLP.Chemscore.Hbond>
2.9920

> <Gold.PLP.Chemscore.CHOScore>
0.0000

> <Gold.PLP.Chemscore.Metal>
0.0000

> <Gold.Chemscore.Hbonds>
donor molecule, donor type, donor heavy atom, donor atom, acceptor molecule, acceptor atom, score
      L1  H     6    29       P1  7948  0.98
      L1  H    10    45       P1  7948  2.00

> <Gold.PLP.Chemscore.Internal.Correction>
0.0707

> <Gold.Rescore>
     Score         DG    S(hbond)    S(metal)    S(lipo)     H(rot)  DE(clash)    DE(int)     intcor
     14.95     -16.66       1.95        0.00      94.94       2.52       1.28       0.44       ----

> <Gold.Chemscore.Fitness>
14.9505

> <Gold.Chemscore.DG>
-16.6646

> <Gold.Chemscore.ZeroCoef>
-5.4800

> <Gold.Chemscore.Hbond>
1.9515

> <Gold.Chemscore.Metal>
0.0000

> <Gold.Chemscore.Lipo>
94.9392

> <Gold.Chemscore.Internal_Hbond>
0.0000

> <Gold.Chemscore.DEClash>
1.2771

> <Gold.Chemscore.DEInternal>
0.4371

> <Gold.Chemscore.Rot>
2.5161

> <Gold.Chemscore.Internal.Correction>
   9.000000E+99

> <Gold.Chemscore.Hbonds>
donor molecule, donor type, donor heavy atom, donor atom, acceptor molecule, acceptor atom, score
      L1  H     6    29       P1  7948  0.93
      L1  H    10    45       P1  7948  0.97

> <Gold.Chemscore.Hbond.Weighted>
-6.5179

> <Gold.Chemscore.Metal.Weighted>
-0.0000

> <Gold.Chemscore.Lipo.Weighted>
-11.1079

> <Gold.Chemscore.Internal_Hbond.Weighted>
0.0000

> <Gold.Chemscore.DEClash.Weighted>
1.2771

> <Gold.Chemscore.DEInternal.Weighted>
0.4371

> <Gold.Chemscore.Rot.Weighted>
6.4412

> <Gold.Chemscore.Internal.Correction.Weighted>
   9.000000E+99

> <Gold.Protein.RotatedTorsions>
[ 6907 6896 6895 6894 ] final   31.94 input  -60.11 | X-H torsion
[ 7974 7965 7964 7962 ] final -163.30 input  175.53 | X-H torsion
[ 8008 7997 7996 7995 ] final   69.97 input   59.86 | X-H torsion
[ 10167 10162 10161 10158 ] final -161.70 input  -65.29 | X-H torsion
[ 10718 10713 10712 10709 ] final -123.80 input   66.30 | X-H torsion
[ 10763 10752 10751 10750 ] final   70.30 input  -60.55 | X-H torsion
[ 11005 11000 10999 10996 ] final   19.46 input  -57.11 | X-H torsion

> <Gold.Protein.ActiveResidues>
 VAL166  LYS551  ARG553  GLY616  TRP617  ASP618  TYR619  PRO620  LYS621  CYS622 
 ASP623  PHE694  ASN695  SER759  ASP760  ASP761  ALA762  ILE779  LEU786  VAL792 
 PHE793  MET794  SER795  GLU796  ALA797  LYS798  CYS799  TRP800  GLU811  SER814 

> <Gold.Protein.RotatedAtoms>
  152.0675  134.9555  160.0574 H   0  0  0  0  0  0  0  0  0  0  0  0  # atno 6907 bound_to 6896
  152.0894  133.4188  159.4545 H   0  0  0  0  0  0  0  0  0  0  0  0  # atno 6908 bound_to 6896
  150.6836  134.2809  159.4670 H   0  0  0  0  0  0  0  0  0  0  0  0  # atno 6909 bound_to 6896
  144.7330  140.3127  143.6185 H   0  0  0  0  0  0  0  0  0  0  0  0  # atno 7974 bound_to 7965
  155.7317  140.3492  155.5062 H   0  0  0  0  0  0  0  0  0  0  0  0  # atno 8008 bound_to 7997
  155.9176  140.1061  157.1253 H   0  0  0  0  0  0  0  0  0  0  0  0  # atno 8009 bound_to 7997
  154.4065  140.1256  156.4625 H   0  0  0  0  0  0  0  0  0  0  0  0  # atno 8010 bound_to 7997
  139.6446  144.0196  152.2117 H   0  0  0  0  0  0  0  0  0  0  0  0  # atno 10167 bound_to 10162
  156.1532  130.6550  150.9944 H   0  0  0  0  0  0  0  0  0  0  0  0  # atno 10718 bound_to 10713
  153.0334  135.5179  154.7420 H   0  0  0  0  0  0  0  0  0  0  0  0  # atno 10763 bound_to 10752
  154.6417  135.2913  155.0098 H   0  0  0  0  0  0  0  0  0  0  0  0  # atno 10764 bound_to 10752
  154.1014  135.6636  153.4921 H   0  0  0  0  0  0  0  0  0  0  0  0  # atno 10765 bound_to 10752
  140.4135  134.1594  155.7668 H   0  0  0  0  0  0  0  0  0  0  0  0  # atno 11005 bound_to 11000
  145.7648  139.1837  143.2246 LP  0  0  0  0  0  0  0  0  0  0  0  0  # atno 17320 bound_to 7965
  146.0958  140.7603  142.9573 LP  0  0  0  0  0  0  0  0  0  0  0  0  # atno 17321 bound_to 7965
  139.9895  144.6372  150.7827 LP  0  0  0  0  0  0  0  0  0  0  0  0  # atno 17342 bound_to 10162
  140.7508  143.2961  151.3200 LP  0  0  0  0  0  0  0  0  0  0  0  0  # atno 17343 bound_to 10162
  157.6674  131.0869  150.7695 LP  0  0  0  0  0  0  0  0  0  0  0  0  # atno 17370 bound_to 10713
  156.7762  130.4844  149.5409 LP  0  0  0  0  0  0  0  0  0  0  0  0  # atno 17371 bound_to 10713
  141.1812  133.8410  157.1251 LP  0  0  0  0  0  0  0  0  0  0  0  0  # atno 17394 bound_to 11000
  140.0251  134.9928  157.0669 LP  0  0  0  0  0  0  0  0  0  0  0  0  # atno 17395 bound_to 11000

$$$$
