AV-unprocessed.smi:54|AV-procd|sdf|532|dock5
  -GOLD-   2262016413D 1   1.00000     0.00000
 Structure written by MMmdl.
 44 46  0  0  0  0  0  0  0  0  1 V2000
  146.2948  130.1867  151.8431 C   0  0  0  0  0  0  0  0  0  0  0  0
  146.3545  131.6268  152.3764 C   0  0  0  0  0  0  0  0  0  0  0  0
  146.3609  132.6474  151.2263 C   0  0  0  0  0  0  0  0  0  0  0  0
  147.5800  131.8186  153.2771 C   0  0  0  0  0  0  0  0  0  0  0  0
  148.3592  130.8974  153.5243 O   0  0  0  0  0  0  0  0  0  0  0  0
  147.7517  133.1551  153.8185 N   0  0  0  0  0  0  0  0  0  0  0  0
  148.7487  133.5937  154.6216 C   0  0  0  0  0  0  0  0  0  0  0  0
  149.0988  134.8689  154.7117 N   0  0  0  0  0  0  0  0  0  0  0  0
  150.1206  135.1176  155.5852 C   0  0  0  0  0  0  0  0  0  0  0  0
  150.7898  134.1890  156.3543 C   0  0  0  0  0  0  0  0  0  0  0  0
  151.7679  134.8151  157.1185 N   0  0  0  0  0  0  0  0  0  0  0  0
  151.6630  136.0743  156.7964 C   0  0  0  0  0  0  0  0  0  0  0  0
  150.6889  136.3425  155.8629 N   0  0  0  0  0  0  0  0  0  0  0  0
  150.2847  137.6539  155.2601 C   0  0  1  0  0  0  0  0  0  0  0  0
  150.1394  138.5674  156.3068 O   0  0  0  0  0  0  0  0  0  0  0  0
  151.0237  139.6767  156.1472 C   0  0  1  0  0  0  0  0  0  0  0  0
  151.4905  140.2123  157.5122 C   0  0  0  0  0  0  0  0  0  0  0  0
  152.1365  139.1890  158.2385 O   0  0  0  0  0  0  0  0  0  0  0  0
  152.1352  139.1676  155.2179 C   0  0  1  0  0  0  0  0  0  0  0  0
  153.1708  138.5252  155.9436 O   0  0  0  0  0  0  0  0  0  0  0  0
  151.3678  138.2102  154.3173 C   0  0  1  0  0  0  0  0  0  0  0  0
  152.1963  137.2434  153.6947 O   0  0  0  0  0  0  0  0  0  0  0  0
  150.4182  132.8060  156.2734 C   0  0  0  0  0  0  0  0  0  0  0  0
  150.8979  131.8514  156.8809 O   0  0  0  0  0  0  0  0  0  0  0  0
  149.3699  132.5928  155.3688 N   0  0  0  0  0  0  0  0  0  0  0  0
  149.3321  137.4535  154.7685 H   0  0  0  0  0  0  0  0  0  0  0  0
  150.4789  140.4552  155.6097 H   0  0  0  0  0  0  0  0  0  0  0  0
  152.5828  139.9822  154.6473 H   0  0  0  0  0  0  0  0  0  0  0  0
  150.8579  138.7859  153.5437 H   0  0  0  0  0  0  0  0  0  0  0  0
  146.2900  129.4615  152.6579 H   0  0  0  0  0  0  0  0  0  0  0  0
  147.1474  129.9608  151.2010 H   0  0  0  0  0  0  0  0  0  0  0  0
  145.3892  130.0257  151.2577 H   0  0  0  0  0  0  0  0  0  0  0  0
  145.4607  131.8030  152.9765 H   0  0  0  0  0  0  0  0  0  0  0  0
  146.4202  133.6696  151.6021 H   0  0  0  0  0  0  0  0  0  0  0  0
  145.4498  132.5703  150.6323 H   0  0  0  0  0  0  0  0  0  0  0  0
  147.2059  132.4901  150.5549 H   0  0  0  0  0  0  0  0  0  0  0  0
  147.0315  133.8221  153.5839 H   0  0  0  0  0  0  0  0  0  0  0  0
  152.2937  136.8357  157.2309 H   0  0  0  0  0  0  0  0  0  0  0  0
  152.1529  141.0707  157.3980 H   0  0  0  0  0  0  0  0  0  0  0  0
  150.6329  140.5376  158.1021 H   0  0  0  0  0  0  0  0  0  0  0  0
  151.9119  138.3574  157.8500 H   0  0  0  0  0  0  0  0  0  0  0  0
  152.7987  138.1586  156.7313 H   0  0  0  0  0  0  0  0  0  0  0  0
  151.8901  137.1193  152.8090 H   0  0  0  0  0  0  0  0  0  0  0  0
  149.0551  131.6400  155.2603 H   0  0  0  0  0  0  0  0  0  0  0  0
  1  2  1  0  0  0  0
  1 30  1  0  0  0  0
  1 31  1  0  0  0  0
  1 32  1  0  0  0  0
  2  3  1  0  0  0  0
  2  4  1  0  0  0  0
  2 33  1  0  0  0  0
  3 34  1  0  0  0  0
  3 35  1  0  0  0  0
  3 36  1  0  0  0  0
  4  5  2  0  0  0  0
  4  6  1  0  0  0  0
  6 37  1  0  0  0  0
  6  7  1  0  0  0  0
  7 25  1  0  0  0  0
  7  8  2  0  0  0  0
  8  9  1  0  0  0  0
  9 13  1  0  0  0  0
  9 10  2  0  0  0  0
 10 11  1  0  0  0  0
 10 23  1  0  0  0  0
 11 12  2  0  0  0  0
 12 13  1  0  0  0  0
 12 38  1  0  0  0  0
 13 14  1  0  0  0  0
 14 26  1  0  0  0  0
 14 21  1  0  0  0  0
 14 15  1  0  0  0  0
 15 16  1  0  0  0  0
 16 27  1  0  0  0  0
 16 17  1  0  0  0  0
 16 19  1  0  0  0  0
 17 18  1  0  0  0  0
 17 39  1  0  0  0  0
 17 40  1  0  0  0  0
 18 41  1  0  0  0  0
 19 28  1  0  0  0  0
 19 20  1  0  0  0  0
 19 21  1  0  0  0  0
 20 42  1  0  0  0  0
 21 29  1  0  0  0  0
 21 22  1  0  0  0  0
 22 43  1  0  0  0  0
 23 24  2  0  0  0  0
 23 25  1  0  0  0  0
 25 44  1  0  0  0  0
M  END
> <s_m_source_file>
AV-unprocessed.smi

> <i_m_source_file_index>
54

> <i_lp_mmshare_version>
43012

> <i_f3d_flags>
0

> <s_epik_input>
W0NIM11bQ0hdKFtDSDNdKUMoPU8pW05IXWMobjEpW25IXWMoPU8pYyhjMTIpbltjSF1uMltDQEBIXTNPW0NASF0oW0NIMl1bT0hdKVtDQEBIXShbT0hdKVtDQEhdM1tPSF0=

> <s_epik_cmdline>
J2VwaWtfcHl0aG9uJywgJy1waCcsICc3LjAnLCAnLXRuJywgJzgnLCAnLW1hJywgJzIwMCcsICctbWV0YWxfYmluZGluZycsICctaW1hZScsICc8aW5maWxlLm1hZT4nLCAnLW9tYWUnLCAnPG91dGZpbGUubWFlPic=

> <r_lp_tautomer_probability>
0.85571

> <r_epik_Ionization_Penalty>
0.0316551

> <r_epik_Ionization_Penalty_Charging>
0.0316043

> <r_epik_Ionization_Penalty_Neutral>
5.07097e-05

> <r_epik_State_Penalty>
3.15494e-07

> <r_epik_Charging_Adjusted_Penalty>
0.0316047

> <i_epik_Tot_Q>
0

> <i_epik_Tot_abs_Q>
0

> <r_epik_Metal_State_Penalty>
0.421206

> <b_epik_Metal_Only>
0

> <s_epik_Chemistry_Notes>
This compound contains an acetal/aminal-like group ( X-CH(R)-Y where X, Y are N, S, or O) that may be acid/base labile, releasing an aldehyde.

> <s_lp_Force_Field>
OPLS_2005

> <r_lp_Energy>
45.6479

> <b_lp_Chiralities_Consistent>
1

> <s_lp_Variant>
AV-unprocessed.smi:54-4

> <Gold.Version>
5.8.1

> <Gold.Id.Protein>
6NUR|6NUR_protein|mol2

> <Gold.PLP.Fitness>
44.2971

> <Gold.PLP.PLP>
-35.6461

> <Gold.PLP.part.hbond>
-4.0000

> <Gold.PLP.part.metal>
0.0000

> <Gold.PLP.part.buried>
-6.0495

> <Gold.PLP.part.nonpolar>
-26.0932

> <Gold.PLP.part.repulsive>
0.8787

> <Gold.PLP.ligand.clash>
0.0000

> <Gold.PLP.ligand.torsion>
0.3610

> <Gold.PLP.Chemscore.Hbond>
2.9760

> <Gold.PLP.Chemscore.CHOScore>
0.0000

> <Gold.PLP.Chemscore.Metal>
0.0000

> <Gold.Chemscore.Hbonds>
donor molecule, donor type, donor heavy atom, donor atom, acceptor molecule, acceptor atom, score
      L1  H    22    43       P1  7949  0.99
      P1  H  7997  8010       L1    20  0.99
      P1  H 10752 10763       L1    22  0.99

> <Gold.PLP.Chemscore.Internal.Correction>
0.4449

> <Gold.Rescore>
     Score         DG    S(hbond)    S(metal)    S(lipo)     H(rot)  DE(clash)    DE(int)     intcor
      6.22      -7.65       1.82        0.00      55.27       4.05       0.05       1.38       ----

> <Gold.Chemscore.Fitness>
6.2177

> <Gold.Chemscore.DG>
-7.6497

> <Gold.Chemscore.ZeroCoef>
-5.4800

> <Gold.Chemscore.Hbond>
1.8171

> <Gold.Chemscore.Metal>
0.0000

> <Gold.Chemscore.Lipo>
55.2708

> <Gold.Chemscore.Internal_Hbond>
0.0000

> <Gold.Chemscore.DEClash>
0.0547

> <Gold.Chemscore.DEInternal>
1.3773

> <Gold.Chemscore.Rot>
4.0493

> <Gold.Chemscore.Internal.Correction>
   9.000000E+99

> <Gold.Chemscore.Hbonds>
donor molecule, donor type, donor heavy atom, donor atom, acceptor molecule, acceptor atom, score
      L1  H    22    43       P1  7949  0.94
      P1  H  7997  8010       L1    20  0.20
      P1  H 10752 10763       L1    22  0.37

> <Gold.Chemscore.Hbond.Weighted>
-6.0693

> <Gold.Chemscore.Metal.Weighted>
-0.0000

> <Gold.Chemscore.Lipo.Weighted>
-6.4667

> <Gold.Chemscore.Internal_Hbond.Weighted>
0.0000

> <Gold.Chemscore.DEClash.Weighted>
0.0547

> <Gold.Chemscore.DEInternal.Weighted>
1.3773

> <Gold.Chemscore.Rot.Weighted>
10.3662

> <Gold.Chemscore.Internal.Correction.Weighted>
   9.000000E+99

> <Gold.Protein.RotatedTorsions>
[ 6907 6896 6895 6894 ] final -178.18 input  -60.11 | X-H torsion
[ 7974 7965 7964 7962 ] final  -61.78 input  175.53 | X-H torsion
[ 8008 7997 7996 7995 ] final   80.23 input   59.86 | X-H torsion
[ 10167 10162 10161 10158 ] final -129.64 input  -65.29 | X-H torsion
[ 10718 10713 10712 10709 ] final  -78.08 input   66.30 | X-H torsion
[ 10763 10752 10751 10750 ] final   26.49 input  -60.55 | X-H torsion
[ 11005 11000 10999 10996 ] final  -84.10 input  -57.11 | X-H torsion

> <Gold.Protein.ActiveResidues>
 VAL166  LYS551  ARG553  GLY616  TRP617  ASP618  TYR619  PRO620  LYS621  CYS622 
 ASP623  PHE694  ASN695  SER759  ASP760  ASP761  ALA762  ILE779  LEU786  VAL792 
 PHE793  MET794  SER795  GLU796  ALA797  LYS798  CYS799  TRP800  GLU811  SER814 

> <Gold.Protein.RotatedAtoms>
  151.6331  133.3330  159.3113 H   0  0  0  0  0  0  0  0  0  0  0  0  # atno 6907 bound_to 6896
  150.8046  134.7166  159.6644 H   0  0  0  0  0  0  0  0  0  0  0  0  # atno 6908 bound_to 6896
  152.4141  134.6078  160.0069 H   0  0  0  0  0  0  0  0  0  0  0  0  # atno 6909 bound_to 6896
  145.7993  140.8664  143.0240 H   0  0  0  0  0  0  0  0  0  0  0  0  # atno 7974 bound_to 7965
  155.8806  140.3444  155.5885 H   0  0  0  0  0  0  0  0  0  0  0  0  # atno 8008 bound_to 7997
  155.7724  140.0847  157.2120 H   0  0  0  0  0  0  0  0  0  0  0  0  # atno 8009 bound_to 7997
  154.4024  140.1516  156.2945 H   0  0  0  0  0  0  0  0  0  0  0  0  # atno 8010 bound_to 7997
  139.9377  143.6199  152.2512 H   0  0  0  0  0  0  0  0  0  0  0  0  # atno 10167 bound_to 10162
  156.0127  130.4508  150.3442 H   0  0  0  0  0  0  0  0  0  0  0  0  # atno 10718 bound_to 10713
  153.0619  135.6559  154.0443 H   0  0  0  0  0  0  0  0  0  0  0  0  # atno 10763 bound_to 10752
  154.0109  135.2928  155.3394 H   0  0  0  0  0  0  0  0  0  0  0  0  # atno 10764 bound_to 10752
  154.6961  135.5263  153.8528 H   0  0  0  0  0  0  0  0  0  0  0  0  # atno 10765 bound_to 10752
  141.1653  133.7328  156.8817 H   0  0  0  0  0  0  0  0  0  0  0  0  # atno 11005 bound_to 11000
  144.6771  140.0235  143.7483 LP  0  0  0  0  0  0  0  0  0  0  0  0  # atno 17320 bound_to 7965
  145.9895  139.3004  143.0993 LP  0  0  0  0  0  0  0  0  0  0  0  0  # atno 17321 bound_to 7965
  139.6730  144.7660  151.1748 LP  0  0  0  0  0  0  0  0  0  0  0  0  # atno 17342 bound_to 10162
  140.7620  143.5837  150.8868 LP  0  0  0  0  0  0  0  0  0  0  0  0  # atno 17343 bound_to 10162
  157.1536  131.0327  151.2873 LP  0  0  0  0  0  0  0  0  0  0  0  0  # atno 17370 bound_to 10713
  157.4371  130.7523  149.7038 LP  0  0  0  0  0  0  0  0  0  0  0  0  # atno 17371 bound_to 10713
  140.1710  134.9100  157.2833 LP  0  0  0  0  0  0  0  0  0  0  0  0  # atno 17394 bound_to 11000
  140.2502  134.3692  155.7445 LP  0  0  0  0  0  0  0  0  0  0  0  0  # atno 17395 bound_to 11000

$$$$
