AV-unprocessed.smi:1191|AV-procd|sdf|4984|dock4
  -GOLD-   22720 3583D 1   1.00000     0.00000
 Structure written by MMmdl.
 47 48  0  0  0  0  0  0  0  0  2 V2000
  145.9687  129.0656  152.3793 C   0  0  0  0  0  0  0  0  0  0  0  0
  145.6229  130.3930  151.7715 C   0  0  0  0  0  0  0  0  0  0  0  0
  144.5304  130.7152  150.9189 C   0  0  0  0  0  0  0  0  0  0  0  0
  144.6853  132.0480  150.6604 C   0  0  0  0  0  0  0  0  0  0  0  0
  143.8564  132.9677  149.8254 C   0  0  0  0  0  0  0  0  0  0  0  0
  145.8194  132.4595  151.3392 N   0  0  0  0  0  0  0  0  0  0  0  0
  146.4291  133.7793  151.3975 C   0  0  0  0  0  0  0  0  0  0  0  0
  146.3033  134.3874  152.7960 C   0  0  0  0  0  0  0  0  0  0  0  0
  145.2464  134.2928  153.4202 O   0  0  0  0  0  0  0  0  0  0  0  0
  147.3935  134.9974  153.2857 N   0  0  0  0  0  0  0  0  0  0  0  0
  147.4836  135.6021  154.6090 C   0  0  0  0  0  0  0  0  0  0  0  0
  148.9258  135.5513  155.1501 C   0  0  0  0  0  0  0  0  0  0  0  0
  149.7542  136.6862  154.6701 N   0  3  1  0  0  0  0  0  0  0  0  0
  149.2777  137.9892  155.2018 C   0  0  0  0  0  0  0  0  0  0  0  0
  150.0552  139.1598  154.5800 C   0  0  0  0  0  0  0  0  0  0  0  0
  151.5635  138.9988  154.8065 C   0  0  0  0  0  0  0  0  0  0  0  0
  152.0386  137.6348  154.2784 C   0  0  1  0  0  0  0  0  0  0  0  0
  153.5424  137.4350  154.5146 C   0  0  0  0  0  0  0  0  0  0  0  0
  151.2106  136.4983  154.9117 C   0  0  0  0  0  0  0  0  0  0  0  0
  146.3896  131.4416  152.0197 N   0  0  0  0  0  0  0  0  0  0  0  0
  145.3110  128.2790  152.0090 H   0  0  0  0  0  0  0  0  0  0  0  0
  145.8724  129.0951  153.4650 H   0  0  0  0  0  0  0  0  0  0  0  0
  146.9936  128.7793  152.1416 H   0  0  0  0  0  0  0  0  0  0  0  0
  143.7500  130.0647  150.5528 H   0  0  0  0  0  0  0  0  0  0  0  0
  142.9559  132.4652  149.4720 H   0  0  0  0  0  0  0  0  0  0  0  0
  144.4139  133.3082  148.9528 H   0  0  0  0  0  0  0  0  0  0  0  0
  143.5478  133.8432  150.3966 H   0  0  0  0  0  0  0  0  0  0  0  0
  147.4749  133.6980  151.0985 H   0  0  0  0  0  0  0  0  0  0  0  0
  145.9444  134.4370  150.6743 H   0  0  0  0  0  0  0  0  0  0  0  0
  148.2189  135.0362  152.7048 H   0  0  0  0  0  0  0  0  0  0  0  0
  147.1369  136.6303  154.5160 H   0  0  0  0  0  0  0  0  0  0  0  0
  146.7981  135.1031  155.2964 H   0  0  0  0  0  0  0  0  0  0  0  0
  148.8833  135.5835  156.2398 H   0  0  0  0  0  0  0  0  0  0  0  0
  149.4045  134.6057  154.8905 H   0  0  0  0  0  0  0  0  0  0  0  0
  148.2159  138.1123  154.9842 H   0  0  0  0  0  0  0  0  0  0  0  0
  149.3823  138.0008  156.2879 H   0  0  0  0  0  0  0  0  0  0  0  0
  149.8476  139.2120  153.5104 H   0  0  0  0  0  0  0  0  0  0  0  0
  149.7134  140.1029  155.0076 H   0  0  0  0  0  0  0  0  0  0  0  0
  152.1015  139.8067  154.3088 H   0  0  0  0  0  0  0  0  0  0  0  0
  151.7858  139.0853  155.8711 H   0  0  0  0  0  0  0  0  0  0  0  0
  151.8710  137.6132  153.2003 H   0  0  0  0  0  0  0  0  0  0  0  0
  153.7825  137.4450  155.5783 H   0  0  0  0  0  0  0  0  0  0  0  0
  154.1228  138.2238  154.0354 H   0  0  0  0  0  0  0  0  0  0  0  0
  153.8820  136.4831  154.1053 H   0  0  0  0  0  0  0  0  0  0  0  0
  151.3965  136.4483  155.9861 H   0  0  0  0  0  0  0  0  0  0  0  0
  151.5408  135.5490  154.4920 H   0  0  0  0  0  0  0  0  0  0  0  0
  149.6241  136.7290  153.6693 H   0  0  0  0  0  0  0  0  0  0  0  0
  1  2  1  0  0  0  0
  1 21  1  0  0  0  0
  1 22  1  0  0  0  0
  1 23  1  0  0  0  0
  2 20  2  0  0  0  0
  2  3  1  0  0  0  0
  3  4  2  0  0  0  0
  3 24  1  0  0  0  0
  4  5  1  0  0  0  0
  4  6  1  0  0  0  0
  5 25  1  0  0  0  0
  5 26  1  0  0  0  0
  5 27  1  0  0  0  0
  6  7  1  0  0  0  0
  6 20  1  0  0  0  0
  7  8  1  0  0  0  0
  7 28  1  0  0  0  0
  7 29  1  0  0  0  0
  8  9  2  0  0  0  0
  8 10  1  0  0  0  0
 10 11  1  0  0  0  0
 10 30  1  0  0  0  0
 11 12  1  0  0  0  0
 11 31  1  0  0  0  0
 11 32  1  0  0  0  0
 12 13  1  0  0  0  0
 12 33  1  0  0  0  0
 12 34  1  0  0  0  0
 13 19  1  0  0  0  0
 13 14  1  0  0  0  0
 13 47  1  0  0  0  0
 14 15  1  0  0  0  0
 14 35  1  0  0  0  0
 14 36  1  0  0  0  0
 15 16  1  0  0  0  0
 15 37  1  0  0  0  0
 15 38  1  0  0  0  0
 16 17  1  0  0  0  0
 16 39  1  0  0  0  0
 16 40  1  0  0  0  0
 17 18  1  0  0  0  0
 17 19  1  0  0  0  0
 17 41  1  0  0  0  0
 18 42  1  0  0  0  0
 18 43  1  0  0  0  0
 18 44  1  0  0  0  0
 19 45  1  0  0  0  0
 19 46  1  0  0  0  0
M  CHG  1  13   1
M  END
> <s_m_source_file>
AV-unprocessed.smi

> <i_m_source_file_index>
1191

> <i_lp_mmshare_version>
43012

> <i_f3d_flags>
0

> <s_epik_input>
W0NIM11jMVtjSF1jKFtDSDNdKW4objEpW0NIMl1DKD1PKVtOSF1bQ0gyXVtDSDJdTjJbQ0gyXVtDSDJdW0NIMl1bQ0BASF0oW0NIM10pW0NIMl0y

> <s_epik_cmdline>
J2VwaWtfcHl0aG9uJywgJy1waCcsICc3LjAnLCAnLXRuJywgJzgnLCAnLW1hJywgJzIwMCcsICctbWV0YWxfYmluZGluZycsICctaW1hZScsICc8aW5maWxlLm1hZT4nLCAnLW9tYWUnLCAnPG91dGZpbGUubWFlPic=

> <r_lp_tautomer_probability>
1

> <r_epik_Ionization_Penalty>
0.00249932

> <r_epik_Ionization_Penalty_Charging>
0.00230623

> <r_epik_Ionization_Penalty_Neutral>
0.000193092

> <r_epik_State_Penalty>
-0

> <r_epik_Charging_Adjusted_Penalty>
0.00230623

> <i_epik_Tot_Q>
1

> <i_epik_Tot_abs_Q>
1

> <r_epik_Metal_State_Penalty>
-0

> <b_epik_Metal_Only>
0

> <s_lp_Force_Field>
OPLS_2005

> <r_lp_Energy>
14.3844

> <b_lp_Chiralities_Consistent>
1

> <s_lp_Variant>
AV-unprocessed.smi:1191-1

> <Gold.Version>
5.8.1

> <Gold.Id.Protein>
6NUR|6NUR_protein|mol2

> <Gold.PLP.Fitness>
42.7484

> <Gold.PLP.PLP>
-35.3485

> <Gold.PLP.part.hbond>
-1.7770

> <Gold.PLP.part.metal>
0.0000

> <Gold.PLP.part.buried>
-3.2221

> <Gold.PLP.part.nonpolar>
-30.6400

> <Gold.PLP.part.repulsive>
0.7165

> <Gold.PLP.ligand.clash>
0.0000

> <Gold.PLP.ligand.torsion>
0.6646

> <Gold.PLP.Chemscore.Hbond>
2.8960

> <Gold.PLP.Chemscore.CHOScore>
0.0000

> <Gold.PLP.Chemscore.Metal>
0.0000

> <Gold.Chemscore.Hbonds>
donor molecule, donor type, donor heavy atom, donor atom, acceptor molecule, acceptor atom, score
      L1  H    10    30       P1  7948  0.72
      L1  H    13    47       P1  7948  2.00

> <Gold.PLP.Chemscore.Internal.Correction>
0.0412

> <Gold.Rescore>
     Score         DG    S(hbond)    S(metal)    S(lipo)     H(rot)  DE(clash)    DE(int)     intcor
     16.64     -19.03       1.81        0.00     100.42       1.67       1.47       0.91       ----

> <Gold.Chemscore.Fitness>
16.6401

> <Gold.Chemscore.DG>
-19.0266

> <Gold.Chemscore.ZeroCoef>
-5.4800

> <Gold.Chemscore.Hbond>
1.8148

> <Gold.Chemscore.Metal>
0.0000

> <Gold.Chemscore.Lipo>
100.4202

> <Gold.Chemscore.Internal_Hbond>
0.0000

> <Gold.Chemscore.DEClash>
1.4732

> <Gold.Chemscore.DEInternal>
0.9133

> <Gold.Chemscore.Rot>
1.6657

> <Gold.Chemscore.Internal.Correction>
   9.000000E+99

> <Gold.Chemscore.Hbonds>
donor molecule, donor type, donor heavy atom, donor atom, acceptor molecule, acceptor atom, score
      L1  H    10    30       P1  7948  0.58
      L1  H    13    47       P1  7948  0.69

> <Gold.Chemscore.Hbond.Weighted>
-6.0615

> <Gold.Chemscore.Metal.Weighted>
-0.0000

> <Gold.Chemscore.Lipo.Weighted>
-11.7492

> <Gold.Chemscore.Internal_Hbond.Weighted>
0.0000

> <Gold.Chemscore.DEClash.Weighted>
1.4732

> <Gold.Chemscore.DEInternal.Weighted>
0.9133

> <Gold.Chemscore.Rot.Weighted>
4.2641

> <Gold.Chemscore.Internal.Correction.Weighted>
   9.000000E+99

> <Gold.Protein.RotatedTorsions>
[ 6907 6896 6895 6894 ] final   59.32 input  -60.11 | X-H torsion
[ 7974 7965 7964 7962 ] final  100.74 input  175.53 | X-H torsion
[ 8008 7997 7996 7995 ] final  164.20 input   59.86 | X-H torsion
[ 10167 10162 10161 10158 ] final   87.61 input  -65.29 | X-H torsion
[ 10718 10713 10712 10709 ] final   93.45 input   66.30 | X-H torsion
[ 10763 10752 10751 10750 ] final   32.60 input  -60.55 | X-H torsion
[ 11005 11000 10999 10996 ] final    9.75 input  -57.11 | X-H torsion

> <Gold.Protein.ActiveResidues>
 VAL166  LYS551  ARG553  GLY616  TRP617  ASP618  TYR619  PRO620  LYS621  CYS622 
 ASP623  PHE694  ASN695  SER759  ASP760  ASP761  ALA762  ILE779  LEU786  VAL792 
 PHE793  MET794  SER795  GLU796  ALA797  LYS798  CYS799  TRP800  GLU811  SER814 

> <Gold.Protein.RotatedAtoms>
  152.3904  134.6450  160.0109 H   0  0  0  0  0  0  0  0  0  0  0  0  # atno 6907 bound_to 6896
  151.6686  133.3309  159.3199 H   0  0  0  0  0  0  0  0  0  0  0  0  # atno 6908 bound_to 6896
  150.7821  134.6819  159.6493 H   0  0  0  0  0  0  0  0  0  0  0  0  # atno 6909 bound_to 6896
  145.3815  139.2379  143.3401 H   0  0  0  0  0  0  0  0  0  0  0  0  # atno 7974 bound_to 7965
  156.1899  140.1703  156.8113 H   0  0  0  0  0  0  0  0  0  0  0  0  # atno 8008 bound_to 7997
  154.5458  140.0727  156.8619 H   0  0  0  0  0  0  0  0  0  0  0  0  # atno 8009 bound_to 7997
  155.3124  140.3368  155.4246 H   0  0  0  0  0  0  0  0  0  0  0  0  # atno 8010 bound_to 7997
  139.8756  144.6469  150.8900 H   0  0  0  0  0  0  0  0  0  0  0  0  # atno 10167 bound_to 10162
  157.6954  131.0479  150.4036 H   0  0  0  0  0  0  0  0  0  0  0  0  # atno 10718 bound_to 10713
  153.0254  135.6409  154.1380 H   0  0  0  0  0  0  0  0  0  0  0  0  # atno 10763 bound_to 10752
  154.1109  135.2853  155.3232 H   0  0  0  0  0  0  0  0  0  0  0  0  # atno 10764 bound_to 10752
  154.6332  135.5485  153.7767 H   0  0  0  0  0  0  0  0  0  0  0  0  # atno 10765 bound_to 10752
  140.5222  134.0548  155.7848 H   0  0  0  0  0  0  0  0  0  0  0  0  # atno 11005 bound_to 11000
  146.2840  140.4484  142.8765 LP  0  0  0  0  0  0  0  0  0  0  0  0  # atno 17320 bound_to 7965
  144.8504  140.6992  143.6172 LP  0  0  0  0  0  0  0  0  0  0  0  0  # atno 17321 bound_to 7965
  140.7753  143.3628  151.1796 LP  0  0  0  0  0  0  0  0  0  0  0  0  # atno 17342 bound_to 10162
  139.7243  143.9173  152.2997 LP  0  0  0  0  0  0  0  0  0  0  0  0  # atno 17343 bound_to 10162
  156.4427  130.3995  149.6687 LP  0  0  0  0  0  0  0  0  0  0  0  0  # atno 17370 bound_to 10713
  156.3864  130.7605  151.2602 LP  0  0  0  0  0  0  0  0  0  0  0  0  # atno 17371 bound_to 10713
  141.1328  133.9273  157.2499 LP  0  0  0  0  0  0  0  0  0  0  0  0  # atno 17394 bound_to 11000
  139.9599  135.0156  156.9233 LP  0  0  0  0  0  0  0  0  0  0  0  0  # atno 17395 bound_to 11000

$$$$
