AV-unprocessed.smi:3345|AV-procd|sdf|12905|dock3
  -GOLD-   2272019313D 1   1.00000     0.00000
 Structure written by MMmdl.
 41 42  0  0  0  0  0  0  0  0  2 V2000
  147.0951  140.1251  154.4722 C   0  0  0  0  0  0  0  0  0  0  0  0
  147.6206  139.4786  153.1833 C   0  0  2  0  0  0  0  0  0  0  0  0
  146.5146  138.6665  152.4700 C   0  0  0  0  0  0  0  0  0  0  0  0
  146.5854  137.2117  152.7583 N   0  3  0  0  0  0  0  0  0  0  0  0
  146.4102  136.8899  154.1935 C   0  0  0  0  0  0  0  0  0  0  0  0
  146.5867  135.3786  154.4219 C   0  0  0  0  0  0  0  0  0  0  0  0
  145.6633  134.6607  153.6123 O   0  0  0  0  0  0  0  0  0  0  0  0
  145.8669  134.9031  152.2253 C   0  0  0  0  0  0  0  0  0  0  0  0
  145.6630  136.3982  151.9300 C   0  0  0  0  0  0  0  0  0  0  0  0
  148.7738  138.6382  153.5089 N   0  0  0  0  0  0  0  0  0  0  0  0
  149.9062  139.0450  154.1063 C   0  0  0  0  0  0  0  0  0  0  0  0
  150.1127  140.2148  154.4307 O   0  0  0  0  0  0  0  0  0  0  0  0
  150.9669  137.9652  154.3651 C   0  0  1  0  0  0  0  0  0  0  0  0
  152.3113  138.5663  154.8225 C   0  0  0  0  0  0  0  0  0  0  0  0
  150.4538  136.9728  155.3011 N   0  0  0  0  0  0  0  0  0  0  0  0
  149.3435  136.2338  155.2425 C   0  0  0  0  0  0  0  0  0  0  0  0
  149.1561  135.4576  156.3002 N   0  0  0  0  0  0  0  0  0  0  0  0
  150.2589  135.7975  157.0311 C   0  0  0  0  0  0  0  0  0  0  0  0
  151.0624  136.7099  156.4847 N   0  0  0  0  0  0  0  0  0  0  0  0
  146.2470  140.7786  154.2655 H   0  0  0  0  0  0  0  0  0  0  0  0
  147.8659  140.7304  154.9507 H   0  0  0  0  0  0  0  0  0  0  0  0
  146.7676  139.3732  155.1911 H   0  0  0  0  0  0  0  0  0  0  0  0
  147.9436  140.2928  152.5330 H   0  0  0  0  0  0  0  0  0  0  0  0
  145.5478  139.0497  152.8004 H   0  0  0  0  0  0  0  0  0  0  0  0
  146.5507  138.8274  151.3914 H   0  0  0  0  0  0  0  0  0  0  0  0
  147.1419  137.4362  154.7900 H   0  0  0  0  0  0  0  0  0  0  0  0
  145.4203  137.2090  154.5237 H   0  0  0  0  0  0  0  0  0  0  0  0
  147.6075  135.0670  154.1930 H   0  0  0  0  0  0  0  0  0  0  0  0
  146.4055  135.1328  155.4683 H   0  0  0  0  0  0  0  0  0  0  0  0
  146.8663  134.5801  151.9285 H   0  0  0  0  0  0  0  0  0  0  0  0
  145.1556  134.3067  151.6537 H   0  0  0  0  0  0  0  0  0  0  0  0
  144.6309  136.6823  152.1410 H   0  0  0  0  0  0  0  0  0  0  0  0
  145.8353  136.5860  150.8706 H   0  0  0  0  0  0  0  0  0  0  0  0
  148.6945  137.6580  153.2781 H   0  0  0  0  0  0  0  0  0  0  0  0
  151.1519  137.4471  153.4223 H   0  0  0  0  0  0  0  0  0  0  0  0
  152.7002  139.2650  154.0812 H   0  0  0  0  0  0  0  0  0  0  0  0
  153.0598  137.7851  154.9575 H   0  0  0  0  0  0  0  0  0  0  0  0
  152.2228  139.1045  155.7673 H   0  0  0  0  0  0  0  0  0  0  0  0
  148.6557  136.2670  154.4102 H   0  0  0  0  0  0  0  0  0  0  0  0
  150.4723  135.3650  157.9974 H   0  0  0  0  0  0  0  0  0  0  0  0
  147.5239  136.9231  152.5191 H   0  0  0  0  0  0  0  0  0  0  0  0
  1  2  1  0  0  0  0
  1 20  1  0  0  0  0
  1 21  1  0  0  0  0
  1 22  1  0  0  0  0
  2  3  1  0  0  0  0
  2 10  1  0  0  0  0
  2 23  1  0  0  0  0
  3  4  1  0  0  0  0
  3 24  1  0  0  0  0
  3 25  1  0  0  0  0
  4  9  1  0  0  0  0
  4  5  1  0  0  0  0
  4 41  1  0  0  0  0
  5  6  1  0  0  0  0
  5 26  1  0  0  0  0
  5 27  1  0  0  0  0
  6  7  1  0  0  0  0
  6 28  1  0  0  0  0
  6 29  1  0  0  0  0
  7  8  1  0  0  0  0
  8  9  1  0  0  0  0
  8 30  1  0  0  0  0
  8 31  1  0  0  0  0
  9 32  1  0  0  0  0
  9 33  1  0  0  0  0
 10 11  1  0  0  0  0
 10 34  1  0  0  0  0
 11 12  2  0  0  0  0
 11 13  1  0  0  0  0
 13 14  1  0  0  0  0
 13 15  1  0  0  0  0
 13 35  1  0  0  0  0
 14 36  1  0  0  0  0
 14 37  1  0  0  0  0
 14 38  1  0  0  0  0
 15 19  1  0  0  0  0
 15 16  1  0  0  0  0
 16 17  2  0  0  0  0
 16 39  1  0  0  0  0
 17 18  1  0  0  0  0
 18 19  2  0  0  0  0
 18 40  1  0  0  0  0
M  CHG  1   4   1
M  END
> <s_m_source_file>
AV-unprocessed.smi

> <i_m_source_file_index>
3345

> <i_lp_mmshare_version>
43012

> <i_f3d_flags>
0

> <s_epik_input>
W0NIMl0xW0NIMl1PW0NIMl1bQ0gyXU4xW0NIMl1bQ0BASF0oW0NIM10pW05IXUMoPU8pW0NASF0oW0NIM10pbjJbY0hdbltjSF1uMg==

> <s_epik_cmdline>
J2VwaWtfcHl0aG9uJywgJy1waCcsICc3LjAnLCAnLXRuJywgJzgnLCAnLW1hJywgJzIwMCcsICctbWV0YWxfYmluZGluZycsICctaW1hZScsICc8aW5maWxlLm1hZT4nLCAnLW9tYWUnLCAnPG91dGZpbGUubWFlPic=

> <r_lp_tautomer_probability>
1

> <r_epik_Ionization_Penalty>
0.71326

> <r_epik_Ionization_Penalty_Charging>
0.713252

> <r_epik_Ionization_Penalty_Neutral>
8.27671e-06

> <r_epik_State_Penalty>
0.737017

> <r_epik_Charging_Adjusted_Penalty>
1.45027

> <i_epik_Tot_Q>
1

> <i_epik_Tot_abs_Q>
1

> <r_epik_Metal_State_Penalty>
0.73702

> <b_epik_Metal_Only>
0

> <s_lp_Force_Field>
OPLS_2005

> <r_lp_Energy>
28.0971

> <b_lp_Chiralities_Consistent>
1

> <s_lp_Variant>
AV-unprocessed.smi:3345-7

> <Gold.Version>
5.8.1

> <Gold.Id.Protein>
6NUR|6NUR_protein|mol2

> <Gold.PLP.Fitness>
40.8499

> <Gold.PLP.PLP>
-26.9891

> <Gold.PLP.part.hbond>
-4.0000

> <Gold.PLP.part.metal>
0.0000

> <Gold.PLP.part.buried>
-0.5769

> <Gold.PLP.part.nonpolar>
-22.9055

> <Gold.PLP.part.repulsive>
0.3393

> <Gold.PLP.ligand.clash>
0.0000

> <Gold.PLP.ligand.torsion>
0.6685

> <Gold.PLP.Chemscore.Hbond>
4.0000

> <Gold.PLP.Chemscore.CHOScore>
1.0000

> <Gold.PLP.Chemscore.Metal>
0.0000

> <Gold.Chemscore.Hbonds>
donor molecule, donor type, donor heavy atom, donor atom, acceptor molecule, acceptor atom, score
      L1  H     4    41       P1  7948  2.00
      L1  H    10    34       P1  7948  0.91
      P1  H  7989  7998       L1    12  1.00
      L1  C    16    39       P1  7948  0.94

> <Gold.PLP.Chemscore.Internal.Correction>
0.1978

> <Gold.Rescore>
     Score         DG    S(hbond)    S(metal)    S(lipo)     H(rot)  DE(clash)    DE(int)     intcor
     12.15     -14.49       2.85        0.00      52.90       2.61       1.47       0.87       ----

> <Gold.Chemscore.Fitness>
12.1498

> <Gold.Chemscore.DG>
-14.4931

> <Gold.Chemscore.ZeroCoef>
-5.4800

> <Gold.Chemscore.Hbond>
2.8490

> <Gold.Chemscore.Metal>
0.0000

> <Gold.Chemscore.Lipo>
52.8954

> <Gold.Chemscore.Internal_Hbond>
0.0000

> <Gold.Chemscore.DEClash>
1.4701

> <Gold.Chemscore.DEInternal>
0.8733

> <Gold.Chemscore.Rot>
2.6138

> <Gold.Chemscore.Internal.Correction>
   9.000000E+99

> <Gold.Chemscore.Hbonds>
donor molecule, donor type, donor heavy atom, donor atom, acceptor molecule, acceptor atom, score
      L1  H     4    41       P1  7948  1.00
      L1  H    10    34       P1  7948  0.84
      P1  H  7989  7998       L1    12  0.71

> <Gold.Chemscore.Hbond.Weighted>
-9.5156

> <Gold.Chemscore.Metal.Weighted>
-0.0000

> <Gold.Chemscore.Lipo.Weighted>
-6.1888

> <Gold.Chemscore.Internal_Hbond.Weighted>
0.0000

> <Gold.Chemscore.DEClash.Weighted>
1.4701

> <Gold.Chemscore.DEInternal.Weighted>
0.8733

> <Gold.Chemscore.Rot.Weighted>
6.6912

> <Gold.Chemscore.Internal.Correction.Weighted>
   9.000000E+99

> <Gold.Protein.RotatedTorsions>
[ 6907 6896 6895 6894 ] final -156.57 input  -60.11 | X-H torsion
[ 7974 7965 7964 7962 ] final   38.78 input  175.53 | X-H torsion
[ 8008 7997 7996 7995 ] final   96.46 input   59.86 | X-H torsion
[ 10167 10162 10161 10158 ] final   89.77 input  -65.29 | X-H torsion
[ 10718 10713 10712 10709 ] final  138.67 input   66.30 | X-H torsion
[ 10763 10752 10751 10750 ] final   47.59 input  -60.55 | X-H torsion
[ 11005 11000 10999 10996 ] final    0.15 input  -57.11 | X-H torsion

> <Gold.Protein.ActiveResidues>
 VAL166  LYS551  ARG553  GLY616  TRP617  ASP618  TYR619  PRO620  LYS621  CYS622 
 ASP623  PHE694  ASN695  SER759  ASP760  ASP761  ALA762  ILE779  LEU786  VAL792 
 PHE793  MET794  SER795  GLU796  ALA797  LYS798  CYS799  TRP800  GLU811  SER814 

> <Gold.Protein.RotatedAtoms>
  151.2896  133.4171  159.2631 H   0  0  0  0  0  0  0  0  0  0  0  0  # atno 6907 bound_to 6896
  151.0289  134.9525  159.8110 H   0  0  0  0  0  0  0  0  0  0  0  0  # atno 6908 bound_to 6896
  152.5341  134.2858  159.9077 H   0  0  0  0  0  0  0  0  0  0  0  0  # atno 6909 bound_to 6896
  146.1036  139.5731  142.9398 H   0  0  0  0  0  0  0  0  0  0  0  0  # atno 7974 bound_to 7965
  156.0799  140.3272  155.7680 H   0  0  0  0  0  0  0  0  0  0  0  0  # atno 8008 bound_to 7997
  155.5170  140.0582  157.2931 H   0  0  0  0  0  0  0  0  0  0  0  0  # atno 8009 bound_to 7997
  154.4576  140.1950  156.0352 H   0  0  0  0  0  0  0  0  0  0  0  0  # atno 8010 bound_to 7997
  139.8539  144.6579  150.9137 H   0  0  0  0  0  0  0  0  0  0  0  0  # atno 10167 bound_to 10162
  157.4228  131.1040  151.0335 H   0  0  0  0  0  0  0  0  0  0  0  0  # atno 10718 bound_to 10713
  152.9798  135.5971  154.3787 H   0  0  0  0  0  0  0  0  0  0  0  0  # atno 10763 bound_to 10752
  154.3453  135.2767  155.2402 H   0  0  0  0  0  0  0  0  0  0  0  0  # atno 10764 bound_to 10752
  154.4466  135.6000  153.6219 H   0  0  0  0  0  0  0  0  0  0  0  0  # atno 10765 bound_to 10752
  140.6298  133.9585  155.8268 H   0  0  0  0  0  0  0  0  0  0  0  0  # atno 11005 bound_to 11000
  145.5806  141.0383  143.2124 LP  0  0  0  0  0  0  0  0  0  0  0  0  # atno 17320 bound_to 7965
  144.7452  139.7339  143.7295 LP  0  0  0  0  0  0  0  0  0  0  0  0  # atno 17321 bound_to 7965
  140.7784  143.3803  151.1489 LP  0  0  0  0  0  0  0  0  0  0  0  0  # atno 17342 bound_to 10162
  139.7439  143.8883  152.3058 LP  0  0  0  0  0  0  0  0  0  0  0  0  # atno 17343 bound_to 10162
  157.1260  130.6082  149.5517 LP  0  0  0  0  0  0  0  0  0  0  0  0  # atno 17370 bound_to 10713
  155.9886  130.4930  150.7178 LP  0  0  0  0  0  0  0  0  0  0  0  0  # atno 17371 bound_to 10713
  141.0683  134.0243  157.3562 LP  0  0  0  0  0  0  0  0  0  0  0  0  # atno 17394 bound_to 11000
  139.9120  135.0191  156.7732 LP  0  0  0  0  0  0  0  0  0  0  0  0  # atno 17395 bound_to 11000

$$$$
