AV-unprocessed.smi:255|AV-procd|sdf|1955|dock10
  -GOLD-   2262021 93D 1   1.00000     0.00000
 Structure written by MMmdl.
 44 47  0  0  0  0  0  0  0  0  1 V2000
  153.7425  139.4679  158.3609 O   0  0  0  0  0  0  0  0  0  0  0  0
  152.8999  140.1597  159.2583 C   0  0  0  0  0  0  0  0  0  0  0  0
  152.5845  141.5705  158.7261 C   0  0  2  0  0  0  0  0  0  0  0  0
  152.6242  142.6446  159.8128 C   0  0  0  0  0  0  0  0  0  0  0  0
  151.8317  143.7854  159.1783 C   0  0  1  0  0  0  0  0  0  0  0  0
  152.6432  144.5239  158.4202 F   0  0  0  0  0  0  0  0  0  0  0  0
  150.8099  143.0765  158.2790 C   0  0  0  0  0  0  0  0  0  0  0  0
  151.2308  141.6815  158.1911 N   0  0  0  0  0  0  0  0  0  0  0  0
  151.0114  141.1051  156.9890 C   0  0  0  0  0  0  0  0  0  0  0  0
  151.9471  140.2851  156.4418 N   0  0  0  0  0  0  0  0  0  0  0  0
  151.7189  139.7134  155.2555 C   0  0  0  0  0  0  0  0  0  0  0  0
  150.6494  139.8285  154.4643 N   0  0  0  0  0  0  0  0  0  0  0  0
  149.7138  140.6572  155.0117 C   0  0  0  0  0  0  0  0  0  0  0  0
  149.8151  141.3300  156.2609 C   0  0  0  0  0  0  0  0  0  0  0  0
  148.6702  142.0799  156.4955 N   0  0  0  0  0  0  0  0  0  0  0  0
  147.9311  141.8623  155.4415 C   0  0  0  0  0  0  0  0  0  0  0  0
  148.4836  141.0265  154.4958 N   0  0  0  0  0  0  0  0  0  0  0  0
  147.8804  140.6143  153.2374 C   0  0  0  0  0  0  0  0  0  0  0  0
  147.5969  139.0959  153.1522 C   0  0  2  0  0  0  0  0  0  0  0  0
  148.8309  138.3982  153.1377 O   0  0  0  0  0  0  0  0  0  0  0  0
  146.8143  138.7089  151.9040 C   0  0  0  0  0  0  0  0  0  0  0  0
  146.0626  137.4628  152.3517 C   0  0  0  0  0  0  0  0  0  0  0  0
  145.6825  137.7813  153.6794 O   0  0  0  0  0  0  0  0  0  0  0  0
  146.7267  138.5309  154.2945 C   0  0  0  0  0  0  0  0  0  0  0  0
  153.3143  141.8466  157.9626 H   0  0  0  0  0  0  0  0  0  0  0  0
  151.3728  144.4499  159.9110 H   0  0  0  0  0  0  0  0  0  0  0  0
  154.3775  138.9784  158.8611 H   0  0  0  0  0  0  0  0  0  0  0  0
  151.9905  139.5878  159.4469 H   0  0  0  0  0  0  0  0  0  0  0  0
  153.4350  140.2307  160.2055 H   0  0  0  0  0  0  0  0  0  0  0  0
  152.1105  142.2935  160.7091 H   0  0  0  0  0  0  0  0  0  0  0  0
  153.6380  142.9314  160.0946 H   0  0  0  0  0  0  0  0  0  0  0  0
  149.8219  143.1020  158.7393 H   0  0  0  0  0  0  0  0  0  0  0  0
  150.7298  143.5605  157.3042 H   0  0  0  0  0  0  0  0  0  0  0  0
  152.5059  139.0714  154.8877 H   0  0  0  0  0  0  0  0  0  0  0  0
  146.9560  142.3117  155.3221 H   0  0  0  0  0  0  0  0  0  0  0  0
  146.9546  141.1751  153.1042 H   0  0  0  0  0  0  0  0  0  0  0  0
  148.5411  140.9216  152.4256 H   0  0  0  0  0  0  0  0  0  0  0  0
  148.7875  137.7275  152.4733 H   0  0  0  0  0  0  0  0  0  0  0  0
  146.0915  139.4865  151.6539 H   0  0  0  0  0  0  0  0  0  0  0  0
  147.4395  138.5422  151.0260 H   0  0  0  0  0  0  0  0  0  0  0  0
  145.1968  137.2429  151.7270 H   0  0  0  0  0  0  0  0  0  0  0  0
  146.7169  136.5898  152.3562 H   0  0  0  0  0  0  0  0  0  0  0  0
  147.2965  137.8960  154.9749 H   0  0  0  0  0  0  0  0  0  0  0  0
  146.2655  139.3165  154.8917 H   0  0  0  0  0  0  0  0  0  0  0  0
  1  2  1  0  0  0  0
  1 27  1  0  0  0  0
  2  3  1  0  0  0  0
  2 28  1  0  0  0  0
  2 29  1  0  0  0  0
  3 25  1  0  0  0  0
  3  8  1  0  0  0  0
  3  4  1  0  0  0  0
  4  5  1  0  0  0  0
  4 30  1  0  0  0  0
  4 31  1  0  0  0  0
  5 26  1  0  0  0  0
  5  6  1  0  0  0  0
  5  7  1  0  0  0  0
  7  8  1  0  0  0  0
  7 32  1  0  0  0  0
  7 33  1  0  0  0  0
  8  9  1  0  0  0  0
  9 14  1  0  0  0  0
  9 10  2  0  0  0  0
 10 11  1  0  0  0  0
 11 12  2  0  0  0  0
 11 34  1  0  0  0  0
 12 13  1  0  0  0  0
 13 17  1  0  0  0  0
 13 14  2  0  0  0  0
 14 15  1  0  0  0  0
 15 16  2  0  0  0  0
 16 17  1  0  0  0  0
 16 35  1  0  0  0  0
 17 18  1  0  0  0  0
 18 19  1  0  0  0  0
 18 36  1  0  0  0  0
 18 37  1  0  0  0  0
 19 24  1  0  0  0  0
 19 20  1  0  0  0  0
 19 21  1  0  0  0  0
 20 38  1  0  0  0  0
 21 22  1  0  0  0  0
 21 39  1  0  0  0  0
 21 40  1  0  0  0  0
 22 23  1  0  0  0  0
 22 41  1  0  0  0  0
 22 42  1  0  0  0  0
 23 24  1  0  0  0  0
 24 43  1  0  0  0  0
 24 44  1  0  0  0  0
M  END
> <s_m_source_file>
AV-unprocessed.smi

> <i_m_source_file_index>
255

> <i_lp_mmshare_version>
43012

> <i_f3d_flags>
0

> <s_epik_input>
W09IXVtDSDJdW0NAQEhdMVtDSDJdW0NASF0oRilbQ0gyXU4xYyhuW2NIXW4yKWMoYzIzKW5bY0hdbjNbQ0gyXVtDQEBdNChbT0hdKVtDSDJdW0NIMl1PW0NIMl00

> <s_epik_cmdline>
J2VwaWtfcHl0aG9uJywgJy1waCcsICc3LjAnLCAnLXRuJywgJzgnLCAnLW1hJywgJzIwMCcsICctbWV0YWxfYmluZGluZycsICctaW1hZScsICc8aW5maWxlLm1hZT4nLCAnLW9tYWUnLCAnPG91dGZpbGUubWFlPic=

> <r_lp_tautomer_probability>
1

> <r_epik_Ionization_Penalty>
0.0058098

> <r_epik_Ionization_Penalty_Charging>
0

> <r_epik_Ionization_Penalty_Neutral>
0.0058098

> <r_epik_State_Penalty>
0.00411166

> <r_epik_Charging_Adjusted_Penalty>
0.00411166

> <i_epik_Tot_Q>
0

> <i_epik_Tot_abs_Q>
0

> <r_epik_Metal_State_Penalty>
-0

> <b_epik_Metal_Only>
0

> <s_lp_Force_Field>
OPLS_2005

> <r_lp_Energy>
53.8685

> <b_lp_Chiralities_Consistent>
1

> <s_lp_Variant>
AV-unprocessed.smi:255-7

> <Gold.Version>
5.8.1

> <Gold.Id.Protein>
6NUR|6NUR_protein|mol2

> <Gold.PLP.Fitness>
49.3034

> <Gold.PLP.PLP>
-44.3623

> <Gold.PLP.part.hbond>
-3.9660

> <Gold.PLP.part.metal>
0.0000

> <Gold.PLP.part.buried>
-0.6494

> <Gold.PLP.part.nonpolar>
-42.7616

> <Gold.PLP.part.repulsive>
2.8605

> <Gold.PLP.ligand.clash>
0.0000

> <Gold.PLP.ligand.torsion>
1.0228

> <Gold.PLP.Chemscore.Hbond>
2.3000

> <Gold.PLP.Chemscore.CHOScore>
0.0000

> <Gold.PLP.Chemscore.Metal>
0.0000

> <Gold.Chemscore.Hbonds>
donor molecule, donor type, donor heavy atom, donor atom, acceptor molecule, acceptor atom, score
      L1  H    20    38       P1  7948  1.00
      P1  H  7989  7998       L1    12  0.30
      P1  H  7997  8009       L1     1  1.00

> <Gold.PLP.Chemscore.Internal.Correction>
0.0867

> <Gold.Rescore>
     Score         DG    S(hbond)    S(metal)    S(lipo)     H(rot)  DE(clash)    DE(int)     intcor
      5.21     -14.01       1.94        0.00      90.42       3.33       4.31       4.48       ----

> <Gold.Chemscore.Fitness>
5.2137

> <Gold.Chemscore.DG>
-14.0058

> <Gold.Chemscore.ZeroCoef>
-5.4800

> <Gold.Chemscore.Hbond>
1.9356

> <Gold.Chemscore.Metal>
0.0000

> <Gold.Chemscore.Lipo>
90.4158

> <Gold.Chemscore.Internal_Hbond>
0.0000

> <Gold.Chemscore.DEClash>
4.3102

> <Gold.Chemscore.DEInternal>
4.4818

> <Gold.Chemscore.Rot>
3.3273

> <Gold.Chemscore.Internal.Correction>
   9.000000E+99

> <Gold.Chemscore.Hbonds>
donor molecule, donor type, donor heavy atom, donor atom, acceptor molecule, acceptor atom, score
      L1  H    20    38       P1  7948  0.97
      P1  H  7997  8009       L1     1  0.35

> <Gold.Chemscore.Hbond.Weighted>
-6.4651

> <Gold.Chemscore.Metal.Weighted>
-0.0000

> <Gold.Chemscore.Lipo.Weighted>
-10.5786

> <Gold.Chemscore.Internal_Hbond.Weighted>
0.0000

> <Gold.Chemscore.DEClash.Weighted>
4.3102

> <Gold.Chemscore.DEInternal.Weighted>
4.4818

> <Gold.Chemscore.Rot.Weighted>
8.5179

> <Gold.Chemscore.Internal.Correction.Weighted>
   9.000000E+99

> <Gold.Protein.RotatedTorsions>
[ 6907 6896 6895 6894 ] final -114.50 input  -60.11 | X-H torsion
[ 7974 7965 7964 7962 ] final  -94.27 input  175.53 | X-H torsion
[ 8008 7997 7996 7995 ] final  150.76 input   59.86 | X-H torsion
[ 10167 10162 10161 10158 ] final    0.76 input  -65.29 | X-H torsion
[ 10718 10713 10712 10709 ] final   60.20 input   66.30 | X-H torsion
[ 10763 10752 10751 10750 ] final   55.83 input  -60.55 | X-H torsion
[ 11005 11000 10999 10996 ] final   84.90 input  -57.11 | X-H torsion

> <Gold.Protein.ActiveResidues>
 VAL166  LYS551  ARG553  GLY616  TRP617  ASP618  TYR619  PRO620  LYS621  CYS622 
 ASP623  PHE694  ASN695  SER759  ASP760  ASP761  ALA762  ILE779  LEU786  VAL792 
 PHE793  MET794  SER795  GLU796  ALA797  LYS798  CYS799  TRP800  GLU811  SER814 

> <Gold.Protein.RotatedAtoms>
  150.7907  133.8791  159.3280 H   0  0  0  0  0  0  0  0  0  0  0  0  # atno 6907 bound_to 6896
  151.6630  135.0985  160.0192 H   0  0  0  0  0  0  0  0  0  0  0  0  # atno 6908 bound_to 6896
  152.3981  133.6737  159.6328 H   0  0  0  0  0  0  0  0  0  0  0  0  # atno 6909 bound_to 6896
  145.3755  140.9511  143.2423 H   0  0  0  0  0  0  0  0  0  0  0  0  # atno 7974 bound_to 7965
  156.2702  140.2066  156.6068 H   0  0  0  0  0  0  0  0  0  0  0  0  # atno 8008 bound_to 7997
  154.6863  140.0535  157.0342 H   0  0  0  0  0  0  0  0  0  0  0  0  # atno 8009 bound_to 7997
  155.0929  140.3198  155.4571 H   0  0  0  0  0  0  0  0  0  0  0  0  # atno 8010 bound_to 7997
  140.6714  143.7039  150.7930 H   0  0  0  0  0  0  0  0  0  0  0  0  # atno 10167 bound_to 10162
  157.5735  130.8926  149.9307 H   0  0  0  0  0  0  0  0  0  0  0  0  # atno 10718 bound_to 10713
  152.9822  135.5697  154.5131 H   0  0  0  0  0  0  0  0  0  0  0  0  # atno 10763 bound_to 10752
  154.4631  135.2782  155.1700 H   0  0  0  0  0  0  0  0  0  0  0  0  # atno 10764 bound_to 10752
  154.3279  135.6255  153.5591 H   0  0  0  0  0  0  0  0  0  0  0  0  # atno 10765 bound_to 10752
  139.8987  134.8249  156.2508 H   0  0  0  0  0  0  0  0  0  0  0  0  # atno 11005 bound_to 11000
  144.8545  139.5270  143.6841 LP  0  0  0  0  0  0  0  0  0  0  0  0  # atno 17320 bound_to 7965
  146.2866  139.7021  142.9191 LP  0  0  0  0  0  0  0  0  0  0  0  0  # atno 17321 bound_to 7965
  140.0725  143.5047  152.2572 LP  0  0  0  0  0  0  0  0  0  0  0  0  # atno 17342 bound_to 10162
  139.5984  144.7574  151.3231 LP  0  0  0  0  0  0  0  0  0  0  0  0  # atno 17343 bound_to 10162
  156.0780  130.3676  150.0638 LP  0  0  0  0  0  0  0  0  0  0  0  0  # atno 17370 bound_to 10713
  156.8788  130.9549  151.3601 LP  0  0  0  0  0  0  0  0  0  0  0  0  # atno 17371 bound_to 10713
  141.0225  133.7033  156.1292 LP  0  0  0  0  0  0  0  0  0  0  0  0  # atno 17394 bound_to 11000
  140.7213  134.4355  157.5574 LP  0  0  0  0  0  0  0  0  0  0  0  0  # atno 17395 bound_to 11000

$$$$
