#       Name:                AV-unprocessed.smi:2264
#       Creating user name   scv26
#       Creation time:       Fri Mar 27 12:34:47 2020


#       File generated by GOLD software.
#

@<TRIPOS>MOLECULE
AV-unprocessed.smi:2264
    51    52     1
SMALL
NO_CHARGES


@<TRIPOS>ATOM
      1 ****        -7.2045   0.7937   0.2206 C.3            1 S1                 0.0000
      2 ****        -5.7036   0.6500   0.3673 C.ar           1 S1                 0.0000
      3 ****        -5.1258  -0.6151   0.5868 C.ar           1 S1                 0.0000
      4 ****        -3.7308  -0.7422   0.7271 C.ar           1 S1                 0.0000
      5 ****        -2.8914   0.3981   0.6516 C.ar           1 S1                 0.0000
      6 ****        -1.5192   0.3499   0.7832 O.3            1 S1                 0.0000
      7 ****        -0.8975  -0.9140   0.9796 C.3            1 S1                 0.0000
      8 ****         0.6284  -0.7382   1.0606 C.3            1 S1                 0.0000
      9 ****         0.9376  -0.2393   2.3466 O.3            1 S1                 0.0000
     10 ****         1.1878   0.2013  -0.0317 C.3            1 S1                 0.0000
     11 ****         2.6094  -0.0569  -0.3133 N.am           1 S1                 0.0000
     12 ****         3.5328   0.7990   0.3087 C.2            1 S1                 0.0000
     13 ****         4.8071   0.6628   0.1373 N.2            1 S1                 0.0000
     14 ****         5.2950  -0.3574  -0.6843 C.2            1 S1                 0.0000
     15 ****         6.8062  -0.4271  -0.8171 C.3            1 S1                 0.0000
     16 ****         4.4530  -1.2222  -1.3134 C.2            1 S1                 0.0000
     17 ****         4.9261  -2.3525  -2.2187 C.3            1 S1                 0.0000
     18 ****         3.0002  -1.0817  -1.1251 C.2            1 S1                 0.0000
     19 ****         2.1813  -1.8351  -1.6552 O.2            1 S1                 0.0000
     20 ****        -3.4791   1.6651   0.4306 C.ar           1 S1                 0.0000
     21 ****        -2.6054   2.9026   0.3456 C.3            1 S1                 0.0000
     22 ****        -4.8773   1.7874   0.2894 C.ar           1 S1                 0.0000
     23 ****        -7.6873  -0.1777   0.1091 H              1 S1                 0.0000
     24 ****        -7.4459   1.3944  -0.6567 H              1 S1                 0.0000
     25 ****        -7.6227   1.2844   1.0997 H              1 S1                 0.0000
     26 ****        -5.7495  -1.4949   0.6496 H              1 S1                 0.0000
     27 ****        -3.3295  -1.7299   0.8947 H              1 S1                 0.0000
     28 ****        -1.2731  -1.4046   1.8795 H              1 S1                 0.0000
     29 ****        -1.1297  -1.5576   0.1294 H              1 S1                 0.0000
     30 ****         1.0802  -1.7274   0.9794 H              1 S1                 0.0000
     31 ****         1.8773  -0.2142   2.4421 H              1 S1                 0.0000
     32 ****         0.6237   0.0555  -0.9550 H              1 S1                 0.0000
     33 ****         1.0027   1.2452   0.2312 H              1 S1                 0.0000
     34 ****         3.1012   1.5754   0.9428 H              1 S1                 0.0000
     35 ****         7.1047  -0.2939  -1.8571 H              1 S1                 0.0000
     36 ****         7.1763  -1.3916  -0.4685 H              1 S1                 0.0000
     37 ****         7.2935   0.3505  -0.2274 H              1 S1                 0.0000
     38 ****         4.5905  -3.3136  -1.8272 H              1 S1                 0.0000
     39 ****         6.0092  -2.3988  -2.3185 H              1 S1                 0.0000
     40 ****         4.5096  -2.2312  -3.2191 H              1 S1                 0.0000
     41 ****        -3.1973   3.7982   0.1540 H              1 S1                 0.0000
     42 ****        -1.8779   2.7987  -0.4598 H              1 S1                 0.0000
     43 ****        -2.0641   3.0472   1.2809 H              1 S1                 0.0000
     44 ****        -5.3208   2.7582   0.1224 H              1 S1                 0.0000
     45 ****        -1.2782   0.9218   1.5672 LP             1 S1                 0.0000
     46 ****        -1.1294   0.7438  -0.0492 LP             1 S1                 0.0000
     47 ****         0.5439  -0.8382   3.0439 LP             1 S1                 0.0000
     48 ****         0.5637   0.6825   2.4492 LP             1 S1                 0.0000
     49 ****         5.4428   1.2866   0.5919 LP             1 S1                 0.0000
     50 ****         1.2031  -1.7030  -1.4946 LP             1 S1                 0.0000
     51 ****         2.4950  -2.5785  -2.2459 LP             1 S1                 0.0000
@<TRIPOS>BOND
    1    1    2 1     
    2    1   23 1     
    3    1   24 1     
    4    1   25 1     
    5    2   22 ar    
    6    2    3 ar    
    7    3    4 ar    
    8    3   26 1     
    9    4    5 ar    
   10    4   27 1     
   11    5    6 1     
   12    5   20 ar    
   13    6    7 1     
   14    7    8 1     
   15    7   28 1     
   16    7   29 1     
   17    8    9 1     
   18    8   10 1     
   19    8   30 1     
   20    9   31 1     
   21   10   11 1     
   22   10   32 1     
   23   10   33 1     
   24   11   18 am    
   25   11   12 1     
   26   12   13 2     
   27   12   34 1     
   28   13   14 1     
   29   14   15 1     
   30   14   16 2     
   31   15   35 1     
   32   15   36 1     
   33   15   37 1     
   34   16   17 1     
   35   16   18 1     
   36   17   38 1     
   37   17   39 1     
   38   17   40 1     
   39   18   19 2     
   40   20   21 1     
   41   20   22 ar    
   42   21   41 1     
   43   21   42 1     
   44   21   43 1     
   45   22   44 1     
   46    6   45 1     
   47    6   46 1     
   48    9   47 1     
   49    9   48 1     
   50   13   49 1     
   51   19   50 1     
   52   19   51 1     
@<TRIPOS>SUBSTRUCTURE
      1 S1             1
@<TRIPOS>SET
LONE_PAIRS      STATIC     ATOMS    <user>   **** ""
7 45 46 47 48 49 50 51
DONOR_HYDROGENS      STATIC     ATOMS    <user>   **** ""
1 31
ATOM$BLUE        STATIC     ATOMS    COLORGROUP SYSTEM
7 45 46 47 48 49 50 51
ATOM$RED        STATIC     ATOMS    COLORGROUP SYSTEM
1 31
