AV-unprocessed.smi:265|AV-procd|sdf|2022|dock4
  -GOLD-   2262021223D 1   1.00000     0.00000
 Structure written by MMmdl.
 52 56  0  0  0  0  0  0  0  0  1 V2000
  152.2361  142.4041  160.3814 C   0  0  0  0  0  0  0  0  0  0  0  0
  151.4331  143.7102  160.2791 C   0  0  1  0  0  0  0  0  0  0  0  0
  152.2177  144.7367  160.8830 O   0  0  0  0  0  0  0  0  0  0  0  0
  151.9808  145.9603  160.2094 C   0  0  0  0  0  0  0  0  0  0  0  0
  151.8855  145.5225  158.7561 C   0  0  0  0  0  0  0  0  0  0  0  0
  151.1028  144.2160  158.8461 C   0  0  2  0  0  0  0  0  0  0  0  0
  149.7214  144.5351  158.8115 O   0  0  0  0  0  0  0  0  0  0  0  0
  151.3920  143.2309  157.6828 C   0  0  0  0  0  0  0  0  0  0  0  0
  150.6692  141.9726  157.7954 N   0  0  0  0  0  0  0  0  0  0  0  0
  149.3178  141.7807  157.6154 C   0  0  0  0  0  0  0  0  0  0  0  0
  148.9040  140.5532  157.7732 N   0  0  0  0  0  0  0  0  0  0  0  0
  150.0562  139.8434  158.0910 C   0  0  0  0  0  0  0  0  0  0  0  0
  150.3285  138.4785  158.3930 C   0  0  0  0  0  0  0  0  0  0  0  0
  149.3659  137.5211  158.3975 N   0  0  0  0  0  0  0  0  0  0  0  0
  149.4500  136.5648  157.2960 C   0  0  0  0  0  0  0  0  0  0  0  0
  148.1167  135.8236  157.1174 C   0  0  0  0  0  0  0  0  0  0  0  0
  147.6457  135.1710  158.4274 C   0  0  1  0  0  0  0  0  0  0  0  0
  148.5104  134.0998  158.7828 O   0  0  0  0  0  0  0  0  0  0  0  0
  148.0430  133.3241  159.8880 C   0  0  0  0  0  0  0  0  0  0  0  0
  147.6220  134.2004  161.0827 C   0  0  0  0  0  0  0  0  0  0  0  0
  147.4756  133.6936  162.1926 O   0  0  0  0  0  0  0  0  0  0  0  0
  147.3842  135.5029  160.8593 N   0  0  0  0  0  0  0  0  0  0  0  0
  147.6500  136.1817  159.5950 C   0  0  1  0  0  0  0  0  0  0  0  0
  148.9909  136.9388  159.6865 C   0  0  0  0  0  0  0  0  0  0  0  0
  151.6152  138.1494  158.6871 N   0  0  0  0  0  0  0  0  0  0  0  0
  152.5706  139.0834  158.6802 C   0  0  0  0  0  0  0  0  0  0  0  0
  152.4617  140.3858  158.4126 N   0  0  0  0  0  0  0  0  0  0  0  0
  151.1738  140.7251  158.1208 C   0  0  0  0  0  0  0  0  0  0  0  0
  146.6399  134.7745  158.2751 H   0  0  0  0  0  0  0  0  0  0  0  0
  146.8525  136.9073  159.4307 H   0  0  0  0  0  0  0  0  0  0  0  0
  151.6918  141.5649  159.9482 H   0  0  0  0  0  0  0  0  0  0  0  0
  152.4355  142.1573  161.4244 H   0  0  0  0  0  0  0  0  0  0  0  0
  153.1987  142.4864  159.8763 H   0  0  0  0  0  0  0  0  0  0  0  0
  150.5188  143.5988  160.8651 H   0  0  0  0  0  0  0  0  0  0  0  0
  151.0416  146.3960  160.5534 H   0  0  0  0  0  0  0  0  0  0  0  0
  152.7821  146.6784  160.3840 H   0  0  0  0  0  0  0  0  0  0  0  0
  151.4266  146.2714  158.1092 H   0  0  0  0  0  0  0  0  0  0  0  0
  152.8922  145.3318  158.3829 H   0  0  0  0  0  0  0  0  0  0  0  0
  149.5329  144.9563  157.9869 H   0  0  0  0  0  0  0  0  0  0  0  0
  151.1280  143.6799  156.7251 H   0  0  0  0  0  0  0  0  0  0  0  0
  152.4579  143.0042  157.6339 H   0  0  0  0  0  0  0  0  0  0  0  0
  148.6444  142.5856  157.3584 H   0  0  0  0  0  0  0  0  0  0  0  0
  149.7187  137.0518  156.3594 H   0  0  0  0  0  0  0  0  0  0  0  0
  150.2458  135.8509  157.5134 H   0  0  0  0  0  0  0  0  0  0  0  0
  147.3597  136.5322  156.7790 H   0  0  0  0  0  0  0  0  0  0  0  0
  148.2070  135.0713  156.3333 H   0  0  0  0  0  0  0  0  0  0  0  0
  147.1898  132.7218  159.5740 H   0  0  0  0  0  0  0  0  0  0  0  0
  148.8294  132.6344  160.1952 H   0  0  0  0  0  0  0  0  0  0  0  0
  147.0720  136.0716  161.6328 H   0  0  0  0  0  0  0  0  0  0  0  0
  149.7834  136.2612  160.0089 H   0  0  0  0  0  0  0  0  0  0  0  0
  148.9119  137.7222  160.4420 H   0  0  0  0  0  0  0  0  0  0  0  0
  153.5644  138.7374  158.9235 H   0  0  0  0  0  0  0  0  0  0  0  0
  1  2  1  0  0  0  0
  1 31  1  0  0  0  0
  1 32  1  0  0  0  0
  1 33  1  0  0  0  0
  2  6  1  0  0  0  0
  2  3  1  0  0  0  0
  2 34  1  0  0  0  0
  3  4  1  0  0  0  0
  4  5  1  0  0  0  0
  4 35  1  0  0  0  0
  4 36  1  0  0  0  0
  5  6  1  0  0  0  0
  5 37  1  0  0  0  0
  5 38  1  0  0  0  0
  6  7  1  0  0  0  0
  6  8  1  0  0  0  0
  7 39  1  0  0  0  0
  8  9  1  0  0  0  0
  8 40  1  0  0  0  0
  8 41  1  0  0  0  0
  9 28  1  0  0  0  0
  9 10  1  0  0  0  0
 10 11  2  0  0  0  0
 10 42  1  0  0  0  0
 11 12  1  0  0  0  0
 12 28  2  0  0  0  0
 12 13  1  0  0  0  0
 13 14  1  0  0  0  0
 13 25  2  0  0  0  0
 14 24  1  0  0  0  0
 14 15  1  0  0  0  0
 15 16  1  0  0  0  0
 15 43  1  0  0  0  0
 15 44  1  0  0  0  0
 16 17  1  0  0  0  0
 16 45  1  0  0  0  0
 16 46  1  0  0  0  0
 17 29  1  0  0  0  0
 17 23  1  0  0  0  0
 17 18  1  0  0  0  0
 18 19  1  0  0  0  0
 19 20  1  0  0  0  0
 19 47  1  0  0  0  0
 19 48  1  0  0  0  0
 20 21  2  0  0  0  0
 20 22  1  0  0  0  0
 22 23  1  0  0  0  0
 22 49  1  0  0  0  0
 23 30  1  0  0  0  0
 23 24  1  0  0  0  0
 24 50  1  0  0  0  0
 24 51  1  0  0  0  0
 25 26  1  0  0  0  0
 26 27  2  0  0  0  0
 26 52  1  0  0  0  0
 27 28  1  0  0  0  0
M  END
> <s_m_source_file>
AV-unprocessed.smi

> <i_m_source_file_index>
265

> <i_lp_mmshare_version>
43012

> <i_f3d_flags>
0

> <s_epik_input>
W0NIMl0xW0NIMl1PW0NAQEhdKFtDSDNdKVtDQEBdMShbT0hdKVtDSDJdbihbY0hdbjIpYyhjMjMpbltjSF1uYzNOKFtDSDJdW0NIMl00KVtDSDJdW0NAQEhdKFtDQEhdNDUpW05IXUMoPU8pW0NIMl1PNQ==

> <s_epik_cmdline>
J2VwaWtfcHl0aG9uJywgJy1waCcsICc3LjAnLCAnLXRuJywgJzgnLCAnLW1hJywgJzIwMCcsICctbWV0YWxfYmluZGluZycsICctaW1hZScsICc8aW5maWxlLm1hZT4nLCAnLW9tYWUnLCAnPG91dGZpbGUubWFlPic=

> <r_lp_tautomer_probability>
1

> <r_epik_Ionization_Penalty>
0.00221504

> <r_epik_Ionization_Penalty_Charging>
0

> <r_epik_Ionization_Penalty_Neutral>
0.00221504

> <r_epik_State_Penalty>
-0

> <r_epik_Charging_Adjusted_Penalty>
0

> <i_epik_Tot_Q>
0

> <i_epik_Tot_abs_Q>
0

> <r_epik_Metal_State_Penalty>
-0

> <b_epik_Metal_Only>
0

> <s_lp_Force_Field>
OPLS_2005

> <r_lp_Energy>
44.6863

> <b_lp_Chiralities_Consistent>
1

> <s_lp_Variant>
AV-unprocessed.smi:265-8

> <Gold.Version>
5.8.1

> <Gold.Id.Protein>
6NUR|6NUR_protein|mol2

> <Gold.PLP.Fitness>
39.4804

> <Gold.PLP.PLP>
-36.5391

> <Gold.PLP.part.hbond>
-1.8130

> <Gold.PLP.part.metal>
0.0000

> <Gold.PLP.part.buried>
-5.2612

> <Gold.PLP.part.nonpolar>
-29.5026

> <Gold.PLP.part.repulsive>
0.2618

> <Gold.PLP.ligand.clash>
0.0000

> <Gold.PLP.ligand.torsion>
0.3131

> <Gold.PLP.Chemscore.Hbond>
0.5376

> <Gold.PLP.Chemscore.CHOScore>
0.5299

> <Gold.PLP.Chemscore.Metal>
0.0000

> <Gold.Chemscore.Hbonds>
donor molecule, donor type, donor heavy atom, donor atom, acceptor molecule, acceptor atom, score
      L1  H     7    39       P1  8029  0.55
      L1  C    10    42       P1  8028  0.51

> <Gold.PLP.Chemscore.Internal.Correction>
0.3651

> <Gold.Rescore>
     Score         DG    S(hbond)    S(metal)    S(lipo)     H(rot)  DE(clash)    DE(int)     intcor
      5.85     -11.07       0.37        0.00      86.38       2.25       0.57       4.65       ----

> <Gold.Chemscore.Fitness>
5.8465

> <Gold.Chemscore.DG>
-11.0719

> <Gold.Chemscore.ZeroCoef>
-5.4800

> <Gold.Chemscore.Hbond>
0.3693

> <Gold.Chemscore.Metal>
0.0000

> <Gold.Chemscore.Lipo>
86.3787

> <Gold.Chemscore.Internal_Hbond>
0.0000

> <Gold.Chemscore.DEClash>
0.5705

> <Gold.Chemscore.DEInternal>
4.6549

> <Gold.Chemscore.Rot>
2.2453

> <Gold.Chemscore.Internal.Correction>
   9.000000E+99

> <Gold.Chemscore.Hbonds>
donor molecule, donor type, donor heavy atom, donor atom, acceptor molecule, acceptor atom, score
      L1  H     7    39       P1  8029  0.07

> <Gold.Chemscore.Hbond.Weighted>
-1.2335

> <Gold.Chemscore.Metal.Weighted>
-0.0000

> <Gold.Chemscore.Lipo.Weighted>
-10.1063

> <Gold.Chemscore.Internal_Hbond.Weighted>
0.0000

> <Gold.Chemscore.DEClash.Weighted>
0.5705

> <Gold.Chemscore.DEInternal.Weighted>
4.6549

> <Gold.Chemscore.Rot.Weighted>
5.7479

> <Gold.Chemscore.Internal.Correction.Weighted>
   9.000000E+99

> <Gold.Protein.RotatedTorsions>
[ 6907 6896 6895 6894 ] final   74.59 input  -60.11 | X-H torsion
[ 7974 7965 7964 7962 ] final    1.31 input  175.53 | X-H torsion
[ 8008 7997 7996 7995 ] final  151.47 input   59.86 | X-H torsion
[ 10167 10162 10161 10158 ] final   16.55 input  -65.29 | X-H torsion
[ 10718 10713 10712 10709 ] final  -71.84 input   66.30 | X-H torsion
[ 10763 10752 10751 10750 ] final  -80.66 input  -60.55 | X-H torsion
[ 11005 11000 10999 10996 ] final   10.06 input  -57.11 | X-H torsion

> <Gold.Protein.ActiveResidues>
 VAL166  LYS551  ARG553  GLY616  TRP617  ASP618  TYR619  PRO620  LYS621  CYS622 
 ASP623  PHE694  ASN695  SER759  ASP760  ASP761  ALA762  ILE779  LEU786  VAL792 
 PHE793  MET794  SER795  GLU796  ALA797  LYS798  CYS799  TRP800  GLU811  SER814 

> <Gold.Protein.RotatedAtoms>
  152.4983  134.4248  159.9492 H   0  0  0  0  0  0  0  0  0  0  0  0  # atno 6907 bound_to 6896
  151.4223  133.3688  159.2765 H   0  0  0  0  0  0  0  0  0  0  0  0  # atno 6908 bound_to 6896
  150.9213  134.8653  159.7550 H   0  0  0  0  0  0  0  0  0  0  0  0  # atno 6909 bound_to 6896
  146.2439  140.1006  142.8348 H   0  0  0  0  0  0  0  0  0  0  0  0  # atno 7974 bound_to 7965
  156.2672  140.2047  156.6181 H   0  0  0  0  0  0  0  0  0  0  0  0  # atno 8008 bound_to 7997
  154.6779  140.0543  157.0259 H   0  0  0  0  0  0  0  0  0  0  0  0  # atno 8009 bound_to 7997
  155.1043  140.3209  155.4541 H   0  0  0  0  0  0  0  0  0  0  0  0  # atno 8010 bound_to 7997
  140.5789  143.9019  150.6773 H   0  0  0  0  0  0  0  0  0  0  0  0  # atno 10167 bound_to 10162
  156.0345  130.4360  150.2504 H   0  0  0  0  0  0  0  0  0  0  0  0  # atno 10718 bound_to 10713
  154.5540  135.5653  153.6947 H   0  0  0  0  0  0  0  0  0  0  0  0  # atno 10763 bound_to 10752
  152.9998  135.6258  154.2335 H   0  0  0  0  0  0  0  0  0  0  0  0  # atno 10764 bound_to 10752
  154.2271  135.2867  155.2883 H   0  0  0  0  0  0  0  0  0  0  0  0  # atno 10765 bound_to 10752
  140.5187  134.0580  155.7838 H   0  0  0  0  0  0  0  0  0  0  0  0  # atno 11005 bound_to 11000
  145.0571  140.9061  143.4960 LP  0  0  0  0  0  0  0  0  0  0  0  0  # atno 17320 bound_to 7965
  145.1115  139.2754  143.5635 LP  0  0  0  0  0  0  0  0  0  0  0  0  # atno 17321 bound_to 7965
  140.2513  143.3591  152.1403 LP  0  0  0  0  0  0  0  0  0  0  0  0  # atno 17342 bound_to 10162
  139.5158  144.6969  151.5606 LP  0  0  0  0  0  0  0  0  0  0  0  0  # atno 17343 bound_to 10162
  157.0604  131.0088  151.3224 LP  0  0  0  0  0  0  0  0  0  0  0  0  # atno 17370 bound_to 10713
  157.5075  130.7917  149.7669 LP  0  0  0  0  0  0  0  0  0  0  0  0  # atno 17371 bound_to 10713
  141.1346  133.9244  157.2462 LP  0  0  0  0  0  0  0  0  0  0  0  0  # atno 17394 bound_to 11000
  139.9618  135.0152  156.9281 LP  0  0  0  0  0  0  0  0  0  0  0  0  # atno 17395 bound_to 11000

$$$$
