AV-unprocessed.smi:1119|AV-procd|sdf|4817|dock2
  -GOLD-   22720 3373D 1   1.00000     0.00000
 Structure written by MMmdl.
 31 32  0  0  0  0  0  0  0  0  1 V2000
  143.6415  145.9183  158.0047 C   0  0  0  0  0  0  0  0  0  0  0  0
  144.8381  145.5579  158.6862 O   0  0  0  0  0  0  0  0  0  0  0  0
  144.7354  144.9656  159.9305 C   0  0  0  0  0  0  0  0  0  0  0  0
  143.4970  144.7181  160.4270 N   0  0  0  0  0  0  0  0  0  0  0  0
  143.3947  144.1431  161.6428 C   0  0  0  0  0  0  0  0  0  0  0  0
  144.5100  143.7929  162.4256 C   0  0  0  0  0  0  0  0  0  0  0  0
  145.7954  144.0477  161.9128 C   0  0  0  0  0  0  0  0  0  0  0  0
  145.9191  144.6372  160.6316 C   0  0  0  0  0  0  0  0  0  0  0  0
  147.1698  144.9570  160.0354 N   0  0  0  0  0  0  0  0  0  0  0  0
  148.4030  144.7429  160.5242 C   0  0  0  0  0  0  0  0  0  0  0  0
  148.6568  144.1885  161.5937 O   0  0  0  0  0  0  0  0  0  0  0  0
  149.3430  145.1939  159.6822 N   0  0  0  0  0  0  0  0  0  0  0  0
  150.7797  145.0840  159.8997 C   0  0  0  0  0  0  0  0  0  0  0  0
  151.4848  144.0933  158.9935 C   0  0  0  0  0  0  0  0  0  0  0  0
  152.8852  143.6133  159.2967 C   0  0  0  0  0  0  0  0  0  0  0  0
  152.6414  144.5375  158.1286 C   0  0  0  0  0  0  0  0  0  0  0  0
  143.8945  146.3599  157.0411 H   0  0  0  0  0  0  0  0  0  0  0  0
  143.0696  146.6575  158.5673 H   0  0  0  0  0  0  0  0  0  0  0  0
  143.0126  145.0474  157.8136 H   0  0  0  0  0  0  0  0  0  0  0  0
  142.3934  143.9624  162.0048 H   0  0  0  0  0  0  0  0  0  0  0  0
  144.3828  143.3435  163.3994 H   0  0  0  0  0  0  0  0  0  0  0  0
  146.6570  143.8024  162.5144 H   0  0  0  0  0  0  0  0  0  0  0  0
  147.1190  145.3302  159.0988 H   0  0  0  0  0  0  0  0  0  0  0  0
  149.0438  145.6348  158.8248 H   0  0  0  0  0  0  0  0  0  0  0  0
  151.2145  146.0686  159.7276 H   0  0  0  0  0  0  0  0  0  0  0  0
  150.9855  144.8396  160.9434 H   0  0  0  0  0  0  0  0  0  0  0  0
  150.8151  143.3666  158.5370 H   0  0  0  0  0  0  0  0  0  0  0  0
  153.3862  144.0278  160.1695 H   0  0  0  0  0  0  0  0  0  0  0  0
  153.1160  142.5728  159.0777 H   0  0  0  0  0  0  0  0  0  0  0  0
  152.7133  144.1141  157.1288 H   0  0  0  0  0  0  0  0  0  0  0  0
  152.9830  145.5665  158.2249 H   0  0  0  0  0  0  0  0  0  0  0  0
  1  2  1  0  0  0  0
  1 17  1  0  0  0  0
  1 18  1  0  0  0  0
  1 19  1  0  0  0  0
  2  3  1  0  0  0  0
  3  8  1  0  0  0  0
  3  4  2  0  0  0  0
  4  5  1  0  0  0  0
  5  6  2  0  0  0  0
  5 20  1  0  0  0  0
  6  7  1  0  0  0  0
  6 21  1  0  0  0  0
  7  8  2  0  0  0  0
  7 22  1  0  0  0  0
  8  9  1  0  0  0  0
  9 10  1  0  0  0  0
  9 23  1  0  0  0  0
 10 11  2  0  0  0  0
 10 12  1  0  0  0  0
 12 13  1  0  0  0  0
 12 24  1  0  0  0  0
 13 14  1  0  0  0  0
 13 25  1  0  0  0  0
 13 26  1  0  0  0  0
 14 16  1  0  0  0  0
 14 15  1  0  0  0  0
 14 27  1  0  0  0  0
 15 16  1  0  0  0  0
 15 28  1  0  0  0  0
 15 29  1  0  0  0  0
 16 30  1  0  0  0  0
 16 31  1  0  0  0  0
M  END
> <s_m_source_file>
AV-unprocessed.smi

> <i_m_source_file_index>
1119

> <i_lp_mmshare_version>
43012

> <i_f3d_flags>
0

> <s_epik_input>
W0NIM11PYzFuW2NIXVtjSF1bY0hdYzFbTkhdQyg9TylbTkhdW0NIMl1bQ0hdMltDSDJdW0NIMl0y

> <s_epik_cmdline>
J2VwaWtfcHl0aG9uJywgJy1waCcsICc3LjAnLCAnLXRuJywgJzgnLCAnLW1hJywgJzIwMCcsICctbWV0YWxfYmluZGluZycsICctaW1hZScsICc8aW5maWxlLm1hZT4nLCAnLW9tYWUnLCAnPG91dGZpbGUubWFlPic=

> <r_lp_tautomer_probability>
1

> <r_epik_Ionization_Penalty>
9.92152e-05

> <r_epik_Ionization_Penalty_Charging>
0

> <r_epik_Ionization_Penalty_Neutral>
9.92152e-05

> <r_epik_State_Penalty>
-0

> <r_epik_Charging_Adjusted_Penalty>
0

> <i_epik_Tot_Q>
0

> <i_epik_Tot_abs_Q>
0

> <r_epik_Metal_State_Penalty>
-0

> <b_epik_Metal_Only>
0

> <s_lp_Force_Field>
OPLS_2005

> <r_lp_Energy>
14.7926

> <b_lp_Chiralities_Consistent>
1

> <s_lp_Variant>
AV-unprocessed.smi:1119-1

> <Gold.Version>
5.8.1

> <Gold.Id.Protein>
6NUR|6NUR_protein|mol2

> <Gold.PLP.Fitness>
44.7515

> <Gold.PLP.PLP>
-37.0672

> <Gold.PLP.part.hbond>
-3.0000

> <Gold.PLP.part.metal>
0.0000

> <Gold.PLP.part.buried>
-6.6076

> <Gold.PLP.part.nonpolar>
-28.8874

> <Gold.PLP.part.repulsive>
0.9058

> <Gold.PLP.ligand.clash>
0.0000

> <Gold.PLP.ligand.torsion>
0.4852

> <Gold.PLP.Chemscore.Hbond>
2.7040

> <Gold.PLP.Chemscore.CHOScore>
0.0000

> <Gold.PLP.Chemscore.Metal>
0.0000

> <Gold.Chemscore.Hbonds>
donor molecule, donor type, donor heavy atom, donor atom, acceptor molecule, acceptor atom, score
      L1  H     9    23       P1  8029  0.94
      L1  H    12    24       P1  8029  1.00
      P1  H  6933  6944       L1    11  0.70

> <Gold.PLP.Chemscore.Internal.Correction>
0.5426

> <Gold.Rescore>
     Score         DG    S(hbond)    S(metal)    S(lipo)     H(rot)  DE(clash)    DE(int)     intcor
     18.74     -20.50       2.71        0.00      82.78       1.45       0.02       1.74       ----

> <Gold.Chemscore.Fitness>
18.7397

> <Gold.Chemscore.DG>
-20.5025

> <Gold.Chemscore.ZeroCoef>
-5.4800

> <Gold.Chemscore.Hbond>
2.7092

> <Gold.Chemscore.Metal>
0.0000

> <Gold.Chemscore.Lipo>
82.7777

> <Gold.Chemscore.Internal_Hbond>
0.0000

> <Gold.Chemscore.DEClash>
0.0195

> <Gold.Chemscore.DEInternal>
1.7433

> <Gold.Chemscore.Rot>
1.4497

> <Gold.Chemscore.Internal.Correction>
   9.000000E+99

> <Gold.Chemscore.Hbonds>
donor molecule, donor type, donor heavy atom, donor atom, acceptor molecule, acceptor atom, score
      L1  H     9    23       P1  8029  0.89
      L1  H    12    24       P1  8029  0.98
      P1  H  6933  6944       L1    11  0.57

> <Gold.Chemscore.Hbond.Weighted>
-9.0487

> <Gold.Chemscore.Metal.Weighted>
-0.0000

> <Gold.Chemscore.Lipo.Weighted>
-9.6850

> <Gold.Chemscore.Internal_Hbond.Weighted>
0.0000

> <Gold.Chemscore.DEClash.Weighted>
0.0195

> <Gold.Chemscore.DEInternal.Weighted>
1.7433

> <Gold.Chemscore.Rot.Weighted>
3.7111

> <Gold.Chemscore.Internal.Correction.Weighted>
   9.000000E+99

> <Gold.Protein.RotatedTorsions>
[ 6907 6896 6895 6894 ] final  -44.28 input  -60.11 | X-H torsion
[ 7974 7965 7964 7962 ] final -136.85 input  175.53 | X-H torsion
[ 8008 7997 7996 7995 ] final   61.88 input   59.86 | X-H torsion
[ 10167 10162 10161 10158 ] final  103.63 input  -65.29 | X-H torsion
[ 10718 10713 10712 10709 ] final  -25.89 input   66.30 | X-H torsion
[ 10763 10752 10751 10750 ] final -167.96 input  -60.55 | X-H torsion
[ 11005 11000 10999 10996 ] final  -19.80 input  -57.11 | X-H torsion

> <Gold.Protein.ActiveResidues>
 VAL166  LYS551  ARG553  GLY616  TRP617  ASP618  TYR619  PRO620  LYS621  CYS622 
 ASP623  PHE694  ASN695  SER759  ASP760  ASP761  ALA762  ILE779  LEU786  VAL792 
 PHE793  MET794  SER795  GLU796  ALA797  LYS798  CYS799  TRP800  GLU811  SER814 

> <Gold.Protein.RotatedAtoms>
  150.9345  134.8758  159.7572 H   0  0  0  0  0  0  0  0  0  0  0  0  # atno 6907 bound_to 6896
  152.5053  134.4031  159.9433 H   0  0  0  0  0  0  0  0  0  0  0  0  # atno 6908 bound_to 6896
  151.4055  133.3704  159.2772 H   0  0  0  0  0  0  0  0  0  0  0  0  # atno 6909 bound_to 6896
  144.8891  140.6617  143.5157 H   0  0  0  0  0  0  0  0  0  0  0  0  # atno 7974 bound_to 7965
  155.6054  140.3494  155.4606 H   0  0  0  0  0  0  0  0  0  0  0  0  # atno 8008 bound_to 7997
  156.0196  140.1250  157.0396 H   0  0  0  0  0  0  0  0  0  0  0  0  # atno 8009 bound_to 7997
  154.4310  140.1065  156.5930 H   0  0  0  0  0  0  0  0  0  0  0  0  # atno 8010 bound_to 7997
  139.7246  144.7050  151.0818 H   0  0  0  0  0  0  0  0  0  0  0  0  # atno 10167 bound_to 10162
  156.4584  130.4498  149.6945 H   0  0  0  0  0  0  0  0  0  0  0  0  # atno 10718 bound_to 10713
  154.6678  135.2934  154.9783 H   0  0  0  0  0  0  0  0  0  0  0  0  # atno 10763 bound_to 10752
  154.0820  135.6603  153.4843 H   0  0  0  0  0  0  0  0  0  0  0  0  # atno 10764 bound_to 10752
  153.0468  135.5199  154.7659 H   0  0  0  0  0  0  0  0  0  0  0  0  # atno 10765 bound_to 10752
  140.8402  133.7932  155.9853 H   0  0  0  0  0  0  0  0  0  0  0  0  # atno 11005 bound_to 11000
  145.3815  139.1636  143.4278 LP  0  0  0  0  0  0  0  0  0  0  0  0  # atno 17320 bound_to 7965
  146.3043  140.3896  142.8693 LP  0  0  0  0  0  0  0  0  0  0  0  0  # atno 17321 bound_to 7965
  140.7760  143.5121  150.9639 LP  0  0  0  0  0  0  0  0  0  0  0  0  # atno 17342 bound_to 10162
  139.8809  143.7073  152.3157 LP  0  0  0  0  0  0  0  0  0  0  0  0  # atno 17343 bound_to 10162
  156.3743  130.7546  151.2533 LP  0  0  0  0  0  0  0  0  0  0  0  0  # atno 17370 bound_to 10713
  157.7499  131.0314  150.4180 LP  0  0  0  0  0  0  0  0  0  0  0  0  # atno 17371 bound_to 10713
  140.8903  134.2503  157.5098 LP  0  0  0  0  0  0  0  0  0  0  0  0  # atno 17394 bound_to 11000
  139.8703  134.9658  156.4541 LP  0  0  0  0  0  0  0  0  0  0  0  0  # atno 17395 bound_to 11000

$$$$
