AV-unprocessed.smi:281|AV-procd|sdf|2105|dock9
  -GOLD-   2262021393D 1   1.00000     0.00000
 Structure written by MMmdl.
 55 59  0  0  0  0  0  0  0  0  1 V2000
  152.2285  139.1552  154.9328 C   0  0  0  0  0  0  0  0  0  0  0  0
  150.7080  139.2002  155.1136 C   0  0  2  0  0  0  0  0  0  0  0  0
  150.0481  137.8522  154.7852 C   0  0  0  0  0  0  0  0  0  0  0  0
  148.5947  137.9588  154.8864 N   0  0  0  0  0  0  0  0  0  0  0  0
  147.8765  136.8045  154.8492 C   0  0  0  0  0  0  0  0  0  0  0  0
  148.0850  135.8467  155.7935 N   0  0  0  0  0  0  0  0  0  0  0  0
  147.3948  134.7033  155.7666 C   0  0  0  0  0  0  0  0  0  0  0  0
  146.4572  134.3159  154.9011 N   0  0  0  0  0  0  0  0  0  0  0  0
  146.2326  135.2724  153.9556 C   0  0  0  0  0  0  0  0  0  0  0  0
  146.8929  136.5307  153.8547 C   0  0  0  0  0  0  0  0  0  0  0  0
  146.3926  137.2344  152.7660 N   0  0  0  0  0  0  0  0  0  0  0  0
  145.4991  136.4376  152.2485 C   0  0  0  0  0  0  0  0  0  0  0  0
  145.3296  135.2409  152.9067 N   0  0  0  0  0  0  0  0  0  0  0  0
  144.4044  134.1749  152.5513 C   0  0  0  0  0  0  0  0  0  0  0  0
  144.7235  133.5009  151.1949 C   0  0  1  0  0  0  0  0  0  0  0  0
  144.6028  134.4662  150.1656 O   0  0  0  0  0  0  0  0  0  0  0  0
  146.1328  132.9055  151.1567 C   0  0  0  0  0  0  0  0  0  0  0  0
  145.8874  131.4016  151.1883 C   0  0  0  0  0  0  0  0  0  0  0  0
  144.6930  131.2681  150.4395 O   0  0  0  0  0  0  0  0  0  0  0  0
  143.8148  132.2977  150.8706 C   0  0  0  0  0  0  0  0  0  0  0  0
  148.0387  139.0513  154.0911 C   0  0  0  0  0  0  0  0  0  0  0  0
  148.7758  140.3942  154.3498 C   0  0  1  0  0  0  0  0  0  0  0  0
  148.3950  141.4161  153.2852 C   0  0  0  0  0  0  0  0  0  0  0  0
  147.2040  142.1272  153.9054 C   0  0  0  0  0  0  0  0  0  0  0  0
  147.5882  142.2729  155.2607 O   0  0  0  0  0  0  0  0  0  0  0  0
  148.4001  141.1665  155.6489 C   0  0  1  0  0  0  0  0  0  0  0  0
  147.6800  140.3893  156.7617 C   0  0  0  0  0  0  0  0  0  0  0  0
  150.1863  140.1935  154.2354 O   0  0  0  0  0  0  0  0  0  0  0  0
  152.6806  138.4151  155.5934 H   0  0  0  0  0  0  0  0  0  0  0  0
  152.6759  140.1225  155.1626 H   0  0  0  0  0  0  0  0  0  0  0  0
  152.4973  138.8988  153.9076 H   0  0  0  0  0  0  0  0  0  0  0  0
  150.4955  139.4720  156.1480 H   0  0  0  0  0  0  0  0  0  0  0  0
  150.3207  137.5385  153.7762 H   0  0  0  0  0  0  0  0  0  0  0  0
  150.4146  137.0905  155.4747 H   0  0  0  0  0  0  0  0  0  0  0  0
  147.6278  133.9981  156.5509 H   0  0  0  0  0  0  0  0  0  0  0  0
  144.9303  136.7065  151.3702 H   0  0  0  0  0  0  0  0  0  0  0  0
  144.4131  133.4351  153.3532 H   0  0  0  0  0  0  0  0  0  0  0  0
  143.3955  134.5892  152.5320 H   0  0  0  0  0  0  0  0  0  0  0  0
  145.2828  134.3087  149.5282 H   0  0  0  0  0  0  0  0  0  0  0  0
  146.6422  133.1613  150.2258 H   0  0  0  0  0  0  0  0  0  0  0  0
  146.7688  133.2379  151.9780 H   0  0  0  0  0  0  0  0  0  0  0  0
  146.7061  130.8306  150.7500 H   0  0  0  0  0  0  0  0  0  0  0  0
  145.7254  131.0504  152.2086 H   0  0  0  0  0  0  0  0  0  0  0  0
  143.3028  131.9377  151.7632 H   0  0  0  0  0  0  0  0  0  0  0  0
  143.0536  132.5132  150.1196 H   0  0  0  0  0  0  0  0  0  0  0  0
  148.1491  138.7723  153.0422 H   0  0  0  0  0  0  0  0  0  0  0  0
  146.9702  139.1743  154.2596 H   0  0  0  0  0  0  0  0  0  0  0  0
  149.2036  142.1351  153.1445 H   0  0  0  0  0  0  0  0  0  0  0  0
  148.1708  140.9782  152.3120 H   0  0  0  0  0  0  0  0  0  0  0  0
  146.9965  143.0914  153.4411 H   0  0  0  0  0  0  0  0  0  0  0  0
  146.3046  141.5129  153.8443 H   0  0  0  0  0  0  0  0  0  0  0  0
  149.3057  141.6025  156.0727 H   0  0  0  0  0  0  0  0  0  0  0  0
  148.2616  139.5325  157.1004 H   0  0  0  0  0  0  0  0  0  0  0  0
  146.7048  140.0350  156.4319 H   0  0  0  0  0  0  0  0  0  0  0  0
  147.5128  141.0299  157.6274 H   0  0  0  0  0  0  0  0  0  0  0  0
  1  2  1  0  0  0  0
  1 29  1  0  0  0  0
  1 30  1  0  0  0  0
  1 31  1  0  0  0  0
  2 28  1  0  0  0  0
  2  3  1  0  0  0  0
  2 32  1  0  0  0  0
  3  4  1  0  0  0  0
  3 33  1  0  0  0  0
  3 34  1  0  0  0  0
  4  5  1  0  0  0  0
  4 21  1  0  0  0  0
  5 10  1  0  0  0  0
  5  6  2  0  0  0  0
  6  7  1  0  0  0  0
  7  8  2  0  0  0  0
  7 35  1  0  0  0  0
  8  9  1  0  0  0  0
  9 13  1  0  0  0  0
  9 10  2  0  0  0  0
 10 11  1  0  0  0  0
 11 12  2  0  0  0  0
 12 13  1  0  0  0  0
 12 36  1  0  0  0  0
 13 14  1  0  0  0  0
 14 15  1  0  0  0  0
 14 37  1  0  0  0  0
 14 38  1  0  0  0  0
 15 20  1  0  0  0  0
 15 16  1  0  0  0  0
 15 17  1  0  0  0  0
 16 39  1  0  0  0  0
 17 18  1  0  0  0  0
 17 40  1  0  0  0  0
 17 41  1  0  0  0  0
 18 19  1  0  0  0  0
 18 42  1  0  0  0  0
 18 43  1  0  0  0  0
 19 20  1  0  0  0  0
 20 44  1  0  0  0  0
 20 45  1  0  0  0  0
 21 22  1  0  0  0  0
 21 46  1  0  0  0  0
 21 47  1  0  0  0  0
 22 26  1  0  0  0  0
 22 23  1  0  0  0  0
 22 28  1  0  0  0  0
 23 24  1  0  0  0  0
 23 48  1  0  0  0  0
 23 49  1  0  0  0  0
 24 25  1  0  0  0  0
 24 50  1  0  0  0  0
 24 51  1  0  0  0  0
 25 26  1  0  0  0  0
 26 27  1  0  0  0  0
 26 52  1  0  0  0  0
 27 53  1  0  0  0  0
 27 54  1  0  0  0  0
 27 55  1  0  0  0  0
M  END
> <s_m_source_file>
AV-unprocessed.smi

> <i_m_source_file_index>
281

> <i_lp_mmshare_version>
43012

> <i_f3d_flags>
0

> <s_epik_input>
W0NIM11bQ0BASF0xT1tDSDJdW0NIMl1bQ0BAXTEyW0NIMl1OKFtDSDJdW0NASF0oTzIpW0NIM10pYyhuW2NIXW4zKWMoYzM0KW5bY0hdbjRbQ0gyXVtDQEBdNShbT0hdKVtDSDJdW0NIMl1PW0NIMl01

> <s_epik_cmdline>
J2VwaWtfcHl0aG9uJywgJy1waCcsICc3LjAnLCAnLXRuJywgJzgnLCAnLW1hJywgJzIwMCcsICctbWV0YWxfYmluZGluZycsICctaW1hZScsICc8aW5maWxlLm1hZT4nLCAnLW9tYWUnLCAnPG91dGZpbGUubWFlPic=

> <r_lp_tautomer_probability>
1

> <r_epik_Ionization_Penalty>
0.00571331

> <r_epik_Ionization_Penalty_Charging>
0

> <r_epik_Ionization_Penalty_Neutral>
0.00571331

> <r_epik_State_Penalty>
0.00399586

> <r_epik_Charging_Adjusted_Penalty>
0.00399586

> <i_epik_Tot_Q>
0

> <i_epik_Tot_abs_Q>
0

> <r_epik_Metal_State_Penalty>
-0

> <b_epik_Metal_Only>
0

> <s_lp_Force_Field>
OPLS_2005

> <r_lp_Energy>
53.3416

> <b_lp_Chiralities_Consistent>
1

> <s_lp_Variant>
AV-unprocessed.smi:281-5

> <Gold.Version>
5.8.1

> <Gold.Id.Protein>
6NUR|6NUR_protein|mol2

> <Gold.PLP.Fitness>
44.5099

> <Gold.PLP.PLP>
-34.8597

> <Gold.PLP.part.hbond>
-3.0644

> <Gold.PLP.part.metal>
0.0000

> <Gold.PLP.part.buried>
-2.1093

> <Gold.PLP.part.nonpolar>
-31.0334

> <Gold.PLP.part.repulsive>
1.7094

> <Gold.PLP.ligand.clash>
0.0000

> <Gold.PLP.ligand.torsion>
0.2668

> <Gold.PLP.Chemscore.Hbond>
2.2995

> <Gold.PLP.Chemscore.CHOScore>
1.0000

> <Gold.PLP.Chemscore.Metal>
0.0000

> <Gold.Chemscore.Hbonds>
donor molecule, donor type, donor heavy atom, donor atom, acceptor molecule, acceptor atom, score
      L1  H    16    39       P1  7921  0.70
      P1  H  7989  7998       L1    28  0.99
      L1  C    12    36       P1 10171  0.67

> <Gold.PLP.Chemscore.Internal.Correction>
0.2854

> <Gold.Rescore>
     Score         DG    S(hbond)    S(metal)    S(lipo)     H(rot)  DE(clash)    DE(int)     intcor
     12.17     -16.50       1.94        0.00      84.64       2.09       2.25       2.08       ----

> <Gold.Chemscore.Fitness>
12.1665

> <Gold.Chemscore.DG>
-16.4969

> <Gold.Chemscore.ZeroCoef>
-5.4800

> <Gold.Chemscore.Hbond>
1.9375

> <Gold.Chemscore.Metal>
0.0000

> <Gold.Chemscore.Lipo>
84.6415

> <Gold.Chemscore.Internal_Hbond>
0.0000

> <Gold.Chemscore.DEClash>
2.2512

> <Gold.Chemscore.DEInternal>
2.0792

> <Gold.Chemscore.Rot>
2.0927

> <Gold.Chemscore.Internal.Correction>
   9.000000E+99

> <Gold.Chemscore.Hbonds>
donor molecule, donor type, donor heavy atom, donor atom, acceptor molecule, acceptor atom, score
      L1  H    16    39       P1  7921  0.65
      P1  H  7989  7998       L1    28  0.42

> <Gold.Chemscore.Hbond.Weighted>
-6.4712

> <Gold.Chemscore.Metal.Weighted>
-0.0000

> <Gold.Chemscore.Lipo.Weighted>
-9.9031

> <Gold.Chemscore.Internal_Hbond.Weighted>
0.0000

> <Gold.Chemscore.DEClash.Weighted>
2.2512

> <Gold.Chemscore.DEInternal.Weighted>
2.0792

> <Gold.Chemscore.Rot.Weighted>
5.3573

> <Gold.Chemscore.Internal.Correction.Weighted>
   9.000000E+99

> <Gold.Protein.RotatedTorsions>
[ 6907 6896 6895 6894 ] final -111.07 input  -60.11 | X-H torsion
[ 7974 7965 7964 7962 ] final  142.78 input  175.53 | X-H torsion
[ 8008 7997 7996 7995 ] final  -51.36 input   59.86 | X-H torsion
[ 10167 10162 10161 10158 ] final  -21.55 input  -65.29 | X-H torsion
[ 10718 10713 10712 10709 ] final -124.08 input   66.30 | X-H torsion
[ 10763 10752 10751 10750 ] final  -55.12 input  -60.55 | X-H torsion
[ 11005 11000 10999 10996 ] final -115.27 input  -57.11 | X-H torsion

> <Gold.Protein.ActiveResidues>
 VAL166  LYS551  ARG553  GLY616  TRP617  ASP618  TYR619  PRO620  LYS621  CYS622 
 ASP623  PHE694  ASN695  SER759  ASP760  ASP761  ALA762  ILE779  LEU786  VAL792 
 PHE793  MET794  SER795  GLU796  ALA797  LYS798  CYS799  TRP800  GLU811  SER814 

> <Gold.Protein.RotatedAtoms>
  150.7666  133.9289  159.3420 H   0  0  0  0  0  0  0  0  0  0  0  0  # atno 6907 bound_to 6896
  151.7186  135.0897  160.0289 H   0  0  0  0  0  0  0  0  0  0  0  0  # atno 6908 bound_to 6896
  152.3664  133.6325  159.6089 H   0  0  0  0  0  0  0  0  0  0  0  0  # atno 6909 bound_to 6896
  144.8978  139.5466  143.5768 H   0  0  0  0  0  0  0  0  0  0  0  0  # atno 7974 bound_to 7965
  154.4081  140.1250  156.4816 H   0  0  0  0  0  0  0  0  0  0  0  0  # atno 8008 bound_to 7997
  155.7079  140.3494  155.4941 H   0  0  0  0  0  0  0  0  0  0  0  0  # atno 8009 bound_to 7997
  155.9326  140.1072  157.1110 H   0  0  0  0  0  0  0  0  0  0  0  0  # atno 8010 bound_to 7997
  140.7282  143.4617  151.0370 H   0  0  0  0  0  0  0  0  0  0  0  0  # atno 10167 bound_to 10162
  156.1557  130.6566  150.9978 H   0  0  0  0  0  0  0  0  0  0  0  0  # atno 10718 bound_to 10713
  154.1857  135.6436  153.5046 H   0  0  0  0  0  0  0  0  0  0  0  0  # atno 10763 bound_to 10752
  153.0048  135.5416  154.6468 H   0  0  0  0  0  0  0  0  0  0  0  0  # atno 10764 bound_to 10752
  154.5843  135.2928  155.0673 H   0  0  0  0  0  0  0  0  0  0  0  0  # atno 10765 bound_to 10752
  141.0498  133.9704  157.2855 H   0  0  0  0  0  0  0  0  0  0  0  0  # atno 11005 bound_to 11000
  146.3091  139.7683  142.9033 LP  0  0  0  0  0  0  0  0  0  0  0  0  # atno 17320 bound_to 7965
  145.3670  141.0336  143.3253 LP  0  0  0  0  0  0  0  0  0  0  0  0  # atno 17321 bound_to 7965
  139.8302  143.7701  152.3179 LP  0  0  0  0  0  0  0  0  0  0  0  0  # atno 17342 bound_to 10162
  139.7814  144.7443  151.0083 LP  0  0  0  0  0  0  0  0  0  0  0  0  # atno 17343 bound_to 10162
  157.6693  131.0865  150.7651 LP  0  0  0  0  0  0  0  0  0  0  0  0  # atno 17370 bound_to 10713
  156.7717  130.4831  149.5417 LP  0  0  0  0  0  0  0  0  0  0  0  0  # atno 17371 bound_to 10713
  139.9341  135.0198  156.8499 LP  0  0  0  0  0  0  0  0  0  0  0  0  # atno 17394 bound_to 11000
  140.6076  134.0112  155.7563 LP  0  0  0  0  0  0  0  0  0  0  0  0  # atno 17395 bound_to 11000

$$$$
