AV-unprocessed.smi:1840|AV-procd|sdf|7492|dock7
  -GOLD-   22720 9193D 1   1.00000     0.00000
 Structure written by MMmdl.
 43 44  0  0  0  0  0  0  0  0  1 V2000
  143.9015  135.5165  153.3203 C   0  0  0  0  0  0  0  0  0  0  0  0
  144.2921  136.4183  152.1419 C   0  0  2  0  0  0  0  0  0  0  0  0
  145.4625  135.8172  151.3331 C   0  0  0  0  0  0  0  0  0  0  0  0
  145.3082  134.3902  151.1025 N   0  0  0  0  0  0  0  0  0  0  0  0
  144.1464  133.6755  150.9004 C   0  0  0  0  0  0  0  0  0  0  0  0
  144.5015  132.3730  150.6951 C   0  0  0  0  0  0  0  0  0  0  0  0
  145.9209  132.3892  150.7943 C   0  0  0  0  0  0  0  0  0  0  0  0
  146.4008  133.5966  151.0436 N   0  0  0  0  0  0  0  0  0  0  0  0
  144.6453  137.7441  152.6477 N   0  0  0  0  0  0  0  0  0  0  0  0
  145.4598  137.9849  153.6855 C   0  0  0  0  0  0  0  0  0  0  0  0
  146.1112  137.1197  154.2712 O   0  0  0  0  0  0  0  0  0  0  0  0
  145.4360  139.2757  154.0421 N   0  0  0  0  0  0  0  0  0  0  0  0
  146.1059  139.8425  155.2129 C   0  0  2  0  0  0  0  0  0  0  0  0
  145.1507  140.7621  156.0084 C   0  0  0  0  0  0  0  0  0  0  0  0
  144.8133  142.0499  155.2385 C   0  0  0  0  0  0  0  0  0  0  0  0
  146.0902  142.8039  154.8375 C   0  0  0  0  0  0  0  0  0  0  0  0
  147.0457  141.9044  154.0360 C   0  0  0  0  0  0  0  0  0  0  0  0
  147.3880  140.6090  154.8028 C   0  0  2  0  0  0  0  0  0  0  0  0
  148.3823  139.7339  154.0204 C   0  0  0  0  0  0  0  0  0  0  0  0
  143.6055  134.5263  152.9734 H   0  0  0  0  0  0  0  0  0  0  0  0
  143.0602  135.9355  153.8734 H   0  0  0  0  0  0  0  0  0  0  0  0
  144.7306  135.3906  154.0175 H   0  0  0  0  0  0  0  0  0  0  0  0
  143.4207  136.4899  151.4885 H   0  0  0  0  0  0  0  0  0  0  0  0
  145.5650  136.3254  150.3724 H   0  0  0  0  0  0  0  0  0  0  0  0
  146.4018  135.9696  151.8657 H   0  0  0  0  0  0  0  0  0  0  0  0
  143.1762  134.1502  150.9093 H   0  0  0  0  0  0  0  0  0  0  0  0
  143.8472  131.5365  150.4993 H   0  0  0  0  0  0  0  0  0  0  0  0
  146.6120  131.5653  150.6926 H   0  0  0  0  0  0  0  0  0  0  0  0
  144.1595  138.5281  152.2372 H   0  0  0  0  0  0  0  0  0  0  0  0
  144.8650  139.9069  153.4994 H   0  0  0  0  0  0  0  0  0  0  0  0
  146.4017  139.0149  155.8604 H   0  0  0  0  0  0  0  0  0  0  0  0
  144.2320  140.2349  156.2687 H   0  0  0  0  0  0  0  0  0  0  0  0
  145.6198  141.0276  156.9567 H   0  0  0  0  0  0  0  0  0  0  0  0
  144.2331  141.8068  154.3474 H   0  0  0  0  0  0  0  0  0  0  0  0
  144.1796  142.6921  155.8507 H   0  0  0  0  0  0  0  0  0  0  0  0
  145.8317  143.6868  154.2520 H   0  0  0  0  0  0  0  0  0  0  0  0
  146.5962  143.1651  155.7337 H   0  0  0  0  0  0  0  0  0  0  0  0
  146.5936  141.6602  153.0740 H   0  0  0  0  0  0  0  0  0  0  0  0
  147.9595  142.4559  153.8128 H   0  0  0  0  0  0  0  0  0  0  0  0
  147.8913  140.9049  155.7247 H   0  0  0  0  0  0  0  0  0  0  0  0
  147.9825  139.4334  153.0515 H   0  0  0  0  0  0  0  0  0  0  0  0
  148.6279  138.8281  154.5755 H   0  0  0  0  0  0  0  0  0  0  0  0
  149.3144  140.2697  153.8384 H   0  0  0  0  0  0  0  0  0  0  0  0
  1  2  1  0  0  0  0
  1 20  1  0  0  0  0
  1 21  1  0  0  0  0
  1 22  1  0  0  0  0
  2  3  1  0  0  0  0
  2  9  1  0  0  0  0
  2 23  1  0  0  0  0
  3  4  1  0  0  0  0
  3 24  1  0  0  0  0
  3 25  1  0  0  0  0
  4  8  1  0  0  0  0
  4  5  1  0  0  0  0
  5  6  2  0  0  0  0
  5 26  1  0  0  0  0
  6  7  1  0  0  0  0
  6 27  1  0  0  0  0
  7  8  2  0  0  0  0
  7 28  1  0  0  0  0
  9 10  1  0  0  0  0
  9 29  1  0  0  0  0
 10 11  2  0  0  0  0
 10 12  1  0  0  0  0
 12 13  1  0  0  0  0
 12 30  1  0  0  0  0
 13 18  1  0  0  0  0
 13 14  1  0  0  0  0
 13 31  1  0  0  0  0
 14 15  1  0  0  0  0
 14 32  1  0  0  0  0
 14 33  1  0  0  0  0
 15 16  1  0  0  0  0
 15 34  1  0  0  0  0
 15 35  1  0  0  0  0
 16 17  1  0  0  0  0
 16 36  1  0  0  0  0
 16 37  1  0  0  0  0
 17 18  1  0  0  0  0
 17 38  1  0  0  0  0
 17 39  1  0  0  0  0
 18 19  1  0  0  0  0
 18 40  1  0  0  0  0
 19 41  1  0  0  0  0
 19 42  1  0  0  0  0
 19 43  1  0  0  0  0
M  END
> <s_m_source_file>
AV-unprocessed.smi

> <i_m_source_file_index>
1840

> <i_lp_mmshare_version>
43012

> <i_f3d_flags>
0

> <s_epik_input>
bjFbY0hdW2NIXVtjSF1uMVtDSDJdW0NAQEhdKFtDSDNdKVtOSF1DKD1PKVtOSF1bQ0BASF0yW0NIMl1bQ0gyXVtDSDJdW0NIMl1bQ0BIXTJbQ0gzXQ==

> <s_epik_cmdline>
J2VwaWtfcHl0aG9uJywgJy1waCcsICc3LjAnLCAnLXRuJywgJzgnLCAnLW1hJywgJzIwMCcsICctbWV0YWxfYmluZGluZycsICctaW1hZScsICc8aW5maWxlLm1hZT4nLCAnLW9tYWUnLCAnPG91dGZpbGUubWFlPic=

> <r_lp_tautomer_probability>
1

> <r_epik_Ionization_Penalty>
7.38659e-05

> <r_epik_Ionization_Penalty_Charging>
0

> <r_epik_Ionization_Penalty_Neutral>
7.38659e-05

> <r_epik_State_Penalty>
-0

> <r_epik_Charging_Adjusted_Penalty>
0

> <i_epik_Tot_Q>
0

> <i_epik_Tot_abs_Q>
0

> <r_epik_Metal_State_Penalty>
-0

> <b_epik_Metal_Only>
0

> <s_lp_Force_Field>
OPLS_2005

> <r_lp_Energy>
6.60397

> <b_lp_Chiralities_Consistent>
1

> <s_lp_Variant>
AV-unprocessed.smi:1840-5

> <Gold.Version>
5.8.1

> <Gold.Id.Protein>
6NUR|6NUR_protein|mol2

> <Gold.PLP.Fitness>
40.8863

> <Gold.PLP.PLP>
-30.6954

> <Gold.PLP.part.hbond>
-3.0000

> <Gold.PLP.part.metal>
0.0000

> <Gold.PLP.part.buried>
-4.5737

> <Gold.PLP.part.nonpolar>
-24.4578

> <Gold.PLP.part.repulsive>
0.3039

> <Gold.PLP.ligand.clash>
0.0000

> <Gold.PLP.ligand.torsion>
0.8285

> <Gold.PLP.Chemscore.Hbond>
1.9440

> <Gold.PLP.Chemscore.CHOScore>
2.0000

> <Gold.PLP.Chemscore.Metal>
0.0000

> <Gold.Chemscore.Hbonds>
donor molecule, donor type, donor heavy atom, donor atom, acceptor molecule, acceptor atom, score
      L1  H     9    29       P1 10175  0.93
      L1  H    12    30       P1 10175  1.00
      L1  C     5    26       P1 10186  0.91
      L1  C     7    28       P1 10747  1.00

> <Gold.PLP.Chemscore.Internal.Correction>
0.0159

> <Gold.Rescore>
     Score         DG    S(hbond)    S(metal)    S(lipo)     H(rot)  DE(clash)    DE(int)     intcor
     14.45     -15.87       1.95        0.00      67.25       1.56       0.18       1.25       ----

> <Gold.Chemscore.Fitness>
14.4533

> <Gold.Chemscore.DG>
-15.8741

> <Gold.Chemscore.ZeroCoef>
-5.4800

> <Gold.Chemscore.Hbond>
1.9502

> <Gold.Chemscore.Metal>
0.0000

> <Gold.Chemscore.Lipo>
67.2469

> <Gold.Chemscore.Internal_Hbond>
0.0000

> <Gold.Chemscore.DEClash>
0.1753

> <Gold.Chemscore.DEInternal>
1.2456

> <Gold.Chemscore.Rot>
1.5576

> <Gold.Chemscore.Internal.Correction>
   9.000000E+99

> <Gold.Chemscore.Hbonds>
donor molecule, donor type, donor heavy atom, donor atom, acceptor molecule, acceptor atom, score
      L1  H     9    29       P1 10175  0.87
      L1  H    12    30       P1 10175  1.00

> <Gold.Chemscore.Hbond.Weighted>
-6.5138

> <Gold.Chemscore.Metal.Weighted>
-0.0000

> <Gold.Chemscore.Lipo.Weighted>
-7.8679

> <Gold.Chemscore.Internal_Hbond.Weighted>
0.0000

> <Gold.Chemscore.DEClash.Weighted>
0.1753

> <Gold.Chemscore.DEInternal.Weighted>
1.2456

> <Gold.Chemscore.Rot.Weighted>
3.9875

> <Gold.Chemscore.Internal.Correction.Weighted>
   9.000000E+99

> <Gold.Protein.RotatedTorsions>
[ 6907 6896 6895 6894 ] final  122.95 input  -60.11 | X-H torsion
[ 7974 7965 7964 7962 ] final   21.45 input  175.53 | X-H torsion
[ 8008 7997 7996 7995 ] final  -33.01 input   59.86 | X-H torsion
[ 10167 10162 10161 10158 ] final  122.71 input  -65.29 | X-H torsion
[ 10718 10713 10712 10709 ] final  122.58 input   66.30 | X-H torsion
[ 10763 10752 10751 10750 ] final   66.88 input  -60.55 | X-H torsion
[ 11005 11000 10999 10996 ] final   97.51 input  -57.11 | X-H torsion

> <Gold.Protein.ActiveResidues>
 VAL166  LYS551  ARG553  GLY616  TRP617  ASP618  TYR619  PRO620  LYS621  CYS622 
 ASP623  PHE694  ASN695  SER759  ASP760  ASP761  ALA762  ILE779  LEU786  VAL792 
 PHE793  MET794  SER795  GLU796  ALA797  LYS798  CYS799  TRP800  GLU811  SER814 

> <Gold.Protein.RotatedAtoms>
  152.4201  133.7103  159.6474 H   0  0  0  0  0  0  0  0  0  0  0  0  # atno 6907 bound_to 6896
  150.8077  133.8468  159.3203 H   0  0  0  0  0  0  0  0  0  0  0  0  # atno 6908 bound_to 6896
  151.6187  135.1036  160.0148 H   0  0  0  0  0  0  0  0  0  0  0  0  # atno 6909 bound_to 6896
  146.2071  139.8026  142.8718 H   0  0  0  0  0  0  0  0  0  0  0  0  # atno 7974 bound_to 7965
  154.4162  140.1722  156.1819 H   0  0  0  0  0  0  0  0  0  0  0  0  # atno 8008 bound_to 7997
  155.9675  140.3388  155.6521 H   0  0  0  0  0  0  0  0  0  0  0  0  # atno 8009 bound_to 7997
  155.6669  140.0707  157.2525 H   0  0  0  0  0  0  0  0  0  0  0  0  # atno 8010 bound_to 7997
  139.5842  144.6999  151.3450 H   0  0  0  0  0  0  0  0  0  0  0  0  # atno 10167 bound_to 10162
  157.5731  131.1081  150.8329 H   0  0  0  0  0  0  0  0  0  0  0  0  # atno 10718 bound_to 10713
  153.0160  135.5304  154.6893 H   0  0  0  0  0  0  0  0  0  0  0  0  # atno 10763 bound_to 10752
  154.6032  135.2870  155.0515 H   0  0  0  0  0  0  0  0  0  0  0  0  # atno 10764 bound_to 10752
  154.1564  135.6554  153.5028 H   0  0  0  0  0  0  0  0  0  0  0  0  # atno 10765 bound_to 10752
  139.8776  134.9004  156.4318 H   0  0  0  0  0  0  0  0  0  0  0  0  # atno 11005 bound_to 11000
  145.3281  141.0260  143.3462 LP  0  0  0  0  0  0  0  0  0  0  0  0  # atno 17320 bound_to 7965
  144.8819  139.4893  143.6719 LP  0  0  0  0  0  0  0  0  0  0  0  0  # atno 17321 bound_to 7965
  140.7117  143.7374  150.7578 LP  0  0  0  0  0  0  0  0  0  0  0  0  # atno 17342 bound_to 10162
  140.0914  143.4874  152.2476 LP  0  0  0  0  0  0  0  0  0  0  0  0  # atno 17343 bound_to 10162
  156.8795  130.5174  149.5292 LP  0  0  0  0  0  0  0  0  0  0  0  0  # atno 17370 bound_to 10713
  156.0776  130.5795  150.9504 LP  0  0  0  0  0  0  0  0  0  0  0  0  # atno 17371 bound_to 10713
  140.9061  133.7745  155.9737 LP  0  0  0  0  0  0  0  0  0  0  0  0  # atno 17394 bound_to 11000
  140.8598  134.2855  157.5239 LP  0  0  0  0  0  0  0  0  0  0  0  0  # atno 17395 bound_to 11000

$$$$
