#       Name:                AV-unprocessed.smi:3104
#       Creating user name   scv26
#       Creation time:       Fri Mar 27 17:19:03 2020


#       File generated by GOLD software.
#

@<TRIPOS>MOLECULE
AV-unprocessed.smi:3104
    38    39     1
SMALL
NO_CHARGES


@<TRIPOS>ATOM
      1 ****        -2.2220  -2.1959   4.4771 C.3            1 S1                 0.0000
      2 ****        -2.0665  -1.9812   2.9994 C.2            1 S1                 0.0000
      3 ****        -2.6041  -2.7650   1.9396 C.2            1 S1                 0.0000
      4 ****        -2.2798  -2.3028   0.7433 N.2            1 S1                 0.0000
      5 ****        -1.5285  -1.2089   0.9926 N.pl3          1 S1                 0.0000
      6 ****        -0.9827  -0.4388  -0.1180 C.3            1 S1                 0.0000
      7 ****        -1.4846   1.0147  -0.0398 C.3            1 S1                 0.0000
      8 ****         0.5640  -0.5455  -0.1889 C.3            1 S1                 0.0000
      9 ****         1.0764  -1.9955  -0.1169 C.3            1 S1                 0.0000
     10 ****         1.0666   0.0754  -1.4349 N.4            1 S1                 1.0000
     11 ****         1.8044   1.3399  -1.2440 C.3            1 S1                 0.0000
     12 ****         2.1834   1.9552  -2.5744 C.3            1 S1                 0.0000
     13 ****         2.6519   3.3905  -2.6390 C.3            1 S1                 0.0000
     14 ****         1.3119   3.0098  -3.2176 C.3            1 S1                 0.0000
     15 ****        -1.3819  -0.9947   2.3486 C.2            1 S1                 0.0000
     16 ****        -2.8396  -3.0668   4.6979 H              1 S1                 0.0000
     17 ****        -2.6919  -1.3388   4.9600 H              1 S1                 0.0000
     18 ****        -1.2597  -2.3531   4.9644 H              1 S1                 0.0000
     19 ****        -3.2172  -3.6520   2.0044 H              1 S1                 0.0000
     20 ****        -1.3868  -0.8692  -1.0367 H              1 S1                 0.0000
     21 ****        -1.2163   1.5799  -0.9324 H              1 S1                 0.0000
     22 ****        -1.0681   1.5367   0.8222 H              1 S1                 0.0000
     23 ****        -2.5714   1.0483   0.0452 H              1 S1                 0.0000
     24 ****         0.9869  -0.0183   0.6683 H              1 S1                 0.0000
     25 ****         0.8272  -2.4680   0.8335 H              1 S1                 0.0000
     26 ****         2.1620  -2.0315  -0.2142 H              1 S1                 0.0000
     27 ****         0.6507  -2.6063  -0.9140 H              1 S1                 0.0000
     28 ****         1.6853  -0.5812  -1.8894 H              1 S1                 0.0000
     29 ****         1.2034   2.0474  -0.6714 H              1 S1                 0.0000
     30 ****         2.7125   1.1441  -0.6727 H              1 S1                 0.0000
     31 ****         2.6968   1.2711  -3.2479 H              1 S1                 0.0000
     32 ****         2.6549   3.9658  -1.7150 H              1 S1                 0.0000
     33 ****         3.4511   3.6281  -3.3383 H              1 S1                 0.0000
     34 ****         1.2191   2.9928  -4.3017 H              1 S1                 0.0000
     35 ****         0.4230   3.3335  -2.6795 H              1 S1                 0.0000
     36 ****        -0.8082  -0.1656   2.7360 H              1 S1                 0.0000
     37 ****         0.2794   0.2464  -2.0444 H              1 S1                 0.0000
     38 ****        -2.5344  -2.6796  -0.1474 LP             1 S1                 0.0000
@<TRIPOS>BOND
    1    1    2 1     
    2    1   16 1     
    3    1   17 1     
    4    1   18 1     
    5    2   15 2     
    6    2    3 1     
    7    3    4 2     
    8    3   19 1     
    9    4    5 1     
   10    5    6 1     
   11    5   15 1     
   12    6    7 1     
   13    6    8 1     
   14    6   20 1     
   15    7   21 1     
   16    7   22 1     
   17    7   23 1     
   18    8    9 1     
   19    8   10 1     
   20    8   24 1     
   21    9   25 1     
   22    9   26 1     
   23    9   27 1     
   24   10   11 1     
   25   10   28 1     
   26   10   37 1     
   27   11   12 1     
   28   11   29 1     
   29   11   30 1     
   30   12   14 1     
   31   12   13 1     
   32   12   31 1     
   33   13   14 1     
   34   13   32 1     
   35   13   33 1     
   36   14   34 1     
   37   14   35 1     
   38   15   36 1     
   39    4   38 1     
@<TRIPOS>SUBSTRUCTURE
      1 S1             1
@<TRIPOS>SET
LONE_PAIRS      STATIC     ATOMS    <user>   **** ""
1 38
DONOR_HYDROGENS      STATIC     ATOMS    <user>   **** ""
2 28 37
ATOM$BLUE        STATIC     ATOMS    COLORGROUP SYSTEM
1 38
ATOM$RED        STATIC     ATOMS    COLORGROUP SYSTEM
2 28 37
