AV-unprocessed.smi:1276|AV-procd|sdf|5344|dock9
  -GOLD-   22720 4473D 1   1.00000     0.00000
 Structure written by MMmdl.
 44 45  0  0  0  0  0  0  0  0  1 V2000
  153.2694  138.9392  154.6837 C   0  0  0  0  0  0  0  0  0  0  0  0
  152.8384  138.4237  156.0303 C   0  0  0  0  0  0  0  0  0  0  0  0
  153.5664  138.7646  157.0423 N   0  0  0  0  0  0  0  0  0  0  0  0
  153.2631  138.3413  158.3220 N   0  0  0  0  0  0  0  0  0  0  0  0
  154.2108  138.8026  159.3473 C   0  0  0  0  0  0  0  0  0  0  0  0
  154.0760  140.2982  159.6691 C   0  0  0  0  0  0  0  0  0  0  0  0
  154.8355  140.8409  160.4729 O   0  0  0  0  0  0  0  0  0  0  0  0
  153.1107  140.9568  159.0087 N   0  0  0  0  0  0  0  0  0  0  0  0
  152.7989  142.3775  159.1529 C   0  0  0  0  0  0  0  0  0  0  0  0
  152.5020  142.6525  160.6427 C   0  0  0  0  0  0  0  0  0  0  0  0
  151.8178  143.9876  160.9898 C   0  0  0  0  0  0  0  0  0  0  0  0
  152.2094  145.1907  160.1178 C   0  0  0  0  0  0  0  0  0  0  0  0
  151.3756  145.2828  158.8288 C   0  0  0  0  0  0  0  0  0  0  0  0
  151.7443  144.2550  157.7491 C   0  0  0  0  0  0  0  0  0  0  0  0
  151.6626  142.7821  158.1879 C   0  0  0  0  0  0  0  0  0  0  0  0
  152.1961  137.5560  158.6476 C   0  0  0  0  0  0  0  0  0  0  0  0
  151.9595  137.2072  159.8054 O   0  0  0  0  0  0  0  0  0  0  0  0
  151.3749  137.1749  157.4964 C   0  0  0  0  0  0  0  0  0  0  0  0
  150.2494  136.3485  157.7930 C   0  0  0  0  0  0  0  0  0  0  0  0
  149.3459  135.6724  158.0506 N   0  0  0  0  0  0  0  0  0  0  0  0
  151.6656  137.5793  156.2345 C   0  0  0  0  0  0  0  0  0  0  0  0
  150.8462  137.2099  155.0057 C   0  0  0  0  0  0  0  0  0  0  0  0
  152.5000  139.5783  154.2503 H   0  0  0  0  0  0  0  0  0  0  0  0
  153.4539  138.1150  153.9945 H   0  0  0  0  0  0  0  0  0  0  0  0
  154.1872  139.5256  154.7471 H   0  0  0  0  0  0  0  0  0  0  0  0
  154.0647  138.2447  160.2740 H   0  0  0  0  0  0  0  0  0  0  0  0
  155.2338  138.5850  159.0343 H   0  0  0  0  0  0  0  0  0  0  0  0
  152.5393  140.4315  158.3631 H   0  0  0  0  0  0  0  0  0  0  0  0
  153.6945  142.9423  158.8868 H   0  0  0  0  0  0  0  0  0  0  0  0
  151.8839  141.8511  161.0504 H   0  0  0  0  0  0  0  0  0  0  0  0
  153.4459  142.5939  161.1865 H   0  0  0  0  0  0  0  0  0  0  0  0
  150.7352  143.8581  160.9566 H   0  0  0  0  0  0  0  0  0  0  0  0
  152.0436  144.2179  162.0317 H   0  0  0  0  0  0  0  0  0  0  0  0
  152.0225  146.0967  160.6953 H   0  0  0  0  0  0  0  0  0  0  0  0
  153.2781  145.1915  159.9009 H   0  0  0  0  0  0  0  0  0  0  0  0
  150.3148  145.2000  159.0677 H   0  0  0  0  0  0  0  0  0  0  0  0
  151.5027  146.2791  158.4044 H   0  0  0  0  0  0  0  0  0  0  0  0
  151.0733  144.4007  156.9017 H   0  0  0  0  0  0  0  0  0  0  0  0
  152.7440  144.4674  157.3685 H   0  0  0  0  0  0  0  0  0  0  0  0
  151.7297  142.1799  157.2807 H   0  0  0  0  0  0  0  0  0  0  0  0
  150.6866  142.5561  158.6190 H   0  0  0  0  0  0  0  0  0  0  0  0
  149.9736  136.6080  155.2571 H   0  0  0  0  0  0  0  0  0  0  0  0
  151.4498  136.6345  154.3032 H   0  0  0  0  0  0  0  0  0  0  0  0
  150.4884  138.1062  154.4987 H   0  0  0  0  0  0  0  0  0  0  0  0
  1  2  1  0  0  0  0
  1 23  1  0  0  0  0
  1 24  1  0  0  0  0
  1 25  1  0  0  0  0
  2 21  1  0  0  0  0
  2  3  2  0  0  0  0
  3  4  1  0  0  0  0
  4  5  1  0  0  0  0
  4 16  1  0  0  0  0
  5  6  1  0  0  0  0
  5 26  1  0  0  0  0
  5 27  1  0  0  0  0
  6  7  2  0  0  0  0
  6  8  1  0  0  0  0
  8  9  1  0  0  0  0
  8 28  1  0  0  0  0
  9 15  1  0  0  0  0
  9 10  1  0  0  0  0
  9 29  1  0  0  0  0
 10 11  1  0  0  0  0
 10 30  1  0  0  0  0
 10 31  1  0  0  0  0
 11 12  1  0  0  0  0
 11 32  1  0  0  0  0
 11 33  1  0  0  0  0
 12 13  1  0  0  0  0
 12 34  1  0  0  0  0
 12 35  1  0  0  0  0
 13 14  1  0  0  0  0
 13 36  1  0  0  0  0
 13 37  1  0  0  0  0
 14 15  1  0  0  0  0
 14 38  1  0  0  0  0
 14 39  1  0  0  0  0
 15 40  1  0  0  0  0
 15 41  1  0  0  0  0
 16 17  2  0  0  0  0
 16 18  1  0  0  0  0
 18 19  1  0  0  0  0
 18 21  2  0  0  0  0
 19 20  3  0  0  0  0
 21 22  1  0  0  0  0
 22 42  1  0  0  0  0
 22 43  1  0  0  0  0
 22 44  1  0  0  0  0
M  END
> <s_m_source_file>
AV-unprocessed.smi

> <i_m_source_file_index>
1276

> <i_lp_mmshare_version>
43012

> <i_f3d_flags>
0

> <s_epik_input>
TiNDYyhjMVtDSDNdKWMoPU8pbihuYzFbQ0gzXSlbQ0gyXUMoPU8pW05IXVtDSF0yW0NIMl1bQ0gyXVtDSDJdW0NIMl1bQ0gyXVtDSDJdMg==

> <s_epik_cmdline>
J2VwaWtfcHl0aG9uJywgJy1waCcsICc3LjAnLCAnLXRuJywgJzgnLCAnLW1hJywgJzIwMCcsICctbWV0YWxfYmluZGluZycsICctaW1hZScsICc8aW5maWxlLm1hZT4nLCAnLW9tYWUnLCAnPG91dGZpbGUubWFlPic=

> <r_lp_tautomer_probability>
1

> <r_epik_Ionization_Penalty>
2.02378e-08

> <r_epik_Ionization_Penalty_Charging>
2.27609e-11

> <r_epik_Ionization_Penalty_Neutral>
2.0215e-08

> <r_epik_State_Penalty>
-0

> <r_epik_Charging_Adjusted_Penalty>
2.27609e-11

> <i_epik_Tot_Q>
0

> <i_epik_Tot_abs_Q>
0

> <r_epik_Metal_State_Penalty>
-0

> <b_epik_Metal_Only>
0

> <s_lp_Force_Field>
OPLS_2005

> <r_lp_Energy>
30.1422

> <b_lp_Chiralities_Consistent>
1

> <s_lp_Variant>
AV-unprocessed.smi:1276-1

> <Gold.Version>
5.8.1

> <Gold.Id.Protein>
6NUR|6NUR_protein|mol2

> <Gold.PLP.Fitness>
47.3990

> <Gold.PLP.PLP>
-41.7197

> <Gold.PLP.part.hbond>
-2.4223

> <Gold.PLP.part.metal>
0.0000

> <Gold.PLP.part.buried>
-5.5272

> <Gold.PLP.part.nonpolar>
-34.5358

> <Gold.PLP.part.repulsive>
0.0924

> <Gold.PLP.ligand.clash>
0.0000

> <Gold.PLP.ligand.torsion>
0.1579

> <Gold.PLP.Chemscore.Hbond>
1.9913

> <Gold.PLP.Chemscore.CHOScore>
0.0000

> <Gold.PLP.Chemscore.Metal>
0.0000

> <Gold.Chemscore.Hbonds>
donor molecule, donor type, donor heavy atom, donor atom, acceptor molecule, acceptor atom, score
      P1  H  6896  6909       L1    17  0.89
      P1  H  7997  8008       L1     3  1.00

> <Gold.PLP.Chemscore.Internal.Correction>
0.0213

> <Gold.Rescore>
     Score         DG    S(hbond)    S(metal)    S(lipo)     H(rot)  DE(clash)    DE(int)     intcor
     21.38     -21.60       1.89        0.00     115.76       1.46       0.01       0.21       ----

> <Gold.Chemscore.Fitness>
21.3845

> <Gold.Chemscore.DG>
-21.6023

> <Gold.Chemscore.ZeroCoef>
-5.4800

> <Gold.Chemscore.Hbond>
1.8921

> <Gold.Chemscore.Metal>
0.0000

> <Gold.Chemscore.Lipo>
115.7604

> <Gold.Chemscore.Internal_Hbond>
0.0000

> <Gold.Chemscore.DEClash>
0.0073

> <Gold.Chemscore.DEInternal>
0.2104

> <Gold.Chemscore.Rot>
1.4615

> <Gold.Chemscore.Internal.Correction>
   9.000000E+99

> <Gold.Chemscore.Hbonds>
donor molecule, donor type, donor heavy atom, donor atom, acceptor molecule, acceptor atom, score
      P1  H  6896  6909       L1    17  0.77
      P1  H  7997  8008       L1     3  0.72

> <Gold.Chemscore.Hbond.Weighted>
-6.3197

> <Gold.Chemscore.Metal.Weighted>
-0.0000

> <Gold.Chemscore.Lipo.Weighted>
-13.5440

> <Gold.Chemscore.Internal_Hbond.Weighted>
0.0000

> <Gold.Chemscore.DEClash.Weighted>
0.0073

> <Gold.Chemscore.DEInternal.Weighted>
0.2104

> <Gold.Chemscore.Rot.Weighted>
3.7414

> <Gold.Chemscore.Internal.Correction.Weighted>
   9.000000E+99

> <Gold.Protein.RotatedTorsions>
[ 6907 6896 6895 6894 ] final  122.23 input  -60.11 | X-H torsion
[ 7974 7965 7964 7962 ] final   61.42 input  175.53 | X-H torsion
[ 8008 7997 7996 7995 ] final  -65.20 input   59.86 | X-H torsion
[ 10167 10162 10161 10158 ] final -127.11 input  -65.29 | X-H torsion
[ 10718 10713 10712 10709 ] final  -65.43 input   66.30 | X-H torsion
[ 10763 10752 10751 10750 ] final   -4.23 input  -60.55 | X-H torsion
[ 11005 11000 10999 10996 ] final -101.77 input  -57.11 | X-H torsion

> <Gold.Protein.ActiveResidues>
 VAL166  LYS551  ARG553  GLY616  TRP617  ASP618  TYR619  PRO620  LYS621  CYS622 
 ASP623  PHE694  ASN695  SER759  ASP760  ASP761  ALA762  ILE779  LEU786  VAL792 
 PHE793  MET794  SER795  GLU796  ALA797  LYS798  CYS799  TRP800  GLU811  SER814 

> <Gold.Protein.RotatedAtoms>
  152.4259  133.7195  159.6524 H   0  0  0  0  0  0  0  0  0  0  0  0  # atno 6907 bound_to 6896
  150.8136  133.8367  159.3177 H   0  0  0  0  0  0  0  0  0  0  0  0  # atno 6908 bound_to 6896
  151.6070  135.1045  160.0124 H   0  0  0  0  0  0  0  0  0  0  0  0  # atno 6909 bound_to 6896
  145.8849  139.3469  143.0684 H   0  0  0  0  0  0  0  0  0  0  0  0  # atno 7974 bound_to 7965
  154.4657  140.0938  156.7013 H   0  0  0  0  0  0  0  0  0  0  0  0  # atno 8008 bound_to 7997
  155.4865  140.3469  155.4330 H   0  0  0  0  0  0  0  0  0  0  0  0  # atno 8009 bound_to 7997
  156.0951  140.1407  156.9529 H   0  0  0  0  0  0  0  0  0  0  0  0  # atno 8010 bound_to 7997
  139.9643  143.5915  152.2434 H   0  0  0  0  0  0  0  0  0  0  0  0  # atno 10167 bound_to 10162
  156.0670  130.4247  150.1563 H   0  0  0  0  0  0  0  0  0  0  0  0  # atno 10718 bound_to 10713
  153.3820  135.6999  153.6558 H   0  0  0  0  0  0  0  0  0  0  0  0  # atno 10763 bound_to 10752
  153.5165  135.3621  155.2612 H   0  0  0  0  0  0  0  0  0  0  0  0  # atno 10764 bound_to 10752
  154.8693  135.4147  154.3120 H   0  0  0  0  0  0  0  0  0  0  0  0  # atno 10765 bound_to 10752
  141.1217  133.8505  157.1275 H   0  0  0  0  0  0  0  0  0  0  0  0  # atno 11005 bound_to 11000
  145.8979  140.9262  143.0518 LP  0  0  0  0  0  0  0  0  0  0  0  0  # atno 17320 bound_to 7965
  144.6728  140.0993  143.7461 LP  0  0  0  0  0  0  0  0  0  0  0  0  # atno 17321 bound_to 7965
  139.6530  144.7661  151.2111 LP  0  0  0  0  0  0  0  0  0  0  0  0  # atno 17342 bound_to 10162
  140.7543  143.6131  150.8586 LP  0  0  0  0  0  0  0  0  0  0  0  0  # atno 17343 bound_to 10162
  156.9622  130.9808  151.3477 LP  0  0  0  0  0  0  0  0  0  0  0  0  # atno 17370 bound_to 10713
  157.5717  130.8315  149.8401 LP  0  0  0  0  0  0  0  0  0  0  0  0  # atno 17371 bound_to 10713
  140.0180  134.9959  157.0532 LP  0  0  0  0  0  0  0  0  0  0  0  0  # atno 17394 bound_to 11000
  140.4488  134.1604  155.7179 LP  0  0  0  0  0  0  0  0  0  0  0  0  # atno 17395 bound_to 11000

$$$$
