AV-unprocessed.smi:2197|AV-procd|sdf|8909|dock2
  -GOLD-   2272012123D 1   1.00000     0.00000
 Structure written by MMmdl.
 28 28  0  0  0  0  0  0  0  0  1 V2000
  151.9735  145.6164  159.6907 C   0  0  0  0  0  0  0  0  0  0  0  0
  151.8982  144.2580  158.9857 C   0  0  0  0  0  0  0  0  0  0  0  0
  151.9306  144.3870  157.4542 C   0  0  0  0  0  0  0  0  0  0  0  0
  150.9690  143.4906  156.8232 N   0  0  0  0  0  0  0  0  0  0  0  0
  151.0007  142.1511  156.8948 C   0  0  0  0  0  0  0  0  0  0  0  0
  151.8483  141.5304  157.5380 O   0  0  0  0  0  0  0  0  0  0  0  0
  149.8921  141.4080  156.1350 C   0  0  0  0  0  0  0  0  0  0  0  0
  150.2726  140.0396  155.7548 N   0  0  0  0  0  0  0  0  0  0  0  0
  150.2662  139.6546  154.4216 C   0  0  0  0  0  0  0  0  0  0  0  0
  150.5962  138.4096  154.0035 C   0  0  0  0  0  0  0  0  0  0  0  0
  150.9849  137.3854  154.9671 C   0  0  0  0  0  0  0  0  0  0  0  0
  151.3024  136.2316  154.6869 O   0  0  0  0  0  0  0  0  0  0  0  0
  150.9765  137.8104  156.2982 N   0  0  0  0  0  0  0  0  0  0  0  0
  150.6368  139.0915  156.7360 C   0  0  0  0  0  0  0  0  0  0  0  0
  150.6600  139.3611  157.9364 O   0  0  0  0  0  0  0  0  0  0  0  0
  151.2354  137.1346  157.0021 H   0  0  0  0  0  0  0  0  0  0  0  0
  151.9569  145.4932  160.7738 H   0  0  0  0  0  0  0  0  0  0  0  0
  151.1300  146.2496  159.4150 H   0  0  0  0  0  0  0  0  0  0  0  0
  152.8906  146.1450  159.4298 H   0  0  0  0  0  0  0  0  0  0  0  0
  152.7291  143.6346  159.3180 H   0  0  0  0  0  0  0  0  0  0  0  0
  150.9859  143.7465  159.2957 H   0  0  0  0  0  0  0  0  0  0  0  0
  151.7400  145.4182  157.1515 H   0  0  0  0  0  0  0  0  0  0  0  0
  152.9234  144.1330  157.0816 H   0  0  0  0  0  0  0  0  0  0  0  0
  150.2342  143.9195  156.2794 H   0  0  0  0  0  0  0  0  0  0  0  0
  149.0016  141.3940  156.7650 H   0  0  0  0  0  0  0  0  0  0  0  0
  149.6076  141.9752  155.2460 H   0  0  0  0  0  0  0  0  0  0  0  0
  149.9805  140.3790  153.6722 H   0  0  0  0  0  0  0  0  0  0  0  0
  150.5712  138.1700  152.9502 H   0  0  0  0  0  0  0  0  0  0  0  0
  1  2  1  0  0  0  0
  1 17  1  0  0  0  0
  1 18  1  0  0  0  0
  1 19  1  0  0  0  0
  2  3  1  0  0  0  0
  2 20  1  0  0  0  0
  2 21  1  0  0  0  0
  3  4  1  0  0  0  0
  3 22  1  0  0  0  0
  3 23  1  0  0  0  0
  4  5  1  0  0  0  0
  4 24  1  0  0  0  0
  5  6  2  0  0  0  0
  5  7  1  0  0  0  0
  7  8  1  0  0  0  0
  7 25  1  0  0  0  0
  7 26  1  0  0  0  0
  8 14  1  0  0  0  0
  8  9  1  0  0  0  0
  9 10  2  0  0  0  0
  9 27  1  0  0  0  0
 10 11  1  0  0  0  0
 10 28  1  0  0  0  0
 11 12  2  0  0  0  0
 11 13  1  0  0  0  0
 13 16  1  0  0  0  0
 13 14  1  0  0  0  0
 14 15  2  0  0  0  0
M  END
> <s_m_source_file>
AV-unprocessed.smi

> <i_m_source_file_index>
2197

> <i_lp_mmshare_version>
43012

> <i_f3d_flags>
0

> <s_epik_input>
W0NIM11bQ0gyXVtDSDJdW05IXUMoPU8pW0NIMl1uMVtjSF1bY0hdYyg9TylbbkhdYzE9Tw==

> <s_epik_cmdline>
J2VwaWtfcHl0aG9uJywgJy1waCcsICc3LjAnLCAnLXRuJywgJzgnLCAnLW1hJywgJzIwMCcsICctbWV0YWxfYmluZGluZycsICctaW1hZScsICc8aW5maWxlLm1hZT4nLCAnLW9tYWUnLCAnPG91dGZpbGUubWFlPic=

> <r_lp_tautomer_probability>
0.999537

> <r_epik_Ionization_Penalty>
0.00328917

> <r_epik_Ionization_Penalty_Charging>
0.00328916

> <r_epik_Ionization_Penalty_Neutral>
1.81689e-08

> <r_epik_State_Penalty>
0.00232387

> <r_epik_Charging_Adjusted_Penalty>
0.00561303

> <i_epik_Tot_Q>
0

> <i_epik_Tot_abs_Q>
0

> <r_epik_Metal_State_Penalty>
0.365275

> <b_epik_Metal_Only>
0

> <s_lp_Force_Field>
OPLS_2005

> <r_lp_Energy>
1.80706

> <b_lp_Chiralities_Consistent>
1

> <s_lp_Variant>
AV-unprocessed.smi:2197-1

> <Gold.Version>
5.8.1

> <Gold.Id.Protein>
6NUR|6NUR_protein|mol2

> <Gold.PLP.Fitness>
38.0961

> <Gold.PLP.PLP>
-30.5443

> <Gold.PLP.part.hbond>
-2.0000

> <Gold.PLP.part.metal>
0.0000

> <Gold.PLP.part.buried>
-2.3240

> <Gold.PLP.part.nonpolar>
-25.5538

> <Gold.PLP.part.repulsive>
0.2397

> <Gold.PLP.ligand.clash>
0.0000

> <Gold.PLP.ligand.torsion>
0.6580

> <Gold.PLP.Chemscore.Hbond>
2.0000

> <Gold.PLP.Chemscore.CHOScore>
0.9513

> <Gold.PLP.Chemscore.Metal>
0.0000

> <Gold.Chemscore.Hbonds>
donor molecule, donor type, donor heavy atom, donor atom, acceptor molecule, acceptor atom, score
      L1  H     4    24       P1  8028  1.00
      P1  H 10752 10763       L1    12  1.00
      L1  C     9    27       P1  7957  0.92

> <Gold.PLP.Chemscore.Internal.Correction>
0.0138

> <Gold.Rescore>
     Score         DG    S(hbond)    S(metal)    S(lipo)     H(rot)  DE(clash)    DE(int)     intcor
     10.64     -14.18       1.99        0.00      62.23       2.05       0.05       3.49       ----

> <Gold.Chemscore.Fitness>
10.6444

> <Gold.Chemscore.DG>
-14.1767

> <Gold.Chemscore.ZeroCoef>
-5.4800

> <Gold.Chemscore.Hbond>
1.9931

> <Gold.Chemscore.Metal>
0.0000

> <Gold.Chemscore.Lipo>
62.2252

> <Gold.Chemscore.Internal_Hbond>
0.0000

> <Gold.Chemscore.DEClash>
0.0457

> <Gold.Chemscore.DEInternal>
3.4865

> <Gold.Chemscore.Rot>
2.0471

> <Gold.Chemscore.Internal.Correction>
   9.000000E+99

> <Gold.Chemscore.Hbonds>
donor molecule, donor type, donor heavy atom, donor atom, acceptor molecule, acceptor atom, score
      L1  H     4    24       P1  8028  1.00
      P1  H 10752 10763       L1    12  1.00

> <Gold.Chemscore.Hbond.Weighted>
-6.6569

> <Gold.Chemscore.Metal.Weighted>
-0.0000

> <Gold.Chemscore.Lipo.Weighted>
-7.2804

> <Gold.Chemscore.Internal_Hbond.Weighted>
0.0000

> <Gold.Chemscore.DEClash.Weighted>
0.0457

> <Gold.Chemscore.DEInternal.Weighted>
3.4865

> <Gold.Chemscore.Rot.Weighted>
5.2406

> <Gold.Chemscore.Internal.Correction.Weighted>
   9.000000E+99

> <Gold.Protein.RotatedTorsions>
[ 6907 6896 6895 6894 ] final   44.04 input  -60.11 | X-H torsion
[ 7974 7965 7964 7962 ] final   25.31 input  175.53 | X-H torsion
[ 8008 7997 7996 7995 ] final  -57.85 input   59.86 | X-H torsion
[ 10167 10162 10161 10158 ] final  164.39 input  -65.29 | X-H torsion
[ 10718 10713 10712 10709 ] final    4.55 input   66.30 | X-H torsion
[ 10763 10752 10751 10750 ] final   54.55 input  -60.55 | X-H torsion
[ 11005 11000 10999 10996 ] final   68.93 input  -57.11 | X-H torsion

> <Gold.Protein.ActiveResidues>
 VAL166  LYS551  ARG553  GLY616  TRP617  ASP618  TYR619  PRO620  LYS621  CYS622 
 ASP623  PHE694  ASN695  SER759  ASP760  ASP761  ALA762  ILE779  LEU786  VAL792 
 PHE793  MET794  SER795  GLU796  ALA797  LYS798  CYS799  TRP800  GLU811  SER814 

> <Gold.Protein.RotatedAtoms>
  152.2276  134.8353  160.0477 H   0  0  0  0  0  0  0  0  0  0  0  0  # atno 6907 bound_to 6896
  151.9113  133.3557  159.3873 H   0  0  0  0  0  0  0  0  0  0  0  0  # atno 6908 bound_to 6896
  150.7017  134.4654  159.5444 H   0  0  0  0  0  0  0  0  0  0  0  0  # atno 6909 bound_to 6896
  146.1895  139.7483  142.8842 H   0  0  0  0  0  0  0  0  0  0  0  0  # atno 7974 bound_to 7965
  154.4284  140.1097  156.5862 H   0  0  0  0  0  0  0  0  0  0  0  0  # atno 8008 bound_to 7997
  155.6060  140.3494  155.4589 H   0  0  0  0  0  0  0  0  0  0  0  0  # atno 8009 bound_to 7997
  156.0137  140.1224  157.0418 H   0  0  0  0  0  0  0  0  0  0  0  0  # atno 8010 bound_to 7997
  139.4888  144.4240  151.9152 H   0  0  0  0  0  0  0  0  0  0  0  0  # atno 10167 bound_to 10162
  156.8942  130.5698  149.5649 H   0  0  0  0  0  0  0  0  0  0  0  0  # atno 10718 bound_to 10713
  152.9806  135.5741  154.4923 H   0  0  0  0  0  0  0  0  0  0  0  0  # atno 10763 bound_to 10752
  154.4455  135.2777  155.1819 H   0  0  0  0  0  0  0  0  0  0  0  0  # atno 10764 bound_to 10752
  154.3469  135.6217  153.5677 H   0  0  0  0  0  0  0  0  0  0  0  0  # atno 10765 bound_to 10752
  139.9683  134.6944  156.0500 H   0  0  0  0  0  0  0  0  0  0  0  0  # atno 11005 bound_to 11000
  145.3838  141.0362  143.3163 LP  0  0  0  0  0  0  0  0  0  0  0  0  # atno 17320 bound_to 7965
  144.8459  139.5398  143.6879 LP  0  0  0  0  0  0  0  0  0  0  0  0  # atno 17321 bound_to 7965
  140.3685  144.2885  150.5923 LP  0  0  0  0  0  0  0  0  0  0  0  0  # atno 17342 bound_to 10162
  140.5340  143.2237  151.8193 LP  0  0  0  0  0  0  0  0  0  0  0  0  # atno 17343 bound_to 10162
  156.0614  130.5666  150.9200 LP  0  0  0  0  0  0  0  0  0  0  0  0  # atno 17370 bound_to 10713
  157.6065  131.0938  150.8870 LP  0  0  0  0  0  0  0  0  0  0  0  0  # atno 17371 bound_to 10713
  141.1362  133.6574  156.3601 LP  0  0  0  0  0  0  0  0  0  0  0  0  # atno 17394 bound_to 11000
  140.5349  134.6176  157.5362 LP  0  0  0  0  0  0  0  0  0  0  0  0  # atno 17395 bound_to 11000

$$$$
