AV-unprocessed.smi:2157|AV-procd|sdf|8783|dock9
  -GOLD-   2272011563D 1   1.00000     0.00000
 Structure written by MMmdl.
 41 42  0  0  0  0  0  0  0  0  1 V2000
  146.8004  143.1381  154.1483 C   0  0  0  0  0  0  0  0  0  0  0  0
  147.5678  141.9788  154.7995 C   0  0  2  0  0  0  0  0  0  0  0  0
  147.2383  140.6357  154.1206 C   0  0  0  0  0  0  0  0  0  0  0  0
  148.0003  139.4716  154.7726 C   0  0  0  0  0  0  0  0  0  0  0  0
  147.7181  139.3962  156.2823 C   0  0  0  0  0  0  0  0  0  0  0  0
  148.0234  140.7294  156.9978 C   0  0  1  0  0  0  0  0  0  0  0  0
  149.4607  140.9921  157.0512 N   0  0  0  0  0  0  0  0  0  0  0  0
  150.0602  141.8880  157.8497 C   0  0  0  0  0  0  0  0  0  0  0  0
  149.4480  142.5926  158.6534 O   0  0  0  0  0  0  0  0  0  0  0  0
  151.5878  141.9772  157.7303 C   0  0  0  0  0  0  0  0  0  0  0  0
  152.2725  141.8917  159.0265 N   0  0  0  0  0  0  0  0  0  0  0  0
  152.0997  142.8960  159.9610 C   0  0  0  0  0  0  0  0  0  0  0  0
  152.7062  142.9025  161.1682 C   0  0  0  0  0  0  0  0  0  0  0  0
  153.6000  141.8206  161.5641 C   0  0  0  0  0  0  0  0  0  0  0  0
  154.1781  141.7943  162.6509 O   0  0  0  0  0  0  0  0  0  0  0  0
  153.7530  140.8027  160.5919 N   0  0  0  0  0  0  0  0  0  0  0  0
  154.6265  139.6828  160.8738 C   0  0  0  0  0  0  0  0  0  0  0  0
  153.1215  140.8058  159.3290 C   0  0  0  0  0  0  0  0  0  0  0  0
  153.3014  139.9000  158.5109 O   0  0  0  0  0  0  0  0  0  0  0  0
  147.2905  141.9023  156.3160 C   0  0  0  0  0  0  0  0  0  0  0  0
  145.7226  143.0072  154.2501 H   0  0  0  0  0  0  0  0  0  0  0  0
  147.0274  143.2110  153.0845 H   0  0  0  0  0  0  0  0  0  0  0  0
  147.0648  144.0912  154.6071 H   0  0  0  0  0  0  0  0  0  0  0  0
  148.6314  142.1746  154.6574 H   0  0  0  0  0  0  0  0  0  0  0  0
  146.1657  140.4455  154.1802 H   0  0  0  0  0  0  0  0  0  0  0  0
  147.4843  140.6832  153.0594 H   0  0  0  0  0  0  0  0  0  0  0  0
  147.7178  138.5318  154.2977 H   0  0  0  0  0  0  0  0  0  0  0  0
  149.0706  139.5923  154.6027 H   0  0  0  0  0  0  0  0  0  0  0  0
  146.6675  139.1451  156.4330 H   0  0  0  0  0  0  0  0  0  0  0  0
  148.2879  138.5809  156.7292 H   0  0  0  0  0  0  0  0  0  0  0  0
  147.6569  140.6634  158.0237 H   0  0  0  0  0  0  0  0  0  0  0  0
  150.0429  140.4525  156.4272 H   0  0  0  0  0  0  0  0  0  0  0  0
  151.9248  141.1706  157.0782 H   0  0  0  0  0  0  0  0  0  0  0  0
  151.8646  142.9023  157.2213 H   0  0  0  0  0  0  0  0  0  0  0  0
  151.4506  143.7233  159.7136 H   0  0  0  0  0  0  0  0  0  0  0  0
  152.5298  143.7212  161.8500 H   0  0  0  0  0  0  0  0  0  0  0  0
  154.0555  138.7681  160.7042 H   0  0  0  0  0  0  0  0  0  0  0  0
  154.9732  139.7002  161.9064 H   0  0  0  0  0  0  0  0  0  0  0  0
  155.4721  139.7579  160.1882 H   0  0  0  0  0  0  0  0  0  0  0  0
  147.5675  142.8420  156.7963 H   0  0  0  0  0  0  0  0  0  0  0  0
  146.2177  141.7875  156.4772 H   0  0  0  0  0  0  0  0  0  0  0  0
  1  2  1  0  0  0  0
  1 21  1  0  0  0  0
  1 22  1  0  0  0  0
  1 23  1  0  0  0  0
  2 20  1  0  0  0  0
  2  3  1  0  0  0  0
  2 24  1  0  0  0  0
  3  4  1  0  0  0  0
  3 25  1  0  0  0  0
  3 26  1  0  0  0  0
  4  5  1  0  0  0  0
  4 27  1  0  0  0  0
  4 28  1  0  0  0  0
  5  6  1  0  0  0  0
  5 29  1  0  0  0  0
  5 30  1  0  0  0  0
  6  7  1  0  0  0  0
  6 20  1  0  0  0  0
  6 31  1  0  0  0  0
  7  8  1  0  0  0  0
  7 32  1  0  0  0  0
  8  9  2  0  0  0  0
  8 10  1  0  0  0  0
 10 11  1  0  0  0  0
 10 33  1  0  0  0  0
 10 34  1  0  0  0  0
 11 18  1  0  0  0  0
 11 12  1  0  0  0  0
 12 13  2  0  0  0  0
 12 35  1  0  0  0  0
 13 14  1  0  0  0  0
 13 36  1  0  0  0  0
 14 15  2  0  0  0  0
 14 16  1  0  0  0  0
 16 17  1  0  0  0  0
 16 18  1  0  0  0  0
 17 37  1  0  0  0  0
 17 38  1  0  0  0  0
 17 39  1  0  0  0  0
 18 19  2  0  0  0  0
 20 40  1  0  0  0  0
 20 41  1  0  0  0  0
M  END
> <s_m_source_file>
AV-unprocessed.smi

> <i_m_source_file_index>
2157

> <i_lp_mmshare_version>
43012

> <i_f3d_flags>
0

> <s_epik_input>
W0NIM11bQ0BASF0xW0NIMl1bQ0gyXVtDSDJdW0NASF0oW0NIMl0xKVtOSF1DKD1PKVtDSDJdbjJbY0hdW2NIXWMoPU8pbihbQ0gzXSljMj1P

> <s_epik_cmdline>
J2VwaWtfcHl0aG9uJywgJy1waCcsICc3LjAnLCAnLXRuJywgJzgnLCAnLW1hJywgJzIwMCcsICctbWV0YWxfYmluZGluZycsICctaW1hZScsICc8aW5maWxlLm1hZT4nLCAnLW9tYWUnLCAnPG91dGZpbGUubWFlPic=

> <r_lp_tautomer_probability>
1

> <r_epik_Ionization_Penalty>
3.1838e-08

> <r_epik_Ionization_Penalty_Charging>
1.27911e-08

> <r_epik_Ionization_Penalty_Neutral>
1.90469e-08

> <r_epik_State_Penalty>
-0

> <r_epik_Charging_Adjusted_Penalty>
1.27911e-08

> <i_epik_Tot_Q>
0

> <i_epik_Tot_abs_Q>
0

> <r_epik_Metal_State_Penalty>
-0

> <b_epik_Metal_Only>
0

> <s_lp_Force_Field>
OPLS_2005

> <r_lp_Energy>
16.0352

> <b_lp_Chiralities_Consistent>
1

> <s_lp_Variant>
AV-unprocessed.smi:2157-1

> <Gold.Version>
5.8.1

> <Gold.Id.Protein>
6NUR|6NUR_protein|mol2

> <Gold.PLP.Fitness>
39.1958

> <Gold.PLP.PLP>
-36.7882

> <Gold.PLP.part.hbond>
-2.2771

> <Gold.PLP.part.metal>
0.0000

> <Gold.PLP.part.buried>
-4.7381

> <Gold.PLP.part.nonpolar>
-29.7928

> <Gold.PLP.part.repulsive>
0.1721

> <Gold.PLP.ligand.clash>
0.0000

> <Gold.PLP.ligand.torsion>
0.2886

> <Gold.PLP.Chemscore.Hbond>
0.9920

> <Gold.PLP.Chemscore.CHOScore>
0.0000

> <Gold.PLP.Chemscore.Metal>
0.0000

> <Gold.Chemscore.Hbonds>
donor molecule, donor type, donor heavy atom, donor atom, acceptor molecule, acceptor atom, score
      P1  H  7997  8009       L1    19  1.00

> <Gold.PLP.Chemscore.Internal.Correction>
0.0089

> <Gold.Rescore>
     Score         DG    S(hbond)    S(metal)    S(lipo)     H(rot)  DE(clash)    DE(int)     intcor
     11.82     -12.78       0.99        0.00      67.48       1.52       0.06       0.90       ----

> <Gold.Chemscore.Fitness>
11.8225

> <Gold.Chemscore.DG>
-12.7794

> <Gold.Chemscore.ZeroCoef>
-5.4800

> <Gold.Chemscore.Hbond>
0.9898

> <Gold.Chemscore.Metal>
0.0000

> <Gold.Chemscore.Lipo>
67.4815

> <Gold.Chemscore.Internal_Hbond>
0.0000

> <Gold.Chemscore.DEClash>
0.0584

> <Gold.Chemscore.DEInternal>
0.8985

> <Gold.Chemscore.Rot>
1.5242

> <Gold.Chemscore.Internal.Correction>
   9.000000E+99

> <Gold.Chemscore.Hbonds>
donor molecule, donor type, donor heavy atom, donor atom, acceptor molecule, acceptor atom, score
      P1  H  7997  8009       L1    19  0.95

> <Gold.Chemscore.Hbond.Weighted>
-3.3059

> <Gold.Chemscore.Metal.Weighted>
-0.0000

> <Gold.Chemscore.Lipo.Weighted>
-7.8953

> <Gold.Chemscore.Internal_Hbond.Weighted>
0.0000

> <Gold.Chemscore.DEClash.Weighted>
0.0584

> <Gold.Chemscore.DEInternal.Weighted>
0.8985

> <Gold.Chemscore.Rot.Weighted>
3.9019

> <Gold.Chemscore.Internal.Correction.Weighted>
   9.000000E+99

> <Gold.Protein.RotatedTorsions>
[ 6907 6896 6895 6894 ] final  158.77 input  -60.11 | X-H torsion
[ 7974 7965 7964 7962 ] final   41.32 input  175.53 | X-H torsion
[ 8008 7997 7996 7995 ] final  157.58 input   59.86 | X-H torsion
[ 10167 10162 10161 10158 ] final -149.66 input  -65.29 | X-H torsion
[ 10718 10713 10712 10709 ] final  -91.55 input   66.30 | X-H torsion
[ 10763 10752 10751 10750 ] final -145.60 input  -60.55 | X-H torsion
[ 11005 11000 10999 10996 ] final   80.25 input  -57.11 | X-H torsion

> <Gold.Protein.ActiveResidues>
 VAL166  LYS551  ARG553  GLY616  TRP617  ASP618  TYR619  PRO620  LYS621  CYS622 
 ASP623  PHE694  ASN695  SER759  ASP760  ASP761  ALA762  ILE779  LEU786  VAL792 
 PHE793  MET794  SER795  GLU796  ALA797  LYS798  CYS799  TRP800  GLU811  SER814 

> <Gold.Protein.RotatedAtoms>
  151.9955  133.3806  159.4161 H   0  0  0  0  0  0  0  0  0  0  0  0  # atno 6907 bound_to 6896
  150.6916  134.3890  159.5077 H   0  0  0  0  0  0  0  0  0  0  0  0  # atno 6908 bound_to 6896
  152.1630  134.8897  160.0591 H   0  0  0  0  0  0  0  0  0  0  0  0  # atno 6909 bound_to 6896
  146.0833  139.5429  142.9523 H   0  0  0  0  0  0  0  0  0  0  0  0  # atno 7974 bound_to 7965
  156.2355  140.1881  156.7130 H   0  0  0  0  0  0  0  0  0  0  0  0  # atno 8008 bound_to 7997
  154.6099  140.0623  156.9507 H   0  0  0  0  0  0  0  0  0  0  0  0  # atno 8009 bound_to 7997
  155.2033  140.3294  155.4342 H   0  0  0  0  0  0  0  0  0  0  0  0  # atno 8010 bound_to 7997
  139.7423  143.8643  152.2565 H   0  0  0  0  0  0  0  0  0  0  0  0  # atno 10167 bound_to 10162
  155.9994  130.4952  150.5491 H   0  0  0  0  0  0  0  0  0  0  0  0  # atno 10718 bound_to 10713
  154.8376  135.3409  154.6529 H   0  0  0  0  0  0  0  0  0  0  0  0  # atno 10763 bound_to 10752
  153.7143  135.6962  153.5034 H   0  0  0  0  0  0  0  0  0  0  0  0  # atno 10764 bound_to 10752
  153.2428  135.4379  155.0670 H   0  0  0  0  0  0  0  0  0  0  0  0  # atno 10765 bound_to 10752
  139.9141  134.7906  156.1885 H   0  0  0  0  0  0  0  0  0  0  0  0  # atno 11005 bound_to 11000
  145.6177  141.0328  143.1932 LP  0  0  0  0  0  0  0  0  0  0  0  0  # atno 17320 bound_to 7965
  144.7308  139.7732  143.7348 LP  0  0  0  0  0  0  0  0  0  0  0  0  # atno 17321 bound_to 7965
  139.8597  144.7123  150.9114 LP  0  0  0  0  0  0  0  0  0  0  0  0  # atno 17342 bound_to 10162
  140.7787  143.3828  151.1447 LP  0  0  0  0  0  0  0  0  0  0  0  0  # atno 17343 bound_to 10162
  157.3417  131.0718  151.1783 LP  0  0  0  0  0  0  0  0  0  0  0  0  # atno 17370 bound_to 10713
  157.2629  130.6667  149.5983 LP  0  0  0  0  0  0  0  0  0  0  0  0  # atno 17371 bound_to 10713
  141.0599  133.6847  156.1931 LP  0  0  0  0  0  0  0  0  0  0  0  0  # atno 17394 bound_to 11000
  140.6678  134.4900  157.5586 LP  0  0  0  0  0  0  0  0  0  0  0  0  # atno 17395 bound_to 11000

$$$$
