AV-unprocessed.smi:2299|AV-procd|sdf|9231|dock5
  -GOLD-   2272012453D 1   1.00000     0.00000
 Structure written by MMmdl.
 42 43  0  0  0  0  0  0  0  0  1 V2000
  152.5598  143.0269  162.3212 C   0  0  0  0  0  0  0  0  0  0  0  0
  152.4381  142.2484  161.0032 C   0  0  0  0  0  0  0  0  0  0  0  0
  153.7561  141.5621  160.6160 C   0  0  0  0  0  0  0  0  0  0  0  0
  151.9203  143.1229  159.8927 C   0  0  0  0  0  0  0  0  0  0  0  0
  151.6473  144.4154  160.0565 N   0  0  0  0  0  0  0  0  0  0  0  0
  151.1795  144.8475  158.8221 C   0  0  0  0  0  0  0  0  0  0  0  0
  151.1803  143.7926  157.9438 C   0  0  0  0  0  0  0  0  0  0  0  0
  151.6545  142.6873  158.6402 N   0  0  0  0  0  0  0  0  0  0  0  0
  151.8003  141.3518  158.0795 C   0  0  0  0  0  0  0  0  0  0  0  0
  150.5048  140.8944  157.4068 C   0  0  0  0  0  0  0  0  0  0  0  0
  149.5642  140.4935  158.0921 O   0  0  0  0  0  0  0  0  0  0  0  0
  150.4737  140.9502  156.0664 N   0  0  0  0  0  0  0  0  0  0  0  0
  149.3721  140.5002  155.2156 C   0  0  1  0  0  0  0  0  0  0  0  0
  148.7578  141.6971  154.4563 C   0  0  0  0  0  0  0  0  0  0  0  0
  147.3110  141.4632  153.9916 C   0  0  0  0  0  0  0  0  0  0  0  0
  147.1329  140.3188  152.9824 C   0  0  0  0  0  0  0  0  0  0  0  0
  147.4679  138.9300  153.5542 C   0  0  0  0  0  0  0  0  0  0  0  0
  148.9021  138.6731  153.5966 N   0  0  0  0  0  0  0  0  0  0  0  0
  149.8234  139.3395  154.3088 C   0  0  0  0  0  0  0  0  0  0  0  0
  151.0134  139.0336  154.2340 O   0  0  0  0  0  0  0  0  0  0  0  0
  151.5984  143.4493  162.6149 H   0  0  0  0  0  0  0  0  0  0  0  0
  153.2730  143.8474  162.2355 H   0  0  0  0  0  0  0  0  0  0  0  0
  152.8946  142.3786  163.1314 H   0  0  0  0  0  0  0  0  0  0  0  0
  151.7247  141.4473  161.1832 H   0  0  0  0  0  0  0  0  0  0  0  0
  153.6349  140.9643  159.7120 H   0  0  0  0  0  0  0  0  0  0  0  0
  154.0989  140.8958  161.4081 H   0  0  0  0  0  0  0  0  0  0  0  0
  154.5460  142.2907  160.4307 H   0  0  0  0  0  0  0  0  0  0  0  0
  150.8785  145.8725  158.6638 H   0  0  0  0  0  0  0  0  0  0  0  0
  150.8831  143.7361  156.9069 H   0  0  0  0  0  0  0  0  0  0  0  0
  152.5988  141.3674  157.3366 H   0  0  0  0  0  0  0  0  0  0  0  0
  152.1175  140.6562  158.8571 H   0  0  0  0  0  0  0  0  0  0  0  0
  151.2949  141.2921  155.5882 H   0  0  0  0  0  0  0  0  0  0  0  0
  148.6114  140.0865  155.8804 H   0  0  0  0  0  0  0  0  0  0  0  0
  148.7514  142.5755  155.1031 H   0  0  0  0  0  0  0  0  0  0  0  0
  149.3863  141.9638  153.6052 H   0  0  0  0  0  0  0  0  0  0  0  0
  146.6754  141.2845  154.8598 H   0  0  0  0  0  0  0  0  0  0  0  0
  146.9415  142.3839  153.5391 H   0  0  0  0  0  0  0  0  0  0  0  0
  146.0903  140.3140  152.6625 H   0  0  0  0  0  0  0  0  0  0  0  0
  147.7194  140.5110  152.0829 H   0  0  0  0  0  0  0  0  0  0  0  0
  147.0263  138.7927  154.5422 H   0  0  0  0  0  0  0  0  0  0  0  0
  147.0270  138.1652  152.9144 H   0  0  0  0  0  0  0  0  0  0  0  0
  149.2340  137.9166  153.0157 H   0  0  0  0  0  0  0  0  0  0  0  0
  1  2  1  0  0  0  0
  1 21  1  0  0  0  0
  1 22  1  0  0  0  0
  1 23  1  0  0  0  0
  2  3  1  0  0  0  0
  2  4  1  0  0  0  0
  2 24  1  0  0  0  0
  3 25  1  0  0  0  0
  3 26  1  0  0  0  0
  3 27  1  0  0  0  0
  4  8  1  0  0  0  0
  4  5  2  0  0  0  0
  5  6  1  0  0  0  0
  6  7  2  0  0  0  0
  6 28  1  0  0  0  0
  7  8  1  0  0  0  0
  7 29  1  0  0  0  0
  8  9  1  0  0  0  0
  9 10  1  0  0  0  0
  9 30  1  0  0  0  0
  9 31  1  0  0  0  0
 10 11  2  0  0  0  0
 10 12  1  0  0  0  0
 12 13  1  0  0  0  0
 12 32  1  0  0  0  0
 13 19  1  0  0  0  0
 13 14  1  0  0  0  0
 13 33  1  0  0  0  0
 14 15  1  0  0  0  0
 14 34  1  0  0  0  0
 14 35  1  0  0  0  0
 15 16  1  0  0  0  0
 15 36  1  0  0  0  0
 15 37  1  0  0  0  0
 16 17  1  0  0  0  0
 16 38  1  0  0  0  0
 16 39  1  0  0  0  0
 17 18  1  0  0  0  0
 17 40  1  0  0  0  0
 17 41  1  0  0  0  0
 18 19  1  0  0  0  0
 18 42  1  0  0  0  0
 19 20  2  0  0  0  0
M  END
> <s_m_source_file>
AV-unprocessed.smi

> <i_m_source_file_index>
2299

> <i_lp_mmshare_version>
43012

> <i_f3d_flags>
0

> <s_epik_input>
W0NIM11bQ0hdKFtDSDNdKWMxbltjSF1bY0hdbjFbQ0gyXUMoPU8pW05IXVtDQEBIXTJbQ0gyXVtDSDJdW0NIMl1bQ0gyXVtOSF1DMj1P

> <s_epik_cmdline>
J2VwaWtfcHl0aG9uJywgJy1waCcsICc3LjAnLCAnLXRuJywgJzgnLCAnLW1hJywgJzIwMCcsICctbWV0YWxfYmluZGluZycsICctaW1hZScsICc8aW5maWxlLm1hZT4nLCAnLW9tYWUnLCAnPG91dGZpbGUubWFlPic=

> <r_lp_tautomer_probability>
1

> <r_epik_Ionization_Penalty>
0.557868

> <r_epik_Ionization_Penalty_Charging>
0.557868

> <r_epik_Ionization_Penalty_Neutral>
1.99744e-07

> <r_epik_State_Penalty>
0.568774

> <r_epik_Charging_Adjusted_Penalty>
1.12664

> <i_epik_Tot_Q>
0

> <i_epik_Tot_abs_Q>
0

> <r_epik_Metal_State_Penalty>
0.289303

> <b_epik_Metal_Only>
0

> <s_lp_Force_Field>
OPLS_2005

> <r_lp_Energy>
10.2382

> <b_lp_Chiralities_Consistent>
1

> <s_lp_Variant>
AV-unprocessed.smi:2299-4

> <Gold.Version>
5.8.1

> <Gold.Id.Protein>
6NUR|6NUR_protein|mol2

> <Gold.PLP.Fitness>
54.1439

> <Gold.PLP.PLP>
-46.1906

> <Gold.PLP.part.hbond>
-3.0000

> <Gold.PLP.part.metal>
0.0000

> <Gold.PLP.part.buried>
-2.6377

> <Gold.PLP.part.nonpolar>
-40.9601

> <Gold.PLP.part.repulsive>
0.4076

> <Gold.PLP.ligand.clash>
0.0000

> <Gold.PLP.ligand.torsion>
0.3344

> <Gold.PLP.Chemscore.Hbond>
1.8500

> <Gold.PLP.Chemscore.CHOScore>
1.0000

> <Gold.PLP.Chemscore.Metal>
0.0000

> <Gold.Chemscore.Hbonds>
donor molecule, donor type, donor heavy atom, donor atom, acceptor molecule, acceptor atom, score
      L1  H    18    42       P1  7948  1.00
      P1  H  7989  7998       L1    20  0.74
      L1  C     7    29       P1  8028  0.99

> <Gold.PLP.Chemscore.Internal.Correction>
0.0721

> <Gold.Rescore>
     Score         DG    S(hbond)    S(metal)    S(lipo)     H(rot)  DE(clash)    DE(int)     intcor
     16.51     -16.94       1.28        0.00      98.46       1.70       0.16       0.27       ----

> <Gold.Chemscore.Fitness>
16.5074

> <Gold.Chemscore.DG>
-16.9382

> <Gold.Chemscore.ZeroCoef>
-5.4800

> <Gold.Chemscore.Hbond>
1.2849

> <Gold.Chemscore.Metal>
0.0000

> <Gold.Chemscore.Lipo>
98.4576

> <Gold.Chemscore.Internal_Hbond>
0.0000

> <Gold.Chemscore.DEClash>
0.1575

> <Gold.Chemscore.DEInternal>
0.2733

> <Gold.Chemscore.Rot>
1.7004

> <Gold.Chemscore.Internal.Correction>
   9.000000E+99

> <Gold.Chemscore.Hbonds>
donor molecule, donor type, donor heavy atom, donor atom, acceptor molecule, acceptor atom, score
      L1  H    18    42       P1  7948  0.89
      P1  H  7989  7998       L1    20  0.10

> <Gold.Chemscore.Hbond.Weighted>
-4.2917

> <Gold.Chemscore.Metal.Weighted>
-0.0000

> <Gold.Chemscore.Lipo.Weighted>
-11.5195

> <Gold.Chemscore.Internal_Hbond.Weighted>
0.0000

> <Gold.Chemscore.DEClash.Weighted>
0.1575

> <Gold.Chemscore.DEInternal.Weighted>
0.2733

> <Gold.Chemscore.Rot.Weighted>
4.3530

> <Gold.Chemscore.Internal.Correction.Weighted>
   9.000000E+99

> <Gold.Protein.RotatedTorsions>
[ 6907 6896 6895 6894 ] final   28.80 input  -60.11 | X-H torsion
[ 7974 7965 7964 7962 ] final -143.50 input  175.53 | X-H torsion
[ 8008 7997 7996 7995 ] final -163.89 input   59.86 | X-H torsion
[ 10167 10162 10161 10158 ] final  120.63 input  -65.29 | X-H torsion
[ 10718 10713 10712 10709 ] final  136.98 input   66.30 | X-H torsion
[ 10763 10752 10751 10750 ] final  -55.64 input  -60.55 | X-H torsion
[ 11005 11000 10999 10996 ] final -131.44 input  -57.11 | X-H torsion

> <Gold.Protein.ActiveResidues>
 VAL166  LYS551  ARG553  GLY616  TRP617  ASP618  TYR619  PRO620  LYS621  CYS622 
 ASP623  PHE694  ASN695  SER759  ASP760  ASP761  ALA762  ILE779  LEU786  VAL792 
 PHE793  MET794  SER795  GLU796  ALA797  LYS798  CYS799  TRP800  GLU811  SER814 

> <Gold.Protein.RotatedAtoms>
  152.0223  134.9816  160.0570 H   0  0  0  0  0  0  0  0  0  0  0  0  # atno 6907 bound_to 6896
  152.1325  133.4411  159.4736 H   0  0  0  0  0  0  0  0  0  0  0  0  # atno 6908 bound_to 6896
  150.6857  134.2322  159.4482 H   0  0  0  0  0  0  0  0  0  0  0  0  # atno 6909 bound_to 6896
  144.8365  140.5826  143.5481 H   0  0  0  0  0  0  0  0  0  0  0  0  # atno 7974 bound_to 7965
  155.8278  140.0929  157.1811 H   0  0  0  0  0  0  0  0  0  0  0  0  # atno 8008 bound_to 7997
  154.3979  140.1424  156.3637 H   0  0  0  0  0  0  0  0  0  0  0  0  # atno 8009 bound_to 7997
  155.8198  140.3446  155.5510 H   0  0  0  0  0  0  0  0  0  0  0  0  # atno 8010 bound_to 7997
  139.5970  144.7045  151.3153 H   0  0  0  0  0  0  0  0  0  0  0  0  # atno 10167 bound_to 10162
  157.4409  131.1057  151.0144 H   0  0  0  0  0  0  0  0  0  0  0  0  # atno 10718 bound_to 10713
  154.1940  135.6422  153.5068 H   0  0  0  0  0  0  0  0  0  0  0  0  # atno 10763 bound_to 10752
  153.0028  135.5435  154.6386 H   0  0  0  0  0  0  0  0  0  0  0  0  # atno 10764 bound_to 10752
  154.5782  135.2923  155.0733 H   0  0  0  0  0  0  0  0  0  0  0  0  # atno 10765 bound_to 10752
  140.9258  134.1384  157.4276 H   0  0  0  0  0  0  0  0  0  0  0  0  # atno 11005 bound_to 11000
  145.4785  139.1497  143.3775 LP  0  0  0  0  0  0  0  0  0  0  0  0  # atno 17320 bound_to 7965
  146.2663  140.4920  142.8833 LP  0  0  0  0  0  0  0  0  0  0  0  0  # atno 17321 bound_to 7965
  140.7219  143.7111  150.7769 LP  0  0  0  0  0  0  0  0  0  0  0  0  # atno 17342 bound_to 10162
  140.0679  143.5090  152.2595 LP  0  0  0  0  0  0  0  0  0  0  0  0  # atno 17343 bound_to 10162
  157.1007  130.5981  149.5459 LP  0  0  0  0  0  0  0  0  0  0  0  0  # atno 17370 bound_to 10713
  155.9948  130.5013  150.7435 LP  0  0  0  0  0  0  0  0  0  0  0  0  # atno 17371 bound_to 10713
  139.8785  134.9988  156.5918 LP  0  0  0  0  0  0  0  0  0  0  0  0  # atno 17394 bound_to 11000
  140.7928  133.8568  155.8660 LP  0  0  0  0  0  0  0  0  0  0  0  0  # atno 17395 bound_to 11000

$$$$
