AV-unprocessed.smi:1773|AV-procd|sdf|7163|dock6
  -GOLD-   22720 8403D 1   1.00000     0.00000
 Structure written by MMmdl.
 40 41  0  0  0  0  0  0  0  0  1 V2000
  144.3912  134.6017  150.4775 C   0  0  0  0  0  0  0  0  0  0  0  0
  144.9724  133.3149  151.0409 C   0  0  0  0  0  0  0  0  0  0  0  0
  144.4375  132.0765  150.6266 C   0  0  0  0  0  0  0  0  0  0  0  0
  144.9758  130.8879  151.1484 C   0  0  0  0  0  0  0  0  0  0  0  0
  146.0328  130.9887  152.0691 C   0  0  0  0  0  0  0  0  0  0  0  0
  146.5502  132.1678  152.4703 N   0  0  0  0  0  0  0  0  0  0  0  0
  146.0424  133.3248  151.9758 C   0  0  0  0  0  0  0  0  0  0  0  0
  146.5393  134.6048  152.3519 N   0  0  0  0  0  0  0  0  0  0  0  0
  145.9047  135.5900  153.0114 C   0  0  0  0  0  0  0  0  0  0  0  0
  144.7374  135.5509  153.4013 O   0  0  0  0  0  0  0  0  0  0  0  0
  146.7111  136.6467  153.1896 N   0  0  0  0  0  0  0  0  0  0  0  0
  146.3503  137.8943  153.8616 C   0  0  0  0  0  0  0  0  0  0  0  0
  147.3803  139.0294  153.6366 C   0  0  0  0  0  0  0  0  0  0  0  0
  147.7684  138.9636  152.2755 O   0  0  0  0  0  0  0  0  0  0  0  0
  146.8136  140.4403  153.9396 C   0  0  0  0  0  0  0  0  0  0  0  0
  147.8768  141.5500  153.8505 C   0  0  0  0  0  0  0  0  0  0  0  0
  149.0871  141.2439  154.7431 C   0  0  0  0  0  0  0  0  0  0  0  0
  149.6935  139.8781  154.3937 C   0  0  0  0  0  0  0  0  0  0  0  0
  148.6415  138.7588  154.4923 C   0  0  0  0  0  0  0  0  0  0  0  0
  143.5903  134.3979  149.7661 H   0  0  0  0  0  0  0  0  0  0  0  0
  145.1612  135.1743  149.9595 H   0  0  0  0  0  0  0  0  0  0  0  0
  143.9801  135.2171  151.2781 H   0  0  0  0  0  0  0  0  0  0  0  0
  143.6241  132.0345  149.9172 H   0  0  0  0  0  0  0  0  0  0  0  0
  144.5889  129.9244  150.8513 H   0  0  0  0  0  0  0  0  0  0  0  0
  146.4758  130.1005  152.4946 H   0  0  0  0  0  0  0  0  0  0  0  0
  147.4962  134.7893  152.0900 H   0  0  0  0  0  0  0  0  0  0  0  0
  147.6511  136.5919  152.8261 H   0  0  0  0  0  0  0  0  0  0  0  0
  145.3636  138.2219  153.5300 H   0  0  0  0  0  0  0  0  0  0  0  0
  146.2450  137.6867  154.9273 H   0  0  0  0  0  0  0  0  0  0  0  0
  148.1175  138.1018  152.1068 H   0  0  0  0  0  0  0  0  0  0  0  0
  145.9950  140.6818  153.2609 H   0  0  0  0  0  0  0  0  0  0  0  0
  146.3863  140.4447  154.9434 H   0  0  0  0  0  0  0  0  0  0  0  0
  148.2046  141.6655  152.8166 H   0  0  0  0  0  0  0  0  0  0  0  0
  147.4371  142.5049  154.1398 H   0  0  0  0  0  0  0  0  0  0  0  0
  149.8395  142.0252  154.6315 H   0  0  0  0  0  0  0  0  0  0  0  0
  148.7826  141.2535  155.7904 H   0  0  0  0  0  0  0  0  0  0  0  0
  150.1121  139.9081  153.3870 H   0  0  0  0  0  0  0  0  0  0  0  0
  150.5256  139.6614  155.0640 H   0  0  0  0  0  0  0  0  0  0  0  0
  148.3489  138.6540  155.5381 H   0  0  0  0  0  0  0  0  0  0  0  0
  149.0927  137.8062  154.2111 H   0  0  0  0  0  0  0  0  0  0  0  0
  1  2  1  0  0  0  0
  1 20  1  0  0  0  0
  1 21  1  0  0  0  0
  1 22  1  0  0  0  0
  2  7  1  0  0  0  0
  2  3  2  0  0  0  0
  3  4  1  0  0  0  0
  3 23  1  0  0  0  0
  4  5  2  0  0  0  0
  4 24  1  0  0  0  0
  5  6  1  0  0  0  0
  5 25  1  0  0  0  0
  6  7  2  0  0  0  0
  7  8  1  0  0  0  0
  8  9  1  0  0  0  0
  8 26  1  0  0  0  0
  9 10  2  0  0  0  0
  9 11  1  0  0  0  0
 11 12  1  0  0  0  0
 11 27  1  0  0  0  0
 12 13  1  0  0  0  0
 12 28  1  0  0  0  0
 12 29  1  0  0  0  0
 13 19  1  0  0  0  0
 13 14  1  0  0  0  0
 13 15  1  0  0  0  0
 14 30  1  0  0  0  0
 15 16  1  0  0  0  0
 15 31  1  0  0  0  0
 15 32  1  0  0  0  0
 16 17  1  0  0  0  0
 16 33  1  0  0  0  0
 16 34  1  0  0  0  0
 17 18  1  0  0  0  0
 17 35  1  0  0  0  0
 17 36  1  0  0  0  0
 18 19  1  0  0  0  0
 18 37  1  0  0  0  0
 18 38  1  0  0  0  0
 19 39  1  0  0  0  0
 19 40  1  0  0  0  0
M  END
> <s_m_source_file>
AV-unprocessed.smi

> <i_m_source_file_index>
1773

> <i_lp_mmshare_version>
43012

> <i_f3d_flags>
0

> <s_epik_input>
W0NIM11jMVtjSF1bY0hdW2NIXW5jMVtOSF1DKD1PKVtOSF1bQ0gyXUMyKFtPSF0pW0NIMl1bQ0gyXVtDSDJdW0NIMl1bQ0gyXTI=

> <s_epik_cmdline>
J2VwaWtfcHl0aG9uJywgJy1waCcsICc3LjAnLCAnLXRuJywgJzgnLCAnLW1hJywgJzIwMCcsICctbWV0YWxfYmluZGluZycsICctaW1hZScsICc8aW5maWxlLm1hZT4nLCAnLW9tYWUnLCAnPG91dGZpbGUubWFlPic=

> <r_lp_tautomer_probability>
1

> <r_epik_Ionization_Penalty>
6.74357e-05

> <r_epik_Ionization_Penalty_Charging>
0

> <r_epik_Ionization_Penalty_Neutral>
6.74357e-05

> <r_epik_State_Penalty>
-0

> <r_epik_Charging_Adjusted_Penalty>
0

> <i_epik_Tot_Q>
0

> <i_epik_Tot_abs_Q>
0

> <r_epik_Metal_State_Penalty>
-0

> <b_epik_Metal_Only>
0

> <s_lp_Force_Field>
OPLS_2005

> <r_lp_Energy>
17.1315

> <b_lp_Chiralities_Consistent>
1

> <s_lp_Variant>
AV-unprocessed.smi:1773-1

> <Gold.Version>
5.8.1

> <Gold.Id.Protein>
6NUR|6NUR_protein|mol2

> <Gold.PLP.Fitness>
41.4828

> <Gold.PLP.PLP>
-34.4394

> <Gold.PLP.part.hbond>
-3.4867

> <Gold.PLP.part.metal>
0.0000

> <Gold.PLP.part.buried>
-5.8896

> <Gold.PLP.part.nonpolar>
-25.4393

> <Gold.PLP.part.repulsive>
0.1949

> <Gold.PLP.ligand.clash>
0.0000

> <Gold.PLP.ligand.torsion>
0.9006

> <Gold.PLP.Chemscore.Hbond>
2.9440

> <Gold.PLP.Chemscore.CHOScore>
0.0000

> <Gold.PLP.Chemscore.Metal>
0.0000

> <Gold.Chemscore.Hbonds>
donor molecule, donor type, donor heavy atom, donor atom, acceptor molecule, acceptor atom, score
      L1  H     8    26       P1  7948  0.94
      L1  H    11    27       P1  7948  1.00
      L1  H    14    30       P1  7948  0.99

> <Gold.PLP.Chemscore.Internal.Correction>
0.0126

> <Gold.Rescore>
     Score         DG    S(hbond)    S(metal)    S(lipo)     H(rot)  DE(clash)    DE(int)     intcor
     18.64     -19.66       2.75        0.00      80.80       1.73       0.00       1.02       ----

> <Gold.Chemscore.Fitness>
18.6420

> <Gold.Chemscore.DG>
-19.6639

> <Gold.Chemscore.ZeroCoef>
-5.4800

> <Gold.Chemscore.Hbond>
2.7452

> <Gold.Chemscore.Metal>
0.0000

> <Gold.Chemscore.Lipo>
80.8003

> <Gold.Chemscore.Internal_Hbond>
0.0000

> <Gold.Chemscore.DEClash>
0.0043

> <Gold.Chemscore.DEInternal>
1.0176

> <Gold.Chemscore.Rot>
1.7339

> <Gold.Chemscore.Internal.Correction>
   9.000000E+99

> <Gold.Chemscore.Hbonds>
donor molecule, donor type, donor heavy atom, donor atom, acceptor molecule, acceptor atom, score
      L1  H     8    26       P1  7948  0.71
      L1  H    11    27       P1  7948  1.00
      L1  H    14    30       P1  7948  0.92

> <Gold.Chemscore.Hbond.Weighted>
-9.1689

> <Gold.Chemscore.Metal.Weighted>
-0.0000

> <Gold.Chemscore.Lipo.Weighted>
-9.4536

> <Gold.Chemscore.Internal_Hbond.Weighted>
0.0000

> <Gold.Chemscore.DEClash.Weighted>
0.0043

> <Gold.Chemscore.DEInternal.Weighted>
1.0176

> <Gold.Chemscore.Rot.Weighted>
4.4387

> <Gold.Chemscore.Internal.Correction.Weighted>
   9.000000E+99

> <Gold.Protein.RotatedTorsions>
[ 6907 6896 6895 6894 ] final  109.42 input  -60.11 | X-H torsion
[ 7974 7965 7964 7962 ] final -132.46 input  175.53 | X-H torsion
[ 8008 7997 7996 7995 ] final   85.12 input   59.86 | X-H torsion
[ 10167 10162 10161 10158 ] final   87.90 input  -65.29 | X-H torsion
[ 10718 10713 10712 10709 ] final -132.11 input   66.30 | X-H torsion
[ 10763 10752 10751 10750 ] final   72.89 input  -60.55 | X-H torsion
[ 11005 11000 10999 10996 ] final   80.52 input  -57.11 | X-H torsion

> <Gold.Protein.ActiveResidues>
 VAL166  LYS551  ARG553  GLY616  TRP617  ASP618  TYR619  PRO620  LYS621  CYS622 
 ASP623  PHE694  ASN695  SER759  ASP760  ASP761  ALA762  ILE779  LEU786  VAL792 
 PHE793  MET794  SER795  GLU796  ALA797  LYS798  CYS799  TRP800  GLU811  SER814 

> <Gold.Protein.RotatedAtoms>
  152.5068  133.8947  159.7411 H   0  0  0  0  0  0  0  0  0  0  0  0  # atno 6907 bound_to 6896
  150.9377  133.6684  159.2804 H   0  0  0  0  0  0  0  0  0  0  0  0  # atno 6908 bound_to 6896
  151.4006  135.0975  159.9607 H   0  0  0  0  0  0  0  0  0  0  0  0  # atno 6909 bound_to 6896
  144.9283  140.7098  143.4921 H   0  0  0  0  0  0  0  0  0  0  0  0  # atno 7974 bound_to 7965
  155.9459  140.3404  155.6366 H   0  0  0  0  0  0  0  0  0  0  0  0  # atno 8008 bound_to 7997
  155.6981  140.0757  157.2439 H   0  0  0  0  0  0  0  0  0  0  0  0  # atno 8009 bound_to 7997
  154.4112  140.1645  156.2148 H   0  0  0  0  0  0  0  0  0  0  0  0  # atno 8010 bound_to 7997
  139.8727  144.6484  150.8931 H   0  0  0  0  0  0  0  0  0  0  0  0  # atno 10167 bound_to 10162
  156.2312  130.7039  151.0860 H   0  0  0  0  0  0  0  0  0  0  0  0  # atno 10718 bound_to 10713
  153.0487  135.5083  154.7811 H   0  0  0  0  0  0  0  0  0  0  0  0  # atno 10763 bound_to 10752
  154.6691  135.2950  154.9768 H   0  0  0  0  0  0  0  0  0  0  0  0  # atno 10764 bound_to 10752
  154.0593  135.6693  153.4862 H   0  0  0  0  0  0  0  0  0  0  0  0  # atno 10765 bound_to 10752
  139.9131  134.7927  156.1921 H   0  0  0  0  0  0  0  0  0  0  0  0  # atno 11005 bound_to 11000
  145.3183  139.1796  143.4602 LP  0  0  0  0  0  0  0  0  0  0  0  0  # atno 17320 bound_to 7965
  146.3236  140.3196  142.8632 LP  0  0  0  0  0  0  0  0  0  0  0  0  # atno 17321 bound_to 7965
  140.7758  143.3650  151.1755 LP  0  0  0  0  0  0  0  0  0  0  0  0  # atno 17342 bound_to 10162
  139.7269  143.9134  152.3006 LP  0  0  0  0  0  0  0  0  0  0  0  0  # atno 17343 bound_to 10162
  157.7134  131.0722  150.6418 LP  0  0  0  0  0  0  0  0  0  0  0  0  # atno 17370 bound_to 10713
  156.6486  130.4478  149.5727 LP  0  0  0  0  0  0  0  0  0  0  0  0  # atno 17371 bound_to 10713
  141.0577  133.6857  156.1893 LP  0  0  0  0  0  0  0  0  0  0  0  0  # atno 17394 bound_to 11000
  140.6710  134.4868  157.5587 LP  0  0  0  0  0  0  0  0  0  0  0  0  # atno 17395 bound_to 11000

$$$$
