AV-unprocessed.smi:21|AV-procd|sdf|131|dock4
  -GOLD-   2262015313D 1   1.00000     0.00000
 Structure written by MMmdl.
 62 65  0  0  0  0  0  0  0  0  2 V2000
  144.8556  134.9019  150.4879 C   0  0  0  0  0  0  0  0  0  0  0  0
  144.6152  133.5034  150.4829 O   0  0  0  0  0  0  0  0  0  0  0  0
  145.7618  132.7255  150.1635 C   0  0  1  0  0  0  0  0  0  0  0  0
  146.8967  133.1132  151.1028 C   0  0  0  0  0  0  0  0  0  0  0  0
  146.5927  132.3368  152.3898 C   0  0  2  0  0  0  0  0  0  0  0  0
  147.8325  132.1048  153.2914 C   0  0  0  0  0  0  0  0  0  0  0  0
  147.5183  132.1412  154.7196 N   0  0  0  0  0  0  0  0  0  0  0  0
  146.5572  131.1659  155.2342 C   0  0  0  0  0  0  0  0  0  0  0  0
  148.3100  132.8203  155.6037 C   0  0  0  0  0  0  0  0  0  0  0  0
  148.2674  132.4514  156.9134 N   0  0  0  0  0  0  0  0  0  0  0  0
  149.0242  133.0607  157.8285 C   0  0  0  0  0  0  0  0  0  0  0  0
  149.8905  134.0580  157.6598 N   0  0  0  0  0  0  0  0  0  0  0  0
  149.9416  134.4493  156.3558 C   0  0  0  0  0  0  0  0  0  0  0  0
  149.1948  133.8961  155.2728 C   0  0  0  0  0  0  0  0  0  0  0  0
  149.5279  134.5708  154.1008 N   0  0  0  0  0  0  0  0  0  0  0  0
  150.4134  135.4553  154.4661 C   0  0  0  0  0  0  0  0  0  0  0  0
  150.7109  135.4611  155.8079 N   0  0  0  0  0  0  0  0  0  0  0  0
  151.6682  136.3225  156.4812 C   0  0  0  0  0  0  0  0  0  0  0  0
  152.2880  137.4252  155.5832 C   0  0  2  0  0  0  0  0  0  0  0  0
  153.6451  137.8416  156.2025 C   0  0  0  0  0  0  0  0  0  0  0  0
  154.5150  136.7396  156.3577 O   0  0  0  0  0  0  0  0  0  0  0  0
  151.3366  138.6440  155.3789 C   0  0  1  0  0  0  0  0  0  0  0  0
  151.9567  140.0087  155.6363 C   0  0  0  0  0  0  0  0  0  0  0  0
  150.9743  140.9459  154.9501 C   0  0  0  0  0  0  0  0  0  0  0  0
  150.5802  140.2486  153.7788 O   0  0  0  0  0  0  0  0  0  0  0  0
  150.8045  138.8522  153.9515 C   0  0  0  0  0  0  0  0  0  0  0  0
  145.8620  131.1103  151.9574 N   0  3  2  0  0  0  0  0  0  0  0  0
  146.4597  129.7966  152.2949 C   0  0  0  0  0  0  0  0  0  0  0  0
  145.5405  131.2513  150.5176 C   0  0  0  0  0  0  0  0  0  0  0  0
  146.0504  132.8690  149.1207 H   0  0  0  0  0  0  0  0  0  0  0  0
  145.8554  132.9139  152.9484 H   0  0  0  0  0  0  0  0  0  0  0  0
  143.9305  135.4287  150.7212 H   0  0  0  0  0  0  0  0  0  0  0  0
  145.2073  135.2579  149.5198 H   0  0  0  0  0  0  0  0  0  0  0  0
  145.5921  135.1698  151.2463 H   0  0  0  0  0  0  0  0  0  0  0  0
  147.8453  132.7786  150.6805 H   0  0  0  0  0  0  0  0  0  0  0  0
  146.9656  134.1897  151.2628 H   0  0  0  0  0  0  0  0  0  0  0  0
  148.3283  131.1640  153.0620 H   0  0  0  0  0  0  0  0  0  0  0  0
  148.5787  132.8717  153.0826 H   0  0  0  0  0  0  0  0  0  0  0  0
  145.8612  131.6397  155.9274 H   0  0  0  0  0  0  0  0  0  0  0  0
  147.0689  130.3563  155.7557 H   0  0  0  0  0  0  0  0  0  0  0  0
  145.9678  130.7233  154.4312 H   0  0  0  0  0  0  0  0  0  0  0  0
  148.9215  132.6959  158.8400 H   0  0  0  0  0  0  0  0  0  0  0  0
  150.8726  136.1357  153.7637 H   0  0  0  0  0  0  0  0  0  0  0  0
  151.1935  136.7742  157.3529 H   0  0  0  0  0  0  0  0  0  0  0  0
  152.4501  135.6687  156.8689 H   0  0  0  0  0  0  0  0  0  0  0  0
  152.4985  136.9792  154.6098 H   0  0  0  0  0  0  0  0  0  0  0  0
  154.1282  138.6131  155.6019 H   0  0  0  0  0  0  0  0  0  0  0  0
  153.5060  138.2625  157.1987 H   0  0  0  0  0  0  0  0  0  0  0  0
  155.3483  137.0559  156.6720 H   0  0  0  0  0  0  0  0  0  0  0  0
  150.4815  138.5390  156.0489 H   0  0  0  0  0  0  0  0  0  0  0  0
  152.0722  140.2375  156.6960 H   0  0  0  0  0  0  0  0  0  0  0  0
  152.9344  140.0822  155.1577 H   0  0  0  0  0  0  0  0  0  0  0  0
  150.0977  141.1079  155.5786 H   0  0  0  0  0  0  0  0  0  0  0  0
  151.4104  141.9165  154.7132 H   0  0  0  0  0  0  0  0  0  0  0  0
  151.5355  138.5358  153.2071 H   0  0  0  0  0  0  0  0  0  0  0  0
  149.8795  138.3052  153.7742 H   0  0  0  0  0  0  0  0  0  0  0  0
  147.4490  129.6822  151.8506 H   0  0  0  0  0  0  0  0  0  0  0  0
  145.8283  128.9915  151.9182 H   0  0  0  0  0  0  0  0  0  0  0  0
  146.5390  129.6645  153.3738 H   0  0  0  0  0  0  0  0  0  0  0  0
  144.5342  130.8951  150.2989 H   0  0  0  0  0  0  0  0  0  0  0  0
  146.2332  130.6455  149.9306 H   0  0  0  0  0  0  0  0  0  0  0  0
  144.9784  131.1458  152.4460 H   0  0  0  0  0  0  0  0  0  0  0  0
  1  2  1  0  0  0  0
  1 32  1  0  0  0  0
  1 33  1  0  0  0  0
  1 34  1  0  0  0  0
  2  3  1  0  0  0  0
  3 30  1  0  0  0  0
  3 29  1  0  0  0  0
  3  4  1  0  0  0  0
  4  5  1  0  0  0  0
  4 35  1  0  0  0  0
  4 36  1  0  0  0  0
  5 31  1  0  0  0  0
  5  6  1  0  0  0  0
  5 27  1  0  0  0  0
  6  7  1  0  0  0  0
  6 37  1  0  0  0  0
  6 38  1  0  0  0  0
  7  8  1  0  0  0  0
  7  9  1  0  0  0  0
  8 39  1  0  0  0  0
  8 40  1  0  0  0  0
  8 41  1  0  0  0  0
  9 14  1  0  0  0  0
  9 10  2  0  0  0  0
 10 11  1  0  0  0  0
 11 12  2  0  0  0  0
 11 42  1  0  0  0  0
 12 13  1  0  0  0  0
 13 17  1  0  0  0  0
 13 14  2  0  0  0  0
 14 15  1  0  0  0  0
 15 16  2  0  0  0  0
 16 17  1  0  0  0  0
 16 43  1  0  0  0  0
 17 18  1  0  0  0  0
 18 19  1  0  0  0  0
 18 44  1  0  0  0  0
 18 45  1  0  0  0  0
 19 20  1  0  0  0  0
 19 22  1  0  0  0  0
 19 46  1  0  0  0  0
 20 21  1  0  0  0  0
 20 47  1  0  0  0  0
 20 48  1  0  0  0  0
 21 49  1  0  0  0  0
 22 26  1  0  0  0  0
 22 23  1  0  0  0  0
 22 50  1  0  0  0  0
 23 24  1  0  0  0  0
 23 51  1  0  0  0  0
 23 52  1  0  0  0  0
 24 25  1  0  0  0  0
 24 53  1  0  0  0  0
 24 54  1  0  0  0  0
 25 26  1  0  0  0  0
 26 55  1  0  0  0  0
 26 56  1  0  0  0  0
 27 28  1  0  0  0  0
 27 29  1  0  0  0  0
 27 62  1  0  0  0  0
 28 57  1  0  0  0  0
 28 58  1  0  0  0  0
 28 59  1  0  0  0  0
 29 60  1  0  0  0  0
 29 61  1  0  0  0  0
M  CHG  1  27   1
M  END
> <s_m_source_file>
AV-unprocessed.smi

> <i_m_source_file_index>
21

> <i_lp_mmshare_version>
43012

> <i_f3d_flags>
0

> <s_epik_input>
W0NIM11PW0NASF0xW0NIMl1bQ0BIXShOKFtDSDNdKVtDSDJdMSlbQ0gyXU4oW0NIM10pYyhuW2NIXW4yKWMoYzIzKW5bY0hdbjNbQ0gyXVtDQEhdKFtDSDJdW09IXSlbQ0BASF00W0NIMl1bQ0gyXU9bQ0gyXTQ=

> <s_epik_cmdline>
J2VwaWtfcHl0aG9uJywgJy1waCcsICc3LjAnLCAnLXRuJywgJzgnLCAnLW1hJywgJzIwMCcsICctbWV0YWxfYmluZGluZycsICctaW1hZScsICc8aW5maWxlLm1hZT4nLCAnLW9tYWUnLCAnPG91dGZpbGUubWFlPic=

> <r_lp_tautomer_probability>
1

> <r_epik_Ionization_Penalty>
0.0157465

> <r_epik_Ionization_Penalty_Charging>
0.015354

> <r_epik_Ionization_Penalty_Neutral>
0.000392529

> <r_epik_State_Penalty>
0.0120612

> <r_epik_Charging_Adjusted_Penalty>
0.0274152

> <i_epik_Tot_Q>
1

> <i_epik_Tot_abs_Q>
1

> <r_epik_Metal_State_Penalty>
0.0121253

> <b_epik_Metal_Only>
0

> <s_lp_Force_Field>
OPLS_2005

> <r_lp_Energy>
62.3844

> <b_lp_Chiralities_Consistent>
1

> <s_lp_Variant>
AV-unprocessed.smi:21-11

> <Gold.Version>
5.8.1

> <Gold.Id.Protein>
6NUR|6NUR_protein|mol2

> <Gold.PLP.Fitness>
46.3361

> <Gold.PLP.PLP>
-39.7423

> <Gold.PLP.part.hbond>
-3.0000

> <Gold.PLP.part.metal>
0.0000

> <Gold.PLP.part.buried>
-4.2482

> <Gold.PLP.part.nonpolar>
-33.8459

> <Gold.PLP.part.repulsive>
1.1542

> <Gold.PLP.ligand.clash>
0.0000

> <Gold.PLP.ligand.torsion>
2.4050

> <Gold.PLP.Chemscore.Hbond>
2.9920

> <Gold.PLP.Chemscore.CHOScore>
0.5289

> <Gold.PLP.Chemscore.Metal>
0.0000

> <Gold.Chemscore.Hbonds>
donor molecule, donor type, donor heavy atom, donor atom, acceptor molecule, acceptor atom, score
      P1  H  6896  6907       L1    12  0.90
      P1  H 10752 10765       L1    21  0.69
      L1  C    16    43       P1  7949  0.80

> <Gold.PLP.Chemscore.Internal.Correction>
0.8413

> <Gold.Rescore>
     Score         DG    S(hbond)    S(metal)    S(lipo)     H(rot)  DE(clash)    DE(int)     intcor
     14.39     -17.01       2.53        0.00      93.54       3.08       0.14       2.48       ----

> <Gold.Chemscore.Fitness>
14.3935

> <Gold.Chemscore.DG>
-17.0054

> <Gold.Chemscore.ZeroCoef>
-5.4800

> <Gold.Chemscore.Hbond>
2.5316

> <Gold.Chemscore.Metal>
0.0000

> <Gold.Chemscore.Lipo>
93.5398

> <Gold.Chemscore.Internal_Hbond>
0.0000

> <Gold.Chemscore.DEClash>
0.1360

> <Gold.Chemscore.DEInternal>
2.4759

> <Gold.Chemscore.Rot>
3.0758

> <Gold.Chemscore.Internal.Correction>
   9.000000E+99

> <Gold.Chemscore.Hbonds>
donor molecule, donor type, donor heavy atom, donor atom, acceptor molecule, acceptor atom, score
      P1  H  6896  6907       L1    12  0.17
      P1  H 10752 10765       L1    21  0.60

> <Gold.Chemscore.Hbond.Weighted>
-8.4554

> <Gold.Chemscore.Metal.Weighted>
-0.0000

> <Gold.Chemscore.Lipo.Weighted>
-10.9442

> <Gold.Chemscore.Internal_Hbond.Weighted>
0.0000

> <Gold.Chemscore.DEClash.Weighted>
0.1360

> <Gold.Chemscore.DEInternal.Weighted>
2.4759

> <Gold.Chemscore.Rot.Weighted>
7.8741

> <Gold.Chemscore.Internal.Correction.Weighted>
   9.000000E+99

> <Gold.Protein.RotatedTorsions>
[ 6907 6896 6895 6894 ] final -110.62 input  -60.11 | X-H torsion
[ 7974 7965 7964 7962 ] final  -31.34 input  175.53 | X-H torsion
[ 8008 7997 7996 7995 ] final  120.00 input   59.86 | X-H torsion
[ 10167 10162 10161 10158 ] final   29.44 input  -65.29 | X-H torsion
[ 10718 10713 10712 10709 ] final -162.28 input   66.30 | X-H torsion
[ 10763 10752 10751 10750 ] final  -89.88 input  -60.55 | X-H torsion
[ 11005 11000 10999 10996 ] final  -17.73 input  -57.11 | X-H torsion

> <Gold.Protein.ActiveResidues>
 VAL166  LYS551  ARG553  GLY616  TRP617  ASP618  TYR619  PRO620  LYS621  CYS622 
 ASP623  PHE694  ASN695  SER759  ASP760  ASP761  ALA762  ILE779  LEU786  VAL792 
 PHE793  MET794  SER795  GLU796  ALA797  LYS798  CYS799  TRP800  GLU811  SER814 

> <Gold.Protein.RotatedAtoms>
  150.7637  133.9355  159.3439 H   0  0  0  0  0  0  0  0  0  0  0  0  # atno 6907 bound_to 6896
  151.7258  135.0883  160.0301 H   0  0  0  0  0  0  0  0  0  0  0  0  # atno 6908 bound_to 6896
  152.3621  133.6272  159.6059 H   0  0  0  0  0  0  0  0  0  0  0  0  # atno 6909 bound_to 6896
  146.1075  140.5654  142.8793 H   0  0  0  0  0  0  0  0  0  0  0  0  # atno 7974 bound_to 7965
  156.2622  140.2840  156.1080 H   0  0  0  0  0  0  0  0  0  0  0  0  # atno 8008 bound_to 7997
  155.1288  140.0393  157.2787 H   0  0  0  0  0  0  0  0  0  0  0  0  # atno 8009 bound_to 7997
  154.6615  140.2567  155.7110 H   0  0  0  0  0  0  0  0  0  0  0  0  # atno 8010 bound_to 7997
  140.4765  144.0682  150.6252 H   0  0  0  0  0  0  0  0  0  0  0  0  # atno 10167 bound_to 10162
  156.6082  130.8839  151.2930 H   0  0  0  0  0  0  0  0  0  0  0  0  # atno 10718 bound_to 10713
  154.6599  135.5325  153.8005 H   0  0  0  0  0  0  0  0  0  0  0  0  # atno 10763 bound_to 10752
  153.0436  135.6503  154.0888 H   0  0  0  0  0  0  0  0  0  0  0  0  # atno 10764 bound_to 10752
  154.0797  135.2948  155.3272 H   0  0  0  0  0  0  0  0  0  0  0  0  # atno 10765 bound_to 10752
  140.8197  133.8078  155.9647 H   0  0  0  0  0  0  0  0  0  0  0  0  # atno 11005 bound_to 11000
  144.7483  140.5126  143.6820 LP  0  0  0  0  0  0  0  0  0  0  0  0  # atno 17320 bound_to 7965
  145.5731  139.1484  143.3277 LP  0  0  0  0  0  0  0  0  0  0  0  0  # atno 17321 bound_to 7965
  140.3911  143.2752  152.0059 LP  0  0  0  0  0  0  0  0  0  0  0  0  # atno 17342 bound_to 10162
  139.4826  144.6076  151.7493 LP  0  0  0  0  0  0  0  0  0  0  0  0  # atno 17343 bound_to 10162
  157.7261  130.9625  150.1643 LP  0  0  0  0  0  0  0  0  0  0  0  0  # atno 17370 bound_to 10713
  156.2412  130.3691  149.8335 LP  0  0  0  0  0  0  0  0  0  0  0  0  # atno 17371 bound_to 10713
  140.9112  134.2258  157.4984 LP  0  0  0  0  0  0  0  0  0  0  0  0  # atno 17394 bound_to 11000
  139.8709  134.9751  156.4870 LP  0  0  0  0  0  0  0  0  0  0  0  0  # atno 17395 bound_to 11000

$$$$
