#       Name:                AV-unprocessed.smi:3055
#       Creating user name   scv26
#       Creation time:       Fri Mar 27 17:03:56 2020


#       File generated by GOLD software.
#

@<TRIPOS>MOLECULE
AV-unprocessed.smi:3055
    50    52     1
SMALL
NO_CHARGES


@<TRIPOS>ATOM
      1 ****         1.3927   1.0753   0.6700 O.2            1 S1                 0.0000
      2 ****         1.2424   0.2260  -0.2094 C.2            1 S1                 0.0000
      3 ****         2.0694  -0.8240  -0.3357 N.am           1 S1                 0.0000
      4 ****         3.1985  -1.0987   0.5415 C.3            1 S1                 0.0000
      5 ****         3.8084  -2.4692   0.2197 C.3            1 S1                 0.0000
      6 ****         4.9281  -2.7681   1.0890 N.pl3          1 S1                 0.0000
      7 ****         4.8743  -3.3067   2.3677 C.2            1 S1                 0.0000
      8 ****         6.1752  -3.4085   2.8060 C.2            1 S1                 0.0000
      9 ****         7.0404  -2.9420   1.8188 N.2            1 S1                 0.0000
     10 ****         6.2298  -2.5797   0.8328 C.2            1 S1                 0.0000
     11 ****         0.2579   0.2903  -1.1417 N.am           1 S1                 0.0000
     12 ****        -0.1551  -0.7984  -2.0411 C.3            1 S1                 0.0000
     13 ****        -1.4492  -1.4172  -1.4872 C.3            1 S1                 0.0000
     14 ****        -2.5447  -0.3473  -1.3129 C.3            1 S1                 0.0000
     15 ****        -2.0433   0.8914  -0.5238 C.3            1 S1                 0.0000
     16 ****        -3.0636   1.9762  -0.4867 N.4            1 S1                 1.0000
     17 ****        -4.4091   1.5701  -0.0253 C.3            1 S1                 0.0000
     18 ****        -5.0837   2.8635   0.4154 C.3            1 S1                 0.0000
     19 ****        -3.9399   3.6410   1.0552 C.3            1 S1                 0.0000
     20 ****        -2.6832   3.1713   0.3092 C.3            1 S1                 0.0000
     21 ****        -0.7183   1.3867  -1.1558 C.3            1 S1                 0.0000
     22 ****         1.9018  -1.4763  -1.0879 H              1 S1                 0.0000
     23 ****         3.9466  -0.3139   0.4194 H              1 S1                 0.0000
     24 ****         2.8685  -1.0721   1.5816 H              1 S1                 0.0000
     25 ****         3.0627  -3.2570   0.3353 H              1 S1                 0.0000
     26 ****         4.1508  -2.5036  -0.8158 H              1 S1                 0.0000
     27 ****         3.9411  -3.5640   2.8471 H              1 S1                 0.0000
     28 ****         6.5523  -3.7778   3.7482 H              1 S1                 0.0000
     29 ****         6.5920  -2.1660  -0.0971 H              1 S1                 0.0000
     30 ****        -0.3322  -0.3943  -3.0390 H              1 S1                 0.0000
     31 ****         0.5999  -1.5731  -2.1749 H              1 S1                 0.0000
     32 ****        -1.8021  -2.2065  -2.1516 H              1 S1                 0.0000
     33 ****        -1.2441  -1.8906  -0.5259 H              1 S1                 0.0000
     34 ****        -2.8875  -0.0320  -2.2995 H              1 S1                 0.0000
     35 ****        -3.4031  -0.8034  -0.8195 H              1 S1                 0.0000
     36 ****        -1.8461   0.5844   0.5051 H              1 S1                 0.0000
     37 ****        -4.9725   1.0597  -0.8072 H              1 S1                 0.0000
     38 ****        -4.3180   0.8948   0.8275 H              1 S1                 0.0000
     39 ****        -5.4593   3.4028  -0.4554 H              1 S1                 0.0000
     40 ****        -5.9187   2.6966   1.0966 H              1 S1                 0.0000
     41 ****        -4.0854   4.7201   0.9974 H              1 S1                 0.0000
     42 ****        -3.8614   3.3731   2.1099 H              1 S1                 0.0000
     43 ****        -1.8920   2.9473   1.0266 H              1 S1                 0.0000
     44 ****        -2.3113   3.9437  -0.3646 H              1 S1                 0.0000
     45 ****        -0.3340   2.2684  -0.6419 H              1 S1                 0.0000
     46 ****        -0.8882   1.7066  -2.1852 H              1 S1                 0.0000
     47 ****        -3.1862   2.3011  -1.4352 H              1 S1                 0.0000
     48 ****         2.1496   0.9950   1.3185 LP             1 S1                 0.0000
     49 ****         0.7577   1.8451   0.7354 LP             1 S1                 0.0000
     50 ****         8.0387  -2.8919   1.8468 LP             1 S1                 0.0000
@<TRIPOS>BOND
    1    1    2 2     
    2    2    3 am    
    3    2   11 am    
    4    3    4 1     
    5    3   22 1     
    6    4    5 1     
    7    4   23 1     
    8    4   24 1     
    9    5    6 1     
   10    5   25 1     
   11    5   26 1     
   12    6   10 1     
   13    6    7 1     
   14    7    8 2     
   15    7   27 1     
   16    8    9 1     
   17    8   28 1     
   18    9   10 2     
   19   10   29 1     
   20   11   21 1     
   21   11   12 1     
   22   12   13 1     
   23   12   30 1     
   24   12   31 1     
   25   13   14 1     
   26   13   32 1     
   27   13   33 1     
   28   14   15 1     
   29   14   34 1     
   30   14   35 1     
   31   15   16 1     
   32   15   21 1     
   33   15   36 1     
   34   16   20 1     
   35   16   17 1     
   36   16   47 1     
   37   17   18 1     
   38   17   37 1     
   39   17   38 1     
   40   18   19 1     
   41   18   39 1     
   42   18   40 1     
   43   19   20 1     
   44   19   41 1     
   45   19   42 1     
   46   20   43 1     
   47   20   44 1     
   48   21   45 1     
   49   21   46 1     
   50    1   48 1     
   51    1   49 1     
   52    9   50 1     
@<TRIPOS>SUBSTRUCTURE
      1 S1             1
@<TRIPOS>SET
LONE_PAIRS      STATIC     ATOMS    <user>   **** ""
3 48 49 50
DONOR_HYDROGENS      STATIC     ATOMS    <user>   **** ""
2 22 47
ATOM$BLUE        STATIC     ATOMS    COLORGROUP SYSTEM
3 48 49 50
ATOM$RED        STATIC     ATOMS    COLORGROUP SYSTEM
2 22 47
