AV-unprocessed.smi:1254|AV-procd|sdf|5278|dock1
  -GOLD-   22720 4393D 1   1.00000     0.00000
 Structure written by MMmdl.
 45 46  0  0  0  0  0  0  0  0  3 V2000
  144.4119  134.5713  162.4552 C   0  0  0  0  0  0  0  0  0  0  0  0
  145.4883  135.4450  161.9076 C   0  0  0  0  0  0  0  0  0  0  0  0
  146.8272  135.2561  161.7141 C   0  0  0  0  0  0  0  0  0  0  0  0
  147.2544  136.4962  161.1657 C   0  0  0  0  0  0  0  0  0  0  0  0
  148.5064  136.8027  160.7921 N   0  5  0  0  0  0  0  0  0  0  0  0
  148.7500  137.2686  159.5458 C   0  0  0  0  0  0  0  0  0  0  0  0
  147.9323  137.3752  158.6289 O   0  0  0  0  0  0  0  0  0  0  0  0
  150.0223  137.6354  159.3491 N   0  0  0  0  0  0  0  0  0  0  0  0
  150.5571  138.1711  158.1048 C   0  0  0  0  0  0  0  0  0  0  0  0
  150.4416  139.7010  158.0821 C   0  0  1  0  0  0  0  0  0  0  0  0
  151.6167  140.3769  158.8156 C   0  0  0  0  0  0  0  0  0  0  0  0
  151.5147  141.8540  158.7145 N   0  3  1  0  0  0  0  0  0  0  0  0
  152.5894  142.5784  159.4405 C   0  0  0  0  0  0  0  0  0  0  0  0
  152.3829  144.1083  159.4640 C   0  0  0  0  0  0  0  0  0  0  0  0
  150.9129  144.4860  159.7136 C   0  0  0  0  0  0  0  0  0  0  0  0
  152.8831  144.7392  158.1560 C   0  0  0  0  0  0  0  0  0  0  0  0
  151.4143  142.2681  157.2952 C   0  0  0  0  0  0  0  0  0  0  0  0
  150.2550  141.5346  156.6025 C   0  0  0  0  0  0  0  0  0  0  0  0
  150.4441  140.1316  156.7243 O   0  0  0  0  0  0  0  0  0  0  0  0
  146.2589  137.3554  161.0217 N   0  0  0  0  0  0  0  0  0  0  0  0
  145.1239  136.6914  161.5023 O   0  0  0  0  0  0  0  0  0  0  0  0
  144.4286  133.5926  161.9761 H   0  0  0  0  0  0  0  0  0  0  0  0
  143.4276  135.0105  162.2920 H   0  0  0  0  0  0  0  0  0  0  0  0
  144.5437  134.4255  163.5274 H   0  0  0  0  0  0  0  0  0  0  0  0
  147.4101  134.3740  161.9331 H   0  0  0  0  0  0  0  0  0  0  0  0
  150.6616  137.5370  160.1239 H   0  0  0  0  0  0  0  0  0  0  0  0
  151.6032  137.8731  158.0182 H   0  0  0  0  0  0  0  0  0  0  0  0
  150.0266  137.7395  157.2544 H   0  0  0  0  0  0  0  0  0  0  0  0
  149.5019  139.9925  158.5561 H   0  0  0  0  0  0  0  0  0  0  0  0
  151.6115  140.0675  159.8601 H   0  0  0  0  0  0  0  0  0  0  0  0
  152.5655  140.0463  158.3896 H   0  0  0  0  0  0  0  0  0  0  0  0
  152.6638  142.1841  160.4552 H   0  0  0  0  0  0  0  0  0  0  0  0
  153.5493  142.3712  158.9645 H   0  0  0  0  0  0  0  0  0  0  0  0
  152.9809  144.5385  160.2669 H   0  0  0  0  0  0  0  0  0  0  0  0
  150.2611  144.0755  158.9416 H   0  0  0  0  0  0  0  0  0  0  0  0
  150.7814  145.5686  159.7162 H   0  0  0  0  0  0  0  0  0  0  0  0
  150.5628  144.1154  160.6772 H   0  0  0  0  0  0  0  0  0  0  0  0
  152.3266  144.3653  157.2957 H   0  0  0  0  0  0  0  0  0  0  0  0
  153.9383  144.5192  157.9907 H   0  0  0  0  0  0  0  0  0  0  0  0
  152.7748  145.8241  158.1751 H   0  0  0  0  0  0  0  0  0  0  0  0
  151.2544  143.3452  157.2320 H   0  0  0  0  0  0  0  0  0  0  0  0
  152.3534  142.0516  156.7831 H   0  0  0  0  0  0  0  0  0  0  0  0
  149.2948  141.8256  157.0318 H   0  0  0  0  0  0  0  0  0  0  0  0
  150.2229  141.7958  155.5446 H   0  0  0  0  0  0  0  0  0  0  0  0
  150.6428  142.1214  159.1488 H   0  0  0  0  0  0  0  0  0  0  0  0
  1  2  1  0  0  0  0
  1 22  1  0  0  0  0
  1 23  1  0  0  0  0
  1 24  1  0  0  0  0
  2 21  1  0  0  0  0
  2  3  2  0  0  0  0
  3  4  1  0  0  0  0
  3 25  1  0  0  0  0
  4  5  1  0  0  0  0
  4 20  2  0  0  0  0
  5  6  1  0  0  0  0
  6  7  2  0  0  0  0
  6  8  1  0  0  0  0
  8  9  1  0  0  0  0
  8 26  1  0  0  0  0
  9 10  1  0  0  0  0
  9 27  1  0  0  0  0
  9 28  1  0  0  0  0
 10 19  1  0  0  0  0
 10 11  1  0  0  0  0
 10 29  1  0  0  0  0
 11 12  1  0  0  0  0
 11 30  1  0  0  0  0
 11 31  1  0  0  0  0
 12 13  1  0  0  0  0
 12 17  1  0  0  0  0
 12 45  1  0  0  0  0
 13 14  1  0  0  0  0
 13 32  1  0  0  0  0
 13 33  1  0  0  0  0
 14 15  1  0  0  0  0
 14 16  1  0  0  0  0
 14 34  1  0  0  0  0
 15 35  1  0  0  0  0
 15 36  1  0  0  0  0
 15 37  1  0  0  0  0
 16 38  1  0  0  0  0
 16 39  1  0  0  0  0
 16 40  1  0  0  0  0
 17 18  1  0  0  0  0
 17 41  1  0  0  0  0
 17 42  1  0  0  0  0
 18 19  1  0  0  0  0
 18 43  1  0  0  0  0
 18 44  1  0  0  0  0
 20 21  1  0  0  0  0
M  CHG  1   5  -1
M  CHG  1  12   1
M  END
> <s_m_source_file>
AV-unprocessed.smi

> <i_m_source_file_index>
1254

> <i_lp_mmshare_version>
43012

> <i_f3d_flags>
0

> <s_epik_input>
W0NIM11jMVtjSF1jKG5vMSlbTkhdQyg9TylbTkhdW0NIMl1bQ0BASF0yW0NIMl1OKFtDSDJdW0NIMl1PMilbQ0gyXVtDSF0oW0NIM10pW0NIM10=

> <s_epik_cmdline>
J2VwaWtfcHl0aG9uJywgJy1waCcsICc3LjAnLCAnLXRuJywgJzgnLCAnLW1hJywgJzIwMCcsICctbWV0YWxfYmluZGluZycsICctaW1hZScsICc8aW5maWxlLm1hZT4nLCAnLW9tYWUnLCAnPG91dGZpbGUubWFlPic=

> <r_epik_Ionization_Penalty>
6.33139

> <r_epik_Ionization_Penalty_Charging>
6.33128

> <r_epik_Ionization_Penalty_Neutral>
0.000104968

> <r_epik_State_Penalty>
6.32522

> <r_epik_Charging_Adjusted_Penalty>
12.6565

> <i_epik_Tot_Q>
0

> <i_epik_Tot_abs_Q>
2

> <r_epik_Metal_State_Penalty>
2.26285

> <b_epik_Metal_Only>
1

> <s_lp_Force_Field>
OPLS_2005

> <r_lp_Energy>
6.3285

> <b_lp_Chiralities_Consistent>
1

> <s_lp_Variant>
AV-unprocessed.smi:1254-10

> <Gold.Version>
5.8.1

> <Gold.Id.Protein>
6NUR|6NUR_protein|mol2

> <Gold.PLP.Fitness>
45.5406

> <Gold.PLP.PLP>
-38.6253

> <Gold.PLP.part.hbond>
-2.0000

> <Gold.PLP.part.metal>
0.0000

> <Gold.PLP.part.buried>
-5.2659

> <Gold.PLP.part.nonpolar>
-32.0568

> <Gold.PLP.part.repulsive>
0.3904

> <Gold.PLP.ligand.clash>
0.0000

> <Gold.PLP.ligand.torsion>
1.1262

> <Gold.PLP.Chemscore.Hbond>
3.0000

> <Gold.PLP.Chemscore.CHOScore>
0.0000

> <Gold.PLP.Chemscore.Metal>
0.0000

> <Gold.Chemscore.Hbonds>
donor molecule, donor type, donor heavy atom, donor atom, acceptor molecule, acceptor atom, score
      P1  H  6931  6943       L1     5  2.00
      P1  H  6934  6947       L1    20  1.00

> <Gold.PLP.Chemscore.Internal.Correction>
0.1676

> <Gold.Rescore>
     Score         DG    S(hbond)    S(metal)    S(lipo)     H(rot)  DE(clash)    DE(int)     intcor
     13.68     -16.01       0.99        0.00      98.85       1.69       0.05       2.28       ----

> <Gold.Chemscore.Fitness>
13.6759

> <Gold.Chemscore.DG>
-16.0089

> <Gold.Chemscore.ZeroCoef>
-5.4800

> <Gold.Chemscore.Hbond>
0.9871

> <Gold.Chemscore.Metal>
0.0000

> <Gold.Chemscore.Lipo>
98.8461

> <Gold.Chemscore.Internal_Hbond>
0.0000

> <Gold.Chemscore.DEClash>
0.0492

> <Gold.Chemscore.DEInternal>
2.2838

> <Gold.Chemscore.Rot>
1.6926

> <Gold.Chemscore.Internal.Correction>
   9.000000E+99

> <Gold.Chemscore.Hbonds>
donor molecule, donor type, donor heavy atom, donor atom, acceptor molecule, acceptor atom, score
      P1  H  6931  6943       L1     5  0.21
      P1  H  6934  6947       L1    20  0.40

> <Gold.Chemscore.Hbond.Weighted>
-3.2970

> <Gold.Chemscore.Metal.Weighted>
-0.0000

> <Gold.Chemscore.Lipo.Weighted>
-11.5650

> <Gold.Chemscore.Internal_Hbond.Weighted>
0.0000

> <Gold.Chemscore.DEClash.Weighted>
0.0492

> <Gold.Chemscore.DEInternal.Weighted>
2.2838

> <Gold.Chemscore.Rot.Weighted>
4.3330

> <Gold.Chemscore.Internal.Correction.Weighted>
   9.000000E+99

> <Gold.Protein.RotatedTorsions>
[ 6907 6896 6895 6894 ] final -164.29 input  -60.11 | X-H torsion
[ 7974 7965 7964 7962 ] final    5.05 input  175.53 | X-H torsion
[ 8008 7997 7996 7995 ] final  -98.33 input   59.86 | X-H torsion
[ 10167 10162 10161 10158 ] final   33.43 input  -65.29 | X-H torsion
[ 10718 10713 10712 10709 ] final  -91.08 input   66.30 | X-H torsion
[ 10763 10752 10751 10750 ] final -133.91 input  -60.55 | X-H torsion
[ 11005 11000 10999 10996 ] final  131.16 input  -57.11 | X-H torsion

> <Gold.Protein.ActiveResidues>
 VAL166  LYS551  ARG553  GLY616  TRP617  ASP618  TYR619  PRO620  LYS621  CYS622 
 ASP623  PHE694  ASN695  SER759  ASP760  ASP761  ALA762  ILE779  LEU786  VAL792 
 PHE793  MET794  SER795  GLU796  ALA797  LYS798  CYS799  TRP800  GLU811  SER814 

> <Gold.Protein.RotatedAtoms>
  151.4095  133.3732  159.2741 H   0  0  0  0  0  0  0  0  0  0  0  0  # atno 6907 bound_to 6896
  150.9373  134.8786  159.7601 H   0  0  0  0  0  0  0  0  0  0  0  0  # atno 6908 bound_to 6896
  152.5056  134.4043  159.9479 H   0  0  0  0  0  0  0  0  0  0  0  0  # atno 6909 bound_to 6896
  146.2442  140.0443  142.8380 H   0  0  0  0  0  0  0  0  0  0  0  0  # atno 7974 bound_to 7965
  154.7997  140.0456  157.1264 H   0  0  0  0  0  0  0  0  0  0  0  0  # atno 8008 bound_to 7997
  154.9493  140.3063  155.5063 H   0  0  0  0  0  0  0  0  0  0  0  0  # atno 8009 bound_to 7997
  156.2960  140.2291  156.4569 H   0  0  0  0  0  0  0  0  0  0  0  0  # atno 8010 bound_to 7997
  140.4408  144.1191  150.6173 H   0  0  0  0  0  0  0  0  0  0  0  0  # atno 10167 bound_to 10162
  155.9991  130.4934  150.5420 H   0  0  0  0  0  0  0  0  0  0  0  0  # atno 10718 bound_to 10713
  154.8726  135.3751  154.4650 H   0  0  0  0  0  0  0  0  0  0  0  0  # atno 10763 bound_to 10752
  153.5315  135.7027  153.5686 H   0  0  0  0  0  0  0  0  0  0  0  0  # atno 10764 bound_to 10752
  153.3888  135.3977  155.1874 H   0  0  0  0  0  0  0  0  0  0  0  0  # atno 10765 bound_to 10752
  139.9714  134.9576  156.9399 H   0  0  0  0  0  0  0  0  0  0  0  0  # atno 11005 bound_to 11000
  145.1041  140.9364  143.4695 LP  0  0  0  0  0  0  0  0  0  0  0  0  # atno 17320 bound_to 7965
  145.0642  139.3081  143.5865 LP  0  0  0  0  0  0  0  0  0  0  0  0  # atno 17321 bound_to 7965
  140.4321  143.2563  151.9582 LP  0  0  0  0  0  0  0  0  0  0  0  0  # atno 17342 bound_to 10162
  139.4789  144.5734  151.8051 LP  0  0  0  0  0  0  0  0  0  0  0  0  # atno 17343 bound_to 10162
  157.3355  131.0707  151.1828 LP  0  0  0  0  0  0  0  0  0  0  0  0  # atno 17370 bound_to 10713
  157.2694  130.6697  149.6012 LP  0  0  0  0  0  0  0  0  0  0  0  0  # atno 17371 bound_to 10713
  140.5285  134.0837  155.7310 LP  0  0  0  0  0  0  0  0  0  0  0  0  # atno 17394 bound_to 11000
  141.1393  133.9166  157.2362 LP  0  0  0  0  0  0  0  0  0  0  0  0  # atno 17395 bound_to 11000

$$$$
