AV-unprocessed.smi:2807|AV-procd|sdf|10821|dock1
  -GOLD-   2272015253D 1   1.00000     0.00000
 Structure written by MMmdl.
 31 32  0  0  0  0  0  0  0  0  2 V2000
  151.0050  139.9288  154.8824 O   0  0  0  0  0  0  0  0  0  0  0  0
  150.4066  140.2511  155.9155 C   0  0  0  0  0  0  0  0  0  0  0  0
  149.1474  140.7501  156.0736 N   0  5  0  0  0  0  0  0  0  0  0  0
  147.9904  140.3537  155.2631 C   0  0  1  0  0  0  0  0  0  0  0  0
  146.6987  140.7699  155.9829 C   0  0  0  0  0  0  0  0  0  0  0  0
  146.3916  142.2144  155.5449 C   0  0  0  0  0  0  0  0  0  0  0  0
  147.2896  142.5098  154.3337 C   0  0  0  0  0  0  0  0  0  0  0  0
  147.9071  141.1593  153.9506 C   0  0  1  0  0  0  0  0  0  0  0  0
  149.1333  141.3008  153.2583 O   0  0  0  0  0  0  0  0  0  0  0  0
  151.1451  140.1266  157.2647 C   0  0  0  0  0  0  0  0  0  0  0  0
  150.3967  139.4233  158.1213 F   0  0  0  0  0  0  0  0  0  0  0  0
  152.2810  139.4502  157.0762 F   0  0  0  0  0  0  0  0  0  0  0  0
  151.4866  141.5072  157.8248 C   0  0  0  0  0  0  0  0  0  0  0  0
  152.1931  141.6323  159.0427 C   0  0  0  0  0  0  0  0  0  0  0  0
  152.5078  142.9214  159.5128 C   0  0  0  0  0  0  0  0  0  0  0  0
  152.1051  144.0371  158.7550 C   0  0  0  0  0  0  0  0  0  0  0  0
  151.4027  143.8115  157.5550 C   0  0  0  0  0  0  0  0  0  0  0  0
  151.0945  142.5803  157.0964 N   0  0  0  0  0  0  0  0  0  0  0  0
  147.9784  139.2824  155.0563 H   0  0  0  0  0  0  0  0  0  0  0  0
  145.8864  140.1219  155.6516 H   0  0  0  0  0  0  0  0  0  0  0  0
  146.7593  140.6679  157.0675 H   0  0  0  0  0  0  0  0  0  0  0  0
  145.3364  142.3214  155.2906 H   0  0  0  0  0  0  0  0  0  0  0  0
  146.6021  142.9199  156.3502 H   0  0  0  0  0  0  0  0  0  0  0  0
  146.7362  142.9542  153.5060 H   0  0  0  0  0  0  0  0  0  0  0  0
  148.0663  143.2225  154.6218 H   0  0  0  0  0  0  0  0  0  0  0  0
  147.2147  140.6419  153.2850 H   0  0  0  0  0  0  0  0  0  0  0  0
  149.1810  140.6168  152.6080 H   0  0  0  0  0  0  0  0  0  0  0  0
  152.4964  140.7567  159.5970 H   0  0  0  0  0  0  0  0  0  0  0  0
  153.0506  143.0513  160.4372 H   0  0  0  0  0  0  0  0  0  0  0  0
  152.3304  145.0407  159.0833 H   0  0  0  0  0  0  0  0  0  0  0  0
  151.0781  144.6435  156.9475 H   0  0  0  0  0  0  0  0  0  0  0  0
  1  2  2  0  0  0  0
  2  3  1  0  0  0  0
  2 10  1  0  0  0  0
  3  4  1  0  0  0  0
  4  8  1  0  0  0  0
  4  5  1  0  0  0  0
  4 19  1  0  0  0  0
  5  6  1  0  0  0  0
  5 20  1  0  0  0  0
  5 21  1  0  0  0  0
  6  7  1  0  0  0  0
  6 22  1  0  0  0  0
  6 23  1  0  0  0  0
  7  8  1  0  0  0  0
  7 24  1  0  0  0  0
  7 25  1  0  0  0  0
  8  9  1  0  0  0  0
  8 26  1  0  0  0  0
  9 27  1  0  0  0  0
 10 11  1  0  0  0  0
 10 12  1  0  0  0  0
 10 13  1  0  0  0  0
 13 18  1  0  0  0  0
 13 14  2  0  0  0  0
 14 15  1  0  0  0  0
 14 28  1  0  0  0  0
 15 16  2  0  0  0  0
 15 29  1  0  0  0  0
 16 17  1  0  0  0  0
 16 30  1  0  0  0  0
 17 18  2  0  0  0  0
 17 31  1  0  0  0  0
M  CHG  1   3  -1
M  END
> <s_m_source_file>
AV-unprocessed.smi

> <i_m_source_file_index>
2807

> <i_lp_mmshare_version>
43012

> <i_f3d_flags>
0

> <s_epik_input>
bjFbY0hdW2NIXVtjSF1bY0hdYzFDKEYpKEYpQyg9TylbTkhdW0NAQEhdMltDSDJdW0NIMl1bQ0gyXVtDQEhdMltPSF0=

> <s_epik_cmdline>
J2VwaWtfcHl0aG9uJywgJy1waCcsICc3LjAnLCAnLXRuJywgJzgnLCAnLW1hJywgJzIwMCcsICctbWV0YWxfYmluZGluZycsICctaW1hZScsICc8aW5maWxlLm1hZT4nLCAnLW9tYWUnLCAnPG91dGZpbGUubWFlPic=

> <r_lp_tautomer_probability>
1

> <r_epik_Ionization_Penalty>
5.72231

> <r_epik_Ionization_Penalty_Charging>
5.72231

> <r_epik_Ionization_Penalty_Neutral>
5.49816e-06

> <r_epik_State_Penalty>
5.72227

> <r_epik_Charging_Adjusted_Penalty>
11.4446

> <i_epik_Tot_Q>
-1

> <i_epik_Tot_abs_Q>
1

> <r_epik_Metal_State_Penalty>
1.70075

> <b_epik_Metal_Only>
1

> <s_lp_Force_Field>
OPLS_2005

> <r_lp_Energy>
37.2022

> <b_lp_Chiralities_Consistent>
1

> <s_lp_Variant>
AV-unprocessed.smi:2807-6

> <Gold.Version>
5.8.1

> <Gold.Id.Protein>
6NUR|6NUR_protein|mol2

> <Gold.PLP.Fitness>
44.0321

> <Gold.PLP.PLP>
-34.4650

> <Gold.PLP.part.hbond>
-3.4921

> <Gold.PLP.part.metal>
0.0000

> <Gold.PLP.part.buried>
-3.5160

> <Gold.PLP.part.nonpolar>
-28.5978

> <Gold.PLP.part.repulsive>
0.2235

> <Gold.PLP.ligand.clash>
0.3186

> <Gold.PLP.ligand.torsion>
0.8023

> <Gold.PLP.Chemscore.Hbond>
2.9440

> <Gold.PLP.Chemscore.CHOScore>
0.8634

> <Gold.PLP.Chemscore.Metal>
0.0000

> <Gold.Chemscore.Hbonds>
donor molecule, donor type, donor heavy atom, donor atom, acceptor molecule, acceptor atom, score
      L1  H     9    27       P1  7957  1.00
      P1  H  7989  7998       L1     1  1.00
      P1  H  8011  8017       L1     9  0.75
      L1  C    17    31       P1  8028  0.92

> <Gold.PLP.Chemscore.Internal.Correction>
0.0681

> <Gold.Rescore>
     Score         DG    S(hbond)    S(metal)    S(lipo)     H(rot)  DE(clash)    DE(int)     intcor
     15.97     -18.31       2.41        0.00      84.58       2.00       0.12       2.22       ----

> <Gold.Chemscore.Fitness>
15.9712

> <Gold.Chemscore.DG>
-18.3121

> <Gold.Chemscore.ZeroCoef>
-5.4800

> <Gold.Chemscore.Hbond>
2.4093

> <Gold.Chemscore.Metal>
0.0000

> <Gold.Chemscore.Lipo>
84.5811

> <Gold.Chemscore.Internal_Hbond>
0.0000

> <Gold.Chemscore.DEClash>
0.1162

> <Gold.Chemscore.DEInternal>
2.2247

> <Gold.Chemscore.Rot>
1.9964

> <Gold.Chemscore.Internal.Correction>
   9.000000E+99

> <Gold.Chemscore.Hbonds>
donor molecule, donor type, donor heavy atom, donor atom, acceptor molecule, acceptor atom, score
      L1  H     9    27       P1  7957  0.95
      P1  H  7989  7998       L1     1  1.00
      P1  H  8011  8017       L1     9  0.09

> <Gold.Chemscore.Hbond.Weighted>
-8.0470

> <Gold.Chemscore.Metal.Weighted>
-0.0000

> <Gold.Chemscore.Lipo.Weighted>
-9.8960

> <Gold.Chemscore.Internal_Hbond.Weighted>
0.0000

> <Gold.Chemscore.DEClash.Weighted>
0.1162

> <Gold.Chemscore.DEInternal.Weighted>
2.2247

> <Gold.Chemscore.Rot.Weighted>
5.1108

> <Gold.Chemscore.Internal.Correction.Weighted>
   9.000000E+99

> <Gold.Protein.RotatedTorsions>
[ 6907 6896 6895 6894 ] final  -53.56 input  -60.11 | X-H torsion
[ 7974 7965 7964 7962 ] final  -84.02 input  175.53 | X-H torsion
[ 8008 7997 7996 7995 ] final  -66.50 input   59.86 | X-H torsion
[ 10167 10162 10161 10158 ] final  -62.38 input  -65.29 | X-H torsion
[ 10718 10713 10712 10709 ] final  -18.37 input   66.30 | X-H torsion
[ 10763 10752 10751 10750 ] final   45.28 input  -60.55 | X-H torsion
[ 11005 11000 10999 10996 ] final -123.33 input  -57.11 | X-H torsion

> <Gold.Protein.ActiveResidues>
 VAL166  LYS551  ARG553  GLY616  TRP617  ASP618  TYR619  PRO620  LYS621  CYS622 
 ASP623  PHE694  ASN695  SER759  ASP760  ASP761  ALA762  ILE779  LEU786  VAL792 
 PHE793  MET794  SER795  GLU796  ALA797  LYS798  CYS799  TRP800  GLU811  SER814 

> <Gold.Protein.RotatedAtoms>
  150.8416  134.7710  159.6936 H   0  0  0  0  0  0  0  0  0  0  0  0  # atno 6907 bound_to 6896
  152.4502  134.5406  159.9848 H   0  0  0  0  0  0  0  0  0  0  0  0  # atno 6908 bound_to 6896
  151.5545  133.3374  159.2995 H   0  0  0  0  0  0  0  0  0  0  0  0  # atno 6909 bound_to 6896
  145.5123  140.9539  143.1701 H   0  0  0  0  0  0  0  0  0  0  0  0  # atno 7974 bound_to 7965
  154.4738  140.0911  156.7212 H   0  0  0  0  0  0  0  0  0  0  0  0  # atno 8008 bound_to 7997
  155.4651  140.3462  155.4299 H   0  0  0  0  0  0  0  0  0  0  0  0  # atno 8009 bound_to 7997
  156.1084  140.1441  156.9361 H   0  0  0  0  0  0  0  0  0  0  0  0  # atno 8010 bound_to 7997
  140.5943  143.2347  151.6071 H   0  0  0  0  0  0  0  0  0  0  0  0  # atno 10167 bound_to 10162
  156.5605  130.4724  149.6409 H   0  0  0  0  0  0  0  0  0  0  0  0  # atno 10718 bound_to 10713
  152.9827  135.6044  154.3412 H   0  0  0  0  0  0  0  0  0  0  0  0  # atno 10763 bound_to 10752
  154.3108  135.2771  155.2568 H   0  0  0  0  0  0  0  0  0  0  0  0  # atno 10764 bound_to 10752
  154.4779  135.5925  153.6424 H   0  0  0  0  0  0  0  0  0  0  0  0  # atno 10765 bound_to 10752
  140.9927  134.0515  157.3634 H   0  0  0  0  0  0  0  0  0  0  0  0  # atno 11005 bound_to 11000
  144.7721  139.6712  143.7190 LP  0  0  0  0  0  0  0  0  0  0  0  0  # atno 17320 bound_to 7965
  146.2159  139.5548  142.9650 LP  0  0  0  0  0  0  0  0  0  0  0  0  # atno 17321 bound_to 7965
  139.5247  144.3094  152.1005 LP  0  0  0  0  0  0  0  0  0  0  0  0  # atno 17342 bound_to 10162
  140.2264  144.4413  150.6319 LP  0  0  0  0  0  0  0  0  0  0  0  0  # atno 17343 bound_to 10162
  156.2803  130.7067  151.1889 LP  0  0  0  0  0  0  0  0  0  0  0  0  # atno 17370 bound_to 10713
  157.7369  131.0557  150.5385 LP  0  0  0  0  0  0  0  0  0  0  0  0  # atno 17371 bound_to 10713
  139.9000  135.0161  156.7222 LP  0  0  0  0  0  0  0  0  0  0  0  0  # atno 17394 bound_to 11000
  140.7014  133.9303  155.8027 LP  0  0  0  0  0  0  0  0  0  0  0  0  # atno 17395 bound_to 11000

$$$$
