AV-unprocessed.smi:2216|AV-procd|sdf|8967|dock7
  -GOLD-   2272012183D 1   1.00000     0.00000
 Structure written by MMmdl.
 40 41  0  0  0  0  0  0  0  0  2 V2000
  152.0150  138.1366  158.3826 C   0  0  0  0  0  0  0  0  0  0  0  0
  151.5188  138.1525  156.9467 C   0  0  0  0  0  0  0  0  0  0  0  0
  150.8931  137.0814  156.3973 C   0  0  0  0  0  0  0  0  0  0  0  0
  150.4055  137.0919  155.0182 C   0  0  0  0  0  0  0  0  0  0  0  0
  149.7414  136.0559  154.3486 N   0  0  0  0  0  0  0  0  0  0  0  0
  149.5572  134.7838  154.7434 C   0  0  0  0  0  0  0  0  0  0  0  0
  149.9846  134.2808  155.7822 O   0  0  0  0  0  0  0  0  0  0  0  0
  148.8398  134.1028  153.8385 N   0  0  0  0  0  0  0  0  0  0  0  0
  148.4807  132.6931  153.9403 C   0  0  0  0  0  0  0  0  0  0  0  0
  146.9713  132.4835  153.7328 C   0  0  0  0  0  0  0  0  0  0  0  0
  146.5373  132.6659  152.2700 C   0  0  1  0  0  0  0  0  0  0  0  0
  145.7826  131.4333  151.7350 C   0  0  0  0  0  0  0  0  0  0  0  0
  145.2962  131.6780  150.3020 C   0  0  0  0  0  0  0  0  0  0  0  0
  144.4911  132.9804  150.2449 C   0  0  0  0  0  0  0  0  0  0  0  0
  145.2991  134.1349  150.8584 C   0  0  0  0  0  0  0  0  0  0  0  0
  145.6832  133.8058  152.1899 O   0  0  0  0  0  0  0  0  0  0  0  0
  150.6487  138.2910  154.3794 C   0  0  0  0  0  0  0  0  0  0  0  0
  151.2644  139.3949  154.8549 N   0  5  0  0  0  0  0  0  0  0  0  0
  151.7224  139.3724  156.1395 C   0  0  0  0  0  0  0  0  0  0  0  0
  152.2973  140.3388  156.6390 O   0  0  0  0  0  0  0  0  0  0  0  0
  151.8058  137.1817  158.8657 H   0  0  0  0  0  0  0  0  0  0  0  0
  151.5278  138.9212  158.9622 H   0  0  0  0  0  0  0  0  0  0  0  0
  153.0922  138.3016  158.4155 H   0  0  0  0  0  0  0  0  0  0  0  0
  150.7528  136.2130  157.0200 H   0  0  0  0  0  0  0  0  0  0  0  0
  149.3554  136.3105  153.4513 H   0  0  0  0  0  0  0  0  0  0  0  0
  148.5275  134.5947  153.0143 H   0  0  0  0  0  0  0  0  0  0  0  0
  149.0552  132.1054  153.2223 H   0  0  0  0  0  0  0  0  0  0  0  0
  148.7723  132.3416  154.9302 H   0  0  0  0  0  0  0  0  0  0  0  0
  146.7075  131.4777  154.0620 H   0  0  0  0  0  0  0  0  0  0  0  0
  146.4093  133.1708  154.3666 H   0  0  0  0  0  0  0  0  0  0  0  0
  147.4250  132.8381  151.6584 H   0  0  0  0  0  0  0  0  0  0  0  0
  146.4258  130.5533  151.7635 H   0  0  0  0  0  0  0  0  0  0  0  0
  144.9283  131.2167  152.3777 H   0  0  0  0  0  0  0  0  0  0  0  0
  146.1524  131.7452  149.6296 H   0  0  0  0  0  0  0  0  0  0  0  0
  144.6900  130.8399  149.9569 H   0  0  0  0  0  0  0  0  0  0  0  0
  144.2208  133.2128  149.2145 H   0  0  0  0  0  0  0  0  0  0  0  0
  143.5567  132.8585  150.7941 H   0  0  0  0  0  0  0  0  0  0  0  0
  146.1831  134.3541  150.2579 H   0  0  0  0  0  0  0  0  0  0  0  0
  144.6968  135.0432  150.8807 H   0  0  0  0  0  0  0  0  0  0  0  0
  150.3001  138.3743  153.3274 H   0  0  0  0  0  0  0  0  0  0  0  0
  1  2  1  0  0  0  0
  1 21  1  0  0  0  0
  1 22  1  0  0  0  0
  1 23  1  0  0  0  0
  2 19  1  0  0  0  0
  2  3  2  0  0  0  0
  3  4  1  0  0  0  0
  3 24  1  0  0  0  0
  4  5  1  0  0  0  0
  4 17  2  0  0  0  0
  5  6  1  0  0  0  0
  5 25  1  0  0  0  0
  6  7  2  0  0  0  0
  6  8  1  0  0  0  0
  8  9  1  0  0  0  0
  8 26  1  0  0  0  0
  9 10  1  0  0  0  0
  9 27  1  0  0  0  0
  9 28  1  0  0  0  0
 10 11  1  0  0  0  0
 10 29  1  0  0  0  0
 10 30  1  0  0  0  0
 11 16  1  0  0  0  0
 11 12  1  0  0  0  0
 11 31  1  0  0  0  0
 12 13  1  0  0  0  0
 12 32  1  0  0  0  0
 12 33  1  0  0  0  0
 13 14  1  0  0  0  0
 13 34  1  0  0  0  0
 13 35  1  0  0  0  0
 14 15  1  0  0  0  0
 14 36  1  0  0  0  0
 14 37  1  0  0  0  0
 15 16  1  0  0  0  0
 15 38  1  0  0  0  0
 15 39  1  0  0  0  0
 17 18  1  0  0  0  0
 17 40  1  0  0  0  0
 18 19  1  0  0  0  0
 19 20  2  0  0  0  0
M  CHG  1  18  -1
M  END
> <s_m_source_file>
AV-unprocessed.smi

> <i_m_source_file_index>
2216

> <i_lp_mmshare_version>
43012

> <i_f3d_flags>
0

> <s_epik_input>
Tz1jMVtuSF1bY0hdYyhbY0hdYzFbQ0gzXSlbTkhdQyg9TylbTkhdW0NIMl1bQ0gyXVtDQEBIXTJbQ0gyXVtDSDJdW0NIMl1bQ0gyXU8y

> <s_epik_cmdline>
J2VwaWtfcHl0aG9uJywgJy1waCcsICc3LjAnLCAnLXRuJywgJzgnLCAnLW1hJywgJzIwMCcsICctbWV0YWxfYmluZGluZycsICctaW1hZScsICc8aW5maWxlLm1hZT4nLCAnLW9tYWUnLCAnPG91dGZpbGUubWFlPic=

> <r_lp_tautomer_probability>
1

> <r_epik_Ionization_Penalty>
7.55627

> <r_epik_Ionization_Penalty_Charging>
1.50531

> <r_epik_Ionization_Penalty_Neutral>
6.05097

> <r_epik_State_Penalty>
6.05091

> <r_epik_Charging_Adjusted_Penalty>
7.55622

> <i_epik_Tot_Q>
-1

> <i_epik_Tot_abs_Q>
1

> <r_epik_Metal_State_Penalty>
2.00009

> <b_epik_Metal_Only>
1

> <s_lp_Force_Field>
OPLS_2005

> <r_lp_Energy>
20.9745

> <b_lp_Chiralities_Consistent>
1

> <s_lp_Variant>
AV-unprocessed.smi:2216-4

> <Gold.Version>
5.8.1

> <Gold.Id.Protein>
6NUR|6NUR_protein|mol2

> <Gold.PLP.Fitness>
40.8786

> <Gold.PLP.PLP>
-30.9127

> <Gold.PLP.part.hbond>
-4.7289

> <Gold.PLP.part.metal>
0.0000

> <Gold.PLP.part.buried>
-2.2881

> <Gold.PLP.part.nonpolar>
-23.4461

> <Gold.PLP.part.repulsive>
0.2376

> <Gold.PLP.ligand.clash>
0.0000

> <Gold.PLP.ligand.torsion>
0.8301

> <Gold.PLP.Chemscore.Hbond>
3.8713

> <Gold.PLP.Chemscore.CHOScore>
0.0000

> <Gold.PLP.Chemscore.Metal>
0.0000

> <Gold.Chemscore.Hbonds>
donor molecule, donor type, donor heavy atom, donor atom, acceptor molecule, acceptor atom, score
      L1  H     5    25       P1  7948  1.00
      L1  H     8    26       P1  7948  0.83
      P1  H  7989  7998       L1    18  0.99
      P1  H  7997  8009       L1    20  0.94

> <Gold.PLP.Chemscore.Internal.Correction>
0.0125

> <Gold.Rescore>
     Score         DG    S(hbond)    S(metal)    S(lipo)     H(rot)  DE(clash)    DE(int)     intcor
     18.41     -20.64       3.09        0.00      73.37       1.47       0.26       1.96       ----

> <Gold.Chemscore.Fitness>
18.4140

> <Gold.Chemscore.DG>
-20.6355

> <Gold.Chemscore.ZeroCoef>
-5.4800

> <Gold.Chemscore.Hbond>
3.0948

> <Gold.Chemscore.Metal>
0.0000

> <Gold.Chemscore.Lipo>
73.3714

> <Gold.Chemscore.Internal_Hbond>
0.0000

> <Gold.Chemscore.DEClash>
0.2635

> <Gold.Chemscore.DEInternal>
1.9580

> <Gold.Chemscore.Rot>
1.4709

> <Gold.Chemscore.Internal.Correction>
   9.000000E+99

> <Gold.Chemscore.Hbonds>
donor molecule, donor type, donor heavy atom, donor atom, acceptor molecule, acceptor atom, score
      L1  H     5    25       P1  7948  0.77
      L1  H     8    26       P1  7948  0.24
      P1  H  7989  7998       L1    18  0.85
      P1  H  7997  8009       L1    20  0.64

> <Gold.Chemscore.Hbond.Weighted>
-10.3365

> <Gold.Chemscore.Metal.Weighted>
-0.0000

> <Gold.Chemscore.Lipo.Weighted>
-8.5844

> <Gold.Chemscore.Internal_Hbond.Weighted>
0.0000

> <Gold.Chemscore.DEClash.Weighted>
0.2635

> <Gold.Chemscore.DEInternal.Weighted>
1.9580

> <Gold.Chemscore.Rot.Weighted>
3.7654

> <Gold.Chemscore.Internal.Correction.Weighted>
   9.000000E+99

> <Gold.Protein.RotatedTorsions>
[ 6907 6896 6895 6894 ] final -148.12 input  -60.11 | X-H torsion
[ 7974 7965 7964 7962 ] final  -99.80 input  175.53 | X-H torsion
[ 8008 7997 7996 7995 ] final -166.14 input   59.86 | X-H torsion
[ 10167 10162 10161 10158 ] final  -95.87 input  -65.29 | X-H torsion
[ 10718 10713 10712 10709 ] final  -20.05 input   66.30 | X-H torsion
[ 10763 10752 10751 10750 ] final  -76.58 input  -60.55 | X-H torsion
[ 11005 11000 10999 10996 ] final   91.51 input  -57.11 | X-H torsion

> <Gold.Protein.ActiveResidues>
 VAL166  LYS551  ARG553  GLY616  TRP617  ASP618  TYR619  PRO620  LYS621  CYS622 
 ASP623  PHE694  ASN695  SER759  ASP760  ASP761  ALA762  ILE779  LEU786  VAL792 
 PHE793  MET794  SER795  GLU796  ALA797  LYS798  CYS799  TRP800  GLU811  SER814 

> <Gold.Protein.RotatedAtoms>
  151.1653  133.4818  159.2593 H   0  0  0  0  0  0  0  0  0  0  0  0  # atno 6907 bound_to 6896
  151.1412  135.0180  159.8636 H   0  0  0  0  0  0  0  0  0  0  0  0  # atno 6908 bound_to 6896
  152.5462  134.1547  159.8586 H   0  0  0  0  0  0  0  0  0  0  0  0  # atno 6909 bound_to 6896
  145.3028  140.9381  143.2814 H   0  0  0  0  0  0  0  0  0  0  0  0  # atno 7974 bound_to 7965
  155.8596  140.0976  157.1622 H   0  0  0  0  0  0  0  0  0  0  0  0  # atno 8008 bound_to 7997
  154.3990  140.1367  156.4007 H   0  0  0  0  0  0  0  0  0  0  0  0  # atno 8009 bound_to 7997
  155.7871  140.3457  155.5331 H   0  0  0  0  0  0  0  0  0  0  0  0  # atno 8010 bound_to 7997
  140.2997  143.3170  152.0261 H   0  0  0  0  0  0  0  0  0  0  0  0  # atno 10167 bound_to 10162
  156.5372  130.4669  149.6517 H   0  0  0  0  0  0  0  0  0  0  0  0  # atno 10718 bound_to 10713
  154.5017  135.5793  153.6536 H   0  0  0  0  0  0  0  0  0  0  0  0  # atno 10763 bound_to 10752
  152.9880  135.6137  154.2994 H   0  0  0  0  0  0  0  0  0  0  0  0  # atno 10764 bound_to 10752
  154.2902  135.2849  155.2638 H   0  0  0  0  0  0  0  0  0  0  0  0  # atno 10765 bound_to 10752
  139.8837  134.8678  156.3439 H   0  0  0  0  0  0  0  0  0  0  0  0  # atno 11005 bound_to 11000
  144.9079  139.4565  143.6601 LP  0  0  0  0  0  0  0  0  0  0  0  0  # atno 17320 bound_to 7965
  146.3146  139.7871  142.8993 LP  0  0  0  0  0  0  0  0  0  0  0  0  # atno 17321 bound_to 7965
  139.4918  144.6465  151.6768 LP  0  0  0  0  0  0  0  0  0  0  0  0  # atno 17342 bound_to 10162
  140.5662  144.0186  150.6193 LP  0  0  0  0  0  0  0  0  0  0  0  0  # atno 17343 bound_to 10162
  156.3005  130.7174  151.2044 LP  0  0  0  0  0  0  0  0  0  0  0  0  # atno 17370 bound_to 10713
  157.7411  131.0507  150.5117 LP  0  0  0  0  0  0  0  0  0  0  0  0  # atno 17371 bound_to 10713
  140.9640  133.7370  156.0441 LP  0  0  0  0  0  0  0  0  0  0  0  0  # atno 17394 bound_to 11000
  140.7954  134.3569  157.5454 LP  0  0  0  0  0  0  0  0  0  0  0  0  # atno 17395 bound_to 11000

$$$$
