#       Name:                AV-unprocessed.smi:445
#       Creating user name   scv26
#       Creation time:       Thu Mar 26 22:58:38 2020


#       File generated by GOLD software.
#

@<TRIPOS>MOLECULE
AV-unprocessed.smi:445
    52    53     1
SMALL
NO_CHARGES


@<TRIPOS>ATOM
      1 ****        -2.7081  -2.7210   0.4320 C.3            1 S1                 0.0000
      2 ****        -2.9873  -2.0683  -0.9329 C.3            1 S1                 0.0000
      3 ****        -2.5658  -2.9877  -2.0981 C.3            1 S1                 0.0000
      4 ****        -2.8991  -2.3610  -3.4616 C.3            1 S1                 0.0000
      5 ****        -2.2628  -0.9707  -3.6088 C.3            1 S1                 0.0000
      6 ****        -2.6746  -0.0443  -2.4513 C.3            1 S1                 0.0000
      7 ****        -2.3602  -0.6574  -1.0717 C.3            1 S1                 0.0000
      8 ****        -0.9115  -0.6845  -0.8594 N.am           1 S1                 0.0000
      9 ****        -0.2543  -0.1790   0.1957 C.2            1 S1                 0.0000
     10 ****        -0.8140   0.3668   1.1477 O.2            1 S1                 0.0000
     11 ****         1.2719  -0.3436   0.1731 C.3            1 S1                 0.0000
     12 ****         1.9739   0.6417   1.0158 N.am           1 S1                 0.0000
     13 ****         2.3449   0.2152   2.3035 C.2            1 S1                 0.0000
     14 ****         2.9813   1.0218   3.1706 C.2            1 S1                 0.0000
     15 ****         3.3476   0.5611   4.4929 N.pl3          1 S1                 1.0000
     16 ****         3.9274   1.3354   5.2476 O.2            1 S1                 0.0000
     17 ****         3.0695  -0.5883   4.8215 O.2            1 S1                -1.0000
     18 ****         3.2863   2.3709   2.7409 C.2            1 S1                 0.0000
     19 ****         2.9337   2.8062   1.5042 C.2            1 S1                 0.0000
     20 ****         3.2243   4.1758   1.0238 C.2            1 S1                 0.0000
     21 ****         3.8329   4.9583   1.9239 N.am           1 S1                 0.0000
     22 ****         2.9655   4.6413  -0.0859 O.2            1 S1                 0.0000
     23 ****         2.2256   1.9064   0.5533 C.2            1 S1                 0.0000
     24 ****         1.8661   2.2251  -0.5835 O.2            1 S1                 0.0000
     25 ****        -1.6494  -2.9450   0.5648 H              1 S1                 0.0000
     26 ****        -3.2566  -3.6575   0.5359 H              1 S1                 0.0000
     27 ****        -3.0156  -2.0673   1.2487 H              1 S1                 0.0000
     28 ****        -4.0689  -1.9418  -1.0006 H              1 S1                 0.0000
     29 ****        -1.4961  -3.1941  -2.0426 H              1 S1                 0.0000
     30 ****        -3.0678  -3.9519  -2.0111 H              1 S1                 0.0000
     31 ****        -2.5555  -3.0136  -4.2646 H              1 S1                 0.0000
     32 ****        -3.9813  -2.2804  -3.5712 H              1 S1                 0.0000
     33 ****        -1.1768  -1.0660  -3.6384 H              1 S1                 0.0000
     34 ****        -2.5573  -0.5270  -4.5602 H              1 S1                 0.0000
     35 ****        -2.1833   0.9242  -2.5547 H              1 S1                 0.0000
     36 ****        -3.7454   0.1522  -2.5184 H              1 S1                 0.0000
     37 ****        -2.8218  -0.0115  -0.3228 H              1 S1                 0.0000
     38 ****        -0.3623  -1.1216  -1.5854 H              1 S1                 0.0000
     39 ****         1.5053  -1.3602   0.4922 H              1 S1                 0.0000
     40 ****         1.6302  -0.2844  -0.8566 H              1 S1                 0.0000
     41 ****         2.0682  -0.8034   2.5354 H              1 S1                 0.0000
     42 ****         3.8021   3.0178   3.4344 H              1 S1                 0.0000
     43 ****         4.0746   5.9097   1.6886 H              1 S1                 0.0000
     44 ****         4.0506   4.5897   2.8386 H              1 S1                 0.0000
     45 ****        -1.8104   0.4512   1.1606 LP             1 S1                 0.0000
     46 ****        -0.2720   0.7256   1.9077 LP             1 S1                 0.0000
     47 ****         4.1380   2.2649   4.9449 LP             1 S1                 0.0000
     48 ****         4.1892   1.0370   6.1654 LP             1 S1                 0.0000
     49 ****         2.5106   4.0741  -0.7724 LP             1 S1                 0.0000
     50 ****         3.2101   5.5868  -0.3009 LP             1 S1                 0.0000
     51 ****         1.3931   1.5613  -1.1628 LP             1 S1                 0.0000
     52 ****         2.0477   3.1472  -0.9252 LP             1 S1                 0.0000
@<TRIPOS>BOND
    1    1    2 1     
    2    1   25 1     
    3    1   26 1     
    4    1   27 1     
    5    2    7 1     
    6    2    3 1     
    7    2   28 1     
    8    3    4 1     
    9    3   29 1     
   10    3   30 1     
   11    4    5 1     
   12    4   31 1     
   13    4   32 1     
   14    5    6 1     
   15    5   33 1     
   16    5   34 1     
   17    6    7 1     
   18    6   35 1     
   19    6   36 1     
   20    7    8 1     
   21    7   37 1     
   22    8    9 am    
   23    8   38 1     
   24    9   10 2     
   25    9   11 1     
   26   11   12 1     
   27   11   39 1     
   28   11   40 1     
   29   12   23 am    
   30   12   13 1     
   31   13   14 2     
   32   13   41 1     
   33   14   15 1     
   34   14   18 1     
   35   15   16 2     
   36   15   17 1     
   37   18   19 2     
   38   18   42 1     
   39   19   20 1     
   40   19   23 1     
   41   20   21 am    
   42   20   22 2     
   43   21   43 1     
   44   21   44 1     
   45   23   24 2     
   46   10   45 1     
   47   10   46 1     
   48   16   47 1     
   49   16   48 1     
   50   22   49 1     
   51   22   50 1     
   52   24   51 1     
   53   24   52 1     
@<TRIPOS>SUBSTRUCTURE
      1 S1             1
@<TRIPOS>SET
LONE_PAIRS      STATIC     ATOMS    <user>   **** ""
9 45 46 47 48 17 49 50 51 52
DONOR_HYDROGENS      STATIC     ATOMS    <user>   **** ""
3 38 43 44
ATOM$BLUE        STATIC     ATOMS    COLORGROUP SYSTEM
9 45 46 47 48 17 49 50 51 52
ATOM$RED        STATIC     ATOMS    COLORGROUP SYSTEM
3 38 43 44
