AV-unprocessed.smi:2017|AV-procd|sdf|8167|dock3
  -GOLD-   2272010413D 1   1.00000     0.00000
 Structure written by MMmdl.
 45 46  0  0  0  0  0  0  0  0  1 V2000
  147.0092  140.1469  155.0632 O   0  0  0  0  0  0  0  0  0  0  0  0
  147.7153  140.3321  154.0706 C   0  0  0  0  0  0  0  0  0  0  0  0
  148.9409  141.2559  154.1300 C   0  0  0  0  0  0  0  0  0  0  0  0
  149.9183  140.8645  155.1567 N   0  0  0  0  0  0  0  0  0  0  0  0
  150.2183  141.7287  156.2003 C   0  0  0  0  0  0  0  0  0  0  0  0
  151.0974  141.4309  157.1862 C   0  0  0  0  0  0  0  0  0  0  0  0
  151.7894  140.1465  157.1953 C   0  0  0  0  0  0  0  0  0  0  0  0
  152.6026  139.7851  158.0429 O   0  0  0  0  0  0  0  0  0  0  0  0
  151.4591  139.3038  156.1307 N   0  0  0  0  0  0  0  0  0  0  0  0
  150.5527  139.6038  155.1125 C   0  0  0  0  0  0  0  0  0  0  0  0
  150.3296  138.7843  154.2222 O   0  0  0  0  0  0  0  0  0  0  0  0
  147.4677  139.7648  152.8802 N   0  0  0  0  0  0  0  0  0  0  0  0
  146.3574  138.8639  152.5947 C   0  0  0  0  0  0  0  0  0  0  0  0
  146.7625  137.7552  151.6077 C   0  0  0  0  0  0  0  0  0  0  0  0
  145.8972  136.4973  151.7469 C   0  0  0  0  0  0  0  0  0  0  0  0
  146.5241  135.4236  151.0602 O   0  0  0  0  0  0  0  0  0  0  0  0
  145.9775  134.1438  151.3481 C   0  0  0  0  0  0  0  0  0  0  0  0
  146.6949  133.0518  150.5271 C   0  0  0  0  0  0  0  0  0  0  0  0
  146.0317  131.6785  150.7221 C   0  0  0  0  0  0  0  0  0  0  0  0
  144.5335  131.7277  150.3823 C   0  0  0  0  0  0  0  0  0  0  0  0
  143.8151  132.8170  151.1943 C   0  0  0  0  0  0  0  0  0  0  0  0
  144.4805  134.1883  150.9945 C   0  0  0  0  0  0  0  0  0  0  0  0
  151.9114  138.4017  156.0969 H   0  0  0  0  0  0  0  0  0  0  0  0
  149.4141  141.2886  153.1466 H   0  0  0  0  0  0  0  0  0  0  0  0
  148.5936  142.2737  154.3147 H   0  0  0  0  0  0  0  0  0  0  0  0
  149.7256  142.6899  156.2363 H   0  0  0  0  0  0  0  0  0  0  0  0
  151.2889  142.1463  157.9730 H   0  0  0  0  0  0  0  0  0  0  0  0
  148.0955  139.9708  152.1166 H   0  0  0  0  0  0  0  0  0  0  0  0
  146.0331  138.4232  153.5376 H   0  0  0  0  0  0  0  0  0  0  0  0
  145.5074  139.4290  152.2087 H   0  0  0  0  0  0  0  0  0  0  0  0
  146.6748  138.1280  150.5866 H   0  0  0  0  0  0  0  0  0  0  0  0
  147.8117  137.4932  151.7496 H   0  0  0  0  0  0  0  0  0  0  0  0
  145.7507  136.2636  152.8015 H   0  0  0  0  0  0  0  0  0  0  0  0
  144.9125  136.6786  151.3141 H   0  0  0  0  0  0  0  0  0  0  0  0
  146.0706  133.9276  152.4141 H   0  0  0  0  0  0  0  0  0  0  0  0
  146.6745  133.3178  149.4694 H   0  0  0  0  0  0  0  0  0  0  0  0
  147.7460  132.9859  150.8068 H   0  0  0  0  0  0  0  0  0  0  0  0
  146.5293  130.9343  150.0998 H   0  0  0  0  0  0  0  0  0  0  0  0
  146.1618  131.3545  151.7554 H   0  0  0  0  0  0  0  0  0  0  0  0
  144.4074  131.9239  149.3169 H   0  0  0  0  0  0  0  0  0  0  0  0
  144.0760  130.7570  150.5746 H   0  0  0  0  0  0  0  0  0  0  0  0
  142.7657  132.8668  150.9025 H   0  0  0  0  0  0  0  0  0  0  0  0
  143.8301  132.5541  152.2528 H   0  0  0  0  0  0  0  0  0  0  0  0
  143.9764  134.9361  151.6076 H   0  0  0  0  0  0  0  0  0  0  0  0
  144.3566  134.5046  149.9579 H   0  0  0  0  0  0  0  0  0  0  0  0
  1  2  2  0  0  0  0
  2  3  1  0  0  0  0
  2 12  1  0  0  0  0
  3  4  1  0  0  0  0
  3 24  1  0  0  0  0
  3 25  1  0  0  0  0
  4 10  1  0  0  0  0
  4  5  1  0  0  0  0
  5  6  2  0  0  0  0
  5 26  1  0  0  0  0
  6  7  1  0  0  0  0
  6 27  1  0  0  0  0
  7  8  2  0  0  0  0
  7  9  1  0  0  0  0
  9 23  1  0  0  0  0
  9 10  1  0  0  0  0
 10 11  2  0  0  0  0
 12 13  1  0  0  0  0
 12 28  1  0  0  0  0
 13 14  1  0  0  0  0
 13 29  1  0  0  0  0
 13 30  1  0  0  0  0
 14 15  1  0  0  0  0
 14 31  1  0  0  0  0
 14 32  1  0  0  0  0
 15 16  1  0  0  0  0
 15 33  1  0  0  0  0
 15 34  1  0  0  0  0
 16 17  1  0  0  0  0
 17 22  1  0  0  0  0
 17 18  1  0  0  0  0
 17 35  1  0  0  0  0
 18 19  1  0  0  0  0
 18 36  1  0  0  0  0
 18 37  1  0  0  0  0
 19 20  1  0  0  0  0
 19 38  1  0  0  0  0
 19 39  1  0  0  0  0
 20 21  1  0  0  0  0
 20 40  1  0  0  0  0
 20 41  1  0  0  0  0
 21 22  1  0  0  0  0
 21 42  1  0  0  0  0
 21 43  1  0  0  0  0
 22 44  1  0  0  0  0
 22 45  1  0  0  0  0
M  END
> <s_m_source_file>
AV-unprocessed.smi

> <i_m_source_file_index>
2017

> <i_lp_mmshare_version>
43012

> <i_f3d_flags>
0

> <s_epik_input>
Tz1jMVtuSF1jKD1PKVtjSF1bY0hdbjFbQ0gyXUMoPU8pW05IXVtDSDJdW0NIMl1bQ0gyXU9bQ0hdMltDSDJdW0NIMl1bQ0gyXVtDSDJdW0NIMl0y

> <s_epik_cmdline>
J2VwaWtfcHl0aG9uJywgJy1waCcsICc3LjAnLCAnLXRuJywgJzgnLCAnLW1hJywgJzIwMCcsICctbWV0YWxfYmluZGluZycsICctaW1hZScsICc8aW5maWxlLm1hZT4nLCAnLW9tYWUnLCAnPG91dGZpbGUubWFlPic=

> <r_lp_tautomer_probability>
0.999537

> <r_epik_Ionization_Penalty>
0.003299

> <r_epik_Ionization_Penalty_Charging>
0.00329898

> <r_epik_Ionization_Penalty_Neutral>
1.92812e-08

> <r_epik_State_Penalty>
0.00233129

> <r_epik_Charging_Adjusted_Penalty>
0.00563027

> <i_epik_Tot_Q>
0

> <i_epik_Tot_abs_Q>
0

> <r_epik_Metal_State_Penalty>
0.365405

> <b_epik_Metal_Only>
0

> <s_lp_Force_Field>
OPLS_2005

> <r_lp_Energy>
10.1374

> <b_lp_Chiralities_Consistent>
1

> <s_lp_Variant>
AV-unprocessed.smi:2017-1

> <Gold.Version>
5.8.1

> <Gold.Id.Protein>
6NUR|6NUR_protein|mol2

> <Gold.PLP.Fitness>
47.0865

> <Gold.PLP.PLP>
-38.7775

> <Gold.PLP.part.hbond>
-2.0000

> <Gold.PLP.part.metal>
0.0000

> <Gold.PLP.part.buried>
0.7142

> <Gold.PLP.part.nonpolar>
-38.6985

> <Gold.PLP.part.repulsive>
2.0937

> <Gold.PLP.ligand.clash>
0.0000

> <Gold.PLP.ligand.torsion>
0.4129

> <Gold.PLP.Chemscore.Hbond>
2.0000

> <Gold.PLP.Chemscore.CHOScore>
1.0000

> <Gold.PLP.Chemscore.Metal>
0.0000

> <Gold.Chemscore.Hbonds>
donor molecule, donor type, donor heavy atom, donor atom, acceptor molecule, acceptor atom, score
      L1  H    12    28       P1  7957  1.00
      P1  H  7997  8008       L1     8  0.49
      L1  C     5    26       P1  8028  1.00

> <Gold.PLP.Chemscore.Internal.Correction>
0.1349

> <Gold.Rescore>
     Score         DG    S(hbond)    S(metal)    S(lipo)     H(rot)  DE(clash)    DE(int)     intcor
     10.71     -14.94       1.65        0.00      93.75       2.74       2.91       1.32       ----

> <Gold.Chemscore.Fitness>
10.7088

> <Gold.Chemscore.DG>
-14.9397

> <Gold.Chemscore.ZeroCoef>
-5.4800

> <Gold.Chemscore.Hbond>
1.6470

> <Gold.Chemscore.Metal>
0.0000

> <Gold.Chemscore.Lipo>
93.7476

> <Gold.Chemscore.Internal_Hbond>
0.0000

> <Gold.Chemscore.DEClash>
2.9117

> <Gold.Chemscore.DEInternal>
1.3193

> <Gold.Chemscore.Rot>
2.7382

> <Gold.Chemscore.Internal.Correction>
   9.000000E+99

> <Gold.Chemscore.Hbonds>
donor molecule, donor type, donor heavy atom, donor atom, acceptor molecule, acceptor atom, score
      L1  H    12    28       P1  7957  1.00
      P1  H  7997  8008       L1     8  0.17

> <Gold.Chemscore.Hbond.Weighted>
-5.5011

> <Gold.Chemscore.Metal.Weighted>
-0.0000

> <Gold.Chemscore.Lipo.Weighted>
-10.9685

> <Gold.Chemscore.Internal_Hbond.Weighted>
0.0000

> <Gold.Chemscore.DEClash.Weighted>
2.9117

> <Gold.Chemscore.DEInternal.Weighted>
1.3193

> <Gold.Chemscore.Rot.Weighted>
7.0098

> <Gold.Chemscore.Internal.Correction.Weighted>
   9.000000E+99

> <Gold.Protein.RotatedTorsions>
[ 6907 6896 6895 6894 ] final   79.14 input  -60.11 | X-H torsion
[ 7974 7965 7964 7962 ] final   84.69 input  175.53 | X-H torsion
[ 8008 7997 7996 7995 ] final  -82.19 input   59.86 | X-H torsion
[ 10167 10162 10161 10158 ] final  144.35 input  -65.29 | X-H torsion
[ 10718 10713 10712 10709 ] final   36.31 input   66.30 | X-H torsion
[ 10763 10752 10751 10750 ] final  -70.38 input  -60.55 | X-H torsion
[ 11005 11000 10999 10996 ] final   79.89 input  -57.11 | X-H torsion

> <Gold.Protein.ActiveResidues>
 VAL166  LYS551  ARG553  GLY616  TRP617  ASP618  TYR619  PRO620  LYS621  CYS622 
 ASP623  PHE694  ASN695  SER759  ASP760  ASP761  ALA762  ILE779  LEU786  VAL792 
 PHE793  MET794  SER795  GLU796  ALA797  LYS798  CYS799  TRP800  GLU811  SER814 

> <Gold.Protein.RotatedAtoms>
  152.5187  134.3557  159.9266 H   0  0  0  0  0  0  0  0  0  0  0  0  # atno 6907 bound_to 6896
  151.3508  133.3920  159.2688 H   0  0  0  0  0  0  0  0  0  0  0  0  # atno 6908 bound_to 6896
  150.9728  134.9117  159.7856 H   0  0  0  0  0  0  0  0  0  0  0  0  # atno 6909 bound_to 6896
  145.5954  139.2344  143.2276 H   0  0  0  0  0  0  0  0  0  0  0  0  # atno 7974 bound_to 7965
  154.6060  140.0637  156.9432 H   0  0  0  0  0  0  0  0  0  0  0  0  # atno 8008 bound_to 7997
  155.2052  140.3318  155.4319 H   0  0  0  0  0  0  0  0  0  0  0  0  # atno 8009 bound_to 7997
  156.2348  140.1857  156.7132 H   0  0  0  0  0  0  0  0  0  0  0  0  # atno 8010 bound_to 7997
  139.4949  144.5978  151.6546 H   0  0  0  0  0  0  0  0  0  0  0  0  # atno 10167 bound_to 10162
  157.3333  130.7509  149.6862 H   0  0  0  0  0  0  0  0  0  0  0  0  # atno 10718 bound_to 10713
  154.4168  135.5996  153.5986 H   0  0  0  0  0  0  0  0  0  0  0  0  # atno 10763 bound_to 10752
  152.9792  135.5943  154.4003 H   0  0  0  0  0  0  0  0  0  0  0  0  # atno 10764 bound_to 10752
  154.3823  135.2841  155.2182 H   0  0  0  0  0  0  0  0  0  0  0  0  # atno 10765 bound_to 10752
  139.9155  134.7878  156.1838 H   0  0  0  0  0  0  0  0  0  0  0  0  # atno 11005 bound_to 11000
  146.1616  140.6780  142.9275 LP  0  0  0  0  0  0  0  0  0  0  0  0  # atno 17320 bound_to 7965
  144.7333  140.4735  143.6922 LP  0  0  0  0  0  0  0  0  0  0  0  0  # atno 17321 bound_to 7965
  140.5620  144.0253  150.6174 LP  0  0  0  0  0  0  0  0  0  0  0  0  # atno 17342 bound_to 10162
  140.3342  143.3059  152.0656 LP  0  0  0  0  0  0  0  0  0  0  0  0  # atno 17343 bound_to 10162
  155.9698  130.4189  150.4348 LP  0  0  0  0  0  0  0  0  0  0  0  0  # atno 17370 bound_to 10713
  157.2384  131.0520  151.2451 LP  0  0  0  0  0  0  0  0  0  0  0  0  # atno 17371 bound_to 10713
  141.0626  133.6834  156.1982 LP  0  0  0  0  0  0  0  0  0  0  0  0  # atno 17394 bound_to 11000
  140.6636  134.4941  157.5584 LP  0  0  0  0  0  0  0  0  0  0  0  0  # atno 17395 bound_to 11000

$$$$
