AV-unprocessed.smi:3051|AV-procd|sdf|11633|dock2
  -GOLD-   2272017 23D 1   1.00000     0.00000
 Structure written by MMmdl.
 37 37  0  0  0  0  0  0  0  0  1 V2000
  157.6651  140.7921  158.9808 C   0  0  0  0  0  0  0  0  0  0  0  0
  156.5032  139.9973  159.5908 C   0  0  0  0  0  0  0  0  0  0  0  0
  155.4513  140.8792  160.0817 N   0  0  0  0  0  0  0  0  0  0  0  0
  154.1574  140.8088  159.7311 C   0  0  0  0  0  0  0  0  0  0  0  0
  153.7118  139.9744  158.9432 O   0  0  0  0  0  0  0  0  0  0  0  0
  153.2178  141.8306  160.3739 C   0  0  0  0  0  0  0  0  0  0  0  0
  152.5684  142.6572  159.3718 N   0  0  0  0  0  0  0  0  0  0  0  0
  152.6282  144.0291  159.2214 C   0  0  0  0  0  0  0  0  0  0  0  0
  151.8570  144.3582  158.1429 C   0  0  0  0  0  0  0  0  0  0  0  0
  151.3663  143.1006  157.6978 C   0  0  0  0  0  0  0  0  0  0  0  0
  150.5203  142.9860  156.5883 N   0  0  0  0  0  0  0  0  0  0  0  0
  150.0307  141.6833  156.1522 C   0  0  2  0  0  0  0  0  0  0  0  0
  149.0451  141.0982  157.1779 C   0  0  0  0  0  0  0  0  0  0  0  0
  151.2095  140.7263  155.9174 C   0  0  0  0  0  0  0  0  0  0  0  0
  150.9888  139.9961  154.7215 O   0  0  0  0  0  0  0  0  0  0  0  0
  149.7777  139.2614  154.7492 C   0  0  0  0  0  0  0  0  0  0  0  0
  151.7876  142.0814  158.4311 N   0  0  0  0  0  0  0  0  0  0  0  0
  158.4280  140.1206  158.5868 H   0  0  0  0  0  0  0  0  0  0  0  0
  158.1410  141.4338  159.7230 H   0  0  0  0  0  0  0  0  0  0  0  0
  157.3223  141.4237  158.1604 H   0  0  0  0  0  0  0  0  0  0  0  0
  156.0713  139.3405  158.8355 H   0  0  0  0  0  0  0  0  0  0  0  0
  156.8637  139.3522  160.3937 H   0  0  0  0  0  0  0  0  0  0  0  0
  155.7265  141.6010  160.7325 H   0  0  0  0  0  0  0  0  0  0  0  0
  152.4489  141.3191  160.9543 H   0  0  0  0  0  0  0  0  0  0  0  0
  153.7758  142.4624  161.0672 H   0  0  0  0  0  0  0  0  0  0  0  0
  153.2074  144.6493  159.8894 H   0  0  0  0  0  0  0  0  0  0  0  0
  151.6750  145.3426  157.7378 H   0  0  0  0  0  0  0  0  0  0  0  0
  150.2111  143.8142  156.1001 H   0  0  0  0  0  0  0  0  0  0  0  0
  149.5055  141.8049  155.2038 H   0  0  0  0  0  0  0  0  0  0  0  0
  148.6667  140.1300  156.8490 H   0  0  0  0  0  0  0  0  0  0  0  0
  148.1829  141.7493  157.3231 H   0  0  0  0  0  0  0  0  0  0  0  0
  149.5209  140.9560  158.1487 H   0  0  0  0  0  0  0  0  0  0  0  0
  152.1501  141.2782  155.8668 H   0  0  0  0  0  0  0  0  0  0  0  0
  151.2888  140.0248  156.7496 H   0  0  0  0  0  0  0  0  0  0  0  0
  149.6550  138.7221  153.8101 H   0  0  0  0  0  0  0  0  0  0  0  0
  148.9181  139.9212  154.8727 H   0  0  0  0  0  0  0  0  0  0  0  0
  149.7787  138.5310  155.5592 H   0  0  0  0  0  0  0  0  0  0  0  0
  1  2  1  0  0  0  0
  1 18  1  0  0  0  0
  1 19  1  0  0  0  0
  1 20  1  0  0  0  0
  2  3  1  0  0  0  0
  2 21  1  0  0  0  0
  2 22  1  0  0  0  0
  3  4  1  0  0  0  0
  3 23  1  0  0  0  0
  4  5  2  0  0  0  0
  4  6  1  0  0  0  0
  6  7  1  0  0  0  0
  6 24  1  0  0  0  0
  6 25  1  0  0  0  0
  7 17  1  0  0  0  0
  7  8  1  0  0  0  0
  8  9  2  0  0  0  0
  8 26  1  0  0  0  0
  9 10  1  0  0  0  0
  9 27  1  0  0  0  0
 10 11  1  0  0  0  0
 10 17  2  0  0  0  0
 11 12  1  0  0  0  0
 11 28  1  0  0  0  0
 12 13  1  0  0  0  0
 12 14  1  0  0  0  0
 12 29  1  0  0  0  0
 13 30  1  0  0  0  0
 13 31  1  0  0  0  0
 13 32  1  0  0  0  0
 14 15  1  0  0  0  0
 14 33  1  0  0  0  0
 14 34  1  0  0  0  0
 15 16  1  0  0  0  0
 16 35  1  0  0  0  0
 16 36  1  0  0  0  0
 16 37  1  0  0  0  0
M  END
> <s_m_source_file>
AV-unprocessed.smi

> <i_m_source_file_index>
3051

> <i_lp_mmshare_version>
43012

> <i_f3d_flags>
0

> <s_epik_input>
W0NIM11bQ0gyXVtOSF1DKD1PKVtDSDJdbjFbY0hdW2NIXWMobjEpW05IXVtDQEhdKFtDSDNdKVtDSDJdT1tDSDNd

> <s_epik_cmdline>
J2VwaWtfcHl0aG9uJywgJy1waCcsICc3LjAnLCAnLXRuJywgJzgnLCAnLW1hJywgJzIwMCcsICctbWV0YWxfYmluZGluZycsICctaW1hZScsICc8aW5maWxlLm1hZT4nLCAnLW9tYWUnLCAnPG91dGZpbGUubWFlPic=

> <r_lp_tautomer_probability>
1

> <r_epik_Ionization_Penalty>
0.00023157

> <r_epik_Ionization_Penalty_Charging>
0

> <r_epik_Ionization_Penalty_Neutral>
0.00023157

> <r_epik_State_Penalty>
-0

> <r_epik_Charging_Adjusted_Penalty>
0

> <i_epik_Tot_Q>
0

> <i_epik_Tot_abs_Q>
0

> <r_epik_Metal_State_Penalty>
-0

> <b_epik_Metal_Only>
0

> <s_lp_Force_Field>
OPLS_2005

> <r_lp_Energy>
4.00538

> <b_lp_Chiralities_Consistent>
1

> <s_lp_Variant>
AV-unprocessed.smi:3051-1

> <Gold.Version>
5.8.1

> <Gold.Id.Protein>
6NUR|6NUR_protein|mol2

> <Gold.PLP.Fitness>
48.0333

> <Gold.PLP.PLP>
-40.3632

> <Gold.PLP.part.hbond>
-3.9577

> <Gold.PLP.part.metal>
0.0000

> <Gold.PLP.part.buried>
-4.2657

> <Gold.PLP.part.nonpolar>
-32.1276

> <Gold.PLP.part.repulsive>
0.2079

> <Gold.PLP.ligand.clash>
0.0000

> <Gold.PLP.ligand.torsion>
0.6491

> <Gold.PLP.Chemscore.Hbond>
2.9680

> <Gold.PLP.Chemscore.CHOScore>
0.0000

> <Gold.PLP.Chemscore.Metal>
0.0000

> <Gold.Chemscore.Hbonds>
donor molecule, donor type, donor heavy atom, donor atom, acceptor molecule, acceptor atom, score
      L1  H    11    28       P1  8028  0.93
      P1  H  7989  7998       L1    15  1.00
      P1  H  7997  8010       L1     5  0.93

> <Gold.PLP.Chemscore.Internal.Correction>
0.0644

> <Gold.Rescore>
     Score         DG    S(hbond)    S(metal)    S(lipo)     H(rot)  DE(clash)    DE(int)     intcor
     14.71     -17.98       2.80        0.00      74.87       2.19       0.01       3.25       ----

> <Gold.Chemscore.Fitness>
14.7146

> <Gold.Chemscore.DG>
-17.9821

> <Gold.Chemscore.ZeroCoef>
-5.4800

> <Gold.Chemscore.Hbond>
2.7981

> <Gold.Chemscore.Metal>
0.0000

> <Gold.Chemscore.Lipo>
74.8734

> <Gold.Chemscore.Internal_Hbond>
0.0000

> <Gold.Chemscore.DEClash>
0.0150

> <Gold.Chemscore.DEInternal>
3.2525

> <Gold.Chemscore.Rot>
2.1890

> <Gold.Chemscore.Internal.Correction>
   9.000000E+99

> <Gold.Chemscore.Hbonds>
donor molecule, donor type, donor heavy atom, donor atom, acceptor molecule, acceptor atom, score
      L1  H    11    28       P1  8028  0.89
      P1  H  7989  7998       L1    15  0.60
      P1  H  7997  8010       L1     5  0.51

> <Gold.Chemscore.Hbond.Weighted>
-9.3458

> <Gold.Chemscore.Metal.Weighted>
-0.0000

> <Gold.Chemscore.Lipo.Weighted>
-8.7602

> <Gold.Chemscore.Internal_Hbond.Weighted>
0.0000

> <Gold.Chemscore.DEClash.Weighted>
0.0150

> <Gold.Chemscore.DEInternal.Weighted>
3.2525

> <Gold.Chemscore.Rot.Weighted>
5.6039

> <Gold.Chemscore.Internal.Correction.Weighted>
   9.000000E+99

> <Gold.Protein.RotatedTorsions>
[ 6907 6896 6895 6894 ] final  130.13 input  -60.11 | X-H torsion
[ 7974 7965 7964 7962 ] final -140.34 input  175.53 | X-H torsion
[ 8008 7997 7996 7995 ] final   10.30 input   59.86 | X-H torsion
[ 10167 10162 10161 10158 ] final -100.77 input  -65.29 | X-H torsion
[ 10718 10713 10712 10709 ] final   62.24 input   66.30 | X-H torsion
[ 10763 10752 10751 10750 ] final  158.35 input  -60.55 | X-H torsion
[ 11005 11000 10999 10996 ] final  157.01 input  -57.11 | X-H torsion

> <Gold.Protein.ActiveResidues>
 VAL166  LYS551  ARG553  GLY616  TRP617  ASP618  TYR619  PRO620  LYS621  CYS622 
 ASP623  PHE694  ASN695  SER759  ASP760  ASP761  ALA762  ILE779  LEU786  VAL792 
 PHE793  MET794  SER795  GLU796  ALA797  LYS798  CYS799  TRP800  GLU811  SER814 

> <Gold.Protein.RotatedAtoms>
  152.3557  133.6234  159.5977 H   0  0  0  0  0  0  0  0  0  0  0  0  # atno 6907 bound_to 6896
  150.7567  133.9504  159.3493 H   0  0  0  0  0  0  0  0  0  0  0  0  # atno 6908 bound_to 6896
  151.7350  135.0867  160.0357 H   0  0  0  0  0  0  0  0  0  0  0  0  # atno 6909 bound_to 6896
  144.8605  140.6211  143.5332 H   0  0  0  0  0  0  0  0  0  0  0  0  # atno 7974 bound_to 7965
  154.7915  140.2836  155.5988 H   0  0  0  0  0  0  0  0  0  0  0  0  # atno 8008 bound_to 7997
  156.2965  140.2604  156.2692 H   0  0  0  0  0  0  0  0  0  0  0  0  # atno 8009 bound_to 7997
  154.9665  140.0377  157.2204 H   0  0  0  0  0  0  0  0  0  0  0  0  # atno 8010 bound_to 7997
  140.2483  143.3490  152.0738 H   0  0  0  0  0  0  0  0  0  0  0  0  # atno 10167 bound_to 10162
  157.5886  130.9039  149.9562 H   0  0  0  0  0  0  0  0  0  0  0  0  # atno 10718 bound_to 10713
  154.2147  135.2784  155.2946 H   0  0  0  0  0  0  0  0  0  0  0  0  # atno 10763 bound_to 10752
  154.5750  135.5607  153.7134 H   0  0  0  0  0  0  0  0  0  0  0  0  # atno 10764 bound_to 10752
  153.0056  135.6331  154.2286 H   0  0  0  0  0  0  0  0  0  0  0  0  # atno 10765 bound_to 10752
  140.1729  134.8530  157.2712 H   0  0  0  0  0  0  0  0  0  0  0  0  # atno 11005 bound_to 11000
  145.4322  139.1547  143.4016 LP  0  0  0  0  0  0  0  0  0  0  0  0  # atno 17320 bound_to 7965
  146.2856  140.4439  142.8759 LP  0  0  0  0  0  0  0  0  0  0  0  0  # atno 17321 bound_to 7965
  139.5054  144.6795  151.6045 LP  0  0  0  0  0  0  0  0  0  0  0  0  # atno 17342 bound_to 10162
  140.6060  143.9523  150.6419 LP  0  0  0  0  0  0  0  0  0  0  0  0  # atno 17343 bound_to 10162
  156.0938  130.3661  150.0345 LP  0  0  0  0  0  0  0  0  0  0  0  0  # atno 17370 bound_to 10713
  156.8472  130.9446  151.3628 LP  0  0  0  0  0  0  0  0  0  0  0  0  # atno 17371 bound_to 10713
  140.2356  134.3857  155.7502 LP  0  0  0  0  0  0  0  0  0  0  0  0  # atno 17394 bound_to 11000
  141.2218  133.7238  156.8709 LP  0  0  0  0  0  0  0  0  0  0  0  0  # atno 17395 bound_to 11000

$$$$
