AV-unprocessed.smi:672|AV-procd|sdf|3291|dock1
  -GOLD-   22720 0253D 1   1.00000     0.00000
 Structure written by MMmdl.
 36 37  0  0  0  0  0  0  0  0  1 V2000
  151.1798  141.8453  157.3315 C   0  0  0  0  0  0  0  0  0  0  0  0
  151.5691  140.7479  156.3352 C   0  0  0  0  0  0  0  0  0  0  0  0
  150.3824  140.0946  155.7089 C   0  0  0  0  0  0  0  0  0  0  0  0
  149.1244  140.4503  155.9979 N   0  0  0  0  0  0  0  0  0  0  0  0
  148.1915  139.7228  155.2724 N   0  0  0  0  0  0  0  0  0  0  0  0
  148.7759  138.8474  154.4429 C   0  0  0  0  0  0  0  0  0  0  0  0
  148.0580  137.9747  153.5830 N   0  0  0  0  0  0  0  0  0  0  0  0
  146.7337  137.9338  153.3539 C   0  0  0  0  0  0  0  0  0  0  0  0
  145.8986  138.6825  153.8622 O   0  0  0  0  0  0  0  0  0  0  0  0
  146.4213  136.9587  152.4882 N   0  0  0  0  0  0  0  0  0  0  0  0
  145.0713  136.6482  152.0243 C   0  0  2  0  0  0  0  0  0  0  0  0
  144.2380  135.9611  153.1246 C   0  0  0  0  0  0  0  0  0  0  0  0
  144.1131  134.4978  152.7015 C   0  0  0  0  0  0  0  0  0  0  0  0
  144.1072  134.5534  151.1762 C   0  0  2  0  0  0  0  0  0  0  0  0
  144.5222  132.9549  150.4212 S   0  0  0  0  0  0  0  0  0  0  0  0
  146.1644  132.6804  151.1362 C   0  0  0  0  0  0  0  0  0  0  0  0
  145.1127  135.6610  150.8416 C   0  0  0  0  0  0  0  0  0  0  0  0
  150.5307  138.8409  154.4826 S   0  0  0  0  0  0  0  0  0  0  0  0
  152.0663  142.3032  157.7705 H   0  0  0  0  0  0  0  0  0  0  0  0
  150.5759  141.4416  158.1447 H   0  0  0  0  0  0  0  0  0  0  0  0
  150.6033  142.6325  156.8449 H   0  0  0  0  0  0  0  0  0  0  0  0
  152.1939  141.1676  155.5464 H   0  0  0  0  0  0  0  0  0  0  0  0
  152.1688  139.9867  156.8358 H   0  0  0  0  0  0  0  0  0  0  0  0
  148.6195  137.2993  153.0856 H   0  0  0  0  0  0  0  0  0  0  0  0
  147.1694  136.3890  152.1211 H   0  0  0  0  0  0  0  0  0  0  0  0
  144.5739  137.5687  151.7128 H   0  0  0  0  0  0  0  0  0  0  0  0
  144.6632  136.0630  154.1240 H   0  0  0  0  0  0  0  0  0  0  0  0
  143.2449  136.4112  153.1538 H   0  0  0  0  0  0  0  0  0  0  0  0
  144.9832  133.9416  153.0541 H   0  0  0  0  0  0  0  0  0  0  0  0
  143.2223  134.0185  153.1086 H   0  0  0  0  0  0  0  0  0  0  0  0
  143.1132  134.8544  150.8415 H   0  0  0  0  0  0  0  0  0  0  0  0
  146.5875  131.7509  150.7555 H   0  0  0  0  0  0  0  0  0  0  0  0
  146.1038  132.6112  152.2222 H   0  0  0  0  0  0  0  0  0  0  0  0
  146.8360  133.4983  150.8750 H   0  0  0  0  0  0  0  0  0  0  0  0
  144.8765  136.1498  149.8957 H   0  0  0  0  0  0  0  0  0  0  0  0
  146.1102  135.2299  150.7390 H   0  0  0  0  0  0  0  0  0  0  0  0
  1  2  1  0  0  0  0
  1 19  1  0  0  0  0
  1 20  1  0  0  0  0
  1 21  1  0  0  0  0
  2  3  1  0  0  0  0
  2 22  1  0  0  0  0
  2 23  1  0  0  0  0
  3 18  1  0  0  0  0
  3  4  2  0  0  0  0
  4  5  1  0  0  0  0
  5  6  2  0  0  0  0
  6  7  1  0  0  0  0
  6 18  1  0  0  0  0
  7  8  1  0  0  0  0
  7 24  1  0  0  0  0
  8  9  2  0  0  0  0
  8 10  1  0  0  0  0
 10 11  1  0  0  0  0
 10 25  1  0  0  0  0
 11 17  1  0  0  0  0
 11 12  1  0  0  0  0
 11 26  1  0  0  0  0
 12 13  1  0  0  0  0
 12 27  1  0  0  0  0
 12 28  1  0  0  0  0
 13 14  1  0  0  0  0
 13 29  1  0  0  0  0
 13 30  1  0  0  0  0
 14 15  1  0  0  0  0
 14 17  1  0  0  0  0
 14 31  1  0  0  0  0
 15 16  1  0  0  0  0
 16 32  1  0  0  0  0
 16 33  1  0  0  0  0
 16 34  1  0  0  0  0
 17 35  1  0  0  0  0
 17 36  1  0  0  0  0
M  END
> <s_m_source_file>
AV-unprocessed.smi

> <i_m_source_file_index>
672

> <i_lp_mmshare_version>
43012

> <i_f3d_flags>
0

> <s_epik_input>
W0NIM11bQ0gyXWMxbm5jKHMxKVtOSF1DKD1PKVtOSF1bQ0BASF0yW0NIMl1bQ0gyXVtDQEhdKFtDSDJdMilTW0NIM10=

> <s_epik_cmdline>
J2VwaWtfcHl0aG9uJywgJy1waCcsICc3LjAnLCAnLXRuJywgJzgnLCAnLW1hJywgJzIwMCcsICctbWV0YWxfYmluZGluZycsICctaW1hZScsICc8aW5maWxlLm1hZT4nLCAnLW9tYWUnLCAnPG91dGZpbGUubWFlPic=

> <r_lp_tautomer_probability>
1

> <r_epik_Ionization_Penalty>
0.000422169

> <r_epik_Ionization_Penalty_Charging>
0

> <r_epik_Ionization_Penalty_Neutral>
0.000422169

> <r_epik_State_Penalty>
-0

> <r_epik_Charging_Adjusted_Penalty>
0

> <i_epik_Tot_Q>
0

> <i_epik_Tot_abs_Q>
0

> <r_epik_Metal_State_Penalty>
0.200061

> <b_epik_Metal_Only>
0

> <s_lp_Force_Field>
OPLS_2005

> <r_lp_Energy>
11.3394

> <b_lp_Chiralities_Consistent>
1

> <s_lp_Variant>
AV-unprocessed.smi:672-3

> <Gold.Version>
5.8.1

> <Gold.Id.Protein>
6NUR|6NUR_protein|mol2

> <Gold.PLP.Fitness>
34.8530

> <Gold.PLP.PLP>
-29.2335

> <Gold.PLP.part.hbond>
-2.0000

> <Gold.PLP.part.metal>
0.0000

> <Gold.PLP.part.buried>
-4.3385

> <Gold.PLP.part.nonpolar>
-23.5951

> <Gold.PLP.part.repulsive>
0.4558

> <Gold.PLP.ligand.clash>
0.0000

> <Gold.PLP.ligand.torsion>
0.1428

> <Gold.PLP.Chemscore.Hbond>
1.9600

> <Gold.PLP.Chemscore.CHOScore>
0.0000

> <Gold.PLP.Chemscore.Metal>
0.0000

> <Gold.Chemscore.Hbonds>
donor molecule, donor type, donor heavy atom, donor atom, acceptor molecule, acceptor atom, score
      L1  H     7    24       P1  7948  1.00
      L1  H    10    25       P1  7948  0.94

> <Gold.PLP.Chemscore.Internal.Correction>
0.0251

> <Gold.Rescore>
     Score         DG    S(hbond)    S(metal)    S(lipo)     H(rot)  DE(clash)    DE(int)     intcor
     15.13     -16.64       1.95        0.00      69.80       1.37       0.05       1.47       ----

> <Gold.Chemscore.Fitness>
15.1318

> <Gold.Chemscore.DG>
-16.6436

> <Gold.Chemscore.ZeroCoef>
-5.4800

> <Gold.Chemscore.Hbond>
1.9450

> <Gold.Chemscore.Metal>
0.0000

> <Gold.Chemscore.Lipo>
69.7980

> <Gold.Chemscore.Internal_Hbond>
0.0000

> <Gold.Chemscore.DEClash>
0.0465

> <Gold.Chemscore.DEInternal>
1.4652

> <Gold.Chemscore.Rot>
1.3669

> <Gold.Chemscore.Internal.Correction>
   9.000000E+99

> <Gold.Chemscore.Hbonds>
donor molecule, donor type, donor heavy atom, donor atom, acceptor molecule, acceptor atom, score
      L1  H     7    24       P1  7948  0.98
      L1  H    10    25       P1  7948  0.91

> <Gold.Chemscore.Hbond.Weighted>
-6.4964

> <Gold.Chemscore.Metal.Weighted>
-0.0000

> <Gold.Chemscore.Lipo.Weighted>
-8.1664

> <Gold.Chemscore.Internal_Hbond.Weighted>
0.0000

> <Gold.Chemscore.DEClash.Weighted>
0.0465

> <Gold.Chemscore.DEInternal.Weighted>
1.4652

> <Gold.Chemscore.Rot.Weighted>
3.4992

> <Gold.Chemscore.Internal.Correction.Weighted>
   9.000000E+99

> <Gold.Protein.RotatedTorsions>
[ 6907 6896 6895 6894 ] final  -25.90 input  -60.11 | X-H torsion
[ 7974 7965 7964 7962 ] final -113.81 input  175.53 | X-H torsion
[ 8008 7997 7996 7995 ] final  -70.35 input   59.86 | X-H torsion
[ 10167 10162 10161 10158 ] final  -57.85 input  -65.29 | X-H torsion
[ 10718 10713 10712 10709 ] final  -75.62 input   66.30 | X-H torsion
[ 10763 10752 10751 10750 ] final    9.43 input  -60.55 | X-H torsion
[ 11005 11000 10999 10996 ] final  -27.59 input  -57.11 | X-H torsion

> <Gold.Protein.ActiveResidues>
 VAL166  LYS551  ARG553  GLY616  TRP617  ASP618  TYR619  PRO620  LYS621  CYS622 
 ASP623  PHE694  ASN695  SER759  ASP760  ASP761  ALA762  ILE779  LEU786  VAL792 
 PHE793  MET794  SER795  GLU796  ALA797  LYS798  CYS799  TRP800  GLU811  SER814 

> <Gold.Protein.RotatedAtoms>
  151.1686  135.0307  159.8741 H   0  0  0  0  0  0  0  0  0  0  0  0  # atno 6907 bound_to 6896
  152.5449  134.1196  159.8403 H   0  0  0  0  0  0  0  0  0  0  0  0  # atno 6908 bound_to 6896
  151.1299  133.4997  159.2632 H   0  0  0  0  0  0  0  0  0  0  0  0  # atno 6909 bound_to 6896
  145.1277  140.8706  143.3776 H   0  0  0  0  0  0  0  0  0  0  0  0  # atno 7974 bound_to 7965
  154.5006  140.0836  156.7789 H   0  0  0  0  0  0  0  0  0  0  0  0  # atno 8008 bound_to 7997
  155.4013  140.3437  155.4239 H   0  0  0  0  0  0  0  0  0  0  0  0  # atno 8009 bound_to 7997
  156.1451  140.1541  156.8847 H   0  0  0  0  0  0  0  0  0  0  0  0  # atno 8010 bound_to 7997
  140.6233  143.2428  151.5427 H   0  0  0  0  0  0  0  0  0  0  0  0  # atno 10167 bound_to 10162
  156.0201  130.4445  150.3071 H   0  0  0  0  0  0  0  0  0  0  0  0  # atno 10718 bound_to 10713
  153.2141  135.6873  153.8078 H   0  0  0  0  0  0  0  0  0  0  0  0  # atno 10763 bound_to 10752
  153.7300  135.3254  155.3285 H   0  0  0  0  0  0  0  0  0  0  0  0  # atno 10764 bound_to 10752
  154.8237  135.4633  154.0961 H   0  0  0  0  0  0  0  0  0  0  0  0  # atno 10765 bound_to 10752
  140.9133  133.7446  156.0700 H   0  0  0  0  0  0  0  0  0  0  0  0  # atno 11005 bound_to 11000
  145.0670  139.3061  143.5851 LP  0  0  0  0  0  0  0  0  0  0  0  0  # atno 17320 bound_to 7965
  146.3516  140.0132  142.8665 LP  0  0  0  0  0  0  0  0  0  0  0  0  # atno 17321 bound_to 7965
  139.5457  144.2527  152.1438 LP  0  0  0  0  0  0  0  0  0  0  0  0  # atno 17342 bound_to 10162
  140.1752  144.4898  150.6558 LP  0  0  0  0  0  0  0  0  0  0  0  0  # atno 17343 bound_to 10162
  157.1173  131.0237  151.3023 LP  0  0  0  0  0  0  0  0  0  0  0  0  # atno 17370 bound_to 10713
  157.4656  130.7679  149.7276 LP  0  0  0  0  0  0  0  0  0  0  0  0  # atno 17371 bound_to 10713
  140.8082  134.3430  157.5419 LP  0  0  0  0  0  0  0  0  0  0  0  0  # atno 17394 bound_to 11000
  139.8761  134.9238  156.3335 LP  0  0  0  0  0  0  0  0  0  0  0  0  # atno 17395 bound_to 11000

$$$$
