AV-unprocessed.smi:1087|AV-procd|sdf|4726|dock2
  -GOLD-   22720 3253D 1   1.00000     0.00000
 Structure written by MMmdl.
 47 48  0  0  0  0  0  0  0  0  2 V2000
  141.8100  134.9361  153.2234 C   0  0  0  0  0  0  0  0  0  0  0  0
  142.5411  135.6685  154.1914 O   0  0  0  0  0  0  0  0  0  0  0  0
  142.9140  136.9570  153.7320 C   0  0  0  0  0  0  0  0  0  0  0  0
  144.3021  136.8693  153.0792 C   0  0  0  0  0  0  0  0  0  0  0  0
  145.0777  138.1279  153.2216 N   0  3  2  0  0  0  0  0  0  0  0  0
  146.2248  138.1883  152.2801 C   0  0  0  0  0  0  0  0  0  0  0  0
  146.9257  139.5558  152.3489 C   0  0  0  0  0  0  0  0  0  0  0  0
  147.4061  139.8890  153.7771 C   0  0  2  0  0  0  0  0  0  0  0  0
  148.6186  139.0579  154.2614 C   0  0  0  0  0  0  0  0  0  0  0  0
  148.9626  139.3385  155.6519 N   0  0  0  0  0  0  0  0  0  0  0  0
  149.9533  140.1462  156.0606 C   0  0  0  0  0  0  0  0  0  0  0  0
  150.7207  140.7210  155.2875 O   0  0  0  0  0  0  0  0  0  0  0  0
  150.0981  140.3279  157.5771 C   0  0  0  0  0  0  0  0  0  0  0  0
  151.0254  141.4155  157.9278 N   0  0  0  0  0  0  0  0  0  0  0  0
  150.7737  142.6870  157.3859 C   0  0  0  0  0  0  0  0  0  0  0  0
  151.5726  143.7260  157.6688 C   0  0  0  0  0  0  0  0  0  0  0  0
  152.7051  143.4542  158.5635 C   0  0  0  0  0  0  0  0  0  0  0  0
  152.9349  142.2973  159.0626 N   0  0  0  0  0  0  0  0  0  0  0  0
  152.0932  141.2086  158.7662 C   0  0  0  0  0  0  0  0  0  0  0  0
  152.3050  140.0949  159.2468 O   0  0  0  0  0  0  0  0  0  0  0  0
  146.2051  139.7704  154.7342 C   0  0  0  0  0  0  0  0  0  0  0  0
  145.4991  138.4058  154.6207 C   0  0  0  0  0  0  0  0  0  0  0  0
  141.5489  133.9574  153.6258 H   0  0  0  0  0  0  0  0  0  0  0  0
  142.3989  134.7817  152.3182 H   0  0  0  0  0  0  0  0  0  0  0  0
  140.8847  135.4483  152.9567 H   0  0  0  0  0  0  0  0  0  0  0  0
  142.1686  137.3521  153.0419 H   0  0  0  0  0  0  0  0  0  0  0  0
  142.9580  137.6434  154.5789 H   0  0  0  0  0  0  0  0  0  0  0  0
  144.8707  136.0389  153.5004 H   0  0  0  0  0  0  0  0  0  0  0  0
  144.1622  136.6385  152.0221 H   0  0  0  0  0  0  0  0  0  0  0  0
  146.9255  137.3826  152.5019 H   0  0  0  0  0  0  0  0  0  0  0  0
  145.8716  138.0250  151.2614 H   0  0  0  0  0  0  0  0  0  0  0  0
  147.7486  139.5942  151.6359 H   0  0  0  0  0  0  0  0  0  0  0  0
  146.2239  140.3245  152.0230 H   0  0  0  0  0  0  0  0  0  0  0  0
  147.7226  140.9332  153.7797 H   0  0  0  0  0  0  0  0  0  0  0  0
  148.3778  137.9962  154.1974 H   0  0  0  0  0  0  0  0  0  0  0  0
  149.4828  139.2036  153.6126 H   0  0  0  0  0  0  0  0  0  0  0  0
  148.3880  138.9030  156.3593 H   0  0  0  0  0  0  0  0  0  0  0  0
  149.1211  140.5143  158.0274 H   0  0  0  0  0  0  0  0  0  0  0  0
  150.4348  139.3810  158.0014 H   0  0  0  0  0  0  0  0  0  0  0  0
  149.9055  142.7600  156.7473 H   0  0  0  0  0  0  0  0  0  0  0  0
  151.4343  144.7279  157.2903 H   0  0  0  0  0  0  0  0  0  0  0  0
  153.3464  144.3127  158.7799 H   0  0  0  0  0  0  0  0  0  0  0  0
  146.5228  139.9428  155.7631 H   0  0  0  0  0  0  0  0  0  0  0  0
  145.4868  140.5591  154.5055 H   0  0  0  0  0  0  0  0  0  0  0  0
  144.6327  138.4083  155.2808 H   0  0  0  0  0  0  0  0  0  0  0  0
  146.1530  137.6067  154.9721 H   0  0  0  0  0  0  0  0  0  0  0  0
  144.4549  138.8746  152.9471 H   0  0  0  0  0  0  0  0  0  0  0  0
  1  2  1  0  0  0  0
  1 23  1  0  0  0  0
  1 24  1  0  0  0  0
  1 25  1  0  0  0  0
  2  3  1  0  0  0  0
  3  4  1  0  0  0  0
  3 26  1  0  0  0  0
  3 27  1  0  0  0  0
  4  5  1  0  0  0  0
  4 28  1  0  0  0  0
  4 29  1  0  0  0  0
  5 22  1  0  0  0  0
  5  6  1  0  0  0  0
  5 47  1  0  0  0  0
  6  7  1  0  0  0  0
  6 30  1  0  0  0  0
  6 31  1  0  0  0  0
  7  8  1  0  0  0  0
  7 32  1  0  0  0  0
  7 33  1  0  0  0  0
  8  9  1  0  0  0  0
  8 21  1  0  0  0  0
  8 34  1  0  0  0  0
  9 10  1  0  0  0  0
  9 35  1  0  0  0  0
  9 36  1  0  0  0  0
 10 11  1  0  0  0  0
 10 37  1  0  0  0  0
 11 12  2  0  0  0  0
 11 13  1  0  0  0  0
 13 14  1  0  0  0  0
 13 38  1  0  0  0  0
 13 39  1  0  0  0  0
 14 19  1  0  0  0  0
 14 15  1  0  0  0  0
 15 16  2  0  0  0  0
 15 40  1  0  0  0  0
 16 17  1  0  0  0  0
 16 41  1  0  0  0  0
 17 18  2  0  0  0  0
 17 42  1  0  0  0  0
 18 19  1  0  0  0  0
 19 20  2  0  0  0  0
 21 22  1  0  0  0  0
 21 43  1  0  0  0  0
 21 44  1  0  0  0  0
 22 45  1  0  0  0  0
 22 46  1  0  0  0  0
M  CHG  1   5   1
M  END
> <s_m_source_file>
AV-unprocessed.smi

> <i_m_source_file_index>
1087

> <i_lp_mmshare_version>
43012

> <i_f3d_flags>
0

> <s_epik_input>
W0NIM11PW0NIMl1bQ0gyXU4xW0NIMl1bQ0gyXVtDSF0oW0NIMl1bQ0gyXTEpW0NIMl1bTkhdQyg9TylbQ0gyXW4yW2NIXVtjSF1bY0hdbmMyPU8=

> <s_epik_cmdline>
J2VwaWtfcHl0aG9uJywgJy1waCcsICc3LjAnLCAnLXRuJywgJzgnLCAnLW1hJywgJzIwMCcsICctbWV0YWxfYmluZGluZycsICctaW1hZScsICc8aW5maWxlLm1hZT4nLCAnLW9tYWUnLCAnPG91dGZpbGUubWFlPic=

> <r_lp_tautomer_probability>
1

> <r_epik_Ionization_Penalty>
0.00982698

> <r_epik_Ionization_Penalty_Charging>
0.00982062

> <r_epik_Ionization_Penalty_Neutral>
6.35787e-06

> <r_epik_State_Penalty>
0.00747828

> <r_epik_Charging_Adjusted_Penalty>
0.0172989

> <i_epik_Tot_Q>
1

> <i_epik_Tot_abs_Q>
1

> <r_epik_Metal_State_Penalty>
0.00747829

> <b_epik_Metal_Only>
0

> <s_lp_Force_Field>
OPLS_2005

> <r_lp_Energy>
23.2089

> <b_lp_Chiralities_Consistent>
1

> <s_lp_Variant>
AV-unprocessed.smi:1087-2

> <Gold.Version>
5.8.1

> <Gold.Id.Protein>
6NUR|6NUR_protein|mol2

> <Gold.PLP.Fitness>
44.3321

> <Gold.PLP.PLP>
-33.9848

> <Gold.PLP.part.hbond>
-2.0000

> <Gold.PLP.part.metal>
0.0000

> <Gold.PLP.part.buried>
-4.5476

> <Gold.PLP.part.nonpolar>
-29.1866

> <Gold.PLP.part.repulsive>
0.1383

> <Gold.PLP.ligand.clash>
0.0000

> <Gold.PLP.ligand.torsion>
0.7868

> <Gold.PLP.Chemscore.Hbond>
2.8800

> <Gold.PLP.Chemscore.CHOScore>
0.9998

> <Gold.PLP.Chemscore.Metal>
0.0000

> <Gold.Chemscore.Hbonds>
donor molecule, donor type, donor heavy atom, donor atom, acceptor molecule, acceptor atom, score
      L1  H     5    47       P1 10175  2.00
      P1  H  7989  7998       L1    12  0.86
      L1  C    15    40       P1  8028  1.00

> <Gold.PLP.Chemscore.Internal.Correction>
0.2817

> <Gold.Rescore>
     Score         DG    S(hbond)    S(metal)    S(lipo)     H(rot)  DE(clash)    DE(int)     intcor
     13.22     -15.11       1.90        0.00      81.63       2.45       0.18       1.71       ----

> <Gold.Chemscore.Fitness>
13.2187

> <Gold.Chemscore.DG>
-15.1081

> <Gold.Chemscore.ZeroCoef>
-5.4800

> <Gold.Chemscore.Hbond>
1.8974

> <Gold.Chemscore.Metal>
0.0000

> <Gold.Chemscore.Lipo>
81.6345

> <Gold.Chemscore.Internal_Hbond>
0.0000

> <Gold.Chemscore.DEClash>
0.1777

> <Gold.Chemscore.DEInternal>
1.7118

> <Gold.Chemscore.Rot>
2.4454

> <Gold.Chemscore.Internal.Correction>
   9.000000E+99

> <Gold.Chemscore.Hbonds>
donor molecule, donor type, donor heavy atom, donor atom, acceptor molecule, acceptor atom, score
      L1  H     5    47       P1 10175  1.00
      P1  H  7989  7998       L1    12  0.82

> <Gold.Chemscore.Hbond.Weighted>
-6.3372

> <Gold.Chemscore.Metal.Weighted>
-0.0000

> <Gold.Chemscore.Lipo.Weighted>
-9.5512

> <Gold.Chemscore.Internal_Hbond.Weighted>
0.0000

> <Gold.Chemscore.DEClash.Weighted>
0.1777

> <Gold.Chemscore.DEInternal.Weighted>
1.7118

> <Gold.Chemscore.Rot.Weighted>
6.2603

> <Gold.Chemscore.Internal.Correction.Weighted>
   9.000000E+99

> <Gold.Protein.RotatedTorsions>
[ 6907 6896 6895 6894 ] final   83.43 input  -60.11 | X-H torsion
[ 7974 7965 7964 7962 ] final -165.29 input  175.53 | X-H torsion
[ 8008 7997 7996 7995 ] final  -62.27 input   59.86 | X-H torsion
[ 10167 10162 10161 10158 ] final -165.30 input  -65.29 | X-H torsion
[ 10718 10713 10712 10709 ] final -151.95 input   66.30 | X-H torsion
[ 10763 10752 10751 10750 ] final   42.07 input  -60.55 | X-H torsion
[ 11005 11000 10999 10996 ] final  114.07 input  -57.11 | X-H torsion

> <Gold.Protein.ActiveResidues>
 VAL166  LYS551  ARG553  GLY616  TRP617  ASP618  TYR619  PRO620  LYS621  CYS622 
 ASP623  PHE694  ASN695  SER759  ASP760  ASP761  ALA762  ILE779  LEU786  VAL792 
 PHE793  MET794  SER795  GLU796  ALA797  LYS798  CYS799  TRP800  GLU811  SER814 

> <Gold.Protein.RotatedAtoms>
  152.5327  134.2896  159.9037 H   0  0  0  0  0  0  0  0  0  0  0  0  # atno 6907 bound_to 6896
  151.2849  133.4186  159.2637 H   0  0  0  0  0  0  0  0  0  0  0  0  # atno 6908 bound_to 6896
  151.0251  134.9514  159.8138 H   0  0  0  0  0  0  0  0  0  0  0  0  # atno 6909 bound_to 6896
  144.7274  140.2835  143.6232 H   0  0  0  0  0  0  0  0  0  0  0  0  # atno 7974 bound_to 7965
  154.4491  140.1000  156.6561 H   0  0  0  0  0  0  0  0  0  0  0  0  # atno 8008 bound_to 7997
  155.5344  140.3482  155.4415 H   0  0  0  0  0  0  0  0  0  0  0  0  # atno 8009 bound_to 7997
  156.0641  140.1333  156.9895 H   0  0  0  0  0  0  0  0  0  0  0  0  # atno 8010 bound_to 7997
  139.6191  144.0660  152.1916 H   0  0  0  0  0  0  0  0  0  0  0  0  # atno 10167 bound_to 10162
  156.4660  130.8236  151.2466 H   0  0  0  0  0  0  0  0  0  0  0  0  # atno 10718 bound_to 10713
  152.9892  135.6143  154.2889 H   0  0  0  0  0  0  0  0  0  0  0  0  # atno 10763 bound_to 10752
  154.2615  135.2782  155.2778 H   0  0  0  0  0  0  0  0  0  0  0  0  # atno 10764 bound_to 10752
  154.5201  135.5817  153.6731 H   0  0  0  0  0  0  0  0  0  0  0  0  # atno 10765 bound_to 10752
  139.8970  134.9561  156.6836 H   0  0  0  0  0  0  0  0  0  0  0  0  # atno 11005 bound_to 11000
  145.7925  139.1932  143.2094 LP  0  0  0  0  0  0  0  0  0  0  0  0  # atno 17320 bound_to 7965
  146.0744  140.7834  142.9672 LP  0  0  0  0  0  0  0  0  0  0  0  0  # atno 17321 bound_to 7965
  140.0297  144.6090  150.7498 LP  0  0  0  0  0  0  0  0  0  0  0  0  # atno 17342 bound_to 10162
  140.7370  143.2760  151.3739 LP  0  0  0  0  0  0  0  0  0  0  0  0  # atno 17343 bound_to 10162
  157.7495  131.0092  150.3257 LP  0  0  0  0  0  0  0  0  0  0  0  0  # atno 17370 bound_to 10713
  156.3667  130.3856  149.7207 LP  0  0  0  0  0  0  0  0  0  0  0  0  # atno 17371 bound_to 10713
  140.7280  133.9083  155.8192 LP  0  0  0  0  0  0  0  0  0  0  0  0  # atno 17394 bound_to 11000
  141.0175  134.0934  157.4156 LP  0  0  0  0  0  0  0  0  0  0  0  0  # atno 17395 bound_to 11000

$$$$
