AV-unprocessed.smi:197|AV-procd|sdf|1550|dock5
  -GOLD-   2262019413D 1   1.00000     0.00000
 Structure written by MMmdl.
 54 57  0  0  0  0  0  0  0  0  1 V2000
  153.4430  142.4661  159.9102 C   0  0  0  0  0  0  0  0  0  0  0  0
  152.8776  141.8004  158.7906 O   0  0  0  0  0  0  0  0  0  0  0  0
  152.2053  140.5862  159.1031 C   0  0  0  0  0  0  0  0  0  0  0  0
  152.1751  139.6127  157.9102 C   0  0  0  0  0  0  0  0  0  0  0  0
  151.1179  139.9731  156.8322 C   0  0  2  0  0  0  0  0  0  0  0  0
  151.1018  141.4950  156.5580 C   0  0  0  0  0  0  0  0  0  0  0  0
  150.1160  141.8150  155.5825 O   0  0  0  0  0  0  0  0  0  0  0  0
  148.8080  141.4685  156.0177 C   0  0  0  0  0  0  0  0  0  0  0  0
  148.7423  139.9524  156.2434 C   0  0  0  0  0  0  0  0  0  0  0  0
  149.7632  139.5391  157.1995 N   0  0  0  0  0  0  0  0  0  0  0  0
  149.6266  138.2302  157.5099 C   0  0  0  0  0  0  0  0  0  0  0  0
  149.3806  137.9277  158.8081 N   0  0  0  0  0  0  0  0  0  0  0  0
  149.2820  136.6502  159.1882 C   0  0  0  0  0  0  0  0  0  0  0  0
  149.3998  135.5464  158.4468 N   0  0  0  0  0  0  0  0  0  0  0  0
  149.6358  135.8495  157.1380 C   0  0  0  0  0  0  0  0  0  0  0  0
  149.7491  137.1551  156.5838 C   0  0  0  0  0  0  0  0  0  0  0  0
  149.9725  137.0705  155.2147 N   0  0  0  0  0  0  0  0  0  0  0  0
  150.0078  135.7887  154.9762 C   0  0  0  0  0  0  0  0  0  0  0  0
  149.8320  134.9819  156.0777 N   0  0  0  0  0  0  0  0  0  0  0  0
  149.8478  133.5275  156.1053 C   0  0  0  0  0  0  0  0  0  0  0  0
  148.8175  132.8848  155.1388 C   0  0  2  0  0  0  0  0  0  0  0  0
  148.9210  131.4758  155.2598 O   0  0  0  0  0  0  0  0  0  0  0  0
  149.0499  133.2421  153.6725 C   0  0  0  0  0  0  0  0  0  0  0  0
  147.6537  133.1662  153.0747 C   0  0  0  0  0  0  0  0  0  0  0  0
  146.8548  133.7312  154.0986 O   0  0  0  0  0  0  0  0  0  0  0  0
  147.3274  133.2699  155.3616 C   0  0  2  0  0  0  0  0  0  0  0  0
  147.0427  134.3707  156.3953 C   0  0  0  0  0  0  0  0  0  0  0  0
  153.8925  143.4037  159.5835 H   0  0  0  0  0  0  0  0  0  0  0  0
  154.2273  141.8780  160.3855 H   0  0  0  0  0  0  0  0  0  0  0  0
  152.6828  142.7015  160.6559 H   0  0  0  0  0  0  0  0  0  0  0  0
  152.6685  140.1123  159.9697 H   0  0  0  0  0  0  0  0  0  0  0  0
  151.1888  140.8333  159.4068 H   0  0  0  0  0  0  0  0  0  0  0  0
  153.1780  139.5782  157.4882 H   0  0  0  0  0  0  0  0  0  0  0  0
  151.9893  138.6012  158.2730 H   0  0  0  0  0  0  0  0  0  0  0  0
  151.3851  139.4756  155.9002 H   0  0  0  0  0  0  0  0  0  0  0  0
  150.9102  142.0564  157.4741 H   0  0  0  0  0  0  0  0  0  0  0  0
  152.0663  141.8292  156.1776 H   0  0  0  0  0  0  0  0  0  0  0  0
  148.5557  142.0119  156.9299 H   0  0  0  0  0  0  0  0  0  0  0  0
  148.0878  141.7679  155.2562 H   0  0  0  0  0  0  0  0  0  0  0  0
  147.7526  139.6769  156.6105 H   0  0  0  0  0  0  0  0  0  0  0  0
  148.8916  139.4318  155.2962 H   0  0  0  0  0  0  0  0  0  0  0  0
  149.0885  136.4890  160.2384 H   0  0  0  0  0  0  0  0  0  0  0  0
  150.1756  135.3949  153.9843 H   0  0  0  0  0  0  0  0  0  0  0  0
  150.8575  133.1929  155.8639 H   0  0  0  0  0  0  0  0  0  0  0  0
  149.6554  133.2169  157.1325 H   0  0  0  0  0  0  0  0  0  0  0  0
  148.9908  131.1046  154.3935 H   0  0  0  0  0  0  0  0  0  0  0  0
  149.4094  134.2685  153.5887 H   0  0  0  0  0  0  0  0  0  0  0  0
  149.7694  132.5960  153.1679 H   0  0  0  0  0  0  0  0  0  0  0  0
  147.5624  133.7196  152.1400 H   0  0  0  0  0  0  0  0  0  0  0  0
  147.3546  132.1319  152.8980 H   0  0  0  0  0  0  0  0  0  0  0  0
  146.7426  132.3880  155.6296 H   0  0  0  0  0  0  0  0  0  0  0  0
  147.3608  134.0713  157.3941 H   0  0  0  0  0  0  0  0  0  0  0  0
  145.9745  134.5828  156.4448 H   0  0  0  0  0  0  0  0  0  0  0  0
  147.5477  135.3023  156.1393 H   0  0  0  0  0  0  0  0  0  0  0  0
  1  2  1  0  0  0  0
  1 28  1  0  0  0  0
  1 29  1  0  0  0  0
  1 30  1  0  0  0  0
  2  3  1  0  0  0  0
  3  4  1  0  0  0  0
  3 31  1  0  0  0  0
  3 32  1  0  0  0  0
  4  5  1  0  0  0  0
  4 33  1  0  0  0  0
  4 34  1  0  0  0  0
  5 10  1  0  0  0  0
  5  6  1  0  0  0  0
  5 35  1  0  0  0  0
  6  7  1  0  0  0  0
  6 36  1  0  0  0  0
  6 37  1  0  0  0  0
  7  8  1  0  0  0  0
  8  9  1  0  0  0  0
  8 38  1  0  0  0  0
  8 39  1  0  0  0  0
  9 10  1  0  0  0  0
  9 40  1  0  0  0  0
  9 41  1  0  0  0  0
 10 11  1  0  0  0  0
 11 16  1  0  0  0  0
 11 12  2  0  0  0  0
 12 13  1  0  0  0  0
 13 14  2  0  0  0  0
 13 42  1  0  0  0  0
 14 15  1  0  0  0  0
 15 19  1  0  0  0  0
 15 16  2  0  0  0  0
 16 17  1  0  0  0  0
 17 18  2  0  0  0  0
 18 19  1  0  0  0  0
 18 43  1  0  0  0  0
 19 20  1  0  0  0  0
 20 21  1  0  0  0  0
 20 44  1  0  0  0  0
 20 45  1  0  0  0  0
 21 26  1  0  0  0  0
 21 22  1  0  0  0  0
 21 23  1  0  0  0  0
 22 46  1  0  0  0  0
 23 24  1  0  0  0  0
 23 47  1  0  0  0  0
 23 48  1  0  0  0  0
 24 25  1  0  0  0  0
 24 49  1  0  0  0  0
 24 50  1  0  0  0  0
 25 26  1  0  0  0  0
 26 27  1  0  0  0  0
 26 51  1  0  0  0  0
 27 52  1  0  0  0  0
 27 53  1  0  0  0  0
 27 54  1  0  0  0  0
M  END
> <s_m_source_file>
AV-unprocessed.smi

> <i_m_source_file_index>
197

> <i_lp_mmshare_version>
43012

> <i_f3d_flags>
0

> <s_epik_input>
W0NIM11PW0NIMl1bQ0gyXVtDQEBIXTFbQ0gyXU9bQ0gyXVtDSDJdTjFjKG5bY0hdbjIpYyhjMjMpbltjSF1uM1tDSDJdW0NAQF00KFtPSF0pW0NIMl1bQ0gyXU9bQ0BIXTRbQ0gzXQ==

> <s_epik_cmdline>
J2VwaWtfcHl0aG9uJywgJy1waCcsICc3LjAnLCAnLXRuJywgJzgnLCAnLW1hJywgJzIwMCcsICctbWV0YWxfYmluZGluZycsICctaW1hZScsICc8aW5maWxlLm1hZT4nLCAnLW9tYWUnLCAnPG91dGZpbGUubWFlPic=

> <r_lp_tautomer_probability>
1

> <r_epik_Ionization_Penalty>
0.000106218

> <r_epik_Ionization_Penalty_Charging>
0

> <r_epik_Ionization_Penalty_Neutral>
0.000106218

> <r_epik_State_Penalty>
-0

> <r_epik_Charging_Adjusted_Penalty>
0

> <i_epik_Tot_Q>
0

> <i_epik_Tot_abs_Q>
0

> <r_epik_Metal_State_Penalty>
-0

> <b_epik_Metal_Only>
0

> <s_lp_Force_Field>
OPLS_2005

> <r_lp_Energy>
42.452

> <b_lp_Chiralities_Consistent>
1

> <s_lp_Variant>
AV-unprocessed.smi:197-7

> <Gold.Version>
5.8.1

> <Gold.Id.Protein>
6NUR|6NUR_protein|mol2

> <Gold.PLP.Fitness>
34.8036

> <Gold.PLP.PLP>
-31.6540

> <Gold.PLP.part.hbond>
-1.0000

> <Gold.PLP.part.metal>
0.0000

> <Gold.PLP.part.buried>
-6.6016

> <Gold.PLP.part.nonpolar>
-24.5116

> <Gold.PLP.part.repulsive>
0.3455

> <Gold.PLP.ligand.clash>
0.0000

> <Gold.PLP.ligand.torsion>
0.4859

> <Gold.PLP.Chemscore.Hbond>
1.0000

> <Gold.PLP.Chemscore.CHOScore>
0.2920

> <Gold.PLP.Chemscore.Metal>
0.0000

> <Gold.Chemscore.Hbonds>
donor molecule, donor type, donor heavy atom, donor atom, acceptor molecule, acceptor atom, score
      P1  H  6896  6909       L1    14  1.00
      L1  C    18    43       P1  7948  0.36

> <Gold.PLP.Chemscore.Internal.Correction>
0.2455

> <Gold.Rescore>
     Score         DG    S(hbond)    S(metal)    S(lipo)     H(rot)  DE(clash)    DE(int)     intcor
      6.03      -9.14       0.79        0.00      70.67       2.84       0.09       3.01       ----

> <Gold.Chemscore.Fitness>
6.0333

> <Gold.Chemscore.DG>
-9.1364

> <Gold.Chemscore.ZeroCoef>
-5.4800

> <Gold.Chemscore.Hbond>
0.7927

> <Gold.Chemscore.Metal>
0.0000

> <Gold.Chemscore.Lipo>
70.6692

> <Gold.Chemscore.Internal_Hbond>
0.0000

> <Gold.Chemscore.DEClash>
0.0901

> <Gold.Chemscore.DEInternal>
3.0130

> <Gold.Chemscore.Rot>
2.8358

> <Gold.Chemscore.Internal.Correction>
   9.000000E+99

> <Gold.Chemscore.Hbonds>
donor molecule, donor type, donor heavy atom, donor atom, acceptor molecule, acceptor atom, score
      P1  H  6896  6909       L1    14  0.50

> <Gold.Chemscore.Hbond.Weighted>
-2.6477

> <Gold.Chemscore.Metal.Weighted>
-0.0000

> <Gold.Chemscore.Lipo.Weighted>
-8.2683

> <Gold.Chemscore.Internal_Hbond.Weighted>
0.0000

> <Gold.Chemscore.DEClash.Weighted>
0.0901

> <Gold.Chemscore.DEInternal.Weighted>
3.0130

> <Gold.Chemscore.Rot.Weighted>
7.2596

> <Gold.Chemscore.Internal.Correction.Weighted>
   9.000000E+99

> <Gold.Protein.RotatedTorsions>
[ 6907 6896 6895 6894 ] final   32.43 input  -60.11 | X-H torsion
[ 7974 7965 7964 7962 ] final  158.74 input  175.53 | X-H torsion
[ 8008 7997 7996 7995 ] final  115.32 input   59.86 | X-H torsion
[ 10167 10162 10161 10158 ] final -142.28 input  -65.29 | X-H torsion
[ 10718 10713 10712 10709 ] final   51.59 input   66.30 | X-H torsion
[ 10763 10752 10751 10750 ] final  144.35 input  -60.55 | X-H torsion
[ 11005 11000 10999 10996 ] final  -79.66 input  -57.11 | X-H torsion

> <Gold.Protein.ActiveResidues>
 VAL166  LYS551  ARG553  GLY616  TRP617  ASP618  TYR619  PRO620  LYS621  CYS622 
 ASP623  PHE694  ASN695  SER759  ASP760  ASP761  ALA762  ILE779  LEU786  VAL792 
 PHE793  MET794  SER795  GLU796  ALA797  LYS798  CYS799  TRP800  GLU811  SER814 

> <Gold.Protein.RotatedAtoms>
  152.0743  134.9513  160.0573 H   0  0  0  0  0  0  0  0  0  0  0  0  # atno 6907 bound_to 6896
  152.0826  133.4155  159.4516 H   0  0  0  0  0  0  0  0  0  0  0  0  # atno 6908 bound_to 6896
  150.6836  134.2884  159.4700 H   0  0  0  0  0  0  0  0  0  0  0  0  # atno 6909 bound_to 6896
  144.7829  139.7520  143.6252 H   0  0  0  0  0  0  0  0  0  0  0  0  # atno 7974 bound_to 7965
  156.2374  140.2941  156.0351 H   0  0  0  0  0  0  0  0  0  0  0  0  # atno 8008 bound_to 7997
  155.2051  140.0411  157.2941 H   0  0  0  0  0  0  0  0  0  0  0  0  # atno 8009 bound_to 7997
  154.6105  140.2450  155.7683 H   0  0  0  0  0  0  0  0  0  0  0  0  # atno 8010 bound_to 7997
  139.8103  143.7711  152.2663 H   0  0  0  0  0  0  0  0  0  0  0  0  # atno 10167 bound_to 10162
  157.4995  130.8428  149.8299 H   0  0  0  0  0  0  0  0  0  0  0  0  # atno 10718 bound_to 10713
  153.9874  135.2935  155.3415 H   0  0  0  0  0  0  0  0  0  0  0  0  # atno 10763 bound_to 10752
  154.7234  135.5099  153.8851 H   0  0  0  0  0  0  0  0  0  0  0  0  # atno 10764 bound_to 10752
  153.0826  135.6683  154.0130 H   0  0  0  0  0  0  0  0  0  0  0  0  # atno 10765 bound_to 10752
  141.1667  133.7115  156.8156 H   0  0  0  0  0  0  0  0  0  0  0  0  # atno 11005 bound_to 11000
  146.2046  139.5362  142.9721 LP  0  0  0  0  0  0  0  0  0  0  0  0  # atno 17320 bound_to 7965
  145.6001  141.0356  143.2023 LP  0  0  0  0  0  0  0  0  0  0  0  0  # atno 17321 bound_to 7965
  139.7858  144.7428  151.0024 LP  0  0  0  0  0  0  0  0  0  0  0  0  # atno 17342 bound_to 10162
  140.7818  143.4494  151.0435 LP  0  0  0  0  0  0  0  0  0  0  0  0  # atno 17343 bound_to 10162
  156.0220  130.3792  150.1933 LP  0  0  0  0  0  0  0  0  0  0  0  0  # atno 17370 bound_to 10713
  157.0123  130.9954  151.3362 LP  0  0  0  0  0  0  0  0  0  0  0  0  # atno 17371 bound_to 10713
  140.2156  134.8795  157.3322 LP  0  0  0  0  0  0  0  0  0  0  0  0  # atno 17394 bound_to 11000
  140.2041  134.4219  155.7647 LP  0  0  0  0  0  0  0  0  0  0  0  0  # atno 17395 bound_to 11000

$$$$
