AV-unprocessed.smi:3187|AV-procd|sdf|12177|dock3
  -GOLD-   2272018 13D 1   1.00000     0.00000
 Structure written by MMmdl.
 41 42  0  0  0  0  0  0  0  0  2 V2000
  153.2900  140.7703  159.0276 C   0  0  0  0  0  0  0  0  0  0  0  0
  152.7269  141.9132  159.8564 C   0  0  0  0  0  0  0  0  0  0  0  0
  153.0186  141.9922  161.1689 C   0  0  0  0  0  0  0  0  0  0  0  0
  152.5785  143.1194  162.0742 C   0  0  0  0  0  0  0  0  0  0  0  0
  152.2103  144.3641  161.2633 C   0  0  0  0  0  0  0  0  0  0  0  0
  151.2508  144.0212  160.1119 C   0  0  1  0  0  0  0  0  0  0  0  0
  150.8339  145.3183  159.3915 C   0  0  0  0  0  0  0  0  0  0  0  0
  151.8520  142.9613  159.1375 C   0  0  2  0  0  0  0  0  0  0  0  0
  150.7258  142.3202  158.2834 C   0  0  0  0  0  0  0  0  0  0  0  0
  150.7611  142.7494  156.8700 N   0  3  0  0  0  0  0  0  0  0  0  0
  150.6448  141.6442  155.8996 C   0  0  0  0  0  0  0  0  0  0  0  0
  151.8740  140.7278  155.9612 C   0  0  0  0  0  0  0  0  0  0  0  0
  151.6392  139.4774  155.2682 N   0  0  0  0  0  0  0  0  0  0  0  0
  150.5019  139.1132  154.5593 C   0  0  0  0  0  0  0  0  0  0  0  0
  150.7314  137.8460  154.0724 C   0  0  0  0  0  0  0  0  0  0  0  0
  151.9964  137.4153  154.4656 N   0  0  0  0  0  0  0  0  0  0  0  0
  152.4730  138.4327  155.1709 C   0  0  0  0  0  0  0  0  0  0  0  0
  153.7891  141.1535  158.1373 H   0  0  0  0  0  0  0  0  0  0  0  0
  152.5008  140.0820  158.7260 H   0  0  0  0  0  0  0  0  0  0  0  0
  154.0228  140.1941  159.5939 H   0  0  0  0  0  0  0  0  0  0  0  0
  153.6173  141.2233  161.6356 H   0  0  0  0  0  0  0  0  0  0  0  0
  151.7318  142.7791  162.6710 H   0  0  0  0  0  0  0  0  0  0  0  0
  153.3856  143.3575  162.7677 H   0  0  0  0  0  0  0  0  0  0  0  0
  151.7641  145.1068  161.9260 H   0  0  0  0  0  0  0  0  0  0  0  0
  153.1174  144.8170  160.8597 H   0  0  0  0  0  0  0  0  0  0  0  0
  150.3555  143.5930  160.5661 H   0  0  0  0  0  0  0  0  0  0  0  0
  151.6849  145.7860  158.8955 H   0  0  0  0  0  0  0  0  0  0  0  0
  150.4290  146.0433  160.0982 H   0  0  0  0  0  0  0  0  0  0  0  0
  150.0643  145.1503  158.6399 H   0  0  0  0  0  0  0  0  0  0  0  0
  152.5294  143.4913  158.4659 H   0  0  0  0  0  0  0  0  0  0  0  0
  150.7957  141.2327  158.3396 H   0  0  0  0  0  0  0  0  0  0  0  0
  149.7415  142.5819  158.6680 H   0  0  0  0  0  0  0  0  0  0  0  0
  150.0049  143.4003  156.7124 H   0  0  0  0  0  0  0  0  0  0  0  0
  149.7419  141.0713  156.1162 H   0  0  0  0  0  0  0  0  0  0  0  0
  150.5335  142.0570  154.8958 H   0  0  0  0  0  0  0  0  0  0  0  0
  152.7404  141.2166  155.5132 H   0  0  0  0  0  0  0  0  0  0  0  0
  152.1338  140.5055  156.9971 H   0  0  0  0  0  0  0  0  0  0  0  0
  149.6466  139.7658  154.4617 H   0  0  0  0  0  0  0  0  0  0  0  0
  150.0897  137.2169  153.4734 H   0  0  0  0  0  0  0  0  0  0  0  0
  153.4528  138.4178  155.6254 H   0  0  0  0  0  0  0  0  0  0  0  0
  151.6365  143.2264  156.7065 H   0  0  0  0  0  0  0  0  0  0  0  0
  1  2  1  0  0  0  0
  1 18  1  0  0  0  0
  1 19  1  0  0  0  0
  1 20  1  0  0  0  0
  2  8  1  0  0  0  0
  2  3  2  0  0  0  0
  3  4  1  0  0  0  0
  3 21  1  0  0  0  0
  4  5  1  0  0  0  0
  4 22  1  0  0  0  0
  4 23  1  0  0  0  0
  5  6  1  0  0  0  0
  5 24  1  0  0  0  0
  5 25  1  0  0  0  0
  6  7  1  0  0  0  0
  6  8  1  0  0  0  0
  6 26  1  0  0  0  0
  7 27  1  0  0  0  0
  7 28  1  0  0  0  0
  7 29  1  0  0  0  0
  8  9  1  0  0  0  0
  8 30  1  0  0  0  0
  9 10  1  0  0  0  0
  9 31  1  0  0  0  0
  9 32  1  0  0  0  0
 10 11  1  0  0  0  0
 10 33  1  0  0  0  0
 10 41  1  0  0  0  0
 11 12  1  0  0  0  0
 11 34  1  0  0  0  0
 11 35  1  0  0  0  0
 12 13  1  0  0  0  0
 12 36  1  0  0  0  0
 12 37  1  0  0  0  0
 13 17  1  0  0  0  0
 13 14  1  0  0  0  0
 14 15  2  0  0  0  0
 14 38  1  0  0  0  0
 15 16  1  0  0  0  0
 15 39  1  0  0  0  0
 16 17  2  0  0  0  0
 17 40  1  0  0  0  0
M  CHG  1  10   1
M  END
> <s_m_source_file>
AV-unprocessed.smi

> <i_m_source_file_index>
3187

> <i_lp_mmshare_version>
43012

> <i_f3d_flags>
0

> <s_epik_input>
W0NIM11DMT1bQ0hdW0NIMl1bQ0gyXVtDQEBIXShbQ0gzXSlbQ0BIXTFbQ0gyXVtOSF1bQ0gyXVtDSDJdbjJbY0hdW2NIXW5bY0hdMg==

> <s_epik_cmdline>
J2VwaWtfcHl0aG9uJywgJy1waCcsICc3LjAnLCAnLXRuJywgJzgnLCAnLW1hJywgJzIwMCcsICctbWV0YWxfYmluZGluZycsICctaW1hZScsICc8aW5maWxlLm1hZT4nLCAnLW9tYWUnLCAnPG91dGZpbGUubWFlPic=

> <r_lp_tautomer_probability>
1

> <r_epik_Ionization_Penalty>
0.0501625

> <r_epik_Ionization_Penalty_Charging>
0.0501625

> <r_epik_Ionization_Penalty_Neutral>
0

> <r_epik_State_Penalty>
0.0972392

> <r_epik_Charging_Adjusted_Penalty>
0.147402

> <i_epik_Tot_Q>
1

> <i_epik_Tot_abs_Q>
1

> <r_epik_Metal_State_Penalty>
0.000104376

> <b_epik_Metal_Only>
0

> <s_lp_Force_Field>
OPLS_2005

> <r_lp_Energy>
17.2086

> <b_lp_Chiralities_Consistent>
1

> <s_lp_Variant>
AV-unprocessed.smi:3187-3

> <Gold.Version>
5.8.1

> <Gold.Id.Protein>
6NUR|6NUR_protein|mol2

> <Gold.PLP.Fitness>
54.7371

> <Gold.PLP.PLP>
-45.0882

> <Gold.PLP.part.hbond>
-2.0000

> <Gold.PLP.part.metal>
0.0000

> <Gold.PLP.part.buried>
-3.9427

> <Gold.PLP.part.nonpolar>
-38.5257

> <Gold.PLP.part.repulsive>
0.1693

> <Gold.PLP.ligand.clash>
0.0000

> <Gold.PLP.ligand.torsion>
1.1162

> <Gold.PLP.Chemscore.Hbond>
2.8960

> <Gold.PLP.Chemscore.CHOScore>
1.0294

> <Gold.PLP.Chemscore.Metal>
0.0000

> <Gold.Chemscore.Hbonds>
donor molecule, donor type, donor heavy atom, donor atom, acceptor molecule, acceptor atom, score
      L1  H    10    33       P1  8028  2.00
      P1  H 10752 10763       L1    16  0.88
      L1  C    15    39       P1  7948  0.99
      L1  C    15    39       P1  7949  0.04

> <Gold.PLP.Chemscore.Internal.Correction>
0.1052

> <Gold.Rescore>
     Score         DG    S(hbond)    S(metal)    S(lipo)     H(rot)  DE(clash)    DE(int)     intcor
     19.96     -21.14       1.92        0.00     120.27       1.89       0.02       1.15       ----

> <Gold.Chemscore.Fitness>
19.9584

> <Gold.Chemscore.DG>
-21.1365

> <Gold.Chemscore.ZeroCoef>
-5.4800

> <Gold.Chemscore.Hbond>
1.9196

> <Gold.Chemscore.Metal>
0.0000

> <Gold.Chemscore.Lipo>
120.2670

> <Gold.Chemscore.Internal_Hbond>
0.0000

> <Gold.Chemscore.DEClash>
0.0249

> <Gold.Chemscore.DEInternal>
1.1532

> <Gold.Chemscore.Rot>
1.8853

> <Gold.Chemscore.Internal.Correction>
   9.000000E+99

> <Gold.Chemscore.Hbonds>
donor molecule, donor type, donor heavy atom, donor atom, acceptor molecule, acceptor atom, score
      L1  H    10    33       P1  8028  0.93
      P1  H 10752 10763       L1    16  0.83

> <Gold.Chemscore.Hbond.Weighted>
-6.4115

> <Gold.Chemscore.Metal.Weighted>
-0.0000

> <Gold.Chemscore.Lipo.Weighted>
-14.0712

> <Gold.Chemscore.Internal_Hbond.Weighted>
0.0000

> <Gold.Chemscore.DEClash.Weighted>
0.0249

> <Gold.Chemscore.DEInternal.Weighted>
1.1532

> <Gold.Chemscore.Rot.Weighted>
4.8263

> <Gold.Chemscore.Internal.Correction.Weighted>
   9.000000E+99

> <Gold.Protein.RotatedTorsions>
[ 6907 6896 6895 6894 ] final  -47.89 input  -60.11 | X-H torsion
[ 7974 7965 7964 7962 ] final   73.65 input  175.53 | X-H torsion
[ 8008 7997 7996 7995 ] final  125.00 input   59.86 | X-H torsion
[ 10167 10162 10161 10158 ] final  -35.45 input  -65.29 | X-H torsion
[ 10718 10713 10712 10709 ] final  134.88 input   66.30 | X-H torsion
[ 10763 10752 10751 10750 ] final   44.45 input  -60.55 | X-H torsion
[ 11005 11000 10999 10996 ] final -167.30 input  -57.11 | X-H torsion

> <Gold.Protein.ActiveResidues>
 VAL166  LYS551  ARG553  GLY616  TRP617  ASP618  TYR619  PRO620  LYS621  CYS622 
 ASP623  PHE694  ASN695  SER759  ASP760  ASP761  ALA762  ILE779  LEU786  VAL792 
 PHE793  MET794  SER795  GLU796  ALA797  LYS798  CYS799  TRP800  GLU811  SER814 

> <Gold.Protein.RotatedAtoms>
  150.8961  134.8370  159.7327 H   0  0  0  0  0  0  0  0  0  0  0  0  # atno 6907 bound_to 6896
  152.4866  134.4573  159.9604 H   0  0  0  0  0  0  0  0  0  0  0  0  # atno 6908 bound_to 6896
  151.4630  133.3549  159.2847 H   0  0  0  0  0  0  0  0  0  0  0  0  # atno 6909 bound_to 6896
  145.7381  139.2710  143.1502 H   0  0  0  0  0  0  0  0  0  0  0  0  # atno 7974 bound_to 7965
  156.2820  140.2726  156.1878 H   0  0  0  0  0  0  0  0  0  0  0  0  # atno 8008 bound_to 7997
  155.0489  140.0386  157.2554 H   0  0  0  0  0  0  0  0  0  0  0  0  # atno 8009 bound_to 7997
  154.7211  140.2688  155.6546 H   0  0  0  0  0  0  0  0  0  0  0  0  # atno 8010 bound_to 7997
  140.7164  143.3476  151.2223 H   0  0  0  0  0  0  0  0  0  0  0  0  # atno 10167 bound_to 10162
  157.4627  131.1074  150.9900 H   0  0  0  0  0  0  0  0  0  0  0  0  # atno 10718 bound_to 10713
  152.9841  135.6070  154.3276 H   0  0  0  0  0  0  0  0  0  0  0  0  # atno 10763 bound_to 10752
  154.2981  135.2773  155.2625 H   0  0  0  0  0  0  0  0  0  0  0  0  # atno 10764 bound_to 10752
  154.4890  135.5897  153.6501 H   0  0  0  0  0  0  0  0  0  0  0  0  # atno 10765 bound_to 10752
  140.5548  134.5392  157.5130 H   0  0  0  0  0  0  0  0  0  0  0  0  # atno 11005 bound_to 11000
  146.0474  140.8104  142.9799 LP  0  0  0  0  0  0  0  0  0  0  0  0  # atno 17320 bound_to 7965
  144.6877  140.3001  143.7264 LP  0  0  0  0  0  0  0  0  0  0  0  0  # atno 17321 bound_to 7965
  139.6999  143.9550  152.2900 LP  0  0  0  0  0  0  0  0  0  0  0  0  # atno 17342 bound_to 10162
  139.9240  144.6782  150.8432 LP  0  0  0  0  0  0  0  0  0  0  0  0  # atno 17343 bound_to 10162
  157.0692  130.5857  149.5399 LP  0  0  0  0  0  0  0  0  0  0  0  0  # atno 17370 bound_to 10713
  156.0036  130.5119  150.7751 LP  0  0  0  0  0  0  0  0  0  0  0  0  # atno 17371 bound_to 10713
  139.9437  134.7740  156.0614 LP  0  0  0  0  0  0  0  0  0  0  0  0  # atno 17394 bound_to 11000
  141.1150  133.6630  156.3072 LP  0  0  0  0  0  0  0  0  0  0  0  0  # atno 17395 bound_to 11000

$$$$
