AV-unprocessed.smi:72|AV-procd|sdf|738|dock3
  -GOLD-   2262017 73D 1   1.00000     0.00000
 Structure written by MMmdl.
 28 29  0  0  0  0  0  0  0  0  2 V2000
  153.3446  137.2619  155.9230 N   0  0  0  0  0  0  0  0  0  0  0  0
  152.5580  138.2198  155.6919 C   0  0  0  0  0  0  0  0  0  0  0  0
  151.7248  138.2032  154.5106 N   0  0  0  0  0  0  0  0  0  0  0  0
  150.8836  139.1782  154.3512 C   0  0  0  0  0  0  0  0  0  0  0  0
  150.7319  140.2419  155.3404 N   0  0  0  0  0  0  0  0  0  0  0  0
  149.7606  141.3988  155.1290 C   0  0  1  0  0  0  0  0  0  0  0  0
  149.1907  141.3117  153.8497 O   0  0  0  0  0  0  0  0  0  0  0  0
  147.8367  140.8640  153.8999 C   0  0  1  0  0  0  0  0  0  0  0  0
  147.7608  139.3205  153.8454 C   0  0  0  0  0  0  0  0  0  0  0  0
  147.9617  138.8753  152.5207 O   0  0  0  0  0  0  0  0  0  0  0  0
  147.3626  141.4923  155.2140 C   0  0  1  0  0  0  0  0  0  0  0  0
  146.2296  140.8497  155.7652 O   0  0  0  0  0  0  0  0  0  0  0  0
  148.5766  141.3788  156.1265 C   0  0  2  0  0  0  0  0  0  0  0  0
  148.6040  142.4895  157.0008 O   0  0  0  0  0  0  0  0  0  0  0  0
  151.6509  140.2891  156.4264 C   0  0  0  0  0  0  0  0  0  0  0  0
  151.6232  141.2662  157.1741 O   0  0  0  0  0  0  0  0  0  0  0  0
  152.5326  139.2636  156.5886 N   0  5  0  0  0  0  0  0  0  0  0  0
  150.3849  142.2916  155.1927 H   0  0  0  0  0  0  0  0  0  0  0  0
  147.2740  141.2826  153.0643 H   0  0  0  0  0  0  0  0  0  0  0  0
  147.1247  142.5417  155.0300 H   0  0  0  0  0  0  0  0  0  0  0  0
  148.5605  140.4378  156.6791 H   0  0  0  0  0  0  0  0  0  0  0  0
  153.8765  137.3894  156.7715 H   0  0  0  0  0  0  0  0  0  0  0  0
  150.2445  139.2539  153.4716 H   0  0  0  0  0  0  0  0  0  0  0  0
  148.4654  138.8422  154.5236 H   0  0  0  0  0  0  0  0  0  0  0  0
  146.7687  138.9754  154.1353 H   0  0  0  0  0  0  0  0  0  0  0  0
  148.7711  139.2434  152.2007 H   0  0  0  0  0  0  0  0  0  0  0  0
  146.4730  140.4927  156.6057 H   0  0  0  0  0  0  0  0  0  0  0  0
  148.4679  143.2714  156.4859 H   0  0  0  0  0  0  0  0  0  0  0  0
  1  2  2  0  0  0  0
  1 22  1  0  0  0  0
  2 17  1  0  0  0  0
  2  3  1  0  0  0  0
  3  4  2  0  0  0  0
  4  5  1  0  0  0  0
  4 23  1  0  0  0  0
  5  6  1  0  0  0  0
  5 15  1  0  0  0  0
  6 18  1  0  0  0  0
  6 13  1  0  0  0  0
  6  7  1  0  0  0  0
  7  8  1  0  0  0  0
  8 19  1  0  0  0  0
  8  9  1  0  0  0  0
  8 11  1  0  0  0  0
  9 10  1  0  0  0  0
  9 24  1  0  0  0  0
  9 25  1  0  0  0  0
 10 26  1  0  0  0  0
 11 20  1  0  0  0  0
 11 12  1  0  0  0  0
 11 13  1  0  0  0  0
 12 27  1  0  0  0  0
 13 21  1  0  0  0  0
 13 14  1  0  0  0  0
 14 28  1  0  0  0  0
 15 16  2  0  0  0  0
 15 17  1  0  0  0  0
M  CHG  1  17  -1
M  END
> <s_m_source_file>
AV-unprocessed.smi

> <i_m_source_file_index>
72

> <i_lp_mmshare_version>
43012

> <i_f3d_flags>
0

> <s_epik_input>
W05IMl1jMW5bY0hdbihjKD1PKW4xKVtDQEBIXTJPW0NASF0oW0NIMl1bT0hdKVtDQEBIXShbT0hdKVtDQEhdMltPSF0=

> <s_epik_cmdline>
J2VwaWtfcHl0aG9uJywgJy1waCcsICc3LjAnLCAnLXRuJywgJzgnLCAnLW1hJywgJzIwMCcsICctbWV0YWxfYmluZGluZycsICctaW1hZScsICc8aW5maWxlLm1hZT4nLCAnLW9tYWUnLCAnPG91dGZpbGUubWFlPic=

> <r_lp_tautomer_probability>
7.17554e-07

> <r_epik_Ionization_Penalty>
12.8705

> <r_epik_Ionization_Penalty_Charging>
5.64144

> <r_epik_Ionization_Penalty_Neutral>
7.22905

> <r_epik_State_Penalty>
3.30104

> <r_epik_Charging_Adjusted_Penalty>
8.94249

> <i_epik_Tot_Q>
-1

> <i_epik_Tot_abs_Q>
1

> <r_epik_Metal_State_Penalty>
0.529074

> <b_epik_Metal_Only>
1

> <s_epik_Chemistry_Notes>
This compound contains an acetal/aminal-like group ( X-CH(R)-Y where X, Y are N, S, or O) that may be acid/base labile, releasing an aldehyde.

> <s_lp_Force_Field>
OPLS_2005

> <r_lp_Energy>
34.678

> <b_lp_Chiralities_Consistent>
1

> <s_lp_Variant>
AV-unprocessed.smi:72-76

> <Gold.Version>
5.8.1

> <Gold.Id.Protein>
6NUR|6NUR_protein|mol2

> <Gold.PLP.Fitness>
44.8382

> <Gold.PLP.PLP>
-26.5929

> <Gold.PLP.part.hbond>
-6.5588

> <Gold.PLP.part.metal>
0.0000

> <Gold.PLP.part.buried>
-1.9938

> <Gold.PLP.part.nonpolar>
-18.4369

> <Gold.PLP.part.repulsive>
1.1182

> <Gold.PLP.ligand.clash>
0.0000

> <Gold.PLP.ligand.torsion>
0.3420

> <Gold.PLP.Chemscore.Hbond>
5.2800

> <Gold.PLP.Chemscore.CHOScore>
0.9975

> <Gold.PLP.Chemscore.Metal>
0.0000

> <Gold.Chemscore.Hbonds>
donor molecule, donor type, donor heavy atom, donor atom, acceptor molecule, acceptor atom, score
      L1  H    10    26       P1  7957  1.00
      L1  H    14    28       P1  8028  1.00
      P1  H  7997  8009       L1    17  2.00
      P1  H  8011  8017       L1     7  0.82
      P1  H 10752 10765       L1     1  0.45
      L1  C     4    23       P1  7957  1.00

> <Gold.PLP.Chemscore.Internal.Correction>
0.0968

> <Gold.Rescore>
     Score         DG    S(hbond)    S(metal)    S(lipo)     H(rot)  DE(clash)    DE(int)     intcor
      8.07      -9.02       3.43        0.00      20.78       4.04       0.51       0.43       ----

> <Gold.Chemscore.Fitness>
8.0735

> <Gold.Chemscore.DG>
-9.0166

> <Gold.Chemscore.ZeroCoef>
-5.4800

> <Gold.Chemscore.Hbond>
3.4276

> <Gold.Chemscore.Metal>
0.0000

> <Gold.Chemscore.Lipo>
20.7809

> <Gold.Chemscore.Internal_Hbond>
0.0000

> <Gold.Chemscore.DEClash>
0.5119

> <Gold.Chemscore.DEInternal>
0.4312

> <Gold.Chemscore.Rot>
4.0403

> <Gold.Chemscore.Internal.Correction>
   9.000000E+99

> <Gold.Chemscore.Hbonds>
donor molecule, donor type, donor heavy atom, donor atom, acceptor molecule, acceptor atom, score
      L1  H    10    26       P1  7957  0.91
      L1  H    14    28       P1  8028  0.65
      P1  H  7997  8009       L1    17  0.37
      P1  H  8011  8017       L1     7  0.78
      P1  H 10752 10765       L1     1  0.41

> <Gold.Chemscore.Hbond.Weighted>
-11.4483

> <Gold.Chemscore.Metal.Weighted>
-0.0000

> <Gold.Chemscore.Lipo.Weighted>
-2.4314

> <Gold.Chemscore.Internal_Hbond.Weighted>
0.0000

> <Gold.Chemscore.DEClash.Weighted>
0.5119

> <Gold.Chemscore.DEInternal.Weighted>
0.4312

> <Gold.Chemscore.Rot.Weighted>
10.3431

> <Gold.Chemscore.Internal.Correction.Weighted>
   9.000000E+99

> <Gold.Protein.RotatedTorsions>
[ 6907 6896 6895 6894 ] final -136.79 input  -60.11 | X-H torsion
[ 7974 7965 7964 7962 ] final  -81.43 input  175.53 | X-H torsion
[ 8008 7997 7996 7995 ] final  176.51 input   59.86 | X-H torsion
[ 10167 10162 10161 10158 ] final  142.10 input  -65.29 | X-H torsion
[ 10718 10713 10712 10709 ] final  126.00 input   66.30 | X-H torsion
[ 10763 10752 10751 10750 ] final -137.12 input  -60.55 | X-H torsion
[ 11005 11000 10999 10996 ] final  121.53 input  -57.11 | X-H torsion

> <Gold.Protein.ActiveResidues>
 VAL166  LYS551  ARG553  GLY616  TRP617  ASP618  TYR619  PRO620  LYS621  CYS622 
 ASP623  PHE694  ASN695  SER759  ASP760  ASP761  ALA762  ILE779  LEU786  VAL792 
 PHE793  MET794  SER795  GLU796  ALA797  LYS798  CYS799  TRP800  GLU811  SER814 

> <Gold.Protein.RotatedAtoms>
  151.0144  133.5935  159.2678 H   0  0  0  0  0  0  0  0  0  0  0  0  # atno 6907 bound_to 6896
  151.3075  135.0784  159.9270 H   0  0  0  0  0  0  0  0  0  0  0  0  # atno 6908 bound_to 6896
  152.5307  133.9814  159.7862 H   0  0  0  0  0  0  0  0  0  0  0  0  # atno 6909 bound_to 6896
  145.5468  140.9502  143.1521 H   0  0  0  0  0  0  0  0  0  0  0  0  # atno 7974 bound_to 7965
  156.0757  140.1382  156.9774 H   0  0  0  0  0  0  0  0  0  0  0  0  # atno 8008 bound_to 7997
  154.4556  140.0962  156.6799 H   0  0  0  0  0  0  0  0  0  0  0  0  # atno 8009 bound_to 7997
  155.5157  140.3455  155.4399 H   0  0  0  0  0  0  0  0  0  0  0  0  # atno 8010 bound_to 7997
  139.5003  144.6129  151.6230 H   0  0  0  0  0  0  0  0  0  0  0  0  # atno 10167 bound_to 10162
  157.5456  131.1095  150.8787 H   0  0  0  0  0  0  0  0  0  0  0  0  # atno 10718 bound_to 10713
  154.8669  135.3652  154.5172 H   0  0  0  0  0  0  0  0  0  0  0  0  # atno 10763 bound_to 10752
  153.5804  135.7018  153.5471 H   0  0  0  0  0  0  0  0  0  0  0  0  # atno 10764 bound_to 10752
  153.3462  135.4084  155.1573 H   0  0  0  0  0  0  0  0  0  0  0  0  # atno 10765 bound_to 10752
  139.9230  134.9639  156.7973 H   0  0  0  0  0  0  0  0  0  0  0  0  # atno 11005 bound_to 11000
  144.7549  139.7099  143.7258 LP  0  0  0  0  0  0  0  0  0  0  0  0  # atno 17320 bound_to 7965
  146.1944  139.5202  142.9784 LP  0  0  0  0  0  0  0  0  0  0  0  0  # atno 17321 bound_to 7965
  140.5809  143.9948  150.6267 LP  0  0  0  0  0  0  0  0  0  0  0  0  # atno 17342 bound_to 10162
  140.3097  143.3206  152.0891 LP  0  0  0  0  0  0  0  0  0  0  0  0  # atno 17343 bound_to 10162
  156.9327  130.5355  149.5279 LP  0  0  0  0  0  0  0  0  0  0  0  0  # atno 17370 bound_to 10713
  156.0533  130.5599  150.9037 LP  0  0  0  0  0  0  0  0  0  0  0  0  # atno 17371 bound_to 10713
  140.6418  133.9811  155.7711 LP  0  0  0  0  0  0  0  0  0  0  0  0  # atno 17394 bound_to 11000
  141.0766  134.0126  157.3449 LP  0  0  0  0  0  0  0  0  0  0  0  0  # atno 17395 bound_to 11000

$$$$
