AV-unprocessed.smi:1801|AV-procd|sdf|7267|dock2
  -GOLD-   22720 8523D 1   1.00000     0.00000
 Structure written by MMmdl.
 38 39  0  0  0  0  0  0  0  0  2 V2000
  145.7419  134.7877  152.7675 C   0  0  0  0  0  0  0  0  0  0  0  0
  145.1803  135.8619  151.8207 C   0  0  2  0  0  0  0  0  0  0  0  0
  145.3798  137.2654  152.4395 C   0  0  0  0  0  0  0  0  0  0  0  0
  146.7717  137.5723  152.7606 N   0  0  0  0  0  0  0  0  0  0  0  0
  147.1855  138.5650  153.5617 C   0  0  0  0  0  0  0  0  0  0  0  0
  146.4183  139.3385  154.1350 O   0  0  0  0  0  0  0  0  0  0  0  0
  148.5269  138.5927  153.6485 N   0  0  0  0  0  0  0  0  0  0  0  0
  149.3397  139.4532  154.4331 C   0  0  0  0  0  0  0  0  0  0  0  0
  150.6351  139.2183  154.6950 N   0  0  0  0  0  0  0  0  0  0  0  0
  151.1964  140.2193  155.4775 N   0  0  0  0  0  0  0  0  0  0  0  0
  150.3044  141.1689  155.7730 C   0  0  0  0  0  0  0  0  0  0  0  0
  148.6915  140.9355  155.1207 S   0  0  0  0  0  0  0  0  0  0  0  0
  143.7020  135.5791  151.4628 C   0  0  0  0  0  0  0  0  0  0  0  0
  143.5316  134.3094  150.7170 N   0  3  0  0  0  0  0  0  0  0  0  0
  144.5357  134.0915  149.6569 C   0  0  0  0  0  0  0  0  0  0  0  0
  144.5392  132.5845  149.4244 C   0  0  0  0  0  0  0  0  0  0  0  0
  144.3361  132.0237  150.8284 C   0  0  0  0  0  0  0  0  0  0  0  0
  143.4953  133.0840  151.5529 C   0  0  0  0  0  0  0  0  0  0  0  0
  145.1915  134.7603  153.7085 H   0  0  0  0  0  0  0  0  0  0  0  0
  146.7890  134.9816  153.0021 H   0  0  0  0  0  0  0  0  0  0  0  0
  145.6900  133.7940  152.3222 H   0  0  0  0  0  0  0  0  0  0  0  0
  145.7731  135.8218  150.9069 H   0  0  0  0  0  0  0  0  0  0  0  0
  145.0228  138.0289  151.7476 H   0  0  0  0  0  0  0  0  0  0  0  0
  144.7787  137.3677  153.3446 H   0  0  0  0  0  0  0  0  0  0  0  0
  147.4742  136.9923  152.3254 H   0  0  0  0  0  0  0  0  0  0  0  0
  149.0271  137.9133  153.0944 H   0  0  0  0  0  0  0  0  0  0  0  0
  150.5985  142.0139  156.3777 H   0  0  0  0  0  0  0  0  0  0  0  0
  143.1124  135.5376  152.3799 H   0  0  0  0  0  0  0  0  0  0  0  0
  143.2786  136.3850  150.8625 H   0  0  0  0  0  0  0  0  0  0  0  0
  144.2986  134.6559  148.7549 H   0  0  0  0  0  0  0  0  0  0  0  0
  145.5189  134.4099  150.0081 H   0  0  0  0  0  0  0  0  0  0  0  0
  143.6994  132.3047  148.7865 H   0  0  0  0  0  0  0  0  0  0  0  0
  145.4558  132.2288  148.9528 H   0  0  0  0  0  0  0  0  0  0  0  0
  143.8609  131.0420  150.8222 H   0  0  0  0  0  0  0  0  0  0  0  0
  145.3025  131.9208  151.3244 H   0  0  0  0  0  0  0  0  0  0  0  0
  143.8882  133.2589  152.5559 H   0  0  0  0  0  0  0  0  0  0  0  0
  142.4588  132.7616  151.6569 H   0  0  0  0  0  0  0  0  0  0  0  0
  142.6391  134.3564  150.2462 H   0  0  0  0  0  0  0  0  0  0  0  0
  1  2  1  0  0  0  0
  1 19  1  0  0  0  0
  1 20  1  0  0  0  0
  1 21  1  0  0  0  0
  2  3  1  0  0  0  0
  2 13  1  0  0  0  0
  2 22  1  0  0  0  0
  3  4  1  0  0  0  0
  3 23  1  0  0  0  0
  3 24  1  0  0  0  0
  4  5  1  0  0  0  0
  4 25  1  0  0  0  0
  5  6  2  0  0  0  0
  5  7  1  0  0  0  0
  7  8  1  0  0  0  0
  7 26  1  0  0  0  0
  8 12  1  0  0  0  0
  8  9  2  0  0  0  0
  9 10  1  0  0  0  0
 10 11  2  0  0  0  0
 11 12  1  0  0  0  0
 11 27  1  0  0  0  0
 13 14  1  0  0  0  0
 13 28  1  0  0  0  0
 13 29  1  0  0  0  0
 14 18  1  0  0  0  0
 14 15  1  0  0  0  0
 14 38  1  0  0  0  0
 15 16  1  0  0  0  0
 15 30  1  0  0  0  0
 15 31  1  0  0  0  0
 16 17  1  0  0  0  0
 16 32  1  0  0  0  0
 16 33  1  0  0  0  0
 17 18  1  0  0  0  0
 17 34  1  0  0  0  0
 17 35  1  0  0  0  0
 18 36  1  0  0  0  0
 18 37  1  0  0  0  0
M  CHG  1  14   1
M  END
> <s_m_source_file>
AV-unprocessed.smi

> <i_m_source_file_index>
1801

> <i_lp_mmshare_version>
43012

> <i_f3d_flags>
0

> <s_epik_input>
W0NIMl0xW0NIMl1bQ0gyXVtDSDJdTjFbQ0gyXVtDQEhdKFtDSDNdKVtDSDJdW05IXUMoPU8pW05IXWMybm5bY0hdczI=

> <s_epik_cmdline>
J2VwaWtfcHl0aG9uJywgJy1waCcsICc3LjAnLCAnLXRuJywgJzgnLCAnLW1hJywgJzIwMCcsICctbWV0YWxfYmluZGluZycsICctaW1hZScsICc8aW5maWxlLm1hZT4nLCAnLW9tYWUnLCAnPG91dGZpbGUubWFlPic=

> <r_lp_tautomer_probability>
1

> <r_epik_Ionization_Penalty>
0.00281598

> <r_epik_Ionization_Penalty_Charging>
0.000371708

> <r_epik_Ionization_Penalty_Neutral>
0.00244427

> <r_epik_State_Penalty>
-0

> <r_epik_Charging_Adjusted_Penalty>
0.000371708

> <i_epik_Tot_Q>
1

> <i_epik_Tot_abs_Q>
1

> <r_epik_Metal_State_Penalty>
0.350595

> <b_epik_Metal_Only>
0

> <s_lp_Force_Field>
OPLS_2005

> <r_lp_Energy>
28.9171

> <b_lp_Chiralities_Consistent>
1

> <s_lp_Variant>
AV-unprocessed.smi:1801-1

> <Gold.Version>
5.8.1

> <Gold.Id.Protein>
6NUR|6NUR_protein|mol2

> <Gold.PLP.Fitness>
42.8749

> <Gold.PLP.PLP>
-31.6678

> <Gold.PLP.part.hbond>
-6.0000

> <Gold.PLP.part.metal>
0.0000

> <Gold.PLP.part.buried>
-2.9468

> <Gold.PLP.part.nonpolar>
-23.7974

> <Gold.PLP.part.repulsive>
0.3883

> <Gold.PLP.ligand.clash>
0.0000

> <Gold.PLP.ligand.torsion>
0.3558

> <Gold.PLP.Chemscore.Hbond>
3.9600

> <Gold.PLP.Chemscore.CHOScore>
0.0000

> <Gold.PLP.Chemscore.Metal>
0.0000

> <Gold.Chemscore.Hbonds>
donor molecule, donor type, donor heavy atom, donor atom, acceptor molecule, acceptor atom, score
      L1  H     4    25       P1  7948  1.00
      L1  H     7    26       P1  7948  0.92
      L1  H    14    38       P1 10186  2.00

> <Gold.PLP.Chemscore.Internal.Correction>
0.0387

> <Gold.Rescore>
     Score         DG    S(hbond)    S(metal)    S(lipo)     H(rot)  DE(clash)    DE(int)     intcor
     17.08     -18.24       2.95        0.00      67.93       1.97       0.52       0.63       ----

> <Gold.Chemscore.Fitness>
17.0847

> <Gold.Chemscore.DG>
-18.2402

> <Gold.Chemscore.ZeroCoef>
-5.4800

> <Gold.Chemscore.Hbond>
2.9484

> <Gold.Chemscore.Metal>
0.0000

> <Gold.Chemscore.Lipo>
67.9272

> <Gold.Chemscore.Internal_Hbond>
0.0000

> <Gold.Chemscore.DEClash>
0.5209

> <Gold.Chemscore.DEInternal>
0.6346

> <Gold.Chemscore.Rot>
1.9667

> <Gold.Chemscore.Internal.Correction>
   9.000000E+99

> <Gold.Chemscore.Hbonds>
donor molecule, donor type, donor heavy atom, donor atom, acceptor molecule, acceptor atom, score
      L1  H     4    25       P1  7948  1.00
      L1  H     7    26       P1  7948  0.83
      L1  H    14    38       P1 10186  0.78

> <Gold.Chemscore.Hbond.Weighted>
-9.8476

> <Gold.Chemscore.Metal.Weighted>
-0.0000

> <Gold.Chemscore.Lipo.Weighted>
-7.9475

> <Gold.Chemscore.Internal_Hbond.Weighted>
0.0000

> <Gold.Chemscore.DEClash.Weighted>
0.5209

> <Gold.Chemscore.DEInternal.Weighted>
0.6346

> <Gold.Chemscore.Rot.Weighted>
5.0348

> <Gold.Chemscore.Internal.Correction.Weighted>
   9.000000E+99

> <Gold.Protein.RotatedTorsions>
[ 6907 6896 6895 6894 ] final   24.19 input  -60.11 | X-H torsion
[ 7974 7965 7964 7962 ] final  -22.72 input  175.53 | X-H torsion
[ 8008 7997 7996 7995 ] final  125.25 input   59.86 | X-H torsion
[ 10167 10162 10161 10158 ] final  -80.35 input  -65.29 | X-H torsion
[ 10718 10713 10712 10709 ] final  -12.79 input   66.30 | X-H torsion
[ 10763 10752 10751 10750 ] final -179.32 input  -60.55 | X-H torsion
[ 11005 11000 10999 10996 ] final  -30.90 input  -57.11 | X-H torsion

> <Gold.Protein.ActiveResidues>
 VAL166  LYS551  ARG553  GLY616  TRP617  ASP618  TYR619  PRO620  LYS621  CYS622 
 ASP623  PHE694  ASN695  SER759  ASP760  ASP761  ALA762  ILE779  LEU786  VAL792 
 PHE793  MET794  SER795  GLU796  ALA797  LYS798  CYS799  TRP800  GLU811  SER814 

> <Gold.Protein.RotatedAtoms>
  151.9537  135.0157  160.0543 H   0  0  0  0  0  0  0  0  0  0  0  0  # atno 6907 bound_to 6896
  152.1930  133.4782  159.5026 H   0  0  0  0  0  0  0  0  0  0  0  0  # atno 6908 bound_to 6896
  150.6939  134.1605  159.4217 H   0  0  0  0  0  0  0  0  0  0  0  0  # atno 6909 bound_to 6896
  146.1659  140.4517  142.8552 H   0  0  0  0  0  0  0  0  0  0  0  0  # atno 7974 bound_to 7965
  156.2828  140.2720  156.1919 H   0  0  0  0  0  0  0  0  0  0  0  0  # atno 8008 bound_to 7997
  155.0449  140.0386  157.2541 H   0  0  0  0  0  0  0  0  0  0  0  0  # atno 8009 bound_to 7997
  154.7243  140.2694  155.6518 H   0  0  0  0  0  0  0  0  0  0  0  0  # atno 8010 bound_to 7997
  140.4511  143.2483  151.8487 H   0  0  0  0  0  0  0  0  0  0  0  0  # atno 10167 bound_to 10162
  156.6396  130.4924  149.6100 H   0  0  0  0  0  0  0  0  0  0  0  0  # atno 10718 bound_to 10713
  154.5366  135.2803  155.1133 H   0  0  0  0  0  0  0  0  0  0  0  0  # atno 10763 bound_to 10752
  154.2632  135.6317  153.5286 H   0  0  0  0  0  0  0  0  0  0  0  0  # atno 10764 bound_to 10752
  152.9969  135.5610  154.5893 H   0  0  0  0  0  0  0  0  0  0  0  0  # atno 10765 bound_to 10752
  140.9422  133.7271  156.1093 H   0  0  0  0  0  0  0  0  0  0  0  0  # atno 11005 bound_to 11000
  144.8092  140.6355  143.6426 LP  0  0  0  0  0  0  0  0  0  0  0  0  # atno 17320 bound_to 7965
  145.4468  139.1528  143.3940 LP  0  0  0  0  0  0  0  0  0  0  0  0  # atno 17321 bound_to 7965
  139.4797  144.5119  151.8921 LP  0  0  0  0  0  0  0  0  0  0  0  0  # atno 17342 bound_to 10162
  140.4206  144.2248  150.5887 LP  0  0  0  0  0  0  0  0  0  0  0  0  # atno 17343 bound_to 10162
  156.2170  130.6714  151.1329 LP  0  0  0  0  0  0  0  0  0  0  0  0  # atno 17370 bound_to 10713
  157.7175  131.0701  150.6269 LP  0  0  0  0  0  0  0  0  0  0  0  0  # atno 17371 bound_to 10713
  140.7718  134.3824  157.5506 LP  0  0  0  0  0  0  0  0  0  0  0  0  # atno 17394 bound_to 11000
  139.8823  134.9027  156.2838 LP  0  0  0  0  0  0  0  0  0  0  0  0  # atno 17395 bound_to 11000

$$$$
