AV-unprocessed.smi:2738|AV-procd|sdf|10549|dock2
  -GOLD-   2272015 03D 1   1.00000     0.00000
 Structure written by MMmdl.
 32 33  0  0  0  0  0  0  0  0  1 V2000
  155.0251  140.4848  159.7985 C   0  0  0  0  0  0  0  0  0  0  0  0
  153.5996  140.6301  160.3458 C   0  0  0  0  0  0  0  0  0  0  0  0
  152.7733  141.4464  159.4599 N   0  0  0  0  0  0  0  0  0  0  0  0
  152.3412  141.1080  158.2224 C   0  0  0  0  0  0  0  0  0  0  0  0
  152.5679  140.0463  157.6423 O   0  0  0  0  0  0  0  0  0  0  0  0
  151.6199  142.1429  157.7306 N   0  0  0  0  0  0  0  0  0  0  0  0
  150.9693  142.1988  156.4218 C   0  0  0  0  0  0  0  0  0  0  0  0
  150.5189  140.8071  155.9356 C   0  0  1  0  0  0  0  0  0  0  0  0
  149.3453  140.8527  154.9456 C   0  0  0  0  0  0  0  0  0  0  0  0
  151.6136  140.1796  155.3028 O   0  0  0  0  0  0  0  0  0  0  0  0
  151.5972  143.1779  158.6781 C   0  0  0  0  0  0  0  0  0  0  0  0
  150.9923  144.4473  158.6518 C   0  0  0  0  0  0  0  0  0  0  0  0
  151.1617  145.2690  159.7906 C   0  0  0  0  0  0  0  0  0  0  0  0
  151.9137  144.8189  160.9066 C   0  0  0  0  0  0  0  0  0  0  0  0
  152.5103  143.5365  160.9082 C   0  0  0  0  0  0  0  0  0  0  0  0
  152.3244  142.7392  159.7653 C   0  0  0  0  0  0  0  0  0  0  0  0
  155.6364  139.8789  160.4672 H   0  0  0  0  0  0  0  0  0  0  0  0
  155.5089  141.4565  159.6948 H   0  0  0  0  0  0  0  0  0  0  0  0
  155.0253  140.0032  158.8202 H   0  0  0  0  0  0  0  0  0  0  0  0
  153.1486  139.6444  160.4688 H   0  0  0  0  0  0  0  0  0  0  0  0
  153.6244  141.0761  161.3405 H   0  0  0  0  0  0  0  0  0  0  0  0
  150.1208  142.8829  156.4517 H   0  0  0  0  0  0  0  0  0  0  0  0
  151.6710  142.6307  155.7061 H   0  0  0  0  0  0  0  0  0  0  0  0
  150.2408  140.1913  156.7918 H   0  0  0  0  0  0  0  0  0  0  0  0
  148.4514  141.2698  155.4092 H   0  0  0  0  0  0  0  0  0  0  0  0
  149.0908  139.8530  154.5921 H   0  0  0  0  0  0  0  0  0  0  0  0
  149.5850  141.4634  154.0747 H   0  0  0  0  0  0  0  0  0  0  0  0
  151.4639  139.2463  155.3000 H   0  0  0  0  0  0  0  0  0  0  0  0
  150.4188  144.7870  157.8022 H   0  0  0  0  0  0  0  0  0  0  0  0
  150.7129  146.2514  159.8105 H   0  0  0  0  0  0  0  0  0  0  0  0
  152.0311  145.4625  161.7660 H   0  0  0  0  0  0  0  0  0  0  0  0
  153.0835  143.1894  161.7550 H   0  0  0  0  0  0  0  0  0  0  0  0
  1  2  1  0  0  0  0
  1 17  1  0  0  0  0
  1 18  1  0  0  0  0
  1 19  1  0  0  0  0
  2  3  1  0  0  0  0
  2 20  1  0  0  0  0
  2 21  1  0  0  0  0
  3 16  1  0  0  0  0
  3  4  1  0  0  0  0
  4  5  2  0  0  0  0
  4  6  1  0  0  0  0
  6  7  1  0  0  0  0
  6 11  1  0  0  0  0
  7  8  1  0  0  0  0
  7 22  1  0  0  0  0
  7 23  1  0  0  0  0
  8  9  1  0  0  0  0
  8 10  1  0  0  0  0
  8 24  1  0  0  0  0
  9 25  1  0  0  0  0
  9 26  1  0  0  0  0
  9 27  1  0  0  0  0
 10 28  1  0  0  0  0
 11 16  2  0  0  0  0
 11 12  1  0  0  0  0
 12 13  2  0  0  0  0
 12 29  1  0  0  0  0
 13 14  1  0  0  0  0
 13 30  1  0  0  0  0
 14 15  2  0  0  0  0
 14 31  1  0  0  0  0
 15 16  1  0  0  0  0
 15 32  1  0  0  0  0
M  END
> <s_m_source_file>
AV-unprocessed.smi

> <i_m_source_file_index>
2738

> <i_lp_mmshare_version>
43012

> <i_f3d_flags>
0

> <s_epik_input>
W2NIXTFbY0hdW2NIXVtjSF1jKGMxMiluKFtDSDJdW0NIM10pYyg9TyluMltDSDJdW0NASF0oW0NIM10pW09IXQ==

> <s_epik_cmdline>
J2VwaWtfcHl0aG9uJywgJy1waCcsICc3LjAnLCAnLXRuJywgJzgnLCAnLW1hJywgJzIwMCcsICctbWV0YWxfYmluZGluZycsICctaW1hZScsICc8aW5maWxlLm1hZT4nLCAnLW9tYWUnLCAnPG91dGZpbGUubWFlPic=

> <r_lp_tautomer_probability>
1

> <r_epik_Ionization_Penalty>
5.28302e-08

> <r_epik_Ionization_Penalty_Charging>
2.52071e-09

> <r_epik_Ionization_Penalty_Neutral>
5.03095e-08

> <r_epik_State_Penalty>
-0

> <r_epik_Charging_Adjusted_Penalty>
2.52071e-09

> <i_epik_Tot_Q>
0

> <i_epik_Tot_abs_Q>
0

> <r_epik_Metal_State_Penalty>
-0

> <b_epik_Metal_Only>
0

> <s_lp_Force_Field>
OPLS_2005

> <r_lp_Energy>
36.2216

> <b_lp_Chiralities_Consistent>
1

> <s_lp_Variant>
AV-unprocessed.smi:2738-2

> <Gold.Version>
5.8.1

> <Gold.Id.Protein>
6NUR|6NUR_protein|mol2

> <Gold.PLP.Fitness>
45.5927

> <Gold.PLP.PLP>
-41.2789

> <Gold.PLP.part.hbond>
-2.0000

> <Gold.PLP.part.metal>
0.0000

> <Gold.PLP.part.buried>
-5.7228

> <Gold.PLP.part.nonpolar>
-33.9201

> <Gold.PLP.part.repulsive>
0.0000

> <Gold.PLP.ligand.clash>
0.0000

> <Gold.PLP.ligand.torsion>
0.7459

> <Gold.PLP.Chemscore.Hbond>
1.9280

> <Gold.PLP.Chemscore.CHOScore>
0.0000

> <Gold.PLP.Chemscore.Metal>
0.0000

> <Gold.Chemscore.Hbonds>
donor molecule, donor type, donor heavy atom, donor atom, acceptor molecule, acceptor atom, score
      P1  H  7989  7998       L1    10  0.94
      P1  H  7997  8009       L1     5  0.96

> <Gold.PLP.Chemscore.Internal.Correction>
0.0216

> <Gold.Rescore>
     Score         DG    S(hbond)    S(metal)    S(lipo)     H(rot)  DE(clash)    DE(int)     intcor
     16.75     -18.84       1.82        0.00     101.82       1.81       0.11       1.98       ----

> <Gold.Chemscore.Fitness>
16.7483

> <Gold.Chemscore.DG>
-18.8416

> <Gold.Chemscore.ZeroCoef>
-5.4800

> <Gold.Chemscore.Hbond>
1.8217

> <Gold.Chemscore.Metal>
0.0000

> <Gold.Chemscore.Lipo>
101.8210

> <Gold.Chemscore.Internal_Hbond>
0.0000

> <Gold.Chemscore.DEClash>
0.1090

> <Gold.Chemscore.DEInternal>
1.9843

> <Gold.Chemscore.Rot>
1.8109

> <Gold.Chemscore.Internal.Correction>
   9.000000E+99

> <Gold.Chemscore.Hbonds>
donor molecule, donor type, donor heavy atom, donor atom, acceptor molecule, acceptor atom, score
      P1  H  7989  7998       L1    10  0.39
      P1  H  7997  8009       L1     5  0.70

> <Gold.Chemscore.Hbond.Weighted>
-6.0843

> <Gold.Chemscore.Metal.Weighted>
-0.0000

> <Gold.Chemscore.Lipo.Weighted>
-11.9131

> <Gold.Chemscore.Internal_Hbond.Weighted>
0.0000

> <Gold.Chemscore.DEClash.Weighted>
0.1090

> <Gold.Chemscore.DEInternal.Weighted>
1.9843

> <Gold.Chemscore.Rot.Weighted>
4.6358

> <Gold.Chemscore.Internal.Correction.Weighted>
   9.000000E+99

> <Gold.Protein.RotatedTorsions>
[ 6907 6896 6895 6894 ] final  157.62 input  -60.11 | X-H torsion
[ 7974 7965 7964 7962 ] final   42.62 input  175.53 | X-H torsion
[ 8008 7997 7996 7995 ] final  173.38 input   59.86 | X-H torsion
[ 10167 10162 10161 10158 ] final  -62.59 input  -65.29 | X-H torsion
[ 10718 10713 10712 10709 ] final  -25.23 input   66.30 | X-H torsion
[ 10763 10752 10751 10750 ] final -164.63 input  -60.55 | X-H torsion
[ 11005 11000 10999 10996 ] final -124.25 input  -57.11 | X-H torsion

> <Gold.Protein.ActiveResidues>
 VAL166  LYS551  ARG553  GLY616  TRP617  ASP618  TYR619  PRO620  LYS621  CYS622 
 ASP623  PHE694  ASN695  SER759  ASP760  ASP761  ALA762  ILE779  LEU786  VAL792 
 PHE793  MET794  SER795  GLU796  ALA797  LYS798  CYS799  TRP800  GLU811  SER814 

> <Gold.Protein.RotatedAtoms>
  152.0124  133.3866  159.4224 H   0  0  0  0  0  0  0  0  0  0  0  0  # atno 6907 bound_to 6896
  150.6898  134.3715  159.5003 H   0  0  0  0  0  0  0  0  0  0  0  0  # atno 6908 bound_to 6896
  152.1478  134.9012  160.0600 H   0  0  0  0  0  0  0  0  0  0  0  0  # atno 6909 bound_to 6896
  146.0725  139.5279  142.9589 H   0  0  0  0  0  0  0  0  0  0  0  0  # atno 7974 bound_to 7965
  156.1081  140.1461  156.9377 H   0  0  0  0  0  0  0  0  0  0  0  0  # atno 8008 bound_to 7997
  154.4747  140.0898  156.7277 H   0  0  0  0  0  0  0  0  0  0  0  0  # atno 8009 bound_to 7997
  155.4645  140.3439  155.4319 H   0  0  0  0  0  0  0  0  0  0  0  0  # atno 8010 bound_to 7997
  140.5929  143.2345  151.6100 H   0  0  0  0  0  0  0  0  0  0  0  0  # atno 10167 bound_to 10162
  156.4671  130.4516  149.6892 H   0  0  0  0  0  0  0  0  0  0  0  0  # atno 10718 bound_to 10713
  154.7010  135.2988  154.9341 H   0  0  0  0  0  0  0  0  0  0  0  0  # atno 10763 bound_to 10752
  154.0273  135.6675  153.4781 H   0  0  0  0  0  0  0  0  0  0  0  0  # atno 10764 bound_to 10752
  153.0681  135.5076  154.8154 H   0  0  0  0  0  0  0  0  0  0  0  0  # atno 10765 bound_to 10752
  140.9856  134.0612  157.3715 H   0  0  0  0  0  0  0  0  0  0  0  0  # atno 11005 bound_to 11000
  145.6366  141.0293  143.1834 LP  0  0  0  0  0  0  0  0  0  0  0  0  # atno 17320 bound_to 7965
  144.7240  139.7935  143.7371 LP  0  0  0  0  0  0  0  0  0  0  0  0  # atno 17321 bound_to 7965
  139.5239  144.3119  152.0985 LP  0  0  0  0  0  0  0  0  0  0  0  0  # atno 17342 bound_to 10162
  140.2287  144.4391  150.6309 LP  0  0  0  0  0  0  0  0  0  0  0  0  # atno 17343 bound_to 10162
  156.3657  130.7504  151.2482 LP  0  0  0  0  0  0  0  0  0  0  0  0  # atno 17370 bound_to 10713
  157.7494  131.0337  150.4286 LP  0  0  0  0  0  0  0  0  0  0  0  0  # atno 17371 bound_to 10713
  139.8969  135.0148  156.7074 LP  0  0  0  0  0  0  0  0  0  0  0  0  # atno 17394 bound_to 11000
  140.7120  133.9215  155.8090 LP  0  0  0  0  0  0  0  0  0  0  0  0  # atno 17395 bound_to 11000

$$$$
