AV-unprocessed.smi:884|AV-procd|sdf|4043|dock9
  -GOLD-   22720 1533D 1   1.00000     0.00000
 Structure written by MMmdl.
 48 50  0  0  0  0  0  0  0  0  2 V2000
  148.4206  139.7978  157.9870 O   0  0  0  0  0  0  0  0  0  0  0  0
  148.9023  140.8070  157.4707 C   0  0  0  0  0  0  0  0  0  0  0  0
  148.1347  141.8135  157.0158 N   0  0  0  0  0  0  0  0  0  0  0  0
  146.6737  141.8454  157.0299 C   0  0  0  0  0  0  0  0  0  0  0  0
  146.1145  143.2181  157.4522 C   0  0  0  0  0  0  0  0  0  0  0  0
  146.2890  143.5314  158.9287 C   0  0  0  0  0  0  0  0  0  0  0  0
  145.5382  142.8744  159.9271 C   0  0  0  0  0  0  0  0  0  0  0  0
  145.7322  143.2263  161.2792 C   0  0  0  0  0  0  0  0  0  0  0  0
  146.6753  144.2231  161.6046 C   0  0  0  0  0  0  0  0  0  0  0  0
  147.3968  144.8487  160.5676 C   0  0  0  0  0  0  0  0  0  0  0  0
  147.1758  144.4901  159.2838 N   0  3  0  0  0  0  0  0  0  0  0  0
  150.2384  140.9935  157.3147 N   0  0  0  0  0  0  0  0  0  0  0  0
  151.2908  140.0197  157.6421 C   0  0  0  0  0  0  0  0  0  0  0  0
  151.8988  140.3889  159.0010 C   0  0  0  0  0  0  0  0  0  0  0  0
  152.6997  142.0204  158.9300 S   0  0  0  0  0  0  0  0  0  0  0  0
  151.3881  143.0531  158.1702 C   0  0  0  0  0  0  0  0  0  0  0  0
  150.2822  143.3801  159.2085 C   0  0  0  0  0  0  0  0  0  0  0  0
  150.7594  144.2991  160.3469 C   0  0  0  0  0  0  0  0  0  0  0  0
  151.3587  145.5997  159.7974 C   0  0  0  0  0  0  0  0  0  0  0  0
  152.4904  145.3038  158.8050 C   0  0  0  0  0  0  0  0  0  0  0  0
  152.0110  144.3804  157.6694 C   0  0  0  0  0  0  0  0  0  0  0  0
  150.8059  142.2983  156.9427 C   0  0  0  0  0  0  0  0  0  0  0  0
  148.6022  142.6179  156.6235 H   0  0  0  0  0  0  0  0  0  0  0  0
  146.2724  141.5721  156.0529 H   0  0  0  0  0  0  0  0  0  0  0  0
  146.3215  141.0796  157.7212 H   0  0  0  0  0  0  0  0  0  0  0  0
  146.5940  144.0042  156.8677 H   0  0  0  0  0  0  0  0  0  0  0  0
  145.0527  143.2668  157.2062 H   0  0  0  0  0  0  0  0  0  0  0  0
  144.8167  142.1158  159.6605 H   0  0  0  0  0  0  0  0  0  0  0  0
  145.1641  142.7374  162.0571 H   0  0  0  0  0  0  0  0  0  0  0  0
  146.8382  144.5074  162.6340 H   0  0  0  0  0  0  0  0  0  0  0  0
  148.1310  145.6254  160.7243 H   0  0  0  0  0  0  0  0  0  0  0  0
  150.9379  138.9887  157.6623 H   0  0  0  0  0  0  0  0  0  0  0  0
  152.0640  140.0340  156.8725 H   0  0  0  0  0  0  0  0  0  0  0  0
  151.1327  140.3943  159.7767 H   0  0  0  0  0  0  0  0  0  0  0  0
  152.6440  139.6500  159.2960 H   0  0  0  0  0  0  0  0  0  0  0  0
  149.4458  143.8630  158.7016 H   0  0  0  0  0  0  0  0  0  0  0  0
  149.8808  142.4653  159.6386 H   0  0  0  0  0  0  0  0  0  0  0  0
  149.9239  144.5306  161.0080 H   0  0  0  0  0  0  0  0  0  0  0  0
  151.4989  143.7830  160.9601 H   0  0  0  0  0  0  0  0  0  0  0  0
  150.5803  146.1813  159.3021 H   0  0  0  0  0  0  0  0  0  0  0  0
  151.7322  146.2147  160.6166 H   0  0  0  0  0  0  0  0  0  0  0  0
  152.8651  146.2378  158.3855 H   0  0  0  0  0  0  0  0  0  0  0  0
  153.3306  144.8490  159.3303 H   0  0  0  0  0  0  0  0  0  0  0  0
  152.8434  144.1722  156.9959 H   0  0  0  0  0  0  0  0  0  0  0  0
  151.2750  144.9233  157.0747 H   0  0  0  0  0  0  0  0  0  0  0  0
  151.5879  142.1456  156.1971 H   0  0  0  0  0  0  0  0  0  0  0  0
  150.0652  142.9211  156.4384 H   0  0  0  0  0  0  0  0  0  0  0  0
  147.7054  144.9597  158.5492 H   0  0  0  0  0  0  0  0  0  0  0  0
  1  2  2  0  0  0  0
  2  3  1  0  0  0  0
  2 12  1  0  0  0  0
  3  4  1  0  0  0  0
  3 23  1  0  0  0  0
  4  5  1  0  0  0  0
  4 24  1  0  0  0  0
  4 25  1  0  0  0  0
  5  6  1  0  0  0  0
  5 26  1  0  0  0  0
  5 27  1  0  0  0  0
  6 11  1  0  0  0  0
  6  7  2  0  0  0  0
  7  8  1  0  0  0  0
  7 28  1  0  0  0  0
  8  9  2  0  0  0  0
  8 29  1  0  0  0  0
  9 10  1  0  0  0  0
  9 30  1  0  0  0  0
 10 11  2  0  0  0  0
 10 31  1  0  0  0  0
 11 48  1  0  0  0  0
 12 22  1  0  0  0  0
 12 13  1  0  0  0  0
 13 14  1  0  0  0  0
 13 32  1  0  0  0  0
 13 33  1  0  0  0  0
 14 15  1  0  0  0  0
 14 34  1  0  0  0  0
 14 35  1  0  0  0  0
 15 16  1  0  0  0  0
 16 21  1  0  0  0  0
 16 17  1  0  0  0  0
 16 22  1  0  0  0  0
 17 18  1  0  0  0  0
 17 36  1  0  0  0  0
 17 37  1  0  0  0  0
 18 19  1  0  0  0  0
 18 38  1  0  0  0  0
 18 39  1  0  0  0  0
 19 20  1  0  0  0  0
 19 40  1  0  0  0  0
 19 41  1  0  0  0  0
 20 21  1  0  0  0  0
 20 42  1  0  0  0  0
 20 43  1  0  0  0  0
 21 44  1  0  0  0  0
 21 45  1  0  0  0  0
 22 46  1  0  0  0  0
 22 47  1  0  0  0  0
M  CHG  1  11   1
M  END
> <s_m_source_file>
AV-unprocessed.smi

> <i_m_source_file_index>
884

> <i_lp_mmshare_version>
43012

> <i_f3d_flags>
0

> <s_epik_input>
bjFbY0hdW2NIXVtjSF1bY0hdYzFbQ0gyXVtDSDJdW05IXUMoPU8pTihbQ0gyXTIpW0NIMl1bQ0gyXVNDMjNbQ0gyXVtDSDJdW0NIMl1bQ0gyXVtDSDJdMw==

> <s_epik_cmdline>
J2VwaWtfcHl0aG9uJywgJy1waCcsICc3LjAnLCAnLXRuJywgJzgnLCAnLW1hJywgJzIwMCcsICctbWV0YWxfYmluZGluZycsICctaW1hZScsICc8aW5maWxlLm1hZT4nLCAnLW9tYWUnLCAnPG91dGZpbGUubWFlPic=

> <r_epik_Ionization_Penalty>
1.55139

> <r_epik_Ionization_Penalty_Charging>
1.55135

> <r_epik_Ionization_Penalty_Neutral>
4.66963e-05

> <r_epik_State_Penalty>
1.64559

> <r_epik_Charging_Adjusted_Penalty>
3.19693

> <i_epik_Tot_Q>
1

> <i_epik_Tot_abs_Q>
1

> <r_epik_Metal_State_Penalty>
1.68773

> <b_epik_Metal_Only>
0

> <s_lp_Force_Field>
OPLS_2005

> <r_lp_Energy>
36.5944

> <b_lp_Chiralities_Consistent>
1

> <s_lp_Variant>
AV-unprocessed.smi:884-2

> <Gold.Version>
5.8.1

> <Gold.Id.Protein>
6NUR|6NUR_protein|mol2

> <Gold.PLP.Fitness>
49.0595

> <Gold.PLP.PLP>
-44.0543

> <Gold.PLP.part.hbond>
-1.7470

> <Gold.PLP.part.metal>
0.0000

> <Gold.PLP.part.buried>
-7.3949

> <Gold.PLP.part.nonpolar>
-33.8200

> <Gold.PLP.part.repulsive>
0.1123

> <Gold.PLP.ligand.clash>
1.2321

> <Gold.PLP.ligand.torsion>
0.3074

> <Gold.PLP.Chemscore.Hbond>
2.2763

> <Gold.PLP.Chemscore.CHOScore>
0.0000

> <Gold.PLP.Chemscore.Metal>
0.0000

> <Gold.Chemscore.Hbonds>
donor molecule, donor type, donor heavy atom, donor atom, acceptor molecule, acceptor atom, score
      L1  H     3    23       P1  8028  0.28
      L1  H    11    48       P1  8029  2.00

> <Gold.PLP.Chemscore.Internal.Correction>
0.0233

> <Gold.Rescore>
     Score         DG    S(hbond)    S(metal)    S(lipo)     H(rot)  DE(clash)    DE(int)     intcor
     19.13     -20.06       0.98        0.00     124.92       1.30       0.59       0.35       ----

> <Gold.Chemscore.Fitness>
19.1290

> <Gold.Chemscore.DG>
-20.0613

> <Gold.Chemscore.ZeroCoef>
-5.4800

> <Gold.Chemscore.Hbond>
0.9826

> <Gold.Chemscore.Metal>
0.0000

> <Gold.Chemscore.Lipo>
124.9156

> <Gold.Chemscore.Internal_Hbond>
0.0000

> <Gold.Chemscore.DEClash>
0.5859

> <Gold.Chemscore.DEInternal>
0.3464

> <Gold.Chemscore.Rot>
1.2953

> <Gold.Chemscore.Internal.Correction>
   9.000000E+99

> <Gold.Chemscore.Hbonds>
donor molecule, donor type, donor heavy atom, donor atom, acceptor molecule, acceptor atom, score
      L1  H     3    23       P1  8028  0.25
      L1  H    11    48       P1  8029  0.97

> <Gold.Chemscore.Hbond.Weighted>
-3.2820

> <Gold.Chemscore.Metal.Weighted>
-0.0000

> <Gold.Chemscore.Lipo.Weighted>
-14.6151

> <Gold.Chemscore.Internal_Hbond.Weighted>
0.0000

> <Gold.Chemscore.DEClash.Weighted>
0.5859

> <Gold.Chemscore.DEInternal.Weighted>
0.3464

> <Gold.Chemscore.Rot.Weighted>
3.3159

> <Gold.Chemscore.Internal.Correction.Weighted>
   9.000000E+99

> <Gold.Protein.RotatedTorsions>
[ 6907 6896 6895 6894 ] final   20.18 input  -60.11 | X-H torsion
[ 7974 7965 7964 7962 ] final   -0.07 input  175.53 | X-H torsion
[ 8008 7997 7996 7995 ] final -134.34 input   59.86 | X-H torsion
[ 10167 10162 10161 10158 ] final  121.23 input  -65.29 | X-H torsion
[ 10718 10713 10712 10709 ] final   55.12 input   66.30 | X-H torsion
[ 10763 10752 10751 10750 ] final   69.18 input  -60.55 | X-H torsion
[ 11005 11000 10999 10996 ] final   72.60 input  -57.11 | X-H torsion

> <Gold.Protein.ActiveResidues>
 VAL166  LYS551  ARG553  GLY616  TRP617  ASP618  TYR619  PRO620  LYS621  CYS622 
 ASP623  PHE694  ASN695  SER759  ASP760  ASP761  ALA762  ILE779  LEU786  VAL792 
 PHE793  MET794  SER795  GLU796  ALA797  LYS798  CYS799  TRP800  GLU811  SER814 

> <Gold.Protein.RotatedAtoms>
  151.8923  135.0411  160.0498 H   0  0  0  0  0  0  0  0  0  0  0  0  # atno 6907 bound_to 6896
  152.2426  133.5143  159.5287 H   0  0  0  0  0  0  0  0  0  0  0  0  # atno 6908 bound_to 6896
  150.7058  134.0985  159.4000 H   0  0  0  0  0  0  0  0  0  0  0  0  # atno 6909 bound_to 6896
  146.2430  140.1213  142.8340 H   0  0  0  0  0  0  0  0  0  0  0  0  # atno 7974 bound_to 7965
  155.3604  140.0482  157.3046 H   0  0  0  0  0  0  0  0  0  0  0  0  # atno 8008 bound_to 7997
  154.5181  140.2215  155.8991 H   0  0  0  0  0  0  0  0  0  0  0  0  # atno 8009 bound_to 7997
  156.1659  140.3106  155.8893 H   0  0  0  0  0  0  0  0  0  0  0  0  # atno 8010 bound_to 7997
  139.5933  144.7033  151.3238 H   0  0  0  0  0  0  0  0  0  0  0  0  # atno 10167 bound_to 10162
  157.5317  130.8635  149.8696 H   0  0  0  0  0  0  0  0  0  0  0  0  # atno 10718 bound_to 10713
  153.0273  135.5220  154.7248 H   0  0  0  0  0  0  0  0  0  0  0  0  # atno 10763 bound_to 10752
  154.6293  135.2898  155.0237 H   0  0  0  0  0  0  0  0  0  0  0  0  # atno 10764 bound_to 10752
  154.1195  135.6610  153.4953 H   0  0  0  0  0  0  0  0  0  0  0  0  # atno 10765 bound_to 10752
  139.9482  134.7274  156.0926 H   0  0  0  0  0  0  0  0  0  0  0  0  # atno 11005 bound_to 11000
  145.0403  140.8940  143.5056 LP  0  0  0  0  0  0  0  0  0  0  0  0  # atno 17320 bound_to 7965
  145.1293  139.2642  143.5548 LP  0  0  0  0  0  0  0  0  0  0  0  0  # atno 17321 bound_to 7965
  140.7191  143.7186  150.7713 LP  0  0  0  0  0  0  0  0  0  0  0  0  # atno 17342 bound_to 10162
  140.0746  143.5027  152.2562 LP  0  0  0  0  0  0  0  0  0  0  0  0  # atno 17343 bound_to 10162
  156.0427  130.3735  150.1394 LP  0  0  0  0  0  0  0  0  0  0  0  0  # atno 17370 bound_to 10713
  156.9578  130.9795  151.3485 LP  0  0  0  0  0  0  0  0  0  0  0  0  # atno 17371 bound_to 10713
  141.1139  133.6634  156.3045 LP  0  0  0  0  0  0  0  0  0  0  0  0  # atno 17394 bound_to 11000
  140.5782  134.5772  157.5473 LP  0  0  0  0  0  0  0  0  0  0  0  0  # atno 17395 bound_to 11000

$$$$
