AV-unprocessed.smi:1487|AV-procd|sdf|6019|dock10
  -GOLD-   22720 6123D 1   1.00000     0.00000
 Structure written by MMmdl.
 49 51  0  0  0  0  0  0  0  0  3 V2000
  152.3391  143.7733  159.9568 C   0  0  0  0  0  0  0  0  0  0  0  0
  151.9756  142.7383  158.9056 C   0  0  0  0  0  0  0  0  0  0  0  0
  151.0881  143.1106  157.8709 C   0  0  0  0  0  0  0  0  0  0  0  0
  150.7756  142.1424  156.9244 C   0  0  0  0  0  0  0  0  0  0  0  0
  149.9457  142.1959  155.8027 N   0  3  0  0  0  0  0  0  0  0  0  0
  149.9523  140.9883  155.1738 C   0  0  0  0  0  0  0  0  0  0  0  0
  150.7737  140.1625  155.8778 N   0  0  0  0  0  0  0  0  0  0  0  0
  151.1339  138.7595  155.6237 C   0  0  0  0  0  0  0  0  0  0  0  0
  150.1486  138.0490  154.6751 C   0  0  2  0  0  0  0  0  0  0  0  0
  150.3106  138.5488  153.3620 O   0  0  0  0  0  0  0  0  0  0  0  0
  148.6849  138.2692  155.1060 C   0  0  0  0  0  0  0  0  0  0  0  0
  147.7155  137.8308  154.0695 N   0  3  1  0  0  0  0  0  0  0  0  0
  146.6208  136.9815  154.6094 C   0  0  0  0  0  0  0  0  0  0  0  0
  145.7498  136.4187  153.4756 C   0  0  0  0  0  0  0  0  0  0  0  0
  145.1756  137.5494  152.6104 C   0  0  0  0  0  0  0  0  0  0  0  0
  146.2911  138.4837  152.1125 C   0  0  2  0  0  0  0  0  0  0  0  0
  147.0832  137.8334  151.1382 O   0  0  0  0  0  0  0  0  0  0  0  0
  147.1888  138.9674  153.2686 C   0  0  0  0  0  0  0  0  0  0  0  0
  151.3116  140.8408  156.9791 C   0  0  0  0  0  0  0  0  0  0  0  0
  152.1864  140.4575  157.9934 C   0  0  0  0  0  0  0  0  0  0  0  0
  152.5182  141.4286  158.9653 C   0  0  0  0  0  0  0  0  0  0  0  0
  153.4712  141.0383  160.0823 C   0  0  0  0  0  0  0  0  0  0  0  0
  151.7962  144.7063  159.8027 H   0  0  0  0  0  0  0  0  0  0  0  0
  153.4054  143.9971  159.9191 H   0  0  0  0  0  0  0  0  0  0  0  0
  152.0959  143.4093  160.9553 H   0  0  0  0  0  0  0  0  0  0  0  0
  150.6709  144.1059  157.8188 H   0  0  0  0  0  0  0  0  0  0  0  0
  149.4051  140.7334  154.2774 H   0  0  0  0  0  0  0  0  0  0  0  0
  152.1320  138.7621  155.1836 H   0  0  0  0  0  0  0  0  0  0  0  0
  151.2237  138.2313  156.5733 H   0  0  0  0  0  0  0  0  0  0  0  0
  150.3879  136.9861  154.6634 H   0  0  0  0  0  0  0  0  0  0  0  0
  149.8943  137.9510  152.7593 H   0  0  0  0  0  0  0  0  0  0  0  0
  148.4745  137.7437  156.0387 H   0  0  0  0  0  0  0  0  0  0  0  0
  148.5468  139.3303  155.3208 H   0  0  0  0  0  0  0  0  0  0  0  0
  147.0303  136.1514  155.1841 H   0  0  0  0  0  0  0  0  0  0  0  0
  146.0087  137.5671  155.2972 H   0  0  0  0  0  0  0  0  0  0  0  0
  146.3432  135.7436  152.8575 H   0  0  0  0  0  0  0  0  0  0  0  0
  144.9379  135.8213  153.8909 H   0  0  0  0  0  0  0  0  0  0  0  0
  144.6121  137.1399  151.7710 H   0  0  0  0  0  0  0  0  0  0  0  0
  144.4651  138.1262  153.2041 H   0  0  0  0  0  0  0  0  0  0  0  0
  145.8406  139.3495  151.6264 H   0  0  0  0  0  0  0  0  0  0  0  0
  147.5272  137.1052  151.5466 H   0  0  0  0  0  0  0  0  0  0  0  0
  146.6212  139.6296  153.9243 H   0  0  0  0  0  0  0  0  0  0  0  0
  148.0140  139.5570  152.8662 H   0  0  0  0  0  0  0  0  0  0  0  0
  152.5970  139.4601  158.0459 H   0  0  0  0  0  0  0  0  0  0  0  0
  153.8396  140.0198  159.9558 H   0  0  0  0  0  0  0  0  0  0  0  0
  152.9695  141.0940  161.0487 H   0  0  0  0  0  0  0  0  0  0  0  0
  154.3353  141.7031  160.1009 H   0  0  0  0  0  0  0  0  0  0  0  0
  148.2395  137.2606  153.4203 H   0  0  0  0  0  0  0  0  0  0  0  0
  149.4147  142.9977  155.4867 H   0  0  0  0  0  0  0  0  0  0  0  0
  1  2  1  0  0  0  0
  1 23  1  0  0  0  0
  1 24  1  0  0  0  0
  1 25  1  0  0  0  0
  2 21  1  0  0  0  0
  2  3  2  0  0  0  0
  3  4  1  0  0  0  0
  3 26  1  0  0  0  0
  4 19  2  0  0  0  0
  4  5  1  0  0  0  0
  5  6  2  0  0  0  0
  5 49  1  0  0  0  0
  6  7  1  0  0  0  0
  6 27  1  0  0  0  0
  7  8  1  0  0  0  0
  7 19  1  0  0  0  0
  8  9  1  0  0  0  0
  8 28  1  0  0  0  0
  8 29  1  0  0  0  0
  9 10  1  0  0  0  0
  9 11  1  0  0  0  0
  9 30  1  0  0  0  0
 10 31  1  0  0  0  0
 11 12  1  0  0  0  0
 11 32  1  0  0  0  0
 11 33  1  0  0  0  0
 12 18  1  0  0  0  0
 12 13  1  0  0  0  0
 12 48  1  0  0  0  0
 13 14  1  0  0  0  0
 13 34  1  0  0  0  0
 13 35  1  0  0  0  0
 14 15  1  0  0  0  0
 14 36  1  0  0  0  0
 14 37  1  0  0  0  0
 15 16  1  0  0  0  0
 15 38  1  0  0  0  0
 15 39  1  0  0  0  0
 16 17  1  0  0  0  0
 16 18  1  0  0  0  0
 16 40  1  0  0  0  0
 17 41  1  0  0  0  0
 18 42  1  0  0  0  0
 18 43  1  0  0  0  0
 19 20  1  0  0  0  0
 20 21  2  0  0  0  0
 20 44  1  0  0  0  0
 21 22  1  0  0  0  0
 22 45  1  0  0  0  0
 22 46  1  0  0  0  0
 22 47  1  0  0  0  0
M  CHG  1   5   1
M  CHG  1  12   1
M  END
> <s_m_source_file>
AV-unprocessed.smi

> <i_m_source_file_index>
1487

> <i_lp_mmshare_version>
43012

> <i_f3d_flags>
0

> <s_epik_input>
W0NIM11jKFtjSF0xKWMoW0NIM10pW2NIXWMoYzEyKW4oW2NIXW4yKVtDSDJdW0NASF0oW09IXSlbQ0gyXU4zW0NIMl1bQ0gyXVtDSDJdW0NAQEhdKFtPSF0pW0NIMl0z

> <s_epik_cmdline>
J2VwaWtfcHl0aG9uJywgJy1waCcsICc3LjAnLCAnLXRuJywgJzgnLCAnLW1hJywgJzIwMCcsICctbWV0YWxfYmluZGluZycsICctaW1hZScsICc8aW5maWxlLm1hZT4nLCAnLW9tYWUnLCAnPG91dGZpbGUubWFlPic=

> <r_epik_Ionization_Penalty>
1.1857

> <r_epik_Ionization_Penalty_Charging>
1.1857

> <r_epik_Ionization_Penalty_Neutral>
1.75578e-06

> <r_epik_State_Penalty>
1.26953

> <r_epik_Charging_Adjusted_Penalty>
2.45524

> <i_epik_Tot_Q>
2

> <i_epik_Tot_abs_Q>
2

> <r_epik_Metal_State_Penalty>
5.28243

> <b_epik_Metal_Only>
0

> <s_lp_Force_Field>
OPLS_2005

> <r_lp_Energy>
30.6325

> <b_lp_Chiralities_Consistent>
1

> <s_lp_Variant>
AV-unprocessed.smi:1487-13

> <Gold.Version>
5.8.1

> <Gold.Id.Protein>
6NUR|6NUR_protein|mol2

> <Gold.PLP.Fitness>
60.6783

> <Gold.PLP.PLP>
-42.2138

> <Gold.PLP.part.hbond>
-6.0805

> <Gold.PLP.part.metal>
0.0000

> <Gold.PLP.part.buried>
-2.8620

> <Gold.PLP.part.nonpolar>
-35.1913

> <Gold.PLP.part.repulsive>
0.1606

> <Gold.PLP.ligand.clash>
0.0000

> <Gold.PLP.ligand.torsion>
1.0045

> <Gold.PLP.Chemscore.Hbond>
6.8140

> <Gold.PLP.Chemscore.CHOScore>
0.0000

> <Gold.PLP.Chemscore.Metal>
0.0000

> <Gold.Chemscore.Hbonds>
donor molecule, donor type, donor heavy atom, donor atom, acceptor molecule, acceptor atom, score
      L1  H     5    49       P1  8028  2.00
      L1  H    10    31       P1  7948  0.81
      L1  H    12    48       P1  7948  2.00
      L1  H    17    41       P1  7948  0.98
      P1  H  7954  7966       L1    17  0.60

> <Gold.PLP.Chemscore.Internal.Correction>
0.0315

> <Gold.Rescore>
     Score         DG    S(hbond)    S(metal)    S(lipo)     H(rot)  DE(clash)    DE(int)     intcor
     20.16     -23.02       3.61        0.00     106.80       2.74       0.26       2.60       ----

> <Gold.Chemscore.Fitness>
20.1589

> <Gold.Chemscore.DG>
-23.0246

> <Gold.Chemscore.ZeroCoef>
-5.4800

> <Gold.Chemscore.Hbond>
3.6107

> <Gold.Chemscore.Metal>
0.0000

> <Gold.Chemscore.Lipo>
106.7965

> <Gold.Chemscore.Internal_Hbond>
0.0000

> <Gold.Chemscore.DEClash>
0.2643

> <Gold.Chemscore.DEInternal>
2.6013

> <Gold.Chemscore.Rot>
2.7384

> <Gold.Chemscore.Internal.Correction>
   9.000000E+99

> <Gold.Chemscore.Hbonds>
donor molecule, donor type, donor heavy atom, donor atom, acceptor molecule, acceptor atom, score
      L1  H     5    49       P1  8028  0.96
      L1  H    10    31       P1  7948  0.24
      L1  H    12    48       P1  7948  0.97
      L1  H    17    41       P1  7948  0.93
      P1  H  7954  7966       L1    17  0.04

> <Gold.Chemscore.Hbond.Weighted>
-12.0597

> <Gold.Chemscore.Metal.Weighted>
-0.0000

> <Gold.Chemscore.Lipo.Weighted>
-12.4952

> <Gold.Chemscore.Internal_Hbond.Weighted>
0.0000

> <Gold.Chemscore.DEClash.Weighted>
0.2643

> <Gold.Chemscore.DEInternal.Weighted>
2.6013

> <Gold.Chemscore.Rot.Weighted>
7.0103

> <Gold.Chemscore.Internal.Correction.Weighted>
   9.000000E+99

> <Gold.Protein.RotatedTorsions>
[ 6907 6896 6895 6894 ] final  174.63 input  -60.11 | X-H torsion
[ 7974 7965 7964 7962 ] final   -8.29 input  175.53 | X-H torsion
[ 8008 7997 7996 7995 ] final   90.98 input   59.86 | X-H torsion
[ 10167 10162 10161 10158 ] final  -66.60 input  -65.29 | X-H torsion
[ 10718 10713 10712 10709 ] final -131.31 input   66.30 | X-H torsion
[ 10763 10752 10751 10750 ] final  112.55 input  -60.55 | X-H torsion
[ 11005 11000 10999 10996 ] final  106.99 input  -57.11 | X-H torsion

> <Gold.Protein.ActiveResidues>
 VAL166  LYS551  ARG553  GLY616  TRP617  ASP618  TYR619  PRO620  LYS621  CYS622 
 ASP623  PHE694  ASN695  SER759  ASP760  ASP761  ALA762  ILE779  LEU786  VAL792 
 PHE793  MET794  SER795  GLU796  ALA797  LYS798  CYS799  TRP800  GLU811  SER814 

> <Gold.Protein.RotatedAtoms>
  151.7493  133.3326  159.3386 H   0  0  0  0  0  0  0  0  0  0  0  0  # atno 6907 bound_to 6896
  150.7542  134.6207  159.6144 H   0  0  0  0  0  0  0  0  0  0  0  0  # atno 6908 bound_to 6896
  152.3479  134.7048  160.0296 H   0  0  0  0  0  0  0  0  0  0  0  0  # atno 6909 bound_to 6896
  146.2284  140.2447  142.8345 H   0  0  0  0  0  0  0  0  0  0  0  0  # atno 7974 bound_to 7965
  156.0184  140.3343  155.7013 H   0  0  0  0  0  0  0  0  0  0  0  0  # atno 8008 bound_to 7997
  155.6058  140.0660  157.2738 H   0  0  0  0  0  0  0  0  0  0  0  0  # atno 8009 bound_to 7997
  154.4307  140.1802  156.1208 H   0  0  0  0  0  0  0  0  0  0  0  0  # atno 8010 bound_to 7997
  140.5645  143.2314  151.6662 H   0  0  0  0  0  0  0  0  0  0  0  0  # atno 10167 bound_to 10162
  156.2232  130.6991  151.0778 H   0  0  0  0  0  0  0  0  0  0  0  0  # atno 10718 bound_to 10713
  153.4794  135.3683  155.2434 H   0  0  0  0  0  0  0  0  0  0  0  0  # atno 10763 bound_to 10752
  154.8755  135.3950  154.3717 H   0  0  0  0  0  0  0  0  0  0  0  0  # atno 10764 bound_to 10752
  153.4319  135.7082  153.6290 H   0  0  0  0  0  0  0  0  0  0  0  0  # atno 10765 bound_to 10752
  139.8822  134.9387  156.5751 H   0  0  0  0  0  0  0  0  0  0  0  0  # atno 11005 bound_to 11000
  144.9457  140.8126  143.5602 LP  0  0  0  0  0  0  0  0  0  0  0  0  # atno 17320 bound_to 7965
  145.2403  139.2075  143.4996 LP  0  0  0  0  0  0  0  0  0  0  0  0  # atno 17321 bound_to 7965
  139.5086  144.3606  152.0566 LP  0  0  0  0  0  0  0  0  0  0  0  0  # atno 17342 bound_to 10162
  140.2736  144.3937  150.6143 LP  0  0  0  0  0  0  0  0  0  0  0  0  # atno 17343 bound_to 10162
  157.7097  131.0740  150.6542 LP  0  0  0  0  0  0  0  0  0  0  0  0  # atno 17370 bound_to 10713
  156.6606  130.4511  149.5689 LP  0  0  0  0  0  0  0  0  0  0  0  0  # atno 17371 bound_to 10713
  140.8069  133.8460  155.8775 LP  0  0  0  0  0  0  0  0  0  0  0  0  # atno 17394 bound_to 11000
  140.9542  134.1740  157.4705 LP  0  0  0  0  0  0  0  0  0  0  0  0  # atno 17395 bound_to 11000

$$$$
