AV-unprocessed.smi:676|AV-procd|sdf|3307|dock2
  -GOLD-   22720 0273D 1   1.00000     0.00000
 Structure written by MMmdl.
 42 43  0  0  0  0  0  0  0  0  1 V2000
  145.8857  142.3744  156.5869 C   0  0  0  0  0  0  0  0  0  0  0  0
  147.1658  142.2514  155.9786 O   0  0  0  0  0  0  0  0  0  0  0  0
  147.2188  141.6964  154.6577 C   0  0  1  0  0  0  0  0  0  0  0  0
  146.1293  142.3210  153.7761 C   0  0  0  0  0  0  0  0  0  0  0  0
  148.6737  141.6626  154.1500 C   0  0  0  0  0  0  0  0  0  0  0  0
  148.8372  140.2882  154.8044 C   0  0  1  0  0  0  0  0  0  0  0  0
  149.3927  140.3937  156.1530 N   0  0  0  0  0  0  0  0  0  0  0  0
  150.6826  140.6199  156.4353 C   0  0  0  0  0  0  0  0  0  0  0  0
  151.5461  140.7754  155.5712 O   0  0  0  0  0  0  0  0  0  0  0  0
  151.0403  140.7084  157.9248 C   0  0  0  0  0  0  0  0  0  0  0  0
  151.4992  142.0489  158.3233 N   0  0  0  0  0  0  0  0  0  0  0  0
  151.0295  143.1411  157.5667 C   0  0  0  0  0  0  0  0  0  0  0  0
  151.3885  144.4042  157.8453 C   0  0  0  0  0  0  0  0  0  0  0  0
  152.2809  144.6308  158.9576 C   0  0  0  0  0  0  0  0  0  0  0  0
  152.7392  143.5928  159.6850 C   0  0  0  0  0  0  0  0  0  0  0  0
  152.3540  142.2097  159.3804 C   0  0  0  0  0  0  0  0  0  0  0  0
  152.7726  141.2552  160.0364 O   0  0  0  0  0  0  0  0  0  0  0  0
  147.2939  140.1390  154.7786 C   0  0  0  0  0  0  0  0  0  0  0  0
  146.6079  139.4956  155.9954 C   0  0  0  0  0  0  0  0  0  0  0  0
  146.7840  139.3504  153.5629 C   0  0  0  0  0  0  0  0  0  0  0  0
  145.9848  142.9504  157.5067 H   0  0  0  0  0  0  0  0  0  0  0  0
  145.4750  141.4024  156.8598 H   0  0  0  0  0  0  0  0  0  0  0  0
  145.1687  142.8918  155.9504 H   0  0  0  0  0  0  0  0  0  0  0  0
  146.0792  141.8490  152.7957 H   0  0  0  0  0  0  0  0  0  0  0  0
  146.3108  143.3793  153.5907 H   0  0  0  0  0  0  0  0  0  0  0  0
  145.1454  142.2248  154.2357 H   0  0  0  0  0  0  0  0  0  0  0  0
  148.7352  141.6108  153.0619 H   0  0  0  0  0  0  0  0  0  0  0  0
  149.3390  142.4352  154.5349 H   0  0  0  0  0  0  0  0  0  0  0  0
  149.3515  139.5654  154.1684 H   0  0  0  0  0  0  0  0  0  0  0  0
  148.7450  140.2922  156.9212 H   0  0  0  0  0  0  0  0  0  0  0  0
  150.1616  140.4170  158.5014 H   0  0  0  0  0  0  0  0  0  0  0  0
  151.8002  139.9631  158.1686 H   0  0  0  0  0  0  0  0  0  0  0  0
  150.3724  142.8854  156.7481 H   0  0  0  0  0  0  0  0  0  0  0  0
  151.0229  145.2284  157.2506 H   0  0  0  0  0  0  0  0  0  0  0  0
  152.5823  145.6374  159.2076 H   0  0  0  0  0  0  0  0  0  0  0  0
  153.4059  143.7811  160.5137 H   0  0  0  0  0  0  0  0  0  0  0  0
  146.8673  138.4403  156.0862 H   0  0  0  0  0  0  0  0  0  0  0  0
  145.5222  139.5615  155.9198 H   0  0  0  0  0  0  0  0  0  0  0  0
  146.8857  139.9686  156.9370 H   0  0  0  0  0  0  0  0  0  0  0  0
  147.0454  138.2941  153.6356 H   0  0  0  0  0  0  0  0  0  0  0  0
  147.2129  139.7165  152.6297 H   0  0  0  0  0  0  0  0  0  0  0  0
  145.6995  139.4121  153.4667 H   0  0  0  0  0  0  0  0  0  0  0  0
  1  2  1  0  0  0  0
  1 21  1  0  0  0  0
  1 22  1  0  0  0  0
  1 23  1  0  0  0  0
  2  3  1  0  0  0  0
  3 18  1  0  0  0  0
  3  4  1  0  0  0  0
  3  5  1  0  0  0  0
  4 24  1  0  0  0  0
  4 25  1  0  0  0  0
  4 26  1  0  0  0  0
  5  6  1  0  0  0  0
  5 27  1  0  0  0  0
  5 28  1  0  0  0  0
  6  7  1  0  0  0  0
  6 18  1  0  0  0  0
  6 29  1  0  0  0  0
  7  8  1  0  0  0  0
  7 30  1  0  0  0  0
  8  9  2  0  0  0  0
  8 10  1  0  0  0  0
 10 11  1  0  0  0  0
 10 31  1  0  0  0  0
 10 32  1  0  0  0  0
 11 16  1  0  0  0  0
 11 12  1  0  0  0  0
 12 13  2  0  0  0  0
 12 33  1  0  0  0  0
 13 14  1  0  0  0  0
 13 34  1  0  0  0  0
 14 15  2  0  0  0  0
 14 35  1  0  0  0  0
 15 16  1  0  0  0  0
 15 36  1  0  0  0  0
 16 17  2  0  0  0  0
 18 19  1  0  0  0  0
 18 20  1  0  0  0  0
 19 37  1  0  0  0  0
 19 38  1  0  0  0  0
 19 39  1  0  0  0  0
 20 40  1  0  0  0  0
 20 41  1  0  0  0  0
 20 42  1  0  0  0  0
M  END
> <s_m_source_file>
AV-unprocessed.smi

> <i_m_source_file_index>
676

> <i_lp_mmshare_version>
43012

> <i_f3d_flags>
0

> <s_epik_input>
W0NIM11PW0NAQF0xKFtDSDNdKVtDSDJdW0NASF0oQzEoW0NIM10pW0NIM10pW05IXUMoPU8pW0NIMl1uMltjSF1bY0hdW2NIXVtjSF1jMj1P

> <s_epik_cmdline>
J2VwaWtfcHl0aG9uJywgJy1waCcsICc3LjAnLCAnLXRuJywgJzgnLCAnLW1hJywgJzIwMCcsICctbWV0YWxfYmluZGluZycsICctaW1hZScsICc8aW5maWxlLm1hZT4nLCAnLW9tYWUnLCAnPG91dGZpbGUubWFlPic=

> <r_lp_tautomer_probability>
1

> <r_epik_Ionization_Penalty>
4.09771e-07

> <r_epik_Ionization_Penalty_Charging>
3.90712e-07

> <r_epik_Ionization_Penalty_Neutral>
1.90591e-08

> <r_epik_State_Penalty>
-0

> <r_epik_Charging_Adjusted_Penalty>
3.90712e-07

> <i_epik_Tot_Q>
0

> <i_epik_Tot_abs_Q>
0

> <r_epik_Metal_State_Penalty>
-0

> <b_epik_Metal_Only>
0

> <s_lp_Force_Field>
OPLS_2005

> <r_lp_Energy>
33.6273

> <b_lp_Chiralities_Consistent>
1

> <s_lp_Variant>
AV-unprocessed.smi:676-1

> <Gold.Version>
5.8.1

> <Gold.Id.Protein>
6NUR|6NUR_protein|mol2

> <Gold.PLP.Fitness>
41.4421

> <Gold.PLP.PLP>
-38.8941

> <Gold.PLP.part.hbond>
-1.0000

> <Gold.PLP.part.metal>
0.0000

> <Gold.PLP.part.buried>
-3.2919

> <Gold.PLP.part.nonpolar>
-36.3454

> <Gold.PLP.part.repulsive>
1.6680

> <Gold.PLP.ligand.clash>
0.0000

> <Gold.PLP.ligand.torsion>
0.7258

> <Gold.PLP.Chemscore.Hbond>
0.7200

> <Gold.PLP.Chemscore.CHOScore>
0.4815

> <Gold.PLP.Chemscore.Metal>
0.0000

> <Gold.Chemscore.Hbonds>
donor molecule, donor type, donor heavy atom, donor atom, acceptor molecule, acceptor atom, score
      P1  H  7989  7998       L1     9  0.62
      L1  C    12    33       P1  8028  0.66

> <Gold.PLP.Chemscore.Internal.Correction>
0.3951

> <Gold.Rescore>
     Score         DG    S(hbond)    S(metal)    S(lipo)     H(rot)  DE(clash)    DE(int)     intcor
     13.73     -14.64       0.90        0.00      88.12       1.62       0.07       0.84       ----

> <Gold.Chemscore.Fitness>
13.7289

> <Gold.Chemscore.DG>
-14.6399

> <Gold.Chemscore.ZeroCoef>
-5.4800

> <Gold.Chemscore.Hbond>
0.8955

> <Gold.Chemscore.Metal>
0.0000

> <Gold.Chemscore.Lipo>
88.1176

> <Gold.Chemscore.Internal_Hbond>
0.0000

> <Gold.Chemscore.DEClash>
0.0727

> <Gold.Chemscore.DEInternal>
0.8383

> <Gold.Chemscore.Rot>
1.6175

> <Gold.Chemscore.Internal.Correction>
   9.000000E+99

> <Gold.Chemscore.Hbonds>
donor molecule, donor type, donor heavy atom, donor atom, acceptor molecule, acceptor atom, score
      P1  H  7989  7998       L1     9  0.60

> <Gold.Chemscore.Hbond.Weighted>
-2.9909

> <Gold.Chemscore.Metal.Weighted>
-0.0000

> <Gold.Chemscore.Lipo.Weighted>
-10.3098

> <Gold.Chemscore.Internal_Hbond.Weighted>
0.0000

> <Gold.Chemscore.DEClash.Weighted>
0.0727

> <Gold.Chemscore.DEInternal.Weighted>
0.8383

> <Gold.Chemscore.Rot.Weighted>
4.1408

> <Gold.Chemscore.Internal.Correction.Weighted>
   9.000000E+99

> <Gold.Protein.RotatedTorsions>
[ 6907 6896 6895 6894 ] final  -57.27 input  -60.11 | X-H torsion
[ 7974 7965 7964 7962 ] final    4.07 input  175.53 | X-H torsion
[ 8008 7997 7996 7995 ] final  -70.93 input   59.86 | X-H torsion
[ 10167 10162 10161 10158 ] final  -76.65 input  -65.29 | X-H torsion
[ 10718 10713 10712 10709 ] final  145.64 input   66.30 | X-H torsion
[ 10763 10752 10751 10750 ] final -141.03 input  -60.55 | X-H torsion
[ 11005 11000 10999 10996 ] final  -81.80 input  -57.11 | X-H torsion

> <Gold.Protein.ActiveResidues>
 VAL166  LYS551  ARG553  GLY616  TRP617  ASP618  TYR619  PRO620  LYS621  CYS622 
 ASP623  PHE694  ASN695  SER759  ASP760  ASP761  ALA762  ILE779  LEU786  VAL792 
 PHE793  MET794  SER795  GLU796  ALA797  LYS798  CYS799  TRP800  GLU811  SER814 

> <Gold.Protein.RotatedAtoms>
  150.8099  134.7248  159.6678 H   0  0  0  0  0  0  0  0  0  0  0  0  # atno 6907 bound_to 6896
  152.4219  134.5936  159.9990 H   0  0  0  0  0  0  0  0  0  0  0  0  # atno 6908 bound_to 6896
  151.6149  133.3307  159.3111 H   0  0  0  0  0  0  0  0  0  0  0  0  # atno 6909 bound_to 6896
  146.2444  140.0590  142.8370 H   0  0  0  0  0  0  0  0  0  0  0  0  # atno 7974 bound_to 7965
  154.5049  140.0825  156.7873 H   0  0  0  0  0  0  0  0  0  0  0  0  # atno 8008 bound_to 7997
  155.3917  140.3433  155.4233 H   0  0  0  0  0  0  0  0  0  0  0  0  # atno 8009 bound_to 7997
  156.1503  140.1556  156.8768 H   0  0  0  0  0  0  0  0  0  0  0  0  # atno 8010 bound_to 7997
  140.4839  143.2396  151.8015 H   0  0  0  0  0  0  0  0  0  0  0  0  # atno 10167 bound_to 10162
  157.3428  131.0938  151.1068 H   0  0  0  0  0  0  0  0  0  0  0  0  # atno 10718 bound_to 10713
  154.8559  135.3536  154.5803 H   0  0  0  0  0  0  0  0  0  0  0  0  # atno 10763 bound_to 10752
  153.6414  135.6998  153.5245 H   0  0  0  0  0  0  0  0  0  0  0  0  # atno 10764 bound_to 10752
  153.2968  135.4218  155.1176 H   0  0  0  0  0  0  0  0  0  0  0  0  # atno 10765 bound_to 10752
  141.1665  133.7214  156.8477 H   0  0  0  0  0  0  0  0  0  0  0  0  # atno 11005 bound_to 11000
  145.0916  140.9288  143.4765 LP  0  0  0  0  0  0  0  0  0  0  0  0  # atno 17320 bound_to 7965
  145.0764  139.2992  143.5806 LP  0  0  0  0  0  0  0  0  0  0  0  0  # atno 17321 bound_to 7965
  139.4838  144.4737  151.9393 LP  0  0  0  0  0  0  0  0  0  0  0  0  # atno 17342 bound_to 10162
  140.3823  144.2720  150.5907 LP  0  0  0  0  0  0  0  0  0  0  0  0  # atno 17343 bound_to 10162
  157.2273  130.6509  149.5835 LP  0  0  0  0  0  0  0  0  0  0  0  0  # atno 17370 bound_to 10713
  155.9710  130.4610  150.6093 LP  0  0  0  0  0  0  0  0  0  0  0  0  # atno 17371 bound_to 10713
  140.1938  134.8946  157.3091 LP  0  0  0  0  0  0  0  0  0  0  0  0  # atno 17394 bound_to 11000
  140.2261  134.3965  155.7543 LP  0  0  0  0  0  0  0  0  0  0  0  0  # atno 17395 bound_to 11000

$$$$
