AV-unprocessed.smi:1464|AV-procd|sdf|5950|dock10
  -GOLD-   22720 6 33D 1   1.00000     0.00000
 Structure written by MMmdl.
 41 42  0  0  0  0  0  0  0  0  1 V2000
  152.9969  142.9772  162.7962 C   0  0  0  0  0  0  0  0  0  0  0  0
  152.4318  143.0802  161.3682 C   0  0  1  0  0  0  0  0  0  0  0  0
  152.0156  144.5369  161.0767 C   0  0  0  0  0  0  0  0  0  0  0  0
  151.4308  144.7016  159.6677 C   0  0  0  0  0  0  0  0  0  0  0  0
  152.4200  144.2077  158.6028 C   0  0  0  0  0  0  0  0  0  0  0  0
  152.8521  142.7496  158.8553 C   0  0  2  0  0  0  0  0  0  0  0  0
  151.7445  141.8266  158.6038 N   0  0  0  0  0  0  0  0  0  0  0  0
  151.8631  140.5219  158.3159 C   0  0  0  0  0  0  0  0  0  0  0  0
  152.9481  139.9501  158.2019 O   0  0  0  0  0  0  0  0  0  0  0  0
  150.5481  139.7586  158.1029 C   0  0  0  0  0  0  0  0  0  0  0  0
  150.1862  139.6162  156.6854 N   0  0  0  0  0  0  0  0  0  0  0  0
  149.9725  138.3066  156.2824 N   0  0  0  0  0  0  0  0  0  0  0  0
  149.6359  138.0547  155.0624 C   0  0  0  0  0  0  0  0  0  0  0  0
  149.4300  136.7443  154.7069 O   0  0  0  0  0  0  0  0  0  0  0  0
  149.4793  139.1177  154.0940 C   0  0  0  0  0  0  0  0  0  0  0  0
  149.6948  140.3896  154.4951 C   0  0  0  0  0  0  0  0  0  0  0  0
  150.0771  140.7109  155.8713 C   0  0  0  0  0  0  0  0  0  0  0  0
  150.2820  141.8596  156.2636 O   0  0  0  0  0  0  0  0  0  0  0  0
  153.4215  142.5638  160.2860 C   0  0  2  0  0  0  0  0  0  0  0  0
  153.8710  141.1074  160.5222 C   0  0  0  0  0  0  0  0  0  0  0  0
  149.1397  136.7711  153.8079 H   0  0  0  0  0  0  0  0  0  0  0  0
  153.9421  143.5130  162.8885 H   0  0  0  0  0  0  0  0  0  0  0  0
  153.1664  141.9420  163.0911 H   0  0  0  0  0  0  0  0  0  0  0  0
  152.3033  143.4024  163.5222 H   0  0  0  0  0  0  0  0  0  0  0  0
  151.5316  142.4650  161.3312 H   0  0  0  0  0  0  0  0  0  0  0  0
  151.2816  144.8689  161.8118 H   0  0  0  0  0  0  0  0  0  0  0  0
  152.8788  145.1948  161.1876 H   0  0  0  0  0  0  0  0  0  0  0  0
  150.4935  144.1494  159.5902 H   0  0  0  0  0  0  0  0  0  0  0  0
  151.1863  145.7488  159.4881 H   0  0  0  0  0  0  0  0  0  0  0  0
  151.9824  144.3109  157.6090 H   0  0  0  0  0  0  0  0  0  0  0  0
  153.3025  144.8487  158.6113 H   0  0  0  0  0  0  0  0  0  0  0  0
  153.6537  142.5140  158.1526 H   0  0  0  0  0  0  0  0  0  0  0  0
  150.8134  142.2119  158.6691 H   0  0  0  0  0  0  0  0  0  0  0  0
  150.6131  138.7733  158.5692 H   0  0  0  0  0  0  0  0  0  0  0  0
  149.7610  140.2865  158.6442 H   0  0  0  0  0  0  0  0  0  0  0  0
  149.1963  138.8899  153.0769 H   0  0  0  0  0  0  0  0  0  0  0  0
  149.5811  141.1931  153.7821 H   0  0  0  0  0  0  0  0  0  0  0  0
  154.3193  143.1809  160.3480 H   0  0  0  0  0  0  0  0  0  0  0  0
  153.0202  140.4307  160.6069 H   0  0  0  0  0  0  0  0  0  0  0  0
  154.4633  141.0120  161.4319 H   0  0  0  0  0  0  0  0  0  0  0  0
  154.4952  140.7536  159.7012 H   0  0  0  0  0  0  0  0  0  0  0  0
  1  2  1  0  0  0  0
  1 22  1  0  0  0  0
  1 23  1  0  0  0  0
  1 24  1  0  0  0  0
  2 19  1  0  0  0  0
  2  3  1  0  0  0  0
  2 25  1  0  0  0  0
  3  4  1  0  0  0  0
  3 26  1  0  0  0  0
  3 27  1  0  0  0  0
  4  5  1  0  0  0  0
  4 28  1  0  0  0  0
  4 29  1  0  0  0  0
  5  6  1  0  0  0  0
  5 30  1  0  0  0  0
  5 31  1  0  0  0  0
  6  7  1  0  0  0  0
  6 19  1  0  0  0  0
  6 32  1  0  0  0  0
  7  8  1  0  0  0  0
  7 33  1  0  0  0  0
  8  9  2  0  0  0  0
  8 10  1  0  0  0  0
 10 34  1  0  0  0  0
 10 35  1  0  0  0  0
 10 11  1  0  0  0  0
 11 12  1  0  0  0  0
 11 17  1  0  0  0  0
 12 13  2  0  0  0  0
 13 14  1  0  0  0  0
 13 15  1  0  0  0  0
 14 21  1  0  0  0  0
 15 36  1  0  0  0  0
 15 16  2  0  0  0  0
 16 37  1  0  0  0  0
 16 17  1  0  0  0  0
 17 18  2  0  0  0  0
 19 20  1  0  0  0  0
 19 38  1  0  0  0  0
 20 39  1  0  0  0  0
 20 40  1  0  0  0  0
 20 41  1  0  0  0  0
M  END
> <s_m_source_file>
AV-unprocessed.smi

> <i_m_source_file_index>
1464

> <i_lp_mmshare_version>
43012

> <i_f3d_flags>
0

> <s_epik_input>
W0NIM11bQ0BASF0xW0NIMl1bQ0gyXVtDSDJdW0NASF0oW0NASF0xW0NIM10pW05IXUMoPU8pW0NIMl1uMltuSF1jKD1PKVtjSF1bY0hdYzI9Tw==

> <s_epik_cmdline>
J2VwaWtfcHl0aG9uJywgJy1waCcsICc3LjAnLCAnLXRuJywgJzgnLCAnLW1hJywgJzIwMCcsICctbWV0YWxfYmluZGluZycsICctaW1hZScsICc8aW5maWxlLm1hZT4nLCAnLW9tYWUnLCAnPG91dGZpbGUubWFlPic=

> <r_lp_tautomer_probability>
0.9996

> <r_epik_Ionization_Penalty>
2.10335

> <r_epik_Ionization_Penalty_Charging>
3.98079e-08

> <r_epik_Ionization_Penalty_Neutral>
2.10335

> <r_epik_State_Penalty>
1.67957

> <r_epik_Charging_Adjusted_Penalty>
1.67957

> <i_epik_Tot_Q>
0

> <i_epik_Tot_abs_Q>
0

> <r_epik_Metal_State_Penalty>
1.67957

> <b_epik_Metal_Only>
0

> <s_lp_Force_Field>
OPLS_2005

> <r_lp_Energy>
23.2489

> <b_lp_Chiralities_Consistent>
1

> <s_lp_Variant>
AV-unprocessed.smi:1464-16

> <Gold.Version>
5.8.1

> <Gold.Id.Protein>
6NUR|6NUR_protein|mol2

> <Gold.PLP.Fitness>
50.0960

> <Gold.PLP.PLP>
-45.3115

> <Gold.PLP.part.hbond>
-2.0000

> <Gold.PLP.part.metal>
0.0000

> <Gold.PLP.part.buried>
-3.7151

> <Gold.PLP.part.nonpolar>
-39.3595

> <Gold.PLP.part.repulsive>
0.1772

> <Gold.PLP.ligand.clash>
0.0000

> <Gold.PLP.ligand.torsion>
0.6138

> <Gold.PLP.Chemscore.Hbond>
2.0000

> <Gold.PLP.Chemscore.CHOScore>
0.0000

> <Gold.PLP.Chemscore.Metal>
0.0000

> <Gold.Chemscore.Hbonds>
donor molecule, donor type, donor heavy atom, donor atom, acceptor molecule, acceptor atom, score
      L1  H    14    21       P1  7948  1.00
      P1  H  7997  8009       L1     9  0.99

> <Gold.PLP.Chemscore.Internal.Correction>
0.0122

> <Gold.Rescore>
     Score         DG    S(hbond)    S(metal)    S(lipo)     H(rot)  DE(clash)    DE(int)     intcor
     17.31     -19.43       1.88        0.00     114.32       2.22       0.18       1.95       ----

> <Gold.Chemscore.Fitness>
17.3057

> <Gold.Chemscore.DG>
-19.4301

> <Gold.Chemscore.ZeroCoef>
-5.4800

> <Gold.Chemscore.Hbond>
1.8753

> <Gold.Chemscore.Metal>
0.0000

> <Gold.Chemscore.Lipo>
114.3235

> <Gold.Chemscore.Internal_Hbond>
0.0000

> <Gold.Chemscore.DEClash>
0.1753

> <Gold.Chemscore.DEInternal>
1.9491

> <Gold.Chemscore.Rot>
2.2224

> <Gold.Chemscore.Internal.Correction>
   9.000000E+99

> <Gold.Chemscore.Hbonds>
donor molecule, donor type, donor heavy atom, donor atom, acceptor molecule, acceptor atom, score
      L1  H    14    21       P1  7948  0.94
      P1  H  7997  8009       L1     9  0.89

> <Gold.Chemscore.Hbond.Weighted>
-6.2636

> <Gold.Chemscore.Metal.Weighted>
-0.0000

> <Gold.Chemscore.Lipo.Weighted>
-13.3759

> <Gold.Chemscore.Internal_Hbond.Weighted>
0.0000

> <Gold.Chemscore.DEClash.Weighted>
0.1753

> <Gold.Chemscore.DEInternal.Weighted>
1.9491

> <Gold.Chemscore.Rot.Weighted>
5.6893

> <Gold.Chemscore.Internal.Correction.Weighted>
   9.000000E+99

> <Gold.Protein.RotatedTorsions>
[ 6907 6896 6895 6894 ] final   79.36 input  -60.11 | X-H torsion
[ 7974 7965 7964 7962 ] final  -92.25 input  175.53 | X-H torsion
[ 8008 7997 7996 7995 ] final  168.76 input   59.86 | X-H torsion
[ 10167 10162 10161 10158 ] final  156.79 input  -65.29 | X-H torsion
[ 10718 10713 10712 10709 ] final -153.79 input   66.30 | X-H torsion
[ 10763 10752 10751 10750 ] final -130.69 input  -60.55 | X-H torsion
[ 11005 11000 10999 10996 ] final  161.68 input  -57.11 | X-H torsion

> <Gold.Protein.ActiveResidues>
 VAL166  LYS551  ARG553  GLY616  TRP617  ASP618  TYR619  PRO620  LYS621  CYS622 
 ASP623  PHE694  ASN695  SER759  ASP760  ASP761  ALA762  ILE779  LEU786  VAL792 
 PHE793  MET794  SER795  GLU796  ALA797  LYS798  CYS799  TRP800  GLU811  SER814 

> <Gold.Protein.RotatedAtoms>
  152.5195  134.3523  159.9255 H   0  0  0  0  0  0  0  0  0  0  0  0  # atno 6907 bound_to 6896
  151.3474  133.3932  159.2684 H   0  0  0  0  0  0  0  0  0  0  0  0  # atno 6908 bound_to 6896
  150.9754  134.9138  159.7871 H   0  0  0  0  0  0  0  0  0  0  0  0  # atno 6909 bound_to 6896
  145.4023  140.9538  143.2280 H   0  0  0  0  0  0  0  0  0  0  0  0  # atno 7974 bound_to 7965
  156.1518  140.1582  156.8758 H   0  0  0  0  0  0  0  0  0  0  0  0  # atno 8008 bound_to 7997
  154.5078  140.0808  156.7966 H   0  0  0  0  0  0  0  0  0  0  0  0  # atno 8009 bound_to 7997
  155.3881  140.3408  155.4252 H   0  0  0  0  0  0  0  0  0  0  0  0  # atno 8010 bound_to 7997
  139.4822  144.4977  151.8215 H   0  0  0  0  0  0  0  0  0  0  0  0  # atno 10167 bound_to 10162
  156.4906  130.8345  151.2569 H   0  0  0  0  0  0  0  0  0  0  0  0  # atno 10718 bound_to 10713
  154.8754  135.3854  154.4124 H   0  0  0  0  0  0  0  0  0  0  0  0  # atno 10763 bound_to 10752
  153.4836  135.7030  153.5929 H   0  0  0  0  0  0  0  0  0  0  0  0  # atno 10764 bound_to 10752
  153.4334  135.3873  155.2151 H   0  0  0  0  0  0  0  0  0  0  0  0  # atno 10765 bound_to 10752
  140.2182  134.8216  157.3193 H   0  0  0  0  0  0  0  0  0  0  0  0  # atno 11005 bound_to 11000
  144.8365  139.5541  143.6920 LP  0  0  0  0  0  0  0  0  0  0  0  0  # atno 17320 bound_to 7965
  146.2746  139.6719  142.9272 LP  0  0  0  0  0  0  0  0  0  0  0  0  # atno 17321 bound_to 7965
  140.4467  144.1912  150.5894 LP  0  0  0  0  0  0  0  0  0  0  0  0  # atno 17342 bound_to 10162
  140.4627  143.2442  151.9197 LP  0  0  0  0  0  0  0  0  0  0  0  0  # atno 17343 bound_to 10162
  157.7474  131.0015  150.2964 LP  0  0  0  0  0  0  0  0  0  0  0  0  # atno 17370 bound_to 10713
  156.3430  130.3818  149.7393 LP  0  0  0  0  0  0  0  0  0  0  0  0  # atno 17371 bound_to 10713
  140.1877  134.4410  155.7734 LP  0  0  0  0  0  0  0  0  0  0  0  0  # atno 17394 bound_to 11000
  141.2224  133.7013  156.7976 LP  0  0  0  0  0  0  0  0  0  0  0  0  # atno 17395 bound_to 11000

$$$$
