#       Name:                AV-unprocessed.smi:828
#       Creating user name   scv26
#       Creation time:       Fri Mar 27 01:31:37 2020


#       File generated by GOLD software.
#

@<TRIPOS>MOLECULE
AV-unprocessed.smi:828
    39    40     1
SMALL
NO_CHARGES


@<TRIPOS>ATOM
      1 ****        -5.5808   4.6269   0.7729 C.3            1 S1                 0.0000
      2 ****        -4.6681   3.4932   0.4526 C.2            1 S1                 0.0000
      3 ****        -4.4519   3.0692  -0.7950 N.2            1 S1                 0.0000
      4 ****        -3.5633   2.0047  -0.8389 N.2            1 S1                 0.0000
      5 ****        -3.1120   1.6467   0.3716 C.2            1 S1                 0.0000
      6 ****        -2.2430   0.6374   0.5465 N.pl3          1 S1                -1.0000
      7 ****        -0.9212   0.8970   0.6579 C.2            1 S1                 0.0000
      8 ****        -0.3858   2.0068   0.6184 O.2            1 S1                 0.0000
      9 ****        -0.1733  -0.2023   0.8177 N.am           1 S1                 0.0000
     10 ****         1.2811  -0.2345   0.9287 C.3            1 S1                 0.0000
     11 ****         1.8458  -1.6007   0.4848 C.3            1 S1                 0.0000
     12 ****         3.3395  -1.7733   0.7578 C.3            1 S1                 0.0000
     13 ****         3.6823  -2.9971  -0.0800 C.3            1 S1                 0.0000
     14 ****         2.8259  -2.8132  -1.3354 C.3            1 S1                 0.0000
     15 ****         1.6542  -1.9872  -0.9450 N.4            1 S1                 1.0000
     16 ****         1.3980  -0.8935  -1.9150 C.3            1 S1                 0.0000
     17 ****        -3.7862   2.6090   1.6865 S.3            1 S1                 0.0000
     18 ****        -5.0533   5.5735   0.6543 H              1 S1                 0.0000
     19 ****        -5.9341   4.5489   1.8012 H              1 S1                 0.0000
     20 ****        -6.4438   4.6187   0.1065 H              1 S1                 0.0000
     21 ****        -0.6581  -1.0869   0.8577 H              1 S1                 0.0000
     22 ****         1.7425   0.5744   0.3603 H              1 S1                 0.0000
     23 ****         1.5365  -0.0572   1.9741 H              1 S1                 0.0000
     24 ****         1.3317  -2.3704   1.0636 H              1 S1                 0.0000
     25 ****         3.8958  -0.9052   0.4006 H              1 S1                 0.0000
     26 ****         3.5636  -1.9097   1.8162 H              1 S1                 0.0000
     27 ****         4.7470  -3.0766  -0.3008 H              1 S1                 0.0000
     28 ****         3.3796  -3.9028   0.4477 H              1 S1                 0.0000
     29 ****         3.4176  -2.3029  -2.0976 H              1 S1                 0.0000
     30 ****         2.5075  -3.7681  -1.7547 H              1 S1                 0.0000
     31 ****         2.1937  -0.1478  -1.8909 H              1 S1                 0.0000
     32 ****         0.4475  -0.3969  -1.7271 H              1 S1                 0.0000
     33 ****         1.3453  -1.2958  -2.9274 H              1 S1                 0.0000
     34 ****         0.8391  -2.5832  -0.9710 H              1 S1                 0.0000
     35 ****        -4.8806   3.4721  -1.6036 LP             1 S1                 0.0000
     36 ****        -3.2877   1.5510  -1.6864 LP             1 S1                 0.0000
     37 ****        -2.5737  -0.3052   0.5943 LP             1 S1                 0.0000
     38 ****        -0.9439   2.8270   0.4931 LP             1 S1                 0.0000
     39 ****         0.6066   2.0867   0.7118 LP             1 S1                 0.0000
@<TRIPOS>BOND
    1    1    2 1     
    2    1   18 1     
    3    1   19 1     
    4    1   20 1     
    5    2   17 1     
    6    2    3 2     
    7    3    4 1     
    8    4    5 2     
    9    5    6 1     
   10    5   17 1     
   11    6    7 1     
   12    7    8 2     
   13    7    9 am    
   14    9   10 1     
   15    9   21 1     
   16   10   11 1     
   17   10   22 1     
   18   10   23 1     
   19   11   15 1     
   20   11   12 1     
   21   11   24 1     
   22   12   13 1     
   23   12   25 1     
   24   12   26 1     
   25   13   14 1     
   26   13   27 1     
   27   13   28 1     
   28   14   15 1     
   29   14   29 1     
   30   14   30 1     
   31   15   16 1     
   32   15   34 1     
   33   16   31 1     
   34   16   32 1     
   35   16   33 1     
   36    3   35 1     
   37    4   36 1     
   38    6   37 1     
   39    8   38 1     
   40    8   39 1     
@<TRIPOS>SUBSTRUCTURE
      1 S1             1
@<TRIPOS>SET
LONE_PAIRS      STATIC     ATOMS    <user>   **** ""
5 35 36 37 38 39
DONOR_HYDROGENS      STATIC     ATOMS    <user>   **** ""
2 21 34
ATOM$BLUE        STATIC     ATOMS    COLORGROUP SYSTEM
5 35 36 37 38 39
ATOM$RED        STATIC     ATOMS    COLORGROUP SYSTEM
2 21 34
