AV-unprocessed.smi:2248|AV-procd|sdf|9097|dock6
  -GOLD-   2272012293D 1   1.00000     0.00000
 Structure written by MMmdl.
 35 36  0  0  0  0  0  0  0  0  1 V2000
  146.5590  130.1028  152.1436 C   0  0  0  0  0  0  0  0  0  0  0  0
  145.8135  131.3285  151.6595 C   0  0  0  0  0  0  0  0  0  0  0  0
  144.5993  131.2065  150.9558 C   0  0  0  0  0  0  0  0  0  0  0  0
  143.9547  132.3843  150.5377 C   0  0  0  0  0  0  0  0  0  0  0  0
  144.5455  133.6264  150.8393 C   0  0  0  0  0  0  0  0  0  0  0  0
  145.7666  133.6612  151.5496 C   0  0  0  0  0  0  0  0  0  0  0  0
  146.2776  134.9613  151.8055 N   0  0  0  0  0  0  0  0  0  0  0  0
  145.5983  136.0673  152.1569 C   0  0  0  0  0  0  0  0  0  0  0  0
  144.3827  136.1292  152.3445 O   0  0  0  0  0  0  0  0  0  0  0  0
  146.4185  137.1202  152.2815 N   0  0  0  0  0  0  0  0  0  0  0  0
  145.9947  138.4717  152.6291 C   0  0  1  0  0  0  0  0  0  0  0  0
  145.6561  138.5531  154.0935 C   0  0  0  0  0  0  0  0  0  0  0  0
  146.3840  139.4598  154.7418 C   0  0  0  0  0  0  0  0  0  0  0  0
  147.3679  140.1633  153.8432 C   0  0  1  0  0  0  0  0  0  0  0  0
  148.8211  140.0704  154.3461 C   0  0  0  0  0  0  0  0  0  0  0  0
  149.7173  140.7518  153.4902 O   0  0  0  0  0  0  0  0  0  0  0  0
  147.1290  139.5170  152.4543 C   0  0  0  0  0  0  0  0  0  0  0  0
  146.3805  132.5194  151.9487 N   0  0  0  0  0  0  0  0  0  0  0  0
  145.1121  138.7521  152.0518 H   0  0  0  0  0  0  0  0  0  0  0  0
  147.0787  141.2141  153.8029 H   0  0  0  0  0  0  0  0  0  0  0  0
  146.1778  129.1973  151.6702 H   0  0  0  0  0  0  0  0  0  0  0  0
  146.4484  129.9972  153.2230 H   0  0  0  0  0  0  0  0  0  0  0  0
  147.6217  130.1837  151.9129 H   0  0  0  0  0  0  0  0  0  0  0  0
  144.1715  130.2381  150.7413 H   0  0  0  0  0  0  0  0  0  0  0  0
  143.0218  132.3367  149.9956 H   0  0  0  0  0  0  0  0  0  0  0  0
  144.0624  134.5407  150.5261 H   0  0  0  0  0  0  0  0  0  0  0  0
  147.2760  135.0635  151.6999 H   0  0  0  0  0  0  0  0  0  0  0  0
  147.4033  136.9836  152.1066 H   0  0  0  0  0  0  0  0  0  0  0  0
  144.8911  137.9362  154.5416 H   0  0  0  0  0  0  0  0  0  0  0  0
  146.3009  139.6872  155.7943 H   0  0  0  0  0  0  0  0  0  0  0  0
  148.9012  140.4921  155.3485 H   0  0  0  0  0  0  0  0  0  0  0  0
  149.1304  139.0271  154.4143 H   0  0  0  0  0  0  0  0  0  0  0  0
  150.0177  140.1482  152.8282 H   0  0  0  0  0  0  0  0  0  0  0  0
  148.0411  139.0610  152.0667 H   0  0  0  0  0  0  0  0  0  0  0  0
  146.8337  140.2755  151.7287 H   0  0  0  0  0  0  0  0  0  0  0  0
  1  2  1  0  0  0  0
  1 21  1  0  0  0  0
  1 22  1  0  0  0  0
  1 23  1  0  0  0  0
  2 18  1  0  0  0  0
  2  3  2  0  0  0  0
  3  4  1  0  0  0  0
  3 24  1  0  0  0  0
  4  5  2  0  0  0  0
  4 25  1  0  0  0  0
  5  6  1  0  0  0  0
  5 26  1  0  0  0  0
  6  7  1  0  0  0  0
  6 18  2  0  0  0  0
  7  8  1  0  0  0  0
  7 27  1  0  0  0  0
  8  9  2  0  0  0  0
  8 10  1  0  0  0  0
 10 11  1  0  0  0  0
 10 28  1  0  0  0  0
 11 19  1  0  0  0  0
 11 17  1  0  0  0  0
 11 12  1  0  0  0  0
 12 13  2  0  0  0  0
 12 29  1  0  0  0  0
 13 14  1  0  0  0  0
 13 30  1  0  0  0  0
 14 20  1  0  0  0  0
 14 15  1  0  0  0  0
 14 17  1  0  0  0  0
 15 16  1  0  0  0  0
 15 31  1  0  0  0  0
 15 32  1  0  0  0  0
 16 33  1  0  0  0  0
 17 34  1  0  0  0  0
 17 35  1  0  0  0  0
M  END
> <s_m_source_file>
AV-unprocessed.smi

> <i_m_source_file_index>
2248

> <i_lp_mmshare_version>
43012

> <i_f3d_flags>
0

> <s_epik_input>
W0NIM11jMVtjSF1bY0hdW2NIXWMobjEpW05IXUMoPU8pW05IXVtDQEBIXTJbQ0hdPVtDSF1bQ0BASF0oW0NIMl0yKVtDSDJdW09IXQ==

> <s_epik_cmdline>
J2VwaWtfcHl0aG9uJywgJy1waCcsICc3LjAnLCAnLXRuJywgJzgnLCAnLW1hJywgJzIwMCcsICctbWV0YWxfYmluZGluZycsICctaW1hZScsICc8aW5maWxlLm1hZT4nLCAnLW9tYWUnLCAnPG91dGZpbGUubWFlPic=

> <r_lp_tautomer_probability>
1

> <r_epik_Ionization_Penalty>
8.36606e-05

> <r_epik_Ionization_Penalty_Charging>
0

> <r_epik_Ionization_Penalty_Neutral>
8.36606e-05

> <r_epik_State_Penalty>
-0

> <r_epik_Charging_Adjusted_Penalty>
0

> <i_epik_Tot_Q>
0

> <i_epik_Tot_abs_Q>
0

> <r_epik_Metal_State_Penalty>
-0

> <b_epik_Metal_Only>
0

> <s_lp_Force_Field>
OPLS_2005

> <r_lp_Energy>
18.8307

> <b_lp_Chiralities_Consistent>
1

> <s_lp_Variant>
AV-unprocessed.smi:2248-4

> <Gold.Version>
5.8.1

> <Gold.Id.Protein>
6NUR|6NUR_protein|mol2

> <Gold.PLP.Fitness>
38.8213

> <Gold.PLP.PLP>
-29.3744

> <Gold.PLP.part.hbond>
-4.6315

> <Gold.PLP.part.metal>
0.0000

> <Gold.PLP.part.buried>
-0.0681

> <Gold.PLP.part.nonpolar>
-24.7261

> <Gold.PLP.part.repulsive>
0.3537

> <Gold.PLP.ligand.clash>
0.0000

> <Gold.PLP.ligand.torsion>
0.4453

> <Gold.PLP.Chemscore.Hbond>
3.4420

> <Gold.PLP.Chemscore.CHOScore>
0.0000

> <Gold.PLP.Chemscore.Metal>
0.0000

> <Gold.Chemscore.Hbonds>
donor molecule, donor type, donor heavy atom, donor atom, acceptor molecule, acceptor atom, score
      L1  H     7    27       P1  7948  1.00
      L1  H    10    28       P1  7948  1.00
      L1  H    16    33       P1  7957  0.61
      P1  H  8011  8017       L1    16  0.80

> <Gold.PLP.Chemscore.Internal.Correction>
0.0114

> <Gold.Rescore>
     Score         DG    S(hbond)    S(metal)    S(lipo)     H(rot)  DE(clash)    DE(int)     intcor
     16.58     -18.64       2.92        0.00      69.01       1.82       0.33       1.73       ----

> <Gold.Chemscore.Fitness>
16.5823

> <Gold.Chemscore.DG>
-18.6372

> <Gold.Chemscore.ZeroCoef>
-5.4800

> <Gold.Chemscore.Hbond>
2.9156

> <Gold.Chemscore.Metal>
0.0000

> <Gold.Chemscore.Lipo>
69.0100

> <Gold.Chemscore.Internal_Hbond>
0.0000

> <Gold.Chemscore.DEClash>
0.3290

> <Gold.Chemscore.DEInternal>
1.7259

> <Gold.Chemscore.Rot>
1.8184

> <Gold.Chemscore.Internal.Correction>
   9.000000E+99

> <Gold.Chemscore.Hbonds>
donor molecule, donor type, donor heavy atom, donor atom, acceptor molecule, acceptor atom, score
      L1  H     7    27       P1  7948  0.81
      L1  H    10    28       P1  7948  1.00
      L1  H    16    33       P1  7957  0.62
      P1  H  8011  8017       L1    16  0.11

> <Gold.Chemscore.Hbond.Weighted>
-9.7380

> <Gold.Chemscore.Metal.Weighted>
-0.0000

> <Gold.Chemscore.Lipo.Weighted>
-8.0742

> <Gold.Chemscore.Internal_Hbond.Weighted>
0.0000

> <Gold.Chemscore.DEClash.Weighted>
0.3290

> <Gold.Chemscore.DEInternal.Weighted>
1.7259

> <Gold.Chemscore.Rot.Weighted>
4.6551

> <Gold.Chemscore.Internal.Correction.Weighted>
   9.000000E+99

> <Gold.Protein.RotatedTorsions>
[ 6907 6896 6895 6894 ] final   47.44 input  -60.11 | X-H torsion
[ 7974 7965 7964 7962 ] final -164.30 input  175.53 | X-H torsion
[ 8008 7997 7996 7995 ] final  -96.46 input   59.86 | X-H torsion
[ 10167 10162 10161 10158 ] final -127.83 input  -65.29 | X-H torsion
[ 10718 10713 10712 10709 ] final -109.24 input   66.30 | X-H torsion
[ 10763 10752 10751 10750 ] final  138.90 input  -60.55 | X-H torsion
[ 11005 11000 10999 10996 ] final  149.40 input  -57.11 | X-H torsion

> <Gold.Protein.ActiveResidues>
 VAL166  LYS551  ARG553  GLY616  TRP617  ASP618  TYR619  PRO620  LYS621  CYS622 
 ASP623  PHE694  ASN695  SER759  ASP760  ASP761  ALA762  ILE779  LEU786  VAL792 
 PHE793  MET794  SER795  GLU796  ALA797  LYS798  CYS799  TRP800  GLU811  SER814 

> <Gold.Protein.RotatedAtoms>
  152.2681  134.7963  160.0418 H   0  0  0  0  0  0  0  0  0  0  0  0  # atno 6907 bound_to 6896
  151.8585  133.3447  159.3704 H   0  0  0  0  0  0  0  0  0  0  0  0  # atno 6908 bound_to 6896
  150.7141  134.5157  159.5673 H   0  0  0  0  0  0  0  0  0  0  0  0  # atno 6909 bound_to 6896
  144.7301  140.2981  143.6209 H   0  0  0  0  0  0  0  0  0  0  0  0  # atno 7974 bound_to 7965
  154.7748  140.0471  157.1080 H   0  0  0  0  0  0  0  0  0  0  0  0  # atno 8008 bound_to 7997
  154.9776  140.3097  155.4941 H   0  0  0  0  0  0  0  0  0  0  0  0  # atno 8009 bound_to 7997
  156.2927  140.2242  156.4873 H   0  0  0  0  0  0  0  0  0  0  0  0  # atno 8010 bound_to 7997
  139.9567  143.5995  152.2458 H   0  0  0  0  0  0  0  0  0  0  0  0  # atno 10167 bound_to 10162
  156.0527  130.5754  150.8072 H   0  0  0  0  0  0  0  0  0  0  0  0  # atno 10718 bound_to 10713
  153.8972  135.3026  155.3448 H   0  0  0  0  0  0  0  0  0  0  0  0  # atno 10763 bound_to 10752
  154.7688  135.4897  153.9610 H   0  0  0  0  0  0  0  0  0  0  0  0  # atno 10764 bound_to 10752
  153.1265  135.6794  153.9348 H   0  0  0  0  0  0  0  0  0  0  0  0  # atno 10765 bound_to 10752
  140.1041  134.8965  157.1840 H   0  0  0  0  0  0  0  0  0  0  0  0  # atno 11005 bound_to 11000
  145.7788  139.1883  143.2170 LP  0  0  0  0  0  0  0  0  0  0  0  0  # atno 17320 bound_to 7965
  146.0851  140.7720  142.9622 LP  0  0  0  0  0  0  0  0  0  0  0  0  # atno 17321 bound_to 7965
  139.6586  144.7662  151.2008 LP  0  0  0  0  0  0  0  0  0  0  0  0  # atno 17342 bound_to 10162
  140.7566  143.6047  150.8665 LP  0  0  0  0  0  0  0  0  0  0  0  0  # atno 17343 bound_to 10162
  157.5468  131.0942  150.9751 LP  0  0  0  0  0  0  0  0  0  0  0  0  # atno 17370 bound_to 10713
  157.0021  130.5604  149.5312 LP  0  0  0  0  0  0  0  0  0  0  0  0  # atno 17371 bound_to 10713
  140.3179  134.2949  155.7252 LP  0  0  0  0  0  0  0  0  0  0  0  0  # atno 17394 bound_to 11000
  141.2113  133.7691  156.9870 LP  0  0  0  0  0  0  0  0  0  0  0  0  # atno 17395 bound_to 11000

$$$$
