AV-unprocessed.smi:3100|AV-procd|sdf|11807|dock3
  -GOLD-   2272017183D 1   1.00000     0.00000
 Structure written by MMmdl.
 28 29  0  0  0  0  0  0  0  0  1 V2000
  150.5580  144.7546  158.8935 C   0  0  0  0  0  0  0  0  0  0  0  0
  151.6609  143.6914  158.8985 C   0  0  1  0  0  0  0  0  0  0  0  0
  152.7994  143.9737  159.8709 C   0  0  0  0  0  0  0  0  0  0  0  0
  153.4105  142.5985  160.0757 C   0  0  0  0  0  0  0  0  0  0  0  0
  152.2582  141.6214  159.7613 C   0  0  2  0  0  0  0  0  0  0  0  0
  152.5893  140.6161  158.6428 C   0  0  0  0  0  0  0  0  0  0  0  0
  153.5657  139.8758  158.7647 O   0  0  0  0  0  0  0  0  0  0  0  0
  151.7509  140.5948  157.5890 N   0  0  0  0  0  0  0  0  0  0  0  0
  151.8219  139.7872  156.4241 C   0  0  0  0  0  0  0  0  0  0  0  0
  150.7978  139.9948  155.4700 C   0  0  0  0  0  0  0  0  0  0  0  0
  150.7307  139.3045  154.3100 N   0  0  0  0  0  0  0  0  0  0  0  0
  151.7002  138.3901  154.0949 C   0  0  0  0  0  0  0  0  0  0  0  0
  152.7277  138.1696  155.0338 C   0  0  0  0  0  0  0  0  0  0  0  0
  152.7890  138.8635  156.1912 N   0  0  0  0  0  0  0  0  0  0  0  0
  151.1599  142.4510  159.3735 O   0  0  0  0  0  0  0  0  0  0  0  0
  150.9460  145.7189  158.5647 H   0  0  0  0  0  0  0  0  0  0  0  0
  150.1302  144.8867  159.8876 H   0  0  0  0  0  0  0  0  0  0  0  0
  149.7499  144.4728  158.2182 H   0  0  0  0  0  0  0  0  0  0  0  0
  152.0552  143.5531  157.8902 H   0  0  0  0  0  0  0  0  0  0  0  0
  153.5129  144.7052  159.4900 H   0  0  0  0  0  0  0  0  0  0  0  0
  152.4050  144.3450  160.8178 H   0  0  0  0  0  0  0  0  0  0  0  0
  154.2558  142.4708  159.3974 H   0  0  0  0  0  0  0  0  0  0  0  0
  153.7864  142.4751  161.0919 H   0  0  0  0  0  0  0  0  0  0  0  0
  151.9702  141.0631  160.6527 H   0  0  0  0  0  0  0  0  0  0  0  0
  150.9794  141.2455  157.6242 H   0  0  0  0  0  0  0  0  0  0  0  0
  150.0199  140.7255  155.6372 H   0  0  0  0  0  0  0  0  0  0  0  0
  151.6563  137.8323  153.1712 H   0  0  0  0  0  0  0  0  0  0  0  0
  153.5008  137.4368  154.8564 H   0  0  0  0  0  0  0  0  0  0  0  0
  1  2  1  0  0  0  0
  1 16  1  0  0  0  0
  1 17  1  0  0  0  0
  1 18  1  0  0  0  0
  2 15  1  0  0  0  0
  2  3  1  0  0  0  0
  2 19  1  0  0  0  0
  3  4  1  0  0  0  0
  3 20  1  0  0  0  0
  3 21  1  0  0  0  0
  4  5  1  0  0  0  0
  4 22  1  0  0  0  0
  4 23  1  0  0  0  0
  5  6  1  0  0  0  0
  5 15  1  0  0  0  0
  5 24  1  0  0  0  0
  6  7  2  0  0  0  0
  6  8  1  0  0  0  0
  8  9  1  0  0  0  0
  8 25  1  0  0  0  0
  9 14  1  0  0  0  0
  9 10  2  0  0  0  0
 10 11  1  0  0  0  0
 10 26  1  0  0  0  0
 11 12  2  0  0  0  0
 12 13  1  0  0  0  0
 12 27  1  0  0  0  0
 13 14  2  0  0  0  0
 13 28  1  0  0  0  0
M  END
> <s_m_source_file>
AV-unprocessed.smi

> <i_m_source_file_index>
3100

> <i_lp_mmshare_version>
43012

> <i_f3d_flags>
0

> <s_epik_input>
W0NIM11bQ0BASF0xW0NIMl1bQ0gyXVtDQEhdKE8xKUMoPU8pW05IXWMyW2NIXW5bY0hdW2NIXW4y

> <s_epik_cmdline>
J2VwaWtfcHl0aG9uJywgJy1waCcsICc3LjAnLCAnLXRuJywgJzgnLCAnLW1hJywgJzIwMCcsICctbWV0YWxfYmluZGluZycsICctaW1hZScsICc8aW5maWxlLm1hZT4nLCAnLW9tYWUnLCAnPG91dGZpbGUubWFlPic=

> <r_lp_tautomer_probability>
1

> <r_epik_Ionization_Penalty>
2.81186e-06

> <r_epik_Ionization_Penalty_Charging>
0

> <r_epik_Ionization_Penalty_Neutral>
2.81186e-06

> <r_epik_State_Penalty>
-0

> <r_epik_Charging_Adjusted_Penalty>
0

> <i_epik_Tot_Q>
0

> <i_epik_Tot_abs_Q>
0

> <r_epik_Metal_State_Penalty>
-0

> <b_epik_Metal_Only>
0

> <s_lp_Force_Field>
OPLS_2005

> <r_lp_Energy>
25.84

> <b_lp_Chiralities_Consistent>
1

> <s_lp_Variant>
AV-unprocessed.smi:3100-4

> <Gold.Version>
5.8.1

> <Gold.Id.Protein>
6NUR|6NUR_protein|mol2

> <Gold.PLP.Fitness>
36.9080

> <Gold.PLP.PLP>
-30.0532

> <Gold.PLP.part.hbond>
-3.3404

> <Gold.PLP.part.metal>
0.0000

> <Gold.PLP.part.buried>
-4.3375

> <Gold.PLP.part.nonpolar>
-23.7613

> <Gold.PLP.part.repulsive>
0.2321

> <Gold.PLP.ligand.clash>
0.0000

> <Gold.PLP.ligand.torsion>
0.0409

> <Gold.PLP.Chemscore.Hbond>
1.3150

> <Gold.PLP.Chemscore.CHOScore>
0.9949

> <Gold.PLP.Chemscore.Metal>
0.0000

> <Gold.Chemscore.Hbonds>
donor molecule, donor type, donor heavy atom, donor atom, acceptor molecule, acceptor atom, score
      P1  H  7989  7998       L1    11  0.32
      P1  H  7997  8009       L1     7  1.00
      L1  C    12    27       P1  7949  0.98

> <Gold.PLP.Chemscore.Internal.Correction>
0.0069

> <Gold.Rescore>
     Score         DG    S(hbond)    S(metal)    S(lipo)     H(rot)  DE(clash)    DE(int)     intcor
     13.85     -15.41       0.91        0.00      80.66       1.00       0.18       1.38       ----

> <Gold.Chemscore.Fitness>
13.8496

> <Gold.Chemscore.DG>
-15.4056

> <Gold.Chemscore.ZeroCoef>
-5.4800

> <Gold.Chemscore.Hbond>
0.9127

> <Gold.Chemscore.Metal>
0.0000

> <Gold.Chemscore.Lipo>
80.6598

> <Gold.Chemscore.Internal_Hbond>
0.0000

> <Gold.Chemscore.DEClash>
0.1806

> <Gold.Chemscore.DEInternal>
1.3754

> <Gold.Chemscore.Rot>
1.0000

> <Gold.Chemscore.Internal.Correction>
   9.000000E+99

> <Gold.Chemscore.Hbonds>
donor molecule, donor type, donor heavy atom, donor atom, acceptor molecule, acceptor atom, score
      P1  H  7997  8009       L1     7  0.71

> <Gold.Chemscore.Hbond.Weighted>
-3.0484

> <Gold.Chemscore.Metal.Weighted>
-0.0000

> <Gold.Chemscore.Lipo.Weighted>
-9.4372

> <Gold.Chemscore.Internal_Hbond.Weighted>
0.0000

> <Gold.Chemscore.DEClash.Weighted>
0.1806

> <Gold.Chemscore.DEInternal.Weighted>
1.3754

> <Gold.Chemscore.Rot.Weighted>
2.5600

> <Gold.Chemscore.Internal.Correction.Weighted>
   9.000000E+99

> <Gold.Protein.RotatedTorsions>
[ 6907 6896 6895 6894 ] final  179.24 input  -60.11 | X-H torsion
[ 7974 7965 7964 7962 ] final -163.76 input  175.53 | X-H torsion
[ 8008 7997 7996 7995 ] final  141.70 input   59.86 | X-H torsion
[ 10167 10162 10161 10158 ] final -119.95 input  -65.29 | X-H torsion
[ 10718 10713 10712 10709 ] final -100.07 input   66.30 | X-H torsion
[ 10763 10752 10751 10750 ] final  -52.28 input  -60.55 | X-H torsion
[ 11005 11000 10999 10996 ] final   58.22 input  -57.11 | X-H torsion

> <Gold.Protein.ActiveResidues>
 VAL166  LYS551  ARG553  GLY616  TRP617  ASP618  TYR619  PRO620  LYS621  CYS622 
 ASP623  PHE694  ASN695  SER759  ASP760  ASP761  ALA762  ILE779  LEU786  VAL792 
 PHE793  MET794  SER795  GLU796  ALA797  LYS798  CYS799  TRP800  GLU811  SER814 

> <Gold.Protein.RotatedAtoms>
  151.6748  133.3313  159.3204 H   0  0  0  0  0  0  0  0  0  0  0  0  # atno 6907 bound_to 6896
  150.7850  134.6831  159.6465 H   0  0  0  0  0  0  0  0  0  0  0  0  # atno 6908 bound_to 6896
  152.3918  134.6433  160.0156 H   0  0  0  0  0  0  0  0  0  0  0  0  # atno 6909 bound_to 6896
  144.7316  140.3060  143.6196 H   0  0  0  0  0  0  0  0  0  0  0  0  # atno 7974 bound_to 7965
  156.2961  140.2308  156.4608 H   0  0  0  0  0  0  0  0  0  0  0  0  # atno 8008 bound_to 7997
  154.8020  140.0448  157.1300 H   0  0  0  0  0  0  0  0  0  0  0  0  # atno 8009 bound_to 7997
  154.9522  140.3043  155.5073 H   0  0  0  0  0  0  0  0  0  0  0  0  # atno 8010 bound_to 7997
  140.0411  143.5152  152.2129 H   0  0  0  0  0  0  0  0  0  0  0  0  # atno 10167 bound_to 10162
  156.0152  130.5311  150.6763 H   0  0  0  0  0  0  0  0  0  0  0  0  # atno 10718 bound_to 10713
  154.1401  135.6506  153.4940 H   0  0  0  0  0  0  0  0  0  0  0  0  # atno 10763 bound_to 10752
  153.0168  135.5313  154.6913 H   0  0  0  0  0  0  0  0  0  0  0  0  # atno 10764 bound_to 10752
  154.6172  135.2960  155.0337 H   0  0  0  0  0  0  0  0  0  0  0  0  # atno 10765 bound_to 10752
  140.0394  134.5895  155.9401 H   0  0  0  0  0  0  0  0  0  0  0  0  # atno 11005 bound_to 11000
  145.7712  139.1858  143.2211 LP  0  0  0  0  0  0  0  0  0  0  0  0  # atno 17320 bound_to 7965
  146.0909  140.7657  142.9596 LP  0  0  0  0  0  0  0  0  0  0  0  0  # atno 17321 bound_to 7965
  139.6013  144.7583  151.3165 LP  0  0  0  0  0  0  0  0  0  0  0  0  # atno 17342 bound_to 10162
  140.7259  143.7004  150.7850 LP  0  0  0  0  0  0  0  0  0  0  0  0  # atno 17343 bound_to 10162
  157.4475  131.0868  151.0880 LP  0  0  0  0  0  0  0  0  0  0  0  0  # atno 17370 bound_to 10713
  157.1406  130.6141  149.5554 LP  0  0  0  0  0  0  0  0  0  0  0  0  # atno 17371 bound_to 10713
  141.1875  133.6560  156.5284 LP  0  0  0  0  0  0  0  0  0  0  0  0  # atno 17394 bound_to 11000
  140.4094  134.7286  157.4827 LP  0  0  0  0  0  0  0  0  0  0  0  0  # atno 17395 bound_to 11000

$$$$
