AV-unprocessed.smi:2847|AV-procd|sdf|10953|dock1
  -GOLD-   2272015403D 1   1.00000     0.00000
 Structure written by MMmdl.
 45 46  0  0  0  0  0  0  0  0  1 V2000
  144.1192  132.2451  149.6191 C   0  0  0  0  0  0  0  0  0  0  0  0
  144.9552  132.6866  150.8435 C   0  0  0  0  0  0  0  0  0  0  0  0
  144.8198  131.5508  151.8852 C   0  0  0  0  0  0  0  0  0  0  0  0
  146.4313  132.8362  150.4325 C   0  0  0  0  0  0  0  0  0  0  0  0
  144.4427  134.0221  151.4105 C   0  0  0  0  0  0  0  0  0  0  0  0
  143.1787  134.0514  151.8528 N   0  0  0  0  0  0  0  0  0  0  0  0
  142.6752  135.2444  152.2322 C   0  0  0  0  0  0  0  0  0  0  0  0
  143.4216  136.4352  152.1332 C   0  0  0  0  0  0  0  0  0  0  0  0
  142.8335  137.6535  152.5657 N   0  0  0  0  0  0  0  0  0  0  0  0
  141.6658  137.8369  153.2042 C   0  0  0  0  0  0  0  0  0  0  0  0
  140.9054  136.9370  153.5588 O   0  0  0  0  0  0  0  0  0  0  0  0
  141.4415  139.1433  153.4224 N   0  0  0  0  0  0  0  0  0  0  0  0
  140.2960  139.7785  154.0886 C   0  0  1  0  0  0  0  0  0  0  0  0
  140.2592  139.1934  155.5222 C   0  0  0  0  0  0  0  0  0  0  0  0
  140.5168  141.3133  154.1777 C   0  0  0  0  0  0  0  0  0  0  0  0
  140.3826  141.9580  152.9255 O   0  0  0  0  0  0  0  0  0  0  0  0
  138.9798  139.5310  153.3309 C   0  0  0  0  0  0  0  0  0  0  0  0
  138.5537  138.1829  152.7951 C   0  0  0  0  0  0  0  0  0  0  0  0
  138.8831  139.3136  151.8387 C   0  0  0  0  0  0  0  0  0  0  0  0
  144.7347  136.2971  151.6234 C   0  0  0  0  0  0  0  0  0  0  0  0
  145.2262  135.0966  151.2494 N   0  0  0  0  0  0  0  0  0  0  0  0
  144.4484  131.2766  149.2415 H   0  0  0  0  0  0  0  0  0  0  0  0
  144.2039  132.9497  148.7909 H   0  0  0  0  0  0  0  0  0  0  0  0
  143.0617  132.1563  149.8710 H   0  0  0  0  0  0  0  0  0  0  0  0
  143.7874  131.4388  152.2188 H   0  0  0  0  0  0  0  0  0  0  0  0
  145.4349  131.7293  152.7678 H   0  0  0  0  0  0  0  0  0  0  0  0
  145.1356  130.5925  151.4714 H   0  0  0  0  0  0  0  0  0  0  0  0
  146.8280  131.9052  150.0265 H   0  0  0  0  0  0  0  0  0  0  0  0
  147.0530  133.1156  151.2838 H   0  0  0  0  0  0  0  0  0  0  0  0
  146.5536  133.6063  149.6700 H   0  0  0  0  0  0  0  0  0  0  0  0
  141.6627  135.2473  152.6087 H   0  0  0  0  0  0  0  0  0  0  0  0
  143.3868  138.4825  152.4048 H   0  0  0  0  0  0  0  0  0  0  0  0
  142.1433  139.7819  153.0783 H   0  0  0  0  0  0  0  0  0  0  0  0
  139.4963  139.6662  156.1400 H   0  0  0  0  0  0  0  0  0  0  0  0
  141.2095  139.3412  156.0364 H   0  0  0  0  0  0  0  0  0  0  0  0
  140.0770  138.1194  155.5256 H   0  0  0  0  0  0  0  0  0  0  0  0
  139.8224  141.7758  154.8792 H   0  0  0  0  0  0  0  0  0  0  0  0
  141.5164  141.5246  154.5586 H   0  0  0  0  0  0  0  0  0  0  0  0
  141.2079  141.9003  152.4689 H   0  0  0  0  0  0  0  0  0  0  0  0
  138.1543  140.1037  153.7489 H   0  0  0  0  0  0  0  0  0  0  0  0
  139.2490  137.3485  152.8352 H   0  0  0  0  0  0  0  0  0  0  0  0
  137.5059  137.9117  152.9067 H   0  0  0  0  0  0  0  0  0  0  0  0
  138.0526  139.7887  151.3206 H   0  0  0  0  0  0  0  0  0  0  0  0
  139.7958  139.2254  151.2551 H   0  0  0  0  0  0  0  0  0  0  0  0
  145.4128  137.1293  151.5185 H   0  0  0  0  0  0  0  0  0  0  0  0
  1  2  1  0  0  0  0
  1 22  1  0  0  0  0
  1 23  1  0  0  0  0
  1 24  1  0  0  0  0
  2  3  1  0  0  0  0
  2  4  1  0  0  0  0
  2  5  1  0  0  0  0
  3 25  1  0  0  0  0
  3 26  1  0  0  0  0
  3 27  1  0  0  0  0
  4 28  1  0  0  0  0
  4 29  1  0  0  0  0
  4 30  1  0  0  0  0
  5 21  1  0  0  0  0
  5  6  2  0  0  0  0
  6  7  1  0  0  0  0
  7  8  2  0  0  0  0
  7 31  1  0  0  0  0
  8  9  1  0  0  0  0
  8 20  1  0  0  0  0
  9 10  1  0  0  0  0
  9 32  1  0  0  0  0
 10 11  2  0  0  0  0
 10 12  1  0  0  0  0
 12 13  1  0  0  0  0
 12 33  1  0  0  0  0
 13 14  1  0  0  0  0
 13 15  1  0  0  0  0
 13 17  1  0  0  0  0
 14 34  1  0  0  0  0
 14 35  1  0  0  0  0
 14 36  1  0  0  0  0
 15 16  1  0  0  0  0
 15 37  1  0  0  0  0
 15 38  1  0  0  0  0
 16 39  1  0  0  0  0
 17 19  1  0  0  0  0
 17 18  1  0  0  0  0
 17 40  1  0  0  0  0
 18 19  1  0  0  0  0
 18 41  1  0  0  0  0
 18 42  1  0  0  0  0
 19 43  1  0  0  0  0
 19 44  1  0  0  0  0
 20 21  2  0  0  0  0
 20 45  1  0  0  0  0
M  END
> <s_m_source_file>
AV-unprocessed.smi

> <i_m_source_file_index>
2847

> <i_lp_mmshare_version>
43012

> <i_f3d_flags>
0

> <s_epik_input>
W0NIM11DKFtDSDNdKShbQ0gzXSljMW5bY0hdYyhbY0hdbjEpW05IXUMoPU8pW05IXVtDQEBdKFtDSDNdKShbQ0gyXVtPSF0pW0NIXTJbQ0gyXVtDSDJdMg==

> <s_epik_cmdline>
J2VwaWtfcHl0aG9uJywgJy1waCcsICc3LjAnLCAnLXRuJywgJzgnLCAnLW1hJywgJzIwMCcsICctbWV0YWxfYmluZGluZycsICctaW1hZScsICc8aW5maWxlLm1hZT4nLCAnLW9tYWUnLCAnPG91dGZpbGUubWFlPic=

> <r_lp_tautomer_probability>
1

> <r_epik_Ionization_Penalty>
2.57177e-05

> <r_epik_Ionization_Penalty_Charging>
0

> <r_epik_Ionization_Penalty_Neutral>
2.57177e-05

> <r_epik_State_Penalty>
-0

> <r_epik_Charging_Adjusted_Penalty>
0

> <i_epik_Tot_Q>
0

> <i_epik_Tot_abs_Q>
0

> <r_epik_Metal_State_Penalty>
-0

> <b_epik_Metal_Only>
0

> <s_lp_Force_Field>
OPLS_2005

> <r_lp_Energy>
20.4005

> <b_lp_Chiralities_Consistent>
1

> <s_lp_Variant>
AV-unprocessed.smi:2847-1

> <Gold.Version>
5.8.1

> <Gold.Id.Protein>
6NUR|6NUR_protein|mol2

> <Gold.PLP.Fitness>
43.9637

> <Gold.PLP.PLP>
-33.9297

> <Gold.PLP.part.hbond>
-5.2770

> <Gold.PLP.part.metal>
0.0000

> <Gold.PLP.part.buried>
-2.1348

> <Gold.PLP.part.nonpolar>
-26.9407

> <Gold.PLP.part.repulsive>
0.4697

> <Gold.PLP.ligand.clash>
0.0000

> <Gold.PLP.ligand.torsion>
1.0307

> <Gold.PLP.Chemscore.Hbond>
3.0000

> <Gold.PLP.Chemscore.CHOScore>
0.5004

> <Gold.PLP.Chemscore.Metal>
0.0000

> <Gold.Chemscore.Hbonds>
donor molecule, donor type, donor heavy atom, donor atom, acceptor molecule, acceptor atom, score
      L1  H     9    32       P1 10175  1.00
      L1  H    12    33       P1 10175  1.00
      L1  H    16    39       P1 10174  0.99
      L1  C    20    45       P1 10171  0.17

> <Gold.PLP.Chemscore.Internal.Correction>
1.5944

> <Gold.Rescore>
     Score         DG    S(hbond)    S(metal)    S(lipo)     H(rot)  DE(clash)    DE(int)     intcor
     12.16     -18.02       2.68        0.00      78.20       2.17       1.25       4.61       ----

> <Gold.Chemscore.Fitness>
12.1638

> <Gold.Chemscore.DG>
-18.0226

> <Gold.Chemscore.ZeroCoef>
-5.4800

> <Gold.Chemscore.Hbond>
2.6774

> <Gold.Chemscore.Metal>
0.0000

> <Gold.Chemscore.Lipo>
78.2050

> <Gold.Chemscore.Internal_Hbond>
0.0000

> <Gold.Chemscore.DEClash>
1.2462

> <Gold.Chemscore.DEInternal>
4.6127

> <Gold.Chemscore.Rot>
2.1679

> <Gold.Chemscore.Internal.Correction>
   9.000000E+99

> <Gold.Chemscore.Hbonds>
donor molecule, donor type, donor heavy atom, donor atom, acceptor molecule, acceptor atom, score
      L1  H     9    32       P1 10175  0.94
      L1  H    12    33       P1 10175  0.70
      L1  H    16    39       P1 10174  0.49

> <Gold.Chemscore.Hbond.Weighted>
-8.9425

> <Gold.Chemscore.Metal.Weighted>
-0.0000

> <Gold.Chemscore.Lipo.Weighted>
-9.1500

> <Gold.Chemscore.Internal_Hbond.Weighted>
0.0000

> <Gold.Chemscore.DEClash.Weighted>
1.2462

> <Gold.Chemscore.DEInternal.Weighted>
4.6127

> <Gold.Chemscore.Rot.Weighted>
5.5499

> <Gold.Chemscore.Internal.Correction.Weighted>
   9.000000E+99

> <Gold.Protein.RotatedTorsions>
[ 6907 6896 6895 6894 ] final -122.83 input  -60.11 | X-H torsion
[ 7974 7965 7964 7962 ] final  110.39 input  175.53 | X-H torsion
[ 8008 7997 7996 7995 ] final   -6.81 input   59.86 | X-H torsion
[ 10167 10162 10161 10158 ] final   95.04 input  -65.29 | X-H torsion
[ 10718 10713 10712 10709 ] final -140.52 input   66.30 | X-H torsion
[ 10763 10752 10751 10750 ] final    5.16 input  -60.55 | X-H torsion
[ 11005 11000 10999 10996 ] final  157.85 input  -57.11 | X-H torsion

> <Gold.Protein.ActiveResidues>
 VAL166  LYS551  ARG553  GLY616  TRP617  ASP618  TYR619  PRO620  LYS621  CYS622 
 ASP623  PHE694  ASN695  SER759  ASP760  ASP761  ALA762  ILE779  LEU786  VAL792 
 PHE793  MET794  SER795  GLU796  ALA797  LYS798  CYS799  TRP800  GLU811  SER814 

> <Gold.Protein.RotatedAtoms>
  150.8613  133.7640  159.2991 H   0  0  0  0  0  0  0  0  0  0  0  0  # atno 6907 bound_to 6896
  151.5281  135.1066  159.9905 H   0  0  0  0  0  0  0  0  0  0  0  0  # atno 6908 bound_to 6896
  152.4628  133.7814  159.6908 H   0  0  0  0  0  0  0  0  0  0  0  0  # atno 6909 bound_to 6896
  145.2556  139.2722  143.4044 H   0  0  0  0  0  0  0  0  0  0  0  0  # atno 7974 bound_to 7965
  154.5900  140.2423  155.7933 H   0  0  0  0  0  0  0  0  0  0  0  0  # atno 8008 bound_to 7997
  156.2241  140.2988  155.9977 H   0  0  0  0  0  0  0  0  0  0  0  0  # atno 8009 bound_to 7997
  155.2390  140.0406  157.2963 H   0  0  0  0  0  0  0  0  0  0  0  0  # atno 8010 bound_to 7997
  139.8026  144.6807  150.9744 H   0  0  0  0  0  0  0  0  0  0  0  0  # atno 10167 bound_to 10162
  156.3233  130.7546  151.1648 H   0  0  0  0  0  0  0  0  0  0  0  0  # atno 10718 bound_to 10713
  153.2626  135.6924  153.7562 H   0  0  0  0  0  0  0  0  0  0  0  0  # atno 10763 bound_to 10752
  153.6616  135.3359  155.3129 H   0  0  0  0  0  0  0  0  0  0  0  0  # atno 10764 bound_to 10752
  154.8436  135.4478  154.1622 H   0  0  0  0  0  0  0  0  0  0  0  0  # atno 10765 bound_to 10752
  140.1809  134.8476  157.2802 H   0  0  0  0  0  0  0  0  0  0  0  0  # atno 11005 bound_to 11000
  146.3290  140.2958  142.8618 LP  0  0  0  0  0  0  0  0  0  0  0  0  # atno 17320 bound_to 7965
  144.9464  140.8133  143.5599 LP  0  0  0  0  0  0  0  0  0  0  0  0  # atno 17321 bound_to 7965
  140.7820  143.4266  151.0759 LP  0  0  0  0  0  0  0  0  0  0  0  0  # atno 17342 bound_to 10162
  139.7937  143.8182  152.3155 LP  0  0  0  0  0  0  0  0  0  0  0  0  # atno 17343 bound_to 10162
  157.7416  131.0501  150.5085 LP  0  0  0  0  0  0  0  0  0  0  0  0  # atno 17370 bound_to 10713
  156.5240  130.4169  149.6236 LP  0  0  0  0  0  0  0  0  0  0  0  0  # atno 17371 bound_to 10713
  140.2268  134.3957  155.7540 LP  0  0  0  0  0  0  0  0  0  0  0  0  # atno 17394 bound_to 11000
  141.2223  133.7194  156.8578 LP  0  0  0  0  0  0  0  0  0  0  0  0  # atno 17395 bound_to 11000

$$$$
