AV-unprocessed.smi:1945|AV-procd|sdf|7858|dock10
  -GOLD-   2272010 03D 1   1.00000     0.00000
 Structure written by MMmdl.
 47 48  0  0  0  0  0  0  0  0  1 V2000
  144.1686  132.4753  149.1101 C   0  0  0  0  0  0  0  0  0  0  0  0
  144.6413  133.4283  150.1678 C   0  0  0  0  0  0  0  0  0  0  0  0
  145.9203  133.4794  150.7942 C   0  0  0  0  0  0  0  0  0  0  0  0
  145.7884  134.5289  151.6620 C   0  0  0  0  0  0  0  0  0  0  0  0
  146.6967  135.0202  152.5460 N   0  0  0  0  0  0  0  0  0  0  0  0
  146.4871  135.4243  153.8102 C   0  0  0  0  0  0  0  0  0  0  0  0
  145.4588  135.2242  154.4573 O   0  0  0  0  0  0  0  0  0  0  0  0
  147.5455  136.0939  154.2894 N   0  0  0  0  0  0  0  0  0  0  0  0
  147.5749  136.8050  155.5641 C   0  0  0  0  0  0  0  0  0  0  0  0
  147.9495  138.2820  155.3633 C   0  0  0  0  0  0  0  0  0  0  0  0
  149.3617  138.4049  155.4346 O   0  0  0  0  0  0  0  0  0  0  0  0
  149.9514  139.3027  154.5035 C   0  0  1  0  0  0  0  0  0  0  0  0
  149.2624  140.6845  154.5674 C   0  0  0  0  0  0  0  0  0  0  0  0
  149.4579  141.3604  155.9353 C   0  0  0  0  0  0  0  0  0  0  0  0
  150.9459  141.4671  156.3001 C   0  0  0  0  0  0  0  0  0  0  0  0
  151.6394  140.0971  156.2347 C   0  0  0  0  0  0  0  0  0  0  0  0
  151.4503  139.4308  154.8559 C   0  0  1  0  0  0  0  0  0  0  0  0
  152.1806  138.0815  154.7695 C   0  0  0  0  0  0  0  0  0  0  0  0
  144.5136  135.0384  151.5547 N   0  0  0  0  0  0  0  0  0  0  0  0
  143.8954  136.1371  152.2706 C   0  0  0  0  0  0  0  0  0  0  0  0
  143.8104  134.3599  150.6222 N   0  0  0  0  0  0  0  0  0  0  0  0
  144.9150  131.7062  148.9111 H   0  0  0  0  0  0  0  0  0  0  0  0
  143.9708  132.9964  148.1732 H   0  0  0  0  0  0  0  0  0  0  0  0
  143.2497  131.9737  149.4144 H   0  0  0  0  0  0  0  0  0  0  0  0
  146.7742  132.8400  150.6271 H   0  0  0  0  0  0  0  0  0  0  0  0
  147.6241  135.1671  152.1760 H   0  0  0  0  0  0  0  0  0  0  0  0
  148.3555  136.1936  153.6955 H   0  0  0  0  0  0  0  0  0  0  0  0
  146.6198  136.7154  156.0844 H   0  0  0  0  0  0  0  0  0  0  0  0
  148.3195  136.3235  156.1981 H   0  0  0  0  0  0  0  0  0  0  0  0
  147.6074  138.6280  154.3872 H   0  0  0  0  0  0  0  0  0  0  0  0
  147.4529  138.8935  156.1164 H   0  0  0  0  0  0  0  0  0  0  0  0
  149.8612  138.8932  153.4959 H   0  0  0  0  0  0  0  0  0  0  0  0
  149.6805  141.3263  153.7912 H   0  0  0  0  0  0  0  0  0  0  0  0
  148.1994  140.6048  154.3436 H   0  0  0  0  0  0  0  0  0  0  0  0
  149.0065  142.3528  155.9274 H   0  0  0  0  0  0  0  0  0  0  0  0
  148.9343  140.7930  156.7040 H   0  0  0  0  0  0  0  0  0  0  0  0
  151.4398  142.1581  155.6162 H   0  0  0  0  0  0  0  0  0  0  0  0
  151.0531  141.8902  157.2995 H   0  0  0  0  0  0  0  0  0  0  0  0
  152.7019  140.2180  156.4481 H   0  0  0  0  0  0  0  0  0  0  0  0
  151.2419  139.4508  157.0184 H   0  0  0  0  0  0  0  0  0  0  0  0
  151.9065  140.0849  154.1113 H   0  0  0  0  0  0  0  0  0  0  0  0
  151.7971  137.3721  155.5036 H   0  0  0  0  0  0  0  0  0  0  0  0
  153.2487  138.2016  154.9527 H   0  0  0  0  0  0  0  0  0  0  0  0
  152.0638  137.6344  153.7820 H   0  0  0  0  0  0  0  0  0  0  0  0
  144.1144  136.0543  153.3354 H   0  0  0  0  0  0  0  0  0  0  0  0
  142.8133  136.1225  152.1335 H   0  0  0  0  0  0  0  0  0  0  0  0
  144.2886  137.0828  151.8970 H   0  0  0  0  0  0  0  0  0  0  0  0
  1  2  1  0  0  0  0
  1 22  1  0  0  0  0
  1 23  1  0  0  0  0
  1 24  1  0  0  0  0
  2 21  2  0  0  0  0
  2  3  1  0  0  0  0
  3  4  2  0  0  0  0
  3 25  1  0  0  0  0
  4  5  1  0  0  0  0
  4 19  1  0  0  0  0
  5  6  1  0  0  0  0
  5 26  1  0  0  0  0
  6  7  2  0  0  0  0
  6  8  1  0  0  0  0
  8  9  1  0  0  0  0
  8 27  1  0  0  0  0
  9 10  1  0  0  0  0
  9 28  1  0  0  0  0
  9 29  1  0  0  0  0
 10 11  1  0  0  0  0
 10 30  1  0  0  0  0
 10 31  1  0  0  0  0
 11 12  1  0  0  0  0
 12 17  1  0  0  0  0
 12 13  1  0  0  0  0
 12 32  1  0  0  0  0
 13 14  1  0  0  0  0
 13 33  1  0  0  0  0
 13 34  1  0  0  0  0
 14 15  1  0  0  0  0
 14 35  1  0  0  0  0
 14 36  1  0  0  0  0
 15 16  1  0  0  0  0
 15 37  1  0  0  0  0
 15 38  1  0  0  0  0
 16 17  1  0  0  0  0
 16 39  1  0  0  0  0
 16 40  1  0  0  0  0
 17 18  1  0  0  0  0
 17 41  1  0  0  0  0
 18 42  1  0  0  0  0
 18 43  1  0  0  0  0
 18 44  1  0  0  0  0
 19 20  1  0  0  0  0
 19 21  1  0  0  0  0
 20 45  1  0  0  0  0
 20 46  1  0  0  0  0
 20 47  1  0  0  0  0
M  END
> <s_m_source_file>
AV-unprocessed.smi

> <i_m_source_file_index>
1945

> <i_lp_mmshare_version>
43012

> <i_f3d_flags>
0

> <s_epik_input>
W0NIM11jMVtjSF1jKG4objEpW0NIM10pW05IXUMoPU8pW05IXVtDSDJdW0NIMl1PW0NAQEhdMltDSDJdW0NIMl1bQ0gyXVtDSDJdW0NASF0yW0NIM10=

> <s_epik_cmdline>
J2VwaWtfcHl0aG9uJywgJy1waCcsICc3LjAnLCAnLXRuJywgJzgnLCAnLW1hJywgJzIwMCcsICctbWV0YWxfYmluZGluZycsICctaW1hZScsICc8aW5maWxlLm1hZT4nLCAnLW9tYWUnLCAnPG91dGZpbGUubWFlPic=

> <r_lp_tautomer_probability>
1

> <r_epik_Ionization_Penalty>
9.47735e-05

> <r_epik_Ionization_Penalty_Charging>
0

> <r_epik_Ionization_Penalty_Neutral>
9.47735e-05

> <r_epik_State_Penalty>
-0

> <r_epik_Charging_Adjusted_Penalty>
0

> <i_epik_Tot_Q>
0

> <i_epik_Tot_abs_Q>
0

> <r_epik_Metal_State_Penalty>
-0

> <b_epik_Metal_Only>
0

> <s_lp_Force_Field>
OPLS_2005

> <r_lp_Energy>
11.3834

> <b_lp_Chiralities_Consistent>
1

> <s_lp_Variant>
AV-unprocessed.smi:1945-2

> <Gold.Version>
5.8.1

> <Gold.Id.Protein>
6NUR|6NUR_protein|mol2

> <Gold.PLP.Fitness>
39.5807

> <Gold.PLP.PLP>
-35.4451

> <Gold.PLP.part.hbond>
-2.0000

> <Gold.PLP.part.metal>
0.0000

> <Gold.PLP.part.buried>
-2.5917

> <Gold.PLP.part.nonpolar>
-32.3425

> <Gold.PLP.part.repulsive>
1.0778

> <Gold.PLP.ligand.clash>
0.0000

> <Gold.PLP.ligand.torsion>
0.8178

> <Gold.PLP.Chemscore.Hbond>
1.9120

> <Gold.PLP.Chemscore.CHOScore>
0.0000

> <Gold.PLP.Chemscore.Metal>
0.0000

> <Gold.Chemscore.Hbonds>
donor molecule, donor type, donor heavy atom, donor atom, acceptor molecule, acceptor atom, score
      L1  H     5    26       P1  7948  1.00
      L1  H     8    27       P1  7948  0.90

> <Gold.PLP.Chemscore.Internal.Correction>
0.0352

> <Gold.Rescore>
     Score         DG    S(hbond)    S(metal)    S(lipo)     H(rot)  DE(clash)    DE(int)     intcor
     15.67     -16.94       1.89        0.00      79.88       1.63       0.27       1.01       ----

> <Gold.Chemscore.Fitness>
15.6680

> <Gold.Chemscore.DG>
-16.9450

> <Gold.Chemscore.ZeroCoef>
-5.4800

> <Gold.Chemscore.Hbond>
1.8851

> <Gold.Chemscore.Metal>
0.0000

> <Gold.Chemscore.Lipo>
79.8765

> <Gold.Chemscore.Internal_Hbond>
0.0000

> <Gold.Chemscore.DEClash>
0.2676

> <Gold.Chemscore.DEInternal>
1.0095

> <Gold.Chemscore.Rot>
1.6316

> <Gold.Chemscore.Internal.Correction>
   9.000000E+99

> <Gold.Chemscore.Hbonds>
donor molecule, donor type, donor heavy atom, donor atom, acceptor molecule, acceptor atom, score
      L1  H     5    26       P1  7948  0.93
      L1  H     8    27       P1  7948  0.88

> <Gold.Chemscore.Hbond.Weighted>
-6.2962

> <Gold.Chemscore.Metal.Weighted>
-0.0000

> <Gold.Chemscore.Lipo.Weighted>
-9.3456

> <Gold.Chemscore.Internal_Hbond.Weighted>
0.0000

> <Gold.Chemscore.DEClash.Weighted>
0.2676

> <Gold.Chemscore.DEInternal.Weighted>
1.0095

> <Gold.Chemscore.Rot.Weighted>
4.1768

> <Gold.Chemscore.Internal.Correction.Weighted>
   9.000000E+99

> <Gold.Protein.RotatedTorsions>
[ 6907 6896 6895 6894 ] final   65.67 input  -60.11 | X-H torsion
[ 7974 7965 7964 7962 ] final  -31.57 input  175.53 | X-H torsion
[ 8008 7997 7996 7995 ] final  104.65 input   59.86 | X-H torsion
[ 10167 10162 10161 10158 ] final  -89.77 input  -65.29 | X-H torsion
[ 10718 10713 10712 10709 ] final  -87.67 input   66.30 | X-H torsion
[ 10763 10752 10751 10750 ] final  -20.97 input  -60.55 | X-H torsion
[ 11005 11000 10999 10996 ] final   10.78 input  -57.11 | X-H torsion

> <Gold.Protein.ActiveResidues>
 VAL166  LYS551  ARG553  GLY616  TRP617  ASP618  TYR619  PRO620  LYS621  CYS622 
 ASP623  PHE694  ASN695  SER759  ASP760  ASP761  ALA762  ILE779  LEU786  VAL792 
 PHE793  MET794  SER795  GLU796  ALA797  LYS798  CYS799  TRP800  GLU811  SER814 

> <Gold.Protein.RotatedAtoms>
  152.4425  134.5562  159.9880 H   0  0  0  0  0  0  0  0  0  0  0  0  # atno 6907 bound_to 6896
  151.5656  133.3391  159.2987 H   0  0  0  0  0  0  0  0  0  0  0  0  # atno 6908 bound_to 6896
  150.8334  134.7630  159.6936 H   0  0  0  0  0  0  0  0  0  0  0  0  # atno 6909 bound_to 6896
  146.1057  140.5684  142.8801 H   0  0  0  0  0  0  0  0  0  0  0  0  # atno 7974 bound_to 7965
  156.1591  140.3144  155.8777 H   0  0  0  0  0  0  0  0  0  0  0  0  # atno 8008 bound_to 7997
  155.3818  140.0488  157.3060 H   0  0  0  0  0  0  0  0  0  0  0  0  # atno 8009 bound_to 7997
  154.5130  140.2171  155.9131 H   0  0  0  0  0  0  0  0  0  0  0  0  # atno 8010 bound_to 7997
  140.3615  143.2839  151.9609 H   0  0  0  0  0  0  0  0  0  0  0  0  # atno 10167 bound_to 10162
  155.9985  130.4808  150.4902 H   0  0  0  0  0  0  0  0  0  0  0  0  # atno 10718 bound_to 10713
  153.6288  135.6990  153.5283 H   0  0  0  0  0  0  0  0  0  0  0  0  # atno 10763 bound_to 10752
  153.2877  135.4166  155.1137 H   0  0  0  0  0  0  0  0  0  0  0  0  # atno 10764 bound_to 10752
  154.8527  135.3617  154.5830 H   0  0  0  0  0  0  0  0  0  0  0  0  # atno 10765 bound_to 10752
  140.5107  134.0655  155.7817 H   0  0  0  0  0  0  0  0  0  0  0  0  # atno 11005 bound_to 11000
  144.7469  140.5091  143.6829 LP  0  0  0  0  0  0  0  0  0  0  0  0  # atno 17320 bound_to 7965
  145.5765  139.1486  143.3259 LP  0  0  0  0  0  0  0  0  0  0  0  0  # atno 17321 bound_to 7965
  139.4813  144.5988  151.7642 LP  0  0  0  0  0  0  0  0  0  0  0  0  # atno 17342 bound_to 10162
  140.5122  144.1007  150.5998 LP  0  0  0  0  0  0  0  0  0  0  0  0  # atno 17343 bound_to 10162
  157.2898  131.0624  151.2142 LP  0  0  0  0  0  0  0  0  0  0  0  0  # atno 17370 bound_to 10713
  157.3158  130.6912  149.6241 LP  0  0  0  0  0  0  0  0  0  0  0  0  # atno 17371 bound_to 10713
  141.1387  133.9176  157.2375 LP  0  0  0  0  0  0  0  0  0  0  0  0  # atno 17394 bound_to 11000
  139.9661  135.0141  156.9389 LP  0  0  0  0  0  0  0  0  0  0  0  0  # atno 17395 bound_to 11000

$$$$
