#       Name:                AV-unprocessed.smi:2119
#       Creating user name   scv26
#       Creation time:       Fri Mar 27 11:38:22 2020


#       File generated by GOLD software.
#

@<TRIPOS>MOLECULE
AV-unprocessed.smi:2119
    55    57     1
SMALL
NO_CHARGES


@<TRIPOS>ATOM
      1 ****        -2.6100   0.4130  -1.1174 O.2            1 S1                 0.0000
      2 ****        -2.0223   1.0822  -0.2685 C.2            1 S1                 0.0000
      3 ****        -1.0654   0.5910   0.5321 N.am           1 S1                 0.0000
      4 ****        -0.5861  -0.7881   0.5353 C.3            1 S1                 0.0000
      5 ****         0.9603  -0.8866   0.6336 C.3            1 S1                 0.0000
      6 ****         1.7117  -0.3668  -0.6255 C.3            1 S1                 0.0000
      7 ****         1.6020   1.1231  -0.9108 C.3            1 S1                 0.0000
      8 ****         2.8065   1.3935  -1.8096 C.3            1 S1                 0.0000
      9 ****         3.7640   0.3860  -1.5058 O.3            1 S1                 0.0000
     10 ****         3.2354  -0.4992  -0.5288 C.3            1 S1                 0.0000
     11 ****         1.4083  -2.2798   0.9378 N.4            1 S1                 1.0000
     12 ****         1.2905  -2.6561   2.3678 C.3            1 S1                 0.0000
     13 ****         1.9521  -4.0237   2.6114 C.3            1 S1                 0.0000
     14 ****         1.3673  -5.0006   1.7581 O.3            1 S1                 0.0000
     15 ****         1.5482  -4.6877   0.3819 C.3            1 S1                 0.0000
     16 ****         0.8593  -3.3502   0.0662 C.3            1 S1                 0.0000
     17 ****        -2.2547   2.3795  -0.0051 N.am           1 S1                 0.0000
     18 ****        -3.1670   3.2585  -0.6484 C.ar           1 S1                 0.0000
     19 ****        -3.5937   4.4031   0.0561 C.ar           1 S1                 0.0000
     20 ****        -4.4821   5.3004  -0.5662 C.ar           1 S1                 0.0000
     21 ****        -4.9038   5.0217  -1.8806 C.ar           1 S1                 0.0000
     22 ****        -4.4930   3.9402  -2.5756 N.ar           1 S1                 0.0000
     23 ****        -3.6428   3.0820  -1.9717 C.ar           1 S1                 0.0000
     24 ****        -0.6466   1.2178   1.2037 H              1 S1                 0.0000
     25 ****        -1.0559  -1.2804   1.3866 H              1 S1                 0.0000
     26 ****        -0.9325  -1.3149  -0.3551 H              1 S1                 0.0000
     27 ****         1.2810  -0.2634   1.4701 H              1 S1                 0.0000
     28 ****         1.3719  -0.9051  -1.5113 H              1 S1                 0.0000
     29 ****         0.6692   1.4034  -1.3990 H              1 S1                 0.0000
     30 ****         1.6914   1.6964   0.0130 H              1 S1                 0.0000
     31 ****         2.5306   1.3017  -2.8605 H              1 S1                 0.0000
     32 ****         3.2183   2.3909  -1.6538 H              1 S1                 0.0000
     33 ****         3.5892  -0.1819   0.4534 H              1 S1                 0.0000
     34 ****         3.5828  -1.5187  -0.6994 H              1 S1                 0.0000
     35 ****         1.7718  -1.9043   2.9943 H              1 S1                 0.0000
     36 ****         0.2412  -2.6958   2.6614 H              1 S1                 0.0000
     37 ****         3.0284  -3.9722   2.4391 H              1 S1                 0.0000
     38 ****         1.8103  -4.3301   3.6480 H              1 S1                 0.0000
     39 ****         2.6116  -4.6467   0.1404 H              1 S1                 0.0000
     40 ****         1.1146  -5.4853  -0.2215 H              1 S1                 0.0000
     41 ****        -0.2143  -3.4567   0.2255 H              1 S1                 0.0000
     42 ****         1.0078  -3.1035  -0.9847 H              1 S1                 0.0000
     43 ****        -1.7609   2.7707   0.7837 H              1 S1                 0.0000
     44 ****        -3.2503   4.5914   1.0629 H              1 S1                 0.0000
     45 ****        -4.8317   6.1817  -0.0491 H              1 S1                 0.0000
     46 ****        -5.5841   5.6885  -2.3893 H              1 S1                 0.0000
     47 ****        -3.3293   2.2515  -2.5850 H              1 S1                 0.0000
     48 ****         2.4022  -2.2714   0.7586 H              1 S1                 0.0000
     49 ****        -2.3817  -0.5530  -1.2386 LP             1 S1                 0.0000
     50 ****        -3.3160   0.8351  -1.6861 LP             1 S1                 0.0000
     51 ****         4.5954   0.8139  -1.1513 LP             1 S1                 0.0000
     52 ****         3.9812  -0.1271  -2.3361 LP             1 S1                 0.0000
     53 ****         0.3874  -5.0518   1.9509 LP             1 S1                 0.0000
     54 ****         1.7906  -5.8870   1.9455 LP             1 S1                 0.0000
     55 ****        -4.8090   3.7790  -3.5105 LP             1 S1                 0.0000
@<TRIPOS>BOND
    1    1    2 2     
    2    2    3 am    
    3    2   17 am    
    4    3    4 1     
    5    3   24 1     
    6    4    5 1     
    7    4   25 1     
    8    4   26 1     
    9    5    6 1     
   10    5   11 1     
   11    5   27 1     
   12    6   10 1     
   13    6    7 1     
   14    6   28 1     
   15    7    8 1     
   16    7   29 1     
   17    7   30 1     
   18    8    9 1     
   19    8   31 1     
   20    8   32 1     
   21    9   10 1     
   22   10   33 1     
   23   10   34 1     
   24   11   16 1     
   25   11   12 1     
   26   11   48 1     
   27   12   13 1     
   28   12   35 1     
   29   12   36 1     
   30   13   14 1     
   31   13   37 1     
   32   13   38 1     
   33   14   15 1     
   34   15   16 1     
   35   15   39 1     
   36   15   40 1     
   37   16   41 1     
   38   16   42 1     
   39   17   18 1     
   40   17   43 1     
   41   18   23 ar    
   42   18   19 ar    
   43   19   20 ar    
   44   19   44 1     
   45   20   21 ar    
   46   20   45 1     
   47   21   22 ar    
   48   21   46 1     
   49   22   23 ar    
   50   23   47 1     
   51    1   49 1     
   52    1   50 1     
   53    9   51 1     
   54    9   52 1     
   55   14   53 1     
   56   14   54 1     
   57   22   55 1     
@<TRIPOS>SUBSTRUCTURE
      1 S1             1
@<TRIPOS>SET
LONE_PAIRS      STATIC     ATOMS    <user>   **** ""
7 49 50 51 52 53 54 55
DONOR_HYDROGENS      STATIC     ATOMS    <user>   **** ""
3 24 48 43
ATOM$BLUE        STATIC     ATOMS    COLORGROUP SYSTEM
7 49 50 51 52 53 54 55
ATOM$RED        STATIC     ATOMS    COLORGROUP SYSTEM
3 24 48 43
