AV-unprocessed.smi:1893|AV-procd|sdf|7673|dock4
  -GOLD-   22720 9413D 1   1.00000     0.00000
 Structure written by MMmdl.
 43 44  0  0  0  0  0  0  0  0  2 V2000
  144.6654  135.0627  153.9092 C   0  0  0  0  0  0  0  0  0  0  0  0
  145.8559  135.3273  152.9618 C   0  0  2  0  0  0  0  0  0  0  0  0
  145.8029  134.4496  151.6936 C   0  0  0  0  0  0  0  0  0  0  0  0
  146.1554  132.9845  151.9904 C   0  0  0  0  0  0  0  0  0  0  0  0
  147.5118  132.9037  152.7012 C   0  0  0  0  0  0  0  0  0  0  0  0
  147.5355  133.7881  153.9586 C   0  0  0  0  0  0  0  0  0  0  0  0
  147.1864  135.1974  153.6287 N   0  3  2  0  0  0  0  0  0  0  0  0
  147.3785  136.1373  154.7625 C   0  0  0  0  0  0  0  0  0  0  0  0
  148.6354  135.8080  155.5903 C   0  0  0  0  0  0  0  0  0  0  0  0
  149.3892  137.0150  155.9051 N   0  0  0  0  0  0  0  0  0  0  0  0
  150.6545  137.2507  155.5230 C   0  0  0  0  0  0  0  0  0  0  0  0
  151.3001  136.4679  154.8250 O   0  0  0  0  0  0  0  0  0  0  0  0
  151.2844  138.5591  156.0241 C   0  0  2  0  0  0  0  0  0  0  0  0
  151.3909  138.6146  157.5619 C   0  0  0  0  0  0  0  0  0  0  0  0
  150.5603  139.6989  155.4742 N   0  0  0  0  0  0  0  0  0  0  0  0
  150.2009  139.9585  154.2149 C   0  0  0  0  0  0  0  0  0  0  0  0
  149.4915  141.0694  154.0744 N   0  0  0  0  0  0  0  0  0  0  0  0
  149.4375  141.4718  155.3787 C   0  0  0  0  0  0  0  0  0  0  0  0
  150.0472  140.6789  156.2596 N   0  0  0  0  0  0  0  0  0  0  0  0
  143.7198  135.1912  153.3817 H   0  0  0  0  0  0  0  0  0  0  0  0
  144.6545  135.7565  154.7499 H   0  0  0  0  0  0  0  0  0  0  0  0
  144.6730  134.0520  154.3153 H   0  0  0  0  0  0  0  0  0  0  0  0
  145.7687  136.3620  152.6269 H   0  0  0  0  0  0  0  0  0  0  0  0
  144.8177  134.5117  151.2298 H   0  0  0  0  0  0  0  0  0  0  0  0
  146.5071  134.8409  150.9579 H   0  0  0  0  0  0  0  0  0  0  0  0
  145.3829  132.5292  152.6107 H   0  0  0  0  0  0  0  0  0  0  0  0
  146.1836  132.4112  151.0632 H   0  0  0  0  0  0  0  0  0  0  0  0
  147.7313  131.8695  152.9686 H   0  0  0  0  0  0  0  0  0  0  0  0
  148.3010  133.2202  152.0178 H   0  0  0  0  0  0  0  0  0  0  0  0
  146.8506  133.3969  154.7116 H   0  0  0  0  0  0  0  0  0  0  0  0
  148.5312  133.7399  154.3978 H   0  0  0  0  0  0  0  0  0  0  0  0
  147.4883  137.1520  154.3763 H   0  0  0  0  0  0  0  0  0  0  0  0
  146.4860  136.1410  155.3900 H   0  0  0  0  0  0  0  0  0  0  0  0
  148.3839  135.2896  156.5158 H   0  0  0  0  0  0  0  0  0  0  0  0
  149.2867  135.1390  155.0271 H   0  0  0  0  0  0  0  0  0  0  0  0
  148.9258  137.7115  156.4710 H   0  0  0  0  0  0  0  0  0  0  0  0
  152.3011  138.6076  155.6303 H   0  0  0  0  0  0  0  0  0  0  0  0
  151.9825  137.7821  157.9442 H   0  0  0  0  0  0  0  0  0  0  0  0
  150.4137  138.5731  158.0450 H   0  0  0  0  0  0  0  0  0  0  0  0
  151.8784  139.5352  157.8837 H   0  0  0  0  0  0  0  0  0  0  0  0
  150.4571  139.3167  153.3845 H   0  0  0  0  0  0  0  0  0  0  0  0
  148.9252  142.3704  155.6898 H   0  0  0  0  0  0  0  0  0  0  0  0
  147.8537  135.4866  152.9280 H   0  0  0  0  0  0  0  0  0  0  0  0
  1  2  1  0  0  0  0
  1 20  1  0  0  0  0
  1 21  1  0  0  0  0
  1 22  1  0  0  0  0
  2  7  1  0  0  0  0
  2  3  1  0  0  0  0
  2 23  1  0  0  0  0
  3  4  1  0  0  0  0
  3 24  1  0  0  0  0
  3 25  1  0  0  0  0
  4  5  1  0  0  0  0
  4 26  1  0  0  0  0
  4 27  1  0  0  0  0
  5  6  1  0  0  0  0
  5 28  1  0  0  0  0
  5 29  1  0  0  0  0
  6  7  1  0  0  0  0
  6 30  1  0  0  0  0
  6 31  1  0  0  0  0
  7  8  1  0  0  0  0
  7 43  1  0  0  0  0
  8  9  1  0  0  0  0
  8 32  1  0  0  0  0
  8 33  1  0  0  0  0
  9 10  1  0  0  0  0
  9 34  1  0  0  0  0
  9 35  1  0  0  0  0
 10 11  1  0  0  0  0
 10 36  1  0  0  0  0
 11 12  2  0  0  0  0
 11 13  1  0  0  0  0
 13 14  1  0  0  0  0
 13 15  1  0  0  0  0
 13 37  1  0  0  0  0
 14 38  1  0  0  0  0
 14 39  1  0  0  0  0
 14 40  1  0  0  0  0
 15 19  1  0  0  0  0
 15 16  1  0  0  0  0
 16 17  2  0  0  0  0
 16 41  1  0  0  0  0
 17 18  1  0  0  0  0
 18 19  2  0  0  0  0
 18 42  1  0  0  0  0
M  CHG  1   7   1
M  END
> <s_m_source_file>
AV-unprocessed.smi

> <i_m_source_file_index>
1893

> <i_lp_mmshare_version>
43012

> <i_f3d_flags>
0

> <s_epik_input>
W0NIM11bQ0BASF0xW0NIMl1bQ0gyXVtDSDJdW0NIMl1OMVtDSDJdW0NIMl1bTkhdQyg9TylbQ0BIXShbQ0gzXSluMltjSF1uW2NIXW4y

> <s_epik_cmdline>
J2VwaWtfcHl0aG9uJywgJy1waCcsICc3LjAnLCAnLXRuJywgJzgnLCAnLW1hJywgJzIwMCcsICctbWV0YWxfYmluZGluZycsICctaW1hZScsICc8aW5maWxlLm1hZT4nLCAnLW9tYWUnLCAnPG91dGZpbGUubWFlPic=

> <r_lp_tautomer_probability>
1

> <r_epik_Ionization_Penalty>
0.00266409

> <r_epik_Ionization_Penalty_Charging>
0.00265606

> <r_epik_Ionization_Penalty_Neutral>
8.02794e-06

> <r_epik_State_Penalty>
0.00184955

> <r_epik_Charging_Adjusted_Penalty>
0.00450561

> <i_epik_Tot_Q>
1

> <i_epik_Tot_abs_Q>
1

> <r_epik_Metal_State_Penalty>
-0

> <b_epik_Metal_Only>
0

> <s_lp_Force_Field>
OPLS_2005

> <r_lp_Energy>
25.3191

> <b_lp_Chiralities_Consistent>
1

> <s_lp_Variant>
AV-unprocessed.smi:1893-3

> <Gold.Version>
5.8.1

> <Gold.Id.Protein>
6NUR|6NUR_protein|mol2

> <Gold.PLP.Fitness>
40.4490

> <Gold.PLP.PLP>
-25.2008

> <Gold.PLP.part.hbond>
-4.0000

> <Gold.PLP.part.metal>
0.0000

> <Gold.PLP.part.buried>
4.4769

> <Gold.PLP.part.nonpolar>
-25.0323

> <Gold.PLP.part.repulsive>
0.3996

> <Gold.PLP.ligand.clash>
0.0000

> <Gold.PLP.ligand.torsion>
0.5495

> <Gold.PLP.Chemscore.Hbond>
3.4969

> <Gold.PLP.Chemscore.CHOScore>
1.9025

> <Gold.PLP.Chemscore.Metal>
0.0000

> <Gold.Chemscore.Hbonds>
donor molecule, donor type, donor heavy atom, donor atom, acceptor molecule, acceptor atom, score
      L1  H     7    43       P1  7948  2.00
      P1  H  8011  8017       L1    17  0.43
      P1  H 10752 10764       L1    12  1.00
      L1  C    16    41       P1  7957  0.73
      L1  C    18    42       P1  8028  1.00

> <Gold.PLP.Chemscore.Internal.Correction>
0.1491

> <Gold.Rescore>
     Score         DG    S(hbond)    S(metal)    S(lipo)     H(rot)  DE(clash)    DE(int)     intcor
      9.66     -12.45       2.56        0.00      41.86       2.54       2.21       0.58       ----

> <Gold.Chemscore.Fitness>
9.6624

> <Gold.Chemscore.DG>
-12.4470

> <Gold.Chemscore.ZeroCoef>
-5.4800

> <Gold.Chemscore.Hbond>
2.5648

> <Gold.Chemscore.Metal>
0.0000

> <Gold.Chemscore.Lipo>
41.8573

> <Gold.Chemscore.Internal_Hbond>
0.0000

> <Gold.Chemscore.DEClash>
2.2079

> <Gold.Chemscore.DEInternal>
0.5767

> <Gold.Chemscore.Rot>
2.5377

> <Gold.Chemscore.Internal.Correction>
   9.000000E+99

> <Gold.Chemscore.Hbonds>
donor molecule, donor type, donor heavy atom, donor atom, acceptor molecule, acceptor atom, score
      L1  H     7    43       P1  7948  1.00
      P1  H  8011  8017       L1    17  0.42
      P1  H 10752 10764       L1    12  1.00

> <Gold.Chemscore.Hbond.Weighted>
-8.5663

> <Gold.Chemscore.Metal.Weighted>
-0.0000

> <Gold.Chemscore.Lipo.Weighted>
-4.8973

> <Gold.Chemscore.Internal_Hbond.Weighted>
0.0000

> <Gold.Chemscore.DEClash.Weighted>
2.2079

> <Gold.Chemscore.DEInternal.Weighted>
0.5767

> <Gold.Chemscore.Rot.Weighted>
6.4966

> <Gold.Chemscore.Internal.Correction.Weighted>
   9.000000E+99

> <Gold.Protein.RotatedTorsions>
[ 6907 6896 6895 6894 ] final -161.22 input  -60.11 | X-H torsion
[ 7974 7965 7964 7962 ] final   69.11 input  175.53 | X-H torsion
[ 8008 7997 7996 7995 ] final   83.20 input   59.86 | X-H torsion
[ 10167 10162 10161 10158 ] final -142.30 input  -65.29 | X-H torsion
[ 10718 10713 10712 10709 ] final  -59.29 input   66.30 | X-H torsion
[ 10763 10752 10751 10750 ] final  -68.18 input  -60.55 | X-H torsion
[ 11005 11000 10999 10996 ] final   86.73 input  -57.11 | X-H torsion

> <Gold.Protein.ActiveResidues>
 VAL166  LYS551  ARG553  GLY616  TRP617  ASP618  TYR619  PRO620  LYS621  CYS622 
 ASP623  PHE694  ASN695  SER759  ASP760  ASP761  ALA762  ILE779  LEU786  VAL792 
 PHE793  MET794  SER795  GLU796  ALA797  LYS798  CYS799  TRP800  GLU811  SER814 

> <Gold.Protein.RotatedAtoms>
  151.3613  133.3888  159.2689 H   0  0  0  0  0  0  0  0  0  0  0  0  # atno 6907 bound_to 6896
  150.9723  134.9095  159.7806 H   0  0  0  0  0  0  0  0  0  0  0  0  # atno 6908 bound_to 6896
  152.5189  134.3575  159.9325 H   0  0  0  0  0  0  0  0  0  0  0  0  # atno 6909 bound_to 6896
  145.7944  139.2950  143.1191 H   0  0  0  0  0  0  0  0  0  0  0  0  # atno 7974 bound_to 7965
  155.9207  140.3421  155.6171 H   0  0  0  0  0  0  0  0  0  0  0  0  # atno 8008 bound_to 7997
  155.7276  140.0791  157.2321 H   0  0  0  0  0  0  0  0  0  0  0  0  # atno 8009 bound_to 7997
  154.4069  140.1594  156.2460 H   0  0  0  0  0  0  0  0  0  0  0  0  # atno 8010 bound_to 7997
  139.8102  143.7713  152.2663 H   0  0  0  0  0  0  0  0  0  0  0  0  # atno 10167 bound_to 10162
  156.1073  130.4179  150.0694 H   0  0  0  0  0  0  0  0  0  0  0  0  # atno 10718 bound_to 10713
  154.3853  135.6065  153.5813 H   0  0  0  0  0  0  0  0  0  0  0  0  # atno 10763 bound_to 10752
  152.9788  135.5870  154.4362 H   0  0  0  0  0  0  0  0  0  0  0  0  # atno 10764 bound_to 10752
  154.4137  135.2844  155.1998 H   0  0  0  0  0  0  0  0  0  0  0  0  # atno 10765 bound_to 10752
  139.8937  134.8375  156.2761 H   0  0  0  0  0  0  0  0  0  0  0  0  # atno 11005 bound_to 11000
  145.9943  140.8575  143.0050 LP  0  0  0  0  0  0  0  0  0  0  0  0  # atno 17320 bound_to 7965
  144.6777  140.2261  143.7361 LP  0  0  0  0  0  0  0  0  0  0  0  0  # atno 17321 bound_to 7965
  139.7860  144.7427  151.0022 LP  0  0  0  0  0  0  0  0  0  0  0  0  # atno 17342 bound_to 10162
  140.7818  143.4492  151.0438 LP  0  0  0  0  0  0  0  0  0  0  0  0  # atno 17343 bound_to 10162
  156.8667  130.9510  151.3613 LP  0  0  0  0  0  0  0  0  0  0  0  0  # atno 17370 bound_to 10713
  157.6250  130.8685  149.9174 LP  0  0  0  0  0  0  0  0  0  0  0  0  # atno 17371 bound_to 10713
  141.0069  133.7118  156.1049 LP  0  0  0  0  0  0  0  0  0  0  0  0  # atno 17394 bound_to 11000
  140.7421  134.4139  157.5553 LP  0  0  0  0  0  0  0  0  0  0  0  0  # atno 17395 bound_to 11000

$$$$
