AV-unprocessed.smi:1952|AV-procd|sdf|7883|dock6
  -GOLD-   2272010 33D 1   1.00000     0.00000
 Structure written by MMmdl.
 39 40  0  0  0  0  0  0  0  0  1 V2000
  144.3824  143.7055  162.2085 C   0  0  0  0  0  0  0  0  0  0  0  0
  145.5810  143.6572  161.3243 C   0  0  0  0  0  0  0  0  0  0  0  0
  145.7417  143.4325  159.9859 C   0  0  0  0  0  0  0  0  0  0  0  0
  147.1476  143.5320  159.8111 C   0  0  0  0  0  0  0  0  0  0  0  0
  147.7353  143.3617  158.5317 N   0  0  0  0  0  0  0  0  0  0  0  0
  147.8717  142.2186  157.8386 C   0  0  0  0  0  0  0  0  0  0  0  0
  147.4920  141.1109  158.2191 O   0  0  0  0  0  0  0  0  0  0  0  0
  148.4776  142.4355  156.6613 N   0  0  0  0  0  0  0  0  0  0  0  0
  148.7615  141.4233  155.6451 C   0  0  2  0  0  0  0  0  0  0  0  0
  147.4998  141.1958  154.8019 C   0  0  0  0  0  0  0  0  0  0  0  0
  149.2287  140.1113  156.3123 C   0  0  0  0  0  0  0  0  0  0  0  0
  149.9534  139.1807  155.4458 N   0  0  0  0  0  0  0  0  0  0  0  0
  151.3595  139.5520  155.3336 C   0  0  0  0  0  0  0  0  0  0  0  0
  152.1352  138.5915  154.4155 C   0  0  0  0  0  0  0  0  0  0  0  0
  152.0015  137.2584  154.8974 O   0  0  0  0  0  0  0  0  0  0  0  0
  150.6434  136.8397  154.9841 C   0  0  0  0  0  0  0  0  0  0  0  0
  149.8661  137.7959  155.9048 C   0  0  0  0  0  0  0  0  0  0  0  0
  147.7876  143.7925  160.9408 N   0  0  0  0  0  0  0  0  0  0  0  0
  146.7868  143.8744  161.9162 O   0  0  0  0  0  0  0  0  0  0  0  0
  143.4796  143.4464  161.6555 H   0  0  0  0  0  0  0  0  0  0  0  0
  144.2494  144.7042  162.6246 H   0  0  0  0  0  0  0  0  0  0  0  0
  144.4843  143.0042  163.0367 H   0  0  0  0  0  0  0  0  0  0  0  0
  144.9748  143.2306  159.2528 H   0  0  0  0  0  0  0  0  0  0  0  0
  148.0890  144.2008  158.0969 H   0  0  0  0  0  0  0  0  0  0  0  0
  148.7500  143.3818  156.4395 H   0  0  0  0  0  0  0  0  0  0  0  0
  149.5321  141.7802  154.9612 H   0  0  0  0  0  0  0  0  0  0  0  0
  147.6810  140.4601  154.0178 H   0  0  0  0  0  0  0  0  0  0  0  0
  147.1789  142.1188  154.3178 H   0  0  0  0  0  0  0  0  0  0  0  0
  146.6719  140.8340  155.4125 H   0  0  0  0  0  0  0  0  0  0  0  0
  149.8690  140.3784  157.1545 H   0  0  0  0  0  0  0  0  0  0  0  0
  148.3678  139.6015  156.7473 H   0  0  0  0  0  0  0  0  0  0  0  0
  151.4449  140.5671  154.9447 H   0  0  0  0  0  0  0  0  0  0  0  0
  151.8211  139.5569  156.3223 H   0  0  0  0  0  0  0  0  0  0  0  0
  151.7661  138.6540  153.3908 H   0  0  0  0  0  0  0  0  0  0  0  0
  153.1918  138.8586  154.3935 H   0  0  0  0  0  0  0  0  0  0  0  0
  150.1975  136.8170  153.9884 H   0  0  0  0  0  0  0  0  0  0  0  0
  150.6073  135.8227  155.3749 H   0  0  0  0  0  0  0  0  0  0  0  0
  150.2565  137.7168  156.9206 H   0  0  0  0  0  0  0  0  0  0  0  0
  148.8276  137.4704  155.9443 H   0  0  0  0  0  0  0  0  0  0  0  0
  1  2  1  0  0  0  0
  1 20  1  0  0  0  0
  1 21  1  0  0  0  0
  1 22  1  0  0  0  0
  2 19  1  0  0  0  0
  2  3  2  0  0  0  0
  3  4  1  0  0  0  0
  3 23  1  0  0  0  0
  4  5  1  0  0  0  0
  4 18  2  0  0  0  0
  5  6  1  0  0  0  0
  5 24  1  0  0  0  0
  6  7  2  0  0  0  0
  6  8  1  0  0  0  0
  8  9  1  0  0  0  0
  8 25  1  0  0  0  0
  9 10  1  0  0  0  0
  9 11  1  0  0  0  0
  9 26  1  0  0  0  0
 10 27  1  0  0  0  0
 10 28  1  0  0  0  0
 10 29  1  0  0  0  0
 11 12  1  0  0  0  0
 11 30  1  0  0  0  0
 11 31  1  0  0  0  0
 12 17  1  0  0  0  0
 12 13  1  0  0  0  0
 13 14  1  0  0  0  0
 13 32  1  0  0  0  0
 13 33  1  0  0  0  0
 14 15  1  0  0  0  0
 14 34  1  0  0  0  0
 14 35  1  0  0  0  0
 15 16  1  0  0  0  0
 16 17  1  0  0  0  0
 16 36  1  0  0  0  0
 16 37  1  0  0  0  0
 17 38  1  0  0  0  0
 17 39  1  0  0  0  0
 18 19  1  0  0  0  0
M  END
> <s_m_source_file>
AV-unprocessed.smi

> <i_m_source_file_index>
1952

> <i_lp_mmshare_version>
43012

> <i_f3d_flags>
0

> <s_epik_input>
W0NIM11jMVtjSF1jKG5vMSlbTkhdQyg9TylbTkhdW0NASF0oW0NIM10pW0NIMl1OMltDSDJdW0NIMl1PW0NIMl1bQ0gyXTI=

> <s_epik_cmdline>
J2VwaWtfcHl0aG9uJywgJy1waCcsICc3LjAnLCAnLXRuJywgJzgnLCAnLW1hJywgJzIwMCcsICctbWV0YWxfYmluZGluZycsICctaW1hZScsICc8aW5maWxlLm1hZT4nLCAnLW9tYWUnLCAnPG91dGZpbGUubWFlPic=

> <r_epik_Ionization_Penalty>
0.214075

> <r_epik_Ionization_Penalty_Charging>
0

> <r_epik_Ionization_Penalty_Neutral>
0.214075

> <r_epik_State_Penalty>
0.204211

> <r_epik_Charging_Adjusted_Penalty>
0.204211

> <i_epik_Tot_Q>
0

> <i_epik_Tot_abs_Q>
0

> <r_epik_Metal_State_Penalty>
0.218782

> <b_epik_Metal_Only>
0

> <s_lp_Force_Field>
OPLS_2005

> <r_lp_Energy>
23.1599

> <b_lp_Chiralities_Consistent>
1

> <s_lp_Variant>
AV-unprocessed.smi:1952-1

> <Gold.Version>
5.8.1

> <Gold.Id.Protein>
6NUR|6NUR_protein|mol2

> <Gold.PLP.Fitness>
37.3061

> <Gold.PLP.PLP>
-28.2490

> <Gold.PLP.part.hbond>
-5.1651

> <Gold.PLP.part.metal>
0.0000

> <Gold.PLP.part.buried>
-5.9581

> <Gold.PLP.part.nonpolar>
-18.5790

> <Gold.PLP.part.repulsive>
0.4620

> <Gold.PLP.ligand.clash>
0.0000

> <Gold.PLP.ligand.torsion>
1.3927

> <Gold.PLP.Chemscore.Hbond>
3.9440

> <Gold.PLP.Chemscore.CHOScore>
0.0000

> <Gold.PLP.Chemscore.Metal>
0.0000

> <Gold.Chemscore.Hbonds>
donor molecule, donor type, donor heavy atom, donor atom, acceptor molecule, acceptor atom, score
      L1  H     5    24       P1  8029  1.00
      L1  H     8    25       P1  8028  1.00
      P1  H  6933  6944       L1    18  0.90
      P1  H 10752 10764       L1    15  0.88

> <Gold.PLP.Chemscore.Internal.Correction>
0.0105

> <Gold.Rescore>
     Score         DG    S(hbond)    S(metal)    S(lipo)     H(rot)  DE(clash)    DE(int)     intcor
     15.08     -17.77       3.01        0.00      53.23       1.56       0.00       2.69       ----

> <Gold.Chemscore.Fitness>
15.0766

> <Gold.Chemscore.DG>
-17.7663

> <Gold.Chemscore.ZeroCoef>
-5.4800

> <Gold.Chemscore.Hbond>
3.0094

> <Gold.Chemscore.Metal>
0.0000

> <Gold.Chemscore.Lipo>
53.2281

> <Gold.Chemscore.Internal_Hbond>
0.0000

> <Gold.Chemscore.DEClash>
0.0000

> <Gold.Chemscore.DEInternal>
2.6897

> <Gold.Chemscore.Rot>
1.5597

> <Gold.Chemscore.Internal.Correction>
   9.000000E+99

> <Gold.Chemscore.Hbonds>
donor molecule, donor type, donor heavy atom, donor atom, acceptor molecule, acceptor atom, score
      L1  H     5    24       P1  8029  0.25
      L1  H     8    25       P1  8028  0.84
      P1  H  6933  6944       L1    18  0.12
      P1  H 10752 10764       L1    15  0.34

> <Gold.Chemscore.Hbond.Weighted>
-10.0514

> <Gold.Chemscore.Metal.Weighted>
-0.0000

> <Gold.Chemscore.Lipo.Weighted>
-6.2277

> <Gold.Chemscore.Internal_Hbond.Weighted>
0.0000

> <Gold.Chemscore.DEClash.Weighted>
0.0000

> <Gold.Chemscore.DEInternal.Weighted>
2.6897

> <Gold.Chemscore.Rot.Weighted>
3.9928

> <Gold.Chemscore.Internal.Correction.Weighted>
   9.000000E+99

> <Gold.Protein.RotatedTorsions>
[ 6907 6896 6895 6894 ] final  122.82 input  -60.11 | X-H torsion
[ 7974 7965 7964 7962 ] final  146.61 input  175.53 | X-H torsion
[ 8008 7997 7996 7995 ] final  124.86 input   59.86 | X-H torsion
[ 10167 10162 10161 10158 ] final  167.47 input  -65.29 | X-H torsion
[ 10718 10713 10712 10709 ] final   52.42 input   66.30 | X-H torsion
[ 10763 10752 10751 10750 ] final  -59.38 input  -60.55 | X-H torsion
[ 11005 11000 10999 10996 ] final  -47.40 input  -57.11 | X-H torsion

> <Gold.Protein.ActiveResidues>
 VAL166  LYS551  ARG553  GLY616  TRP617  ASP618  TYR619  PRO620  LYS621  CYS622 
 ASP623  PHE694  ASN695  SER759  ASP760  ASP761  ALA762  ILE779  LEU786  VAL792 
 PHE793  MET794  SER795  GLU796  ALA797  LYS798  CYS799  TRP800  GLU811  SER814 

> <Gold.Protein.RotatedAtoms>
  152.4212  133.7119  159.6483 H   0  0  0  0  0  0  0  0  0  0  0  0  # atno 6907 bound_to 6896
  150.8088  133.8450  159.3198 H   0  0  0  0  0  0  0  0  0  0  0  0  # atno 6908 bound_to 6896
  151.6166  135.1038  160.0144 H   0  0  0  0  0  0  0  0  0  0  0  0  # atno 6909 bound_to 6896
  144.8657  139.5926  143.5910 H   0  0  0  0  0  0  0  0  0  0  0  0  # atno 7974 bound_to 7965
  156.2815  140.2730  156.1856 H   0  0  0  0  0  0  0  0  0  0  0  0  # atno 8008 bound_to 7997
  155.0511  140.0386  157.2562 H   0  0  0  0  0  0  0  0  0  0  0  0  # atno 8009 bound_to 7997
  154.7194  140.2685  155.6561 H   0  0  0  0  0  0  0  0  0  0  0  0  # atno 8010 bound_to 7997
  139.4946  144.3918  151.9508 H   0  0  0  0  0  0  0  0  0  0  0  0  # atno 10167 bound_to 10162
  157.5073  130.8477  149.8391 H   0  0  0  0  0  0  0  0  0  0  0  0  # atno 10718 bound_to 10713
  154.2528  135.6323  153.5246 H   0  0  0  0  0  0  0  0  0  0  0  0  # atno 10763 bound_to 10752
  152.9909  135.5569  154.5789 H   0  0  0  0  0  0  0  0  0  0  0  0  # atno 10764 bound_to 10752
  154.5320  135.2889  155.1147 H   0  0  0  0  0  0  0  0  0  0  0  0  # atno 10765 bound_to 10752
  141.0638  133.6700  156.3292 H   0  0  0  0  0  0  0  0  0  0  0  0  # atno 11005 bound_to 11000
  146.2894  139.7096  142.9172 LP  0  0  0  0  0  0  0  0  0  0  0  0  # atno 17320 bound_to 7965
  145.4226  141.0408  143.2955 LP  0  0  0  0  0  0  0  0  0  0  0  0  # atno 17321 bound_to 7965
  140.3356  144.3264  150.5978 LP  0  0  0  0  0  0  0  0  0  0  0  0  # atno 17342 bound_to 10162
  140.5609  143.2192  151.7767 LP  0  0  0  0  0  0  0  0  0  0  0  0  # atno 17343 bound_to 10162
  156.0266  130.3777  150.1805 LP  0  0  0  0  0  0  0  0  0  0  0  0  # atno 17370 bound_to 10713
  156.9994  130.9918  151.3394 LP  0  0  0  0  0  0  0  0  0  0  0  0  # atno 17371 bound_to 10713
  140.5815  134.5741  157.5480 LP  0  0  0  0  0  0  0  0  0  0  0  0  # atno 17394 bound_to 11000
  139.9457  134.7706  156.0568 LP  0  0  0  0  0  0  0  0  0  0  0  0  # atno 17395 bound_to 11000

$$$$
