AV-unprocessed.smi:655|AV-procd|sdf|3215|dock9
  -GOLD-   22720 0153D 1   1.00000     0.00000
 Structure written by MMmdl.
 35 36  0  0  0  0  0  0  0  0  1 V2000
  152.1638  145.1271  159.2712 C   0  0  0  0  0  0  0  0  0  0  0  0
  151.6460  143.6820  159.2541 C   0  0  2  0  0  0  0  0  0  0  0  0
  152.7610  142.6879  158.8846 C   0  0  0  0  0  0  0  0  0  0  0  0
  152.2496  141.2352  158.8642 C   0  0  0  0  0  0  0  0  0  0  0  0
  151.0323  141.0412  157.9275 C   0  0  2  0  0  0  0  0  0  0  0  0
  150.4640  139.7787  158.2226 O   0  0  0  0  0  0  0  0  0  0  0  0
  151.3581  141.0619  156.4034 C   0  0  0  0  0  0  0  0  0  0  0  0
  150.2588  140.7219  155.5193 N   0  0  0  0  0  0  0  0  0  0  0  0
  149.1736  141.5703  155.3516 C   0  0  0  0  0  0  0  0  0  0  0  0
  148.1321  141.3000  154.5286 C   0  0  0  0  0  0  0  0  0  0  0  0
  146.8173  142.4108  154.3827 Cl  0  0  0  0  0  0  0  0  0  0  0  0
  148.1153  140.0604  153.7547 C   0  0  0  0  0  0  0  0  0  0  0  0
  147.2237  139.7140  152.9823 O   0  0  0  0  0  0  0  0  0  0  0  0
  149.2303  139.2395  153.9437 N   0  0  0  0  0  0  0  0  0  0  0  0
  150.3086  139.5114  154.7860 C   0  0  0  0  0  0  0  0  0  0  0  0
  151.2370  138.7079  154.8547 O   0  0  0  0  0  0  0  0  0  0  0  0
  149.9352  142.0735  158.2821 C   0  0  0  0  0  0  0  0  0  0  0  0
  150.4534  143.5219  158.2948 C   0  0  0  0  0  0  0  0  0  0  0  0
  149.2596  138.3753  153.4221 H   0  0  0  0  0  0  0  0  0  0  0  0
  152.5191  145.4329  158.2867 H   0  0  0  0  0  0  0  0  0  0  0  0
  152.9903  145.2391  159.9735 H   0  0  0  0  0  0  0  0  0  0  0  0
  151.3798  145.8224  159.5723 H   0  0  0  0  0  0  0  0  0  0  0  0
  151.3027  143.4442  160.2620 H   0  0  0  0  0  0  0  0  0  0  0  0
  153.1724  142.9572  157.9136 H   0  0  0  0  0  0  0  0  0  0  0  0
  153.5832  142.7710  159.5961 H   0  0  0  0  0  0  0  0  0  0  0  0
  153.0587  140.5542  158.6016 H   0  0  0  0  0  0  0  0  0  0  0  0
  151.9634  140.9676  159.8827 H   0  0  0  0  0  0  0  0  0  0  0  0
  149.6166  139.7278  157.8080 H   0  0  0  0  0  0  0  0  0  0  0  0
  151.6655  142.0627  156.0936 H   0  0  0  0  0  0  0  0  0  0  0  0
  152.2060  140.4229  156.1541 H   0  0  0  0  0  0  0  0  0  0  0  0
  149.1540  142.4973  155.9069 H   0  0  0  0  0  0  0  0  0  0  0  0
  149.0952  141.9878  157.5916 H   0  0  0  0  0  0  0  0  0  0  0  0
  149.5314  141.8519  159.2714 H   0  0  0  0  0  0  0  0  0  0  0  0
  149.6462  144.1908  158.5951 H   0  0  0  0  0  0  0  0  0  0  0  0
  150.7395  143.8262  157.2877 H   0  0  0  0  0  0  0  0  0  0  0  0
  1  2  1  0  0  0  0
  1 20  1  0  0  0  0
  1 21  1  0  0  0  0
  1 22  1  0  0  0  0
  2 18  1  0  0  0  0
  2  3  1  0  0  0  0
  2 23  1  0  0  0  0
  3  4  1  0  0  0  0
  3 24  1  0  0  0  0
  3 25  1  0  0  0  0
  4  5  1  0  0  0  0
  4 26  1  0  0  0  0
  4 27  1  0  0  0  0
  5  6  1  0  0  0  0
  5  7  1  0  0  0  0
  5 17  1  0  0  0  0
  6 28  1  0  0  0  0
  7  8  1  0  0  0  0
  7 29  1  0  0  0  0
  7 30  1  0  0  0  0
  8 15  1  0  0  0  0
  8  9  1  0  0  0  0
  9 10  2  0  0  0  0
  9 31  1  0  0  0  0
 10 11  1  0  0  0  0
 10 12  1  0  0  0  0
 12 13  2  0  0  0  0
 12 14  1  0  0  0  0
 14 19  1  0  0  0  0
 14 15  1  0  0  0  0
 15 16  2  0  0  0  0
 17 18  1  0  0  0  0
 17 32  1  0  0  0  0
 17 33  1  0  0  0  0
 18 34  1  0  0  0  0
 18 35  1  0  0  0  0
M  END
> <s_m_source_file>
AV-unprocessed.smi

> <i_m_source_file_index>
655

> <i_lp_mmshare_version>
43012

> <i_f3d_flags>
0

> <s_epik_input>
W0NIMl0xW0NIMl1bQ0BIXShbQ0gzXSlbQ0gyXVtDSDJdW0NAQF0xKFtPSF0pW0NIMl1uMltjSF1jKENsKWMoPU8pW25IXWMyPU8=

> <s_epik_cmdline>
J2VwaWtfcHl0aG9uJywgJy1waCcsICc3LjAnLCAnLXRuJywgJzgnLCAnLW1hJywgJzIwMCcsICctbWV0YWxfYmluZGluZycsICctaW1hZScsICc8aW5maWxlLm1hZT4nLCAnLW9tYWUnLCAnPG91dGZpbGUubWFlPic=

> <r_lp_tautomer_probability>
0.999537

> <r_epik_Ionization_Penalty>
0.0114762

> <r_epik_Ionization_Penalty_Charging>
0.0114753

> <r_epik_Ionization_Penalty_Neutral>
8.25878e-07

> <r_epik_State_Penalty>
0.00883314

> <r_epik_Charging_Adjusted_Penalty>
0.0203085

> <i_epik_Tot_Q>
0

> <i_epik_Tot_abs_Q>
0

> <r_epik_Metal_State_Penalty>
1.64347

> <b_epik_Metal_Only>
0

> <s_lp_Force_Field>
OPLS_2005

> <r_lp_Energy>
18.8489

> <b_lp_Chiralities_Consistent>
1

> <s_lp_Variant>
AV-unprocessed.smi:655-2

> <Gold.Version>
5.8.1

> <Gold.Id.Protein>
6NUR|6NUR_protein|mol2

> <Gold.PLP.Fitness>
39.6421

> <Gold.PLP.PLP>
-36.8395

> <Gold.PLP.part.hbond>
-1.0000

> <Gold.PLP.part.metal>
0.0000

> <Gold.PLP.part.buried>
-3.0190

> <Gold.PLP.part.nonpolar>
-33.5030

> <Gold.PLP.part.repulsive>
1.2174

> <Gold.PLP.ligand.clash>
0.0000

> <Gold.PLP.ligand.torsion>
0.1048

> <Gold.PLP.Chemscore.Hbond>
0.0000

> <Gold.PLP.Chemscore.CHOScore>
1.0000

> <Gold.PLP.Chemscore.Metal>
0.0000

> <Gold.Chemscore.Hbonds>
donor molecule, donor type, donor heavy atom, donor atom, acceptor molecule, acceptor atom, score
      L1  C     9    31       P1  8028  1.00

> <Gold.PLP.Chemscore.Internal.Correction>
0.0122

> <Gold.Rescore>
     Score         DG    S(hbond)    S(metal)    S(lipo)     H(rot)  DE(clash)    DE(int)     intcor
     11.29     -11.84       0.00        0.00      94.66       1.84       0.17       0.38       ----

> <Gold.Chemscore.Fitness>
11.2892

> <Gold.Chemscore.DG>
-11.8383

> <Gold.Chemscore.ZeroCoef>
-5.4800

> <Gold.Chemscore.Hbond>
0.0000

> <Gold.Chemscore.Metal>
0.0000

> <Gold.Chemscore.Lipo>
94.6556

> <Gold.Chemscore.Internal_Hbond>
0.0000

> <Gold.Chemscore.DEClash>
0.1726

> <Gold.Chemscore.DEInternal>
0.3764

> <Gold.Chemscore.Rot>
1.8424

> <Gold.Chemscore.Internal.Correction>
   9.000000E+99

> <Gold.Chemscore.Hbond.Weighted>
-0.0000

> <Gold.Chemscore.Metal.Weighted>
-0.0000

> <Gold.Chemscore.Lipo.Weighted>
-11.0747

> <Gold.Chemscore.Internal_Hbond.Weighted>
0.0000

> <Gold.Chemscore.DEClash.Weighted>
0.1726

> <Gold.Chemscore.DEInternal.Weighted>
0.3764

> <Gold.Chemscore.Rot.Weighted>
4.7164

> <Gold.Chemscore.Internal.Correction.Weighted>
   9.000000E+99

> <Gold.Protein.RotatedTorsions>
[ 6907 6896 6895 6894 ] final  178.52 input  -60.11 | X-H torsion
[ 7974 7965 7964 7962 ] final  -19.34 input  175.53 | X-H torsion
[ 8008 7997 7996 7995 ] final    7.04 input   59.86 | X-H torsion
[ 10167 10162 10161 10158 ] final  174.00 input  -65.29 | X-H torsion
[ 10718 10713 10712 10709 ] final  -28.70 input   66.30 | X-H torsion
[ 10763 10752 10751 10750 ] final -141.35 input  -60.55 | X-H torsion
[ 11005 11000 10999 10996 ] final   27.28 input  -57.11 | X-H torsion

> <Gold.Protein.ActiveResidues>
 VAL166  LYS551  ARG553  GLY616  TRP617  ASP618  TYR619  PRO620  LYS621  CYS622 
 ASP623  PHE694  ASN695  SER759  ASP760  ASP761  ALA762  ILE779  LEU786  VAL792 
 PHE793  MET794  SER795  GLU796  ALA797  LYS798  CYS799  TRP800  GLU811  SER814 

> <Gold.Protein.RotatedAtoms>
  151.6865  133.3311  159.3231 H   0  0  0  0  0  0  0  0  0  0  0  0  # atno 6907 bound_to 6896
  150.7799  134.6736  159.6414 H   0  0  0  0  0  0  0  0  0  0  0  0  # atno 6908 bound_to 6896
  152.3853  134.6531  160.0180 H   0  0  0  0  0  0  0  0  0  0  0  0  # atno 6909 bound_to 6896
  146.1846  140.4048  142.8481 H   0  0  0  0  0  0  0  0  0  0  0  0  # atno 7974 bound_to 7965
  154.7487  140.2763  155.6311 H   0  0  0  0  0  0  0  0  0  0  0  0  # atno 8008 bound_to 7997
  156.2890  140.2683  156.2161 H   0  0  0  0  0  0  0  0  0  0  0  0  # atno 8009 bound_to 7997
  155.0165  140.0372  157.2410 H   0  0  0  0  0  0  0  0  0  0  0  0  # atno 8010 bound_to 7997
  139.5127  144.3196  152.0215 H   0  0  0  0  0  0  0  0  0  0  0  0  # atno 10167 bound_to 10162
  156.4218  130.4428  149.7178 H   0  0  0  0  0  0  0  0  0  0  0  0  # atno 10718 bound_to 10713
  154.8548  135.3527  154.5853 H   0  0  0  0  0  0  0  0  0  0  0  0  # atno 10763 bound_to 10752
  153.6464  135.6996  153.5228 H   0  0  0  0  0  0  0  0  0  0  0  0  # atno 10764 bound_to 10752
  153.2929  135.4229  155.1142 H   0  0  0  0  0  0  0  0  0  0  0  0  # atno 10765 bound_to 10752
  140.3280  134.2469  155.7706 H   0  0  0  0  0  0  0  0  0  0  0  0  # atno 11005 bound_to 11000
  144.8374  140.6804  143.6251 LP  0  0  0  0  0  0  0  0  0  0  0  0  # atno 17320 bound_to 7965
  145.3976  139.1604  143.4195 LP  0  0  0  0  0  0  0  0  0  0  0  0  # atno 17321 bound_to 7965
  140.2639  144.4038  150.6175 LP  0  0  0  0  0  0  0  0  0  0  0  0  # atno 17342 bound_to 10162
  140.6138  143.2171  151.6834 LP  0  0  0  0  0  0  0  0  0  0  0  0  # atno 17343 bound_to 10162
  156.4116  130.7725  151.2738 LP  0  0  0  0  0  0  0  0  0  0  0  0  # atno 17370 bound_to 10713
  157.7508  131.0210  150.3730 LP  0  0  0  0  0  0  0  0  0  0  0  0  # atno 17371 bound_to 10713
  141.2070  133.7817  157.0142 LP  0  0  0  0  0  0  0  0  0  0  0  0  # atno 17394 bound_to 11000
  140.0885  134.9606  157.1738 LP  0  0  0  0  0  0  0  0  0  0  0  0  # atno 17395 bound_to 11000

$$$$
