AV-unprocessed.smi:558|AV-procd|sdf|2922|dock5
  -GOLD-   2262023413D 1   1.00000     0.00000
 Structure written by MMmdl.
 36 37  0  0  0  0  0  0  0  0  1 V2000
  153.5808  142.4326  163.6731 C   0  0  0  0  0  0  0  0  0  0  0  0
  153.0577  142.5985  162.2769 C   0  0  0  0  0  0  0  0  0  0  0  0
  152.4613  143.7489  161.6895 C   0  0  0  0  0  0  0  0  0  0  0  0
  152.1647  143.3617  160.4132 C   0  0  0  0  0  0  0  0  0  0  0  0
  151.5210  144.1263  159.3033 C   0  0  0  0  0  0  0  0  0  0  0  0
  152.5767  142.0460  160.2866 N   0  0  0  0  0  0  0  0  0  0  0  0
  152.4768  141.1536  159.1393 C   0  0  0  0  0  0  0  0  0  0  0  0
  153.2318  139.8418  159.3747 C   0  0  0  0  0  0  0  0  0  0  0  0
  154.4574  139.8101  159.2695 O   0  0  0  0  0  0  0  0  0  0  0  0
  152.4896  138.7707  159.6928 N   0  0  0  0  0  0  0  0  0  0  0  0
  153.0091  137.4582  160.0509 C   0  0  0  0  0  0  0  0  0  0  0  0
  153.0543  137.3016  161.5797 C   0  0  2  0  0  0  0  0  0  0  0  0
  154.0434  138.2141  162.2801 C   0  0  0  0  0  0  0  0  0  0  0  0
  154.2127  137.5191  163.6276 C   0  0  0  0  0  0  0  0  0  0  0  0
  154.0156  136.1291  163.3795 O   0  0  0  0  0  0  0  0  0  0  0  0
  153.5339  135.9307  162.0535 C   0  0  0  0  0  0  0  0  0  0  0  0
  153.1252  141.5838  161.4317 N   0  0  0  0  0  0  0  0  0  0  0  0
  153.6067  143.3867  164.1998 H   0  0  0  0  0  0  0  0  0  0  0  0
  154.5935  142.0282  163.6698 H   0  0  0  0  0  0  0  0  0  0  0  0
  152.9512  141.7534  164.2484 H   0  0  0  0  0  0  0  0  0  0  0  0
  152.2775  144.7136  162.1389 H   0  0  0  0  0  0  0  0  0  0  0  0
  151.2430  145.1280  159.6312 H   0  0  0  0  0  0  0  0  0  0  0  0
  150.6167  143.6261  158.9573 H   0  0  0  0  0  0  0  0  0  0  0  0
  152.2000  144.2282  158.4564 H   0  0  0  0  0  0  0  0  0  0  0  0
  151.4282  140.9403  158.9317 H   0  0  0  0  0  0  0  0  0  0  0  0
  152.8766  141.6621  158.2605 H   0  0  0  0  0  0  0  0  0  0  0  0
  151.4888  138.8915  159.7461 H   0  0  0  0  0  0  0  0  0  0  0  0
  152.3671  136.6933  159.6124 H   0  0  0  0  0  0  0  0  0  0  0  0
  154.0077  137.3140  159.6343 H   0  0  0  0  0  0  0  0  0  0  0  0
  152.0605  137.4830  161.9932 H   0  0  0  0  0  0  0  0  0  0  0  0
  154.9937  138.2283  161.7443 H   0  0  0  0  0  0  0  0  0  0  0  0
  153.6910  139.2421  162.3747 H   0  0  0  0  0  0  0  0  0  0  0  0
  155.1889  137.7101  164.0739 H   0  0  0  0  0  0  0  0  0  0  0  0
  153.4484  137.8571  164.3283 H   0  0  0  0  0  0  0  0  0  0  0  0
  152.7451  135.1787  162.0247 H   0  0  0  0  0  0  0  0  0  0  0  0
  154.3614  135.5755  161.4380 H   0  0  0  0  0  0  0  0  0  0  0  0
  1  2  1  0  0  0  0
  1 18  1  0  0  0  0
  1 19  1  0  0  0  0
  1 20  1  0  0  0  0
  2 17  2  0  0  0  0
  2  3  1  0  0  0  0
  3  4  2  0  0  0  0
  3 21  1  0  0  0  0
  4  5  1  0  0  0  0
  4  6  1  0  0  0  0
  5 22  1  0  0  0  0
  5 23  1  0  0  0  0
  5 24  1  0  0  0  0
  6  7  1  0  0  0  0
  6 17  1  0  0  0  0
  7  8  1  0  0  0  0
  7 25  1  0  0  0  0
  7 26  1  0  0  0  0
  8  9  2  0  0  0  0
  8 10  1  0  0  0  0
 10 11  1  0  0  0  0
 10 27  1  0  0  0  0
 11 12  1  0  0  0  0
 11 28  1  0  0  0  0
 11 29  1  0  0  0  0
 12 16  1  0  0  0  0
 12 13  1  0  0  0  0
 12 30  1  0  0  0  0
 13 14  1  0  0  0  0
 13 31  1  0  0  0  0
 13 32  1  0  0  0  0
 14 15  1  0  0  0  0
 14 33  1  0  0  0  0
 14 34  1  0  0  0  0
 15 16  1  0  0  0  0
 16 35  1  0  0  0  0
 16 36  1  0  0  0  0
M  END
> <s_m_source_file>
AV-unprocessed.smi

> <i_m_source_file_index>
558

> <i_lp_mmshare_version>
43012

> <i_f3d_flags>
0

> <s_epik_input>
W0NIM11jMVtjSF1jKFtDSDNdKW4objEpW0NIMl1DKD1PKVtOSF1bQ0gyXVtDQEBIXTJbQ0gyXVtDSDJdT1tDSDJdMg==

> <s_epik_cmdline>
J2VwaWtfcHl0aG9uJywgJy1waCcsICc3LjAnLCAnLXRuJywgJzgnLCAnLW1hJywgJzIwMCcsICctbWV0YWxfYmluZGluZycsICctaW1hZScsICc8aW5maWxlLm1hZT4nLCAnLW9tYWUnLCAnPG91dGZpbGUubWFlPic=

> <r_lp_tautomer_probability>
1

> <r_epik_Ionization_Penalty>
0.000376629

> <r_epik_Ionization_Penalty_Charging>
0

> <r_epik_Ionization_Penalty_Neutral>
0.000376629

> <r_epik_State_Penalty>
-0

> <r_epik_Charging_Adjusted_Penalty>
0

> <i_epik_Tot_Q>
0

> <i_epik_Tot_abs_Q>
0

> <r_epik_Metal_State_Penalty>
-0

> <b_epik_Metal_Only>
0

> <s_lp_Force_Field>
OPLS_2005

> <r_lp_Energy>
17.1643

> <b_lp_Chiralities_Consistent>
1

> <s_lp_Variant>
AV-unprocessed.smi:558-1

> <Gold.Version>
5.8.1

> <Gold.Id.Protein>
6NUR|6NUR_protein|mol2

> <Gold.PLP.Fitness>
41.1705

> <Gold.PLP.PLP>
-39.1173

> <Gold.PLP.part.hbond>
-1.0000

> <Gold.PLP.part.metal>
0.0000

> <Gold.PLP.part.buried>
-5.6051

> <Gold.PLP.part.nonpolar>
-32.8740

> <Gold.PLP.part.repulsive>
0.1298

> <Gold.PLP.ligand.clash>
0.0000

> <Gold.PLP.ligand.torsion>
0.4786

> <Gold.PLP.Chemscore.Hbond>
1.0000

> <Gold.PLP.Chemscore.CHOScore>
0.0000

> <Gold.PLP.Chemscore.Metal>
0.0000

> <Gold.Chemscore.Hbonds>
donor molecule, donor type, donor heavy atom, donor atom, acceptor molecule, acceptor atom, score
      P1  H  7997  8010       L1     9  0.96

> <Gold.PLP.Chemscore.Internal.Correction>
0.0104

> <Gold.Rescore>
     Score         DG    S(hbond)    S(metal)    S(lipo)     H(rot)  DE(clash)    DE(int)     intcor
     15.84     -16.39       0.93        0.00     100.45       1.54       0.00       0.55       ----

> <Gold.Chemscore.Fitness>
15.8398

> <Gold.Chemscore.DG>
-16.3948

> <Gold.Chemscore.ZeroCoef>
-5.4800

> <Gold.Chemscore.Hbond>
0.9287

> <Gold.Chemscore.Metal>
0.0000

> <Gold.Chemscore.Lipo>
100.4450

> <Gold.Chemscore.Internal_Hbond>
0.0000

> <Gold.Chemscore.DEClash>
0.0029

> <Gold.Chemscore.DEInternal>
0.5522

> <Gold.Chemscore.Rot>
1.5387

> <Gold.Chemscore.Internal.Correction>
   9.000000E+99

> <Gold.Chemscore.Hbonds>
donor molecule, donor type, donor heavy atom, donor atom, acceptor molecule, acceptor atom, score
      P1  H  7997  8010       L1     9  0.79

> <Gold.Chemscore.Hbond.Weighted>
-3.1019

> <Gold.Chemscore.Metal.Weighted>
-0.0000

> <Gold.Chemscore.Lipo.Weighted>
-11.7521

> <Gold.Chemscore.Internal_Hbond.Weighted>
0.0000

> <Gold.Chemscore.DEClash.Weighted>
0.0029

> <Gold.Chemscore.DEInternal.Weighted>
0.5522

> <Gold.Chemscore.Rot.Weighted>
3.9392

> <Gold.Chemscore.Internal.Correction.Weighted>
   9.000000E+99

> <Gold.Protein.RotatedTorsions>
[ 6907 6896 6895 6894 ] final  -97.36 input  -60.11 | X-H torsion
[ 7974 7965 7964 7962 ] final  133.74 input  175.53 | X-H torsion
[ 8008 7997 7996 7995 ] final   -0.90 input   59.86 | X-H torsion
[ 10167 10162 10161 10158 ] final  -51.32 input  -65.29 | X-H torsion
[ 10718 10713 10712 10709 ] final -155.55 input   66.30 | X-H torsion
[ 10763 10752 10751 10750 ] final   99.95 input  -60.55 | X-H torsion
[ 11005 11000 10999 10996 ] final -129.70 input  -57.11 | X-H torsion

> <Gold.Protein.ActiveResidues>
 VAL166  LYS551  ARG553  GLY616  TRP617  ASP618  TYR619  PRO620  LYS621  CYS622 
 ASP623  PHE694  ASN695  SER759  ASP760  ASP761  ALA762  ILE779  LEU786  VAL792 
 PHE793  MET794  SER795  GLU796  ALA797  LYS798  CYS799  TRP800  GLU811  SER814 

> <Gold.Protein.RotatedAtoms>
  150.7014  134.1360  159.4087 H   0  0  0  0  0  0  0  0  0  0  0  0  # atno 6907 bound_to 6896
  151.9345  135.0239  160.0541 H   0  0  0  0  0  0  0  0  0  0  0  0  # atno 6908 bound_to 6896
  152.2147  133.4902  159.5166 H   0  0  0  0  0  0  0  0  0  0  0  0  # atno 6909 bound_to 6896
  144.9834  139.4480  143.5375 H   0  0  0  0  0  0  0  0  0  0  0  0  # atno 7974 bound_to 7965
  154.6528  140.2573  155.7194 H   0  0  0  0  0  0  0  0  0  0  0  0  # atno 8008 bound_to 7997
  156.2583  140.2864  156.0890 H   0  0  0  0  0  0  0  0  0  0  0  0  # atno 8009 bound_to 7997
  155.1425  140.0380  157.2792 H   0  0  0  0  0  0  0  0  0  0  0  0  # atno 8010 bound_to 7997
  140.6594  143.2624  151.4486 H   0  0  0  0  0  0  0  0  0  0  0  0  # atno 10167 bound_to 10162
  156.5144  130.8449  151.2658 H   0  0  0  0  0  0  0  0  0  0  0  0  # atno 10718 bound_to 10713
  153.3078  135.4096  155.1309 H   0  0  0  0  0  0  0  0  0  0  0  0  # atno 10763 bound_to 10752
  154.8567  135.3557  154.5764 H   0  0  0  0  0  0  0  0  0  0  0  0  # atno 10764 bound_to 10752
  153.6192  135.7065  153.5375 H   0  0  0  0  0  0  0  0  0  0  0  0  # atno 10765 bound_to 10752
  140.9409  134.1194  157.4151 H   0  0  0  0  0  0  0  0  0  0  0  0  # atno 11005 bound_to 11000
  146.3414  139.9121  142.8779 LP  0  0  0  0  0  0  0  0  0  0  0  0  # atno 17320 bound_to 7965
  145.2388  141.0001  143.3948 LP  0  0  0  0  0  0  0  0  0  0  0  0  # atno 17321 bound_to 7965
  139.5824  144.1680  152.1985 LP  0  0  0  0  0  0  0  0  0  0  0  0  # atno 17342 bound_to 10162
  140.1009  144.5540  150.6990 LP  0  0  0  0  0  0  0  0  0  0  0  0  # atno 17343 bound_to 10162
  157.7446  130.9938  150.2687 LP  0  0  0  0  0  0  0  0  0  0  0  0  # atno 17370 bound_to 10713
  156.3209  130.3786  149.7576 LP  0  0  0  0  0  0  0  0  0  0  0  0  # atno 17371 bound_to 10713
  139.8820  135.0036  156.6198 LP  0  0  0  0  0  0  0  0  0  0  0  0  # atno 17394 bound_to 11000
  140.7735  133.8718  155.8511 LP  0  0  0  0  0  0  0  0  0  0  0  0  # atno 17395 bound_to 11000

$$$$
