AV-unprocessed.smi:2588|AV-procd|sdf|10149|dock1
  -GOLD-   2272014163D 1   1.00000     0.00000
 Structure written by MMmdl.
 40 41  0  0  0  0  0  0  0  0  2 V2000
  148.5493  141.1741  154.0459 C   0  0  0  0  0  0  0  0  0  0  0  0
  147.1078  141.3029  153.5095 C   0  0  0  0  0  0  0  0  0  0  0  0
  146.3673  142.3565  154.3610 C   0  0  0  0  0  0  0  0  0  0  0  0
  146.3893  139.9865  153.4695 N   0  3  2  0  0  0  0  0  0  0  0  0
  146.4478  139.2406  154.7620 C   0  0  0  0  0  0  0  0  0  0  0  0
  145.6296  137.9354  154.7253 C   0  0  0  0  0  0  0  0  0  0  0  0
  146.0568  137.0161  153.5738 C   0  0  2  0  0  0  0  0  0  0  0  0
  147.3911  136.4738  153.8252 N   0  0  0  0  0  0  0  0  0  0  0  0
  147.7689  135.8094  154.9278 C   0  0  0  0  0  0  0  0  0  0  0  0
  147.0278  135.6196  155.8921 O   0  0  0  0  0  0  0  0  0  0  0  0
  149.2081  135.2838  154.9440 C   0  0  0  0  0  0  0  0  0  0  0  0
  149.2877  133.8982  154.4818 N   0  0  0  0  0  0  0  0  0  0  0  0
  148.6189  133.5568  153.3478 N   0  0  0  0  0  0  0  0  0  0  0  0
  148.7845  132.3188  153.0604 C   0  0  0  0  0  0  0  0  0  0  0  0
  149.8012  131.3890  154.1694 S   0  0  0  0  0  0  0  0  0  0  0  0
  150.0043  132.8875  155.1179 C   0  0  0  0  0  0  0  0  0  0  0  0
  150.6759  132.9561  156.1465 O   0  0  0  0  0  0  0  0  0  0  0  0
  145.9927  137.8176  152.2617 C   0  0  0  0  0  0  0  0  0  0  0  0
  146.8165  139.1149  152.3356 C   0  0  0  0  0  0  0  0  0  0  0  0
  149.0051  142.1550  154.1860 H   0  0  0  0  0  0  0  0  0  0  0  0
  149.2029  140.6393  153.3577 H   0  0  0  0  0  0  0  0  0  0  0  0
  148.5718  140.6627  155.0087 H   0  0  0  0  0  0  0  0  0  0  0  0
  147.1665  141.6836  152.4887 H   0  0  0  0  0  0  0  0  0  0  0  0
  146.9688  143.2582  154.4802 H   0  0  0  0  0  0  0  0  0  0  0  0
  146.1452  141.9775  155.3593 H   0  0  0  0  0  0  0  0  0  0  0  0
  145.4341  142.6816  153.9018 H   0  0  0  0  0  0  0  0  0  0  0  0
  147.4886  139.0297  155.0123 H   0  0  0  0  0  0  0  0  0  0  0  0
  146.0433  139.8400  155.5754 H   0  0  0  0  0  0  0  0  0  0  0  0
  145.7191  137.4118  155.6782 H   0  0  0  0  0  0  0  0  0  0  0  0
  144.5723  138.1807  154.6152 H   0  0  0  0  0  0  0  0  0  0  0  0
  145.3589  136.1789  153.5180 H   0  0  0  0  0  0  0  0  0  0  0  0
  148.0774  136.5954  153.0944 H   0  0  0  0  0  0  0  0  0  0  0  0
  149.8479  135.9060  154.3155 H   0  0  0  0  0  0  0  0  0  0  0  0
  149.5966  135.3697  155.9601 H   0  0  0  0  0  0  0  0  0  0  0  0
  148.3597  131.7946  152.2044 H   0  0  0  0  0  0  0  0  0  0  0  0
  146.3300  137.2123  151.4199 H   0  0  0  0  0  0  0  0  0  0  0  0
  144.9531  138.0688  152.0472 H   0  0  0  0  0  0  0  0  0  0  0  0
  146.6847  139.6231  151.3826 H   0  0  0  0  0  0  0  0  0  0  0  0
  147.8796  138.8866  152.4284 H   0  0  0  0  0  0  0  0  0  0  0  0
  145.4153  140.2011  153.3093 H   0  0  0  0  0  0  0  0  0  0  0  0
  1  2  1  0  0  0  0
  1 20  1  0  0  0  0
  1 21  1  0  0  0  0
  1 22  1  0  0  0  0
  2  3  1  0  0  0  0
  2  4  1  0  0  0  0
  2 23  1  0  0  0  0
  3 24  1  0  0  0  0
  3 25  1  0  0  0  0
  3 26  1  0  0  0  0
  4 19  1  0  0  0  0
  4  5  1  0  0  0  0
  4 40  1  0  0  0  0
  5  6  1  0  0  0  0
  5 27  1  0  0  0  0
  5 28  1  0  0  0  0
  6  7  1  0  0  0  0
  6 29  1  0  0  0  0
  6 30  1  0  0  0  0
  7  8  1  0  0  0  0
  7 18  1  0  0  0  0
  7 31  1  0  0  0  0
  8  9  1  0  0  0  0
  8 32  1  0  0  0  0
  9 10  2  0  0  0  0
  9 11  1  0  0  0  0
 11 12  1  0  0  0  0
 11 33  1  0  0  0  0
 11 34  1  0  0  0  0
 12 16  1  0  0  0  0
 12 13  1  0  0  0  0
 13 14  2  0  0  0  0
 14 15  1  0  0  0  0
 14 35  1  0  0  0  0
 15 16  1  0  0  0  0
 16 17  2  0  0  0  0
 18 19  1  0  0  0  0
 18 36  1  0  0  0  0
 18 37  1  0  0  0  0
 19 38  1  0  0  0  0
 19 39  1  0  0  0  0
M  CHG  1   4   1
M  END
> <s_m_source_file>
AV-unprocessed.smi

> <i_m_source_file_index>
2588

> <i_lp_mmshare_version>
43012

> <i_f3d_flags>
0

> <s_epik_input>
W0NIM11bQ0hdKFtDSDNdKU4xW0NIMl1bQ0gyXVtDSF0oW0NIMl1bQ0gyXTEpW05IXUMoPU8pW0NIMl1uMm5bY0hdc2MyPU8=

> <s_epik_cmdline>
J2VwaWtfcHl0aG9uJywgJy1waCcsICc3LjAnLCAnLXRuJywgJzgnLCAnLW1hJywgJzIwMCcsICctbWV0YWxfYmluZGluZycsICctaW1hZScsICc8aW5maWxlLm1hZT4nLCAnLW9tYWUnLCAnPG91dGZpbGUubWFlPic=

> <r_lp_tautomer_probability>
1

> <r_epik_Ionization_Penalty>
0.00923155

> <r_epik_Ionization_Penalty_Charging>
0.00923117

> <r_epik_Ionization_Penalty_Neutral>
3.88423e-07

> <r_epik_State_Penalty>
0.0069994

> <r_epik_Charging_Adjusted_Penalty>
0.0162306

> <i_epik_Tot_Q>
1

> <i_epik_Tot_abs_Q>
1

> <r_epik_Metal_State_Penalty>
0.0069994

> <b_epik_Metal_Only>
0

> <s_lp_Force_Field>
OPLS_2005

> <r_lp_Energy>
20.7245

> <b_lp_Chiralities_Consistent>
1

> <s_lp_Variant>
AV-unprocessed.smi:2588-2

> <Gold.Version>
5.8.1

> <Gold.Id.Protein>
6NUR|6NUR_protein|mol2

> <Gold.PLP.Fitness>
41.3097

> <Gold.PLP.PLP>
-30.7531

> <Gold.PLP.part.hbond>
-2.0000

> <Gold.PLP.part.metal>
0.0000

> <Gold.PLP.part.buried>
-4.0364

> <Gold.PLP.part.nonpolar>
-25.1838

> <Gold.PLP.part.repulsive>
0.3389

> <Gold.PLP.ligand.clash>
0.0000

> <Gold.PLP.ligand.torsion>
0.7405

> <Gold.PLP.Chemscore.Hbond>
3.0000

> <Gold.PLP.Chemscore.CHOScore>
1.0000

> <Gold.PLP.Chemscore.Metal>
0.0000

> <Gold.Chemscore.Hbonds>
donor molecule, donor type, donor heavy atom, donor atom, acceptor molecule, acceptor atom, score
      L1  H     4    40       P1 10175  2.00
      L1  H     8    32       P1  7948  1.00
      L1  C    14    35       P1 10747  1.00

> <Gold.PLP.Chemscore.Internal.Correction>
0.0376

> <Gold.Rescore>
     Score         DG    S(hbond)    S(metal)    S(lipo)     H(rot)  DE(clash)    DE(int)     intcor
     16.01     -17.34       2.97        0.00      57.74       1.88       0.08       1.25       ----

> <Gold.Chemscore.Fitness>
16.0091

> <Gold.Chemscore.DG>
-17.3379

> <Gold.Chemscore.ZeroCoef>
-5.4800

> <Gold.Chemscore.Hbond>
2.9653

> <Gold.Chemscore.Metal>
0.0000

> <Gold.Chemscore.Lipo>
57.7385

> <Gold.Chemscore.Internal_Hbond>
0.0000

> <Gold.Chemscore.DEClash>
0.0774

> <Gold.Chemscore.DEInternal>
1.2514

> <Gold.Chemscore.Rot>
1.8756

> <Gold.Chemscore.Internal.Correction>
   9.000000E+99

> <Gold.Chemscore.Hbonds>
donor molecule, donor type, donor heavy atom, donor atom, acceptor molecule, acceptor atom, score
      L1  H     4    40       P1 10175  0.99
      L1  H     8    32       P1  7948  0.95

> <Gold.Chemscore.Hbond.Weighted>
-9.9040

> <Gold.Chemscore.Metal.Weighted>
-0.0000

> <Gold.Chemscore.Lipo.Weighted>
-6.7554

> <Gold.Chemscore.Internal_Hbond.Weighted>
0.0000

> <Gold.Chemscore.DEClash.Weighted>
0.0774

> <Gold.Chemscore.DEInternal.Weighted>
1.2514

> <Gold.Chemscore.Rot.Weighted>
4.8015

> <Gold.Chemscore.Internal.Correction.Weighted>
   9.000000E+99

> <Gold.Protein.RotatedTorsions>
[ 6907 6896 6895 6894 ] final  -10.24 input  -60.11 | X-H torsion
[ 7974 7965 7964 7962 ] final -165.07 input  175.53 | X-H torsion
[ 8008 7997 7996 7995 ] final   71.77 input   59.86 | X-H torsion
[ 10167 10162 10161 10158 ] final -127.89 input  -65.29 | X-H torsion
[ 10718 10713 10712 10709 ] final   13.66 input   66.30 | X-H torsion
[ 10763 10752 10751 10750 ] final   -4.70 input  -60.55 | X-H torsion
[ 11005 11000 10999 10996 ] final  157.06 input  -57.11 | X-H torsion

> <Gold.Protein.ActiveResidues>
 VAL166  LYS551  ARG553  GLY616  TRP617  ASP618  TYR619  PRO620  LYS621  CYS622 
 ASP623  PHE694  ASN695  SER759  ASP760  ASP761  ALA762  ILE779  LEU786  VAL792 
 PHE793  MET794  SER795  GLU796  ALA797  LYS798  CYS799  TRP800  GLU811  SER814 

> <Gold.Protein.RotatedAtoms>
  151.4051  135.0977  159.9567 H   0  0  0  0  0  0  0  0  0  0  0  0  # atno 6907 bound_to 6896
  152.5038  133.8851  159.7376 H   0  0  0  0  0  0  0  0  0  0  0  0  # atno 6908 bound_to 6896
  150.9333  133.6684  159.2834 H   0  0  0  0  0  0  0  0  0  0  0  0  # atno 6909 bound_to 6896
  144.7280  140.2869  143.6227 H   0  0  0  0  0  0  0  0  0  0  0  0  # atno 7974 bound_to 7965
  155.7589  140.3487  155.5188 H   0  0  0  0  0  0  0  0  0  0  0  0  # atno 8008 bound_to 7997
  155.8933  140.1021  157.1424 H   0  0  0  0  0  0  0  0  0  0  0  0  # atno 8009 bound_to 7997
  154.4036  140.1300  156.4330 H   0  0  0  0  0  0  0  0  0  0  0  0  # atno 8010 bound_to 7997
  139.9561  143.6002  152.2460 H   0  0  0  0  0  0  0  0  0  0  0  0  # atno 10167 bound_to 10162
  157.0278  130.6180  149.5730 H   0  0  0  0  0  0  0  0  0  0  0  0  # atno 10718 bound_to 10713
  153.3884  135.7001  153.6513 H   0  0  0  0  0  0  0  0  0  0  0  0  # atno 10763 bound_to 10752
  153.5096  135.3635  155.2580 H   0  0  0  0  0  0  0  0  0  0  0  0  # atno 10764 bound_to 10752
  154.8700  135.4131  154.3196 H   0  0  0  0  0  0  0  0  0  0  0  0  # atno 10765 bound_to 10752
  140.1733  134.8527  157.2717 H   0  0  0  0  0  0  0  0  0  0  0  0  # atno 11005 bound_to 11000
  145.7894  139.1921  143.2111 LP  0  0  0  0  0  0  0  0  0  0  0  0  # atno 17320 bound_to 7965
  146.0768  140.7808  142.9661 LP  0  0  0  0  0  0  0  0  0  0  0  0  # atno 17321 bound_to 7965
  139.6590  144.7662  151.1999 LP  0  0  0  0  0  0  0  0  0  0  0  0  # atno 17342 bound_to 10162
  140.7568  143.6040  150.8672 LP  0  0  0  0  0  0  0  0  0  0  0  0  # atno 17343 bound_to 10162
  156.0080  130.5169  150.7894 LP  0  0  0  0  0  0  0  0  0  0  0  0  # atno 17370 bound_to 10713
  157.5201  131.0931  151.0090 LP  0  0  0  0  0  0  0  0  0  0  0  0  # atno 17371 bound_to 10713
  140.2351  134.3862  155.7504 LP  0  0  0  0  0  0  0  0  0  0  0  0  # atno 17394 bound_to 11000
  141.2219  133.7235  156.8702 LP  0  0  0  0  0  0  0  0  0  0  0  0  # atno 17395 bound_to 11000

$$$$
