AV-unprocessed.smi:3033|AV-procd|sdf|11576|dock9
  -GOLD-   2272016543D 1   1.00000     0.00000
 Structure written by MMmdl.
 32 33  0  0  0  0  0  0  0  0  2 V2000
  154.2258  140.7240  160.6769 C   0  0  0  0  0  0  0  0  0  0  0  0
  153.9973  142.1169  160.5196 O   0  0  0  0  0  0  0  0  0  0  0  0
  153.0182  142.5174  159.6357 C   0  0  0  0  0  0  0  0  0  0  0  0
  152.7789  143.9026  159.5302 C   0  0  0  0  0  0  0  0  0  0  0  0
  151.8015  144.3990  158.6476 C   0  0  0  0  0  0  0  0  0  0  0  0
  151.0466  143.5102  157.8610 C   0  0  0  0  0  0  0  0  0  0  0  0
  151.2645  142.1190  157.9580 C   0  0  0  0  0  0  0  0  0  0  0  0
  150.4653  141.1418  157.1078 C   0  0  1  0  0  0  0  0  0  0  0  0
  149.3539  141.7684  156.4961 O   0  0  0  0  0  0  0  0  0  0  0  0
  151.3504  140.5199  156.0071 C   0  0  0  0  0  0  0  0  0  0  0  0
  151.1036  139.0796  155.8457 N   0  0  0  0  0  0  0  0  0  0  0  0
  149.7721  138.6378  155.9194 C   0  0  0  0  0  0  0  0  0  0  0  0
  149.4408  137.3390  155.7840 C   0  0  0  0  0  0  0  0  0  0  0  0
  147.7943  136.8246  155.8818 Cl  0  0  0  0  0  0  0  0  0  0  0  0
  150.5172  136.3772  155.5540 C   0  0  0  0  0  0  0  0  0  0  0  0
  150.2496  135.1841  155.4197 O   0  0  0  0  0  0  0  0  0  0  0  0
  151.7947  136.8563  155.4986 N   0  5  0  0  0  0  0  0  0  0  0  0
  152.1119  138.1801  155.6425 C   0  0  0  0  0  0  0  0  0  0  0  0
  153.2732  138.5879  155.5984 O   0  0  0  0  0  0  0  0  0  0  0  0
  152.2520  141.6290  158.8393 C   0  0  0  0  0  0  0  0  0  0  0  0
  155.0249  140.5704  161.4018 H   0  0  0  0  0  0  0  0  0  0  0  0
  154.5384  140.2633  159.7387 H   0  0  0  0  0  0  0  0  0  0  0  0
  153.3379  140.2138  161.0523 H   0  0  0  0  0  0  0  0  0  0  0  0
  153.3539  144.5928  160.1298 H   0  0  0  0  0  0  0  0  0  0  0  0
  151.6325  145.4631  158.5730 H   0  0  0  0  0  0  0  0  0  0  0  0
  150.3030  143.9012  157.1819 H   0  0  0  0  0  0  0  0  0  0  0  0
  150.0775  140.3621  157.7648 H   0  0  0  0  0  0  0  0  0  0  0  0
  149.4947  142.7025  156.5095 H   0  0  0  0  0  0  0  0  0  0  0  0
  151.2265  141.0561  155.0647 H   0  0  0  0  0  0  0  0  0  0  0  0
  152.4024  140.6571  156.2655 H   0  0  0  0  0  0  0  0  0  0  0  0
  149.0426  139.4146  156.0969 H   0  0  0  0  0  0  0  0  0  0  0  0
  152.4085  140.5619  158.8863 H   0  0  0  0  0  0  0  0  0  0  0  0
  1  2  1  0  0  0  0
  1 21  1  0  0  0  0
  1 22  1  0  0  0  0
  1 23  1  0  0  0  0
  2  3  1  0  0  0  0
  3 20  1  0  0  0  0
  3  4  2  0  0  0  0
  4  5  1  0  0  0  0
  4 24  1  0  0  0  0
  5  6  2  0  0  0  0
  5 25  1  0  0  0  0
  6  7  1  0  0  0  0
  6 26  1  0  0  0  0
  7  8  1  0  0  0  0
  7 20  2  0  0  0  0
  8  9  1  0  0  0  0
  8 10  1  0  0  0  0
  8 27  1  0  0  0  0
  9 28  1  0  0  0  0
 10 11  1  0  0  0  0
 10 29  1  0  0  0  0
 10 30  1  0  0  0  0
 11 18  1  0  0  0  0
 11 12  1  0  0  0  0
 12 13  2  0  0  0  0
 12 31  1  0  0  0  0
 13 14  1  0  0  0  0
 13 15  1  0  0  0  0
 15 16  2  0  0  0  0
 15 17  1  0  0  0  0
 17 18  1  0  0  0  0
 18 19  2  0  0  0  0
 20 32  1  0  0  0  0
M  CHG  1  17  -1
M  END
> <s_m_source_file>
AV-unprocessed.smi

> <i_m_source_file_index>
3033

> <i_lp_mmshare_version>
43012

> <i_f3d_flags>
0

> <s_epik_input>
W0NIM11PYzFbY0hdW2NIXVtjSF1jKFtjSF0xKVtDQEhdKFtPSF0pW0NIMl1uMltjSF1jKENsKWMoPU8pW25IXWMyPU8=

> <s_epik_cmdline>
J2VwaWtfcHl0aG9uJywgJy1waCcsICc3LjAnLCAnLXRuJywgJzgnLCAnLW1hJywgJzIwMCcsICctbWV0YWxfYmluZGluZycsICctaW1hZScsICc8aW5maWxlLm1hZT4nLCAnLW9tYWUnLCAnPG91dGZpbGUubWFlPic=

> <r_lp_tautomer_probability>
1

> <r_epik_Ionization_Penalty>
1.7979

> <r_epik_Ionization_Penalty_Charging>
3.23819e-08

> <r_epik_Ionization_Penalty_Neutral>
1.7979

> <r_epik_State_Penalty>
1.91135

> <r_epik_Charging_Adjusted_Penalty>
1.91135

> <i_epik_Tot_Q>
-1

> <i_epik_Tot_abs_Q>
1

> <r_epik_Metal_State_Penalty>
0.014155

> <b_epik_Metal_Only>
0

> <s_lp_Force_Field>
OPLS_2005

> <r_lp_Energy>
25.1118

> <b_lp_Chiralities_Consistent>
1

> <s_lp_Variant>
AV-unprocessed.smi:3033-4

> <Gold.Version>
5.8.1

> <Gold.Id.Protein>
6NUR|6NUR_protein|mol2

> <Gold.PLP.Fitness>
48.8161

> <Gold.PLP.PLP>
-39.8910

> <Gold.PLP.part.hbond>
-3.0000

> <Gold.PLP.part.metal>
0.0000

> <Gold.PLP.part.buried>
-5.7572

> <Gold.PLP.part.nonpolar>
-32.5755

> <Gold.PLP.part.repulsive>
0.2791

> <Gold.PLP.ligand.clash>
0.0000

> <Gold.PLP.ligand.torsion>
1.0932

> <Gold.PLP.Chemscore.Hbond>
3.6960

> <Gold.PLP.Chemscore.CHOScore>
0.0000

> <Gold.PLP.Chemscore.Metal>
0.0000

> <Gold.Chemscore.Hbonds>
donor molecule, donor type, donor heavy atom, donor atom, acceptor molecule, acceptor atom, score
      L1  H     9    28       P1  8028  0.36
      P1  H  7997  8008       L1    19  0.91
      P1  H 10752 10763       L1    17  1.89

> <Gold.PLP.Chemscore.Internal.Correction>
0.0234

> <Gold.Rescore>
     Score         DG    S(hbond)    S(metal)    S(lipo)     H(rot)  DE(clash)    DE(int)     intcor
     17.00     -17.89       2.29        0.00      94.15       2.45       0.05       0.83       ----

> <Gold.Chemscore.Fitness>
17.0012

> <Gold.Chemscore.DG>
-17.8883

> <Gold.Chemscore.ZeroCoef>
-5.4800

> <Gold.Chemscore.Hbond>
2.2940

> <Gold.Chemscore.Metal>
0.0000

> <Gold.Chemscore.Lipo>
94.1542

> <Gold.Chemscore.Internal_Hbond>
0.0000

> <Gold.Chemscore.DEClash>
0.0545

> <Gold.Chemscore.DEInternal>
0.8325

> <Gold.Chemscore.Rot>
2.4491

> <Gold.Chemscore.Internal.Correction>
   9.000000E+99

> <Gold.Chemscore.Hbonds>
donor molecule, donor type, donor heavy atom, donor atom, acceptor molecule, acceptor atom, score
      L1  H     9    28       P1  8028  0.35
      P1  H  7997  8008       L1    19  0.86
      P1  H 10752 10763       L1    17  0.66

> <Gold.Chemscore.Hbond.Weighted>
-7.6618

> <Gold.Chemscore.Metal.Weighted>
-0.0000

> <Gold.Chemscore.Lipo.Weighted>
-11.0160

> <Gold.Chemscore.Internal_Hbond.Weighted>
0.0000

> <Gold.Chemscore.DEClash.Weighted>
0.0545

> <Gold.Chemscore.DEInternal.Weighted>
0.8325

> <Gold.Chemscore.Rot.Weighted>
6.2696

> <Gold.Chemscore.Internal.Correction.Weighted>
   9.000000E+99

> <Gold.Protein.RotatedTorsions>
[ 6907 6896 6895 6894 ] final   72.45 input  -60.11 | X-H torsion
[ 7974 7965 7964 7962 ] final  115.91 input  175.53 | X-H torsion
[ 8008 7997 7996 7995 ] final  -19.44 input   59.86 | X-H torsion
[ 10167 10162 10161 10158 ] final  133.61 input  -65.29 | X-H torsion
[ 10718 10713 10712 10709 ] final  145.47 input   66.30 | X-H torsion
[ 10763 10752 10751 10750 ] final   51.57 input  -60.55 | X-H torsion
[ 11005 11000 10999 10996 ] final  -43.43 input  -57.11 | X-H torsion

> <Gold.Protein.ActiveResidues>
 VAL166  LYS551  ARG553  GLY616  TRP617  ASP618  TYR619  PRO620  LYS621  CYS622 
 ASP623  PHE694  ASN695  SER759  ASP760  ASP761  ALA762  ILE779  LEU786  VAL792 
 PHE793  MET794  SER795  GLU796  ALA797  LYS798  CYS799  TRP800  GLU811  SER814 

> <Gold.Protein.RotatedAtoms>
  152.4868  134.4570  159.9592 H   0  0  0  0  0  0  0  0  0  0  0  0  # atno 6907 bound_to 6896
  151.4565  133.3598  159.2810 H   0  0  0  0  0  0  0  0  0  0  0  0  # atno 6908 bound_to 6896
  150.8986  134.8421  159.7404 H   0  0  0  0  0  0  0  0  0  0  0  0  # atno 6909 bound_to 6896
  145.1861  139.3024  143.4392 H   0  0  0  0  0  0  0  0  0  0  0  0  # atno 7974 bound_to 7965
  154.4837  140.2089  155.9705 H   0  0  0  0  0  0  0  0  0  0  0  0  # atno 8008 bound_to 7997
  156.1203  140.3214  155.8168 H   0  0  0  0  0  0  0  0  0  0  0  0  # atno 8009 bound_to 7997
  155.4479  140.0515  157.2995 H   0  0  0  0  0  0  0  0  0  0  0  0  # atno 8010 bound_to 7997
  139.5290  144.6607  151.5021 H   0  0  0  0  0  0  0  0  0  0  0  0  # atno 10167 bound_to 10162
  157.3448  131.0941  151.1051 H   0  0  0  0  0  0  0  0  0  0  0  0  # atno 10718 bound_to 10713
  152.9785  135.5841  154.4437 H   0  0  0  0  0  0  0  0  0  0  0  0  # atno 10763 bound_to 10752
  154.4035  135.2769  155.2084 H   0  0  0  0  0  0  0  0  0  0  0  0  # atno 10764 bound_to 10752
  154.3904  135.6126  153.5894 H   0  0  0  0  0  0  0  0  0  0  0  0  # atno 10765 bound_to 10752
  141.0383  133.6790  156.2731 H   0  0  0  0  0  0  0  0  0  0  0  0  # atno 11005 bound_to 11000
  146.3444  140.2057  142.8589 LP  0  0  0  0  0  0  0  0  0  0  0  0  # atno 17320 bound_to 7965
  145.0088  140.8696  143.5237 LP  0  0  0  0  0  0  0  0  0  0  0  0  # atno 17321 bound_to 7965
  140.6454  143.8805  150.6732 LP  0  0  0  0  0  0  0  0  0  0  0  0  # atno 17342 bound_to 10162
  140.2152  143.3852  152.1686 LP  0  0  0  0  0  0  0  0  0  0  0  0  # atno 17343 bound_to 10162
  157.2249  130.6498  149.5826 LP  0  0  0  0  0  0  0  0  0  0  0  0  # atno 17370 bound_to 10713
  155.9713  130.4617  150.6120 LP  0  0  0  0  0  0  0  0  0  0  0  0  # atno 17371 bound_to 10713
  140.6282  134.5292  157.5556 LP  0  0  0  0  0  0  0  0  0  0  0  0  # atno 17394 bound_to 11000
  139.9257  134.8061  156.1077 LP  0  0  0  0  0  0  0  0  0  0  0  0  # atno 17395 bound_to 11000

$$$$
