AV-unprocessed.smi:2226|AV-procd|sdf|9006|dock1
  -GOLD-   2272012213D 1   1.00000     0.00000
 Structure written by MMmdl.
 41 43  0  0  0  0  0  0  0  0  3 V2000
  145.6784  132.8450  153.4096 C   0  0  0  0  0  0  0  0  0  0  0  0
  145.1670  132.5351  152.0533 N   0  3  2  0  0  0  0  0  0  0  0  0
  146.0965  132.8629  150.9449 C   0  0  1  0  0  0  0  0  0  0  0  0
  145.6479  132.0992  149.6765 C   0  0  0  0  0  0  0  0  0  0  0  0
  144.1669  132.3187  149.3036 C   0  0  0  0  0  0  0  0  0  0  0  0
  143.2384  132.3145  150.5358 C   0  0  0  0  0  0  0  0  0  0  0  0
  143.8139  133.0667  151.7590 C   0  0  2  0  0  0  0  0  0  0  0  0
  143.8312  134.6110  151.6253 C   0  0  0  0  0  0  0  0  0  0  0  0
  144.9026  135.1596  150.6549 C   0  0  1  0  0  0  0  0  0  0  0  0
  145.1265  136.5804  150.9269 N   0  0  0  0  0  0  0  0  0  0  0  0
  145.9105  137.0800  151.8962 C   0  0  0  0  0  0  0  0  0  0  0  0
  146.5482  136.3860  152.6884 O   0  0  0  0  0  0  0  0  0  0  0  0
  145.9112  138.4223  151.8918 N   0  0  0  0  0  0  0  0  0  0  0  0
  146.6339  139.2485  152.7839 C   0  0  0  0  0  0  0  0  0  0  0  0
  146.1648  140.3874  153.2914 N   0  3  0  0  0  0  0  0  0  0  0  0
  147.1206  140.9298  154.1143 C   0  0  0  0  0  0  0  0  0  0  0  0
  148.1843  140.0606  154.0748 C   0  0  0  0  0  0  0  0  0  0  0  0
  147.8934  138.9984  153.2424 O   0  0  0  0  0  0  0  0  0  0  0  0
  146.2422  134.3957  150.7653 C   0  0  0  0  0  0  0  0  0  0  0  0
  145.8281  133.9134  153.5616 H   0  0  0  0  0  0  0  0  0  0  0  0
  146.6310  132.3428  153.5794 H   0  0  0  0  0  0  0  0  0  0  0  0
  144.9802  132.4903  154.1682 H   0  0  0  0  0  0  0  0  0  0  0  0
  147.0806  132.4717  151.2081 H   0  0  0  0  0  0  0  0  0  0  0  0
  146.2883  132.3536  148.8312 H   0  0  0  0  0  0  0  0  0  0  0  0
  145.7980  131.0330  149.8517 H   0  0  0  0  0  0  0  0  0  0  0  0
  144.0495  133.2417  148.7429 H   0  0  0  0  0  0  0  0  0  0  0  0
  143.8496  131.5401  148.6089 H   0  0  0  0  0  0  0  0  0  0  0  0
  142.2595  132.7135  150.2680 H   0  0  0  0  0  0  0  0  0  0  0  0
  143.0663  131.2770  150.8259 H   0  0  0  0  0  0  0  0  0  0  0  0
  143.1680  132.8211  152.6035 H   0  0  0  0  0  0  0  0  0  0  0  0
  142.8453  134.9696  151.3268 H   0  0  0  0  0  0  0  0  0  0  0  0
  144.0014  135.0334  152.6165 H   0  0  0  0  0  0  0  0  0  0  0  0
  144.5310  135.0521  149.6399 H   0  0  0  0  0  0  0  0  0  0  0  0
  144.6439  137.2336  150.3267 H   0  0  0  0  0  0  0  0  0  0  0  0
  145.2631  140.8167  153.1254 H   0  0  0  0  0  0  0  0  0  0  0  0
  146.9526  141.8613  154.6357 H   0  0  0  0  0  0  0  0  0  0  0  0
  149.1564  140.0489  154.5464 H   0  0  0  0  0  0  0  0  0  0  0  0
  146.8019  134.7834  151.6175 H   0  0  0  0  0  0  0  0  0  0  0  0
  146.8620  134.6109  149.8941 H   0  0  0  0  0  0  0  0  0  0  0  0
  145.0726  131.5292  152.0406 H   0  0  0  0  0  0  0  0  0  0  0  0
  145.3509  138.8920  151.1960 H   0  0  0  0  0  0  0  0  0  0  0  0
  1  2  1  0  0  0  0
  1 20  1  0  0  0  0
  1 21  1  0  0  0  0
  1 22  1  0  0  0  0
  2  7  1  0  0  0  0
  2  3  1  0  0  0  0
  2 40  1  0  0  0  0
  3 19  1  0  0  0  0
  3  4  1  0  0  0  0
  3 23  1  0  0  0  0
  4  5  1  0  0  0  0
  4 24  1  0  0  0  0
  4 25  1  0  0  0  0
  5  6  1  0  0  0  0
  5 26  1  0  0  0  0
  5 27  1  0  0  0  0
  6  7  1  0  0  0  0
  6 28  1  0  0  0  0
  6 29  1  0  0  0  0
  7  8  1  0  0  0  0
  7 30  1  0  0  0  0
  8  9  1  0  0  0  0
  8 31  1  0  0  0  0
  8 32  1  0  0  0  0
  9 10  1  0  0  0  0
  9 19  1  0  0  0  0
  9 33  1  0  0  0  0
 10 34  1  0  0  0  0
 10 11  1  0  0  0  0
 11 13  1  0  0  0  0
 11 12  2  0  0  0  0
 13 14  1  0  0  0  0
 13 41  1  0  0  0  0
 14 18  1  0  0  0  0
 14 15  2  0  0  0  0
 15 35  1  0  0  0  0
 15 16  1  0  0  0  0
 16 36  1  0  0  0  0
 16 17  2  0  0  0  0
 17 37  1  0  0  0  0
 17 18  1  0  0  0  0
 19 38  1  0  0  0  0
 19 39  1  0  0  0  0
M  CHG  1   2   1
M  CHG  1  15   1
M  END
> <s_m_source_file>
AV-unprocessed.smi

> <i_m_source_file_index>
2226

> <i_lp_mmshare_version>
43012

> <i_f3d_flags>
0

> <s_epik_input>
W0NIMl0xW0NIMl1bQ0gyXVtDQEhdKE4oW0NIM10pW0NIXTEyKVtDSDJdW0NASF0oW0NIMl0yKVtOSF1DKD1PKVtOSF1jM25bY0hdW2NIXW8z

> <s_epik_cmdline>
J2VwaWtfcHl0aG9uJywgJy1waCcsICc3LjAnLCAnLXRuJywgJzgnLCAnLW1hJywgJzIwMCcsICctbWV0YWxfYmluZGluZycsICctaW1hZScsICc8aW5maWxlLm1hZT4nLCAnLW9tYWUnLCAnPG91dGZpbGUubWFlPic=

> <r_epik_Ionization_Penalty>
6.92532

> <r_epik_Ionization_Penalty_Charging>
6.82059

> <r_epik_Ionization_Penalty_Neutral>
0.104727

> <r_epik_State_Penalty>
2.17671

> <r_epik_Charging_Adjusted_Penalty>
8.99731

> <i_epik_Tot_Q>
2

> <i_epik_Tot_abs_Q>
2

> <r_epik_Metal_State_Penalty>
2.20618

> <b_epik_Metal_Only>
0

> <s_lp_Force_Field>
OPLS_2005

> <r_lp_Energy>
47.1954

> <b_lp_Chiralities_Consistent>
1

> <s_lp_Variant>
AV-unprocessed.smi:2226-6

> <Gold.Version>
5.8.1

> <Gold.Id.Protein>
6NUR|6NUR_protein|mol2

> <Gold.PLP.Fitness>
40.3430

> <Gold.PLP.PLP>
-30.6642

> <Gold.PLP.part.hbond>
-3.8934

> <Gold.PLP.part.metal>
0.0000

> <Gold.PLP.part.buried>
-3.9842

> <Gold.PLP.part.nonpolar>
-28.2688

> <Gold.PLP.part.repulsive>
5.1478

> <Gold.PLP.ligand.clash>
0.0000

> <Gold.PLP.ligand.torsion>
0.5644

> <Gold.PLP.Chemscore.Hbond>
3.6003

> <Gold.PLP.Chemscore.CHOScore>
0.0000

> <Gold.PLP.Chemscore.Metal>
0.0000

> <Gold.Chemscore.Hbonds>
donor molecule, donor type, donor heavy atom, donor atom, acceptor molecule, acceptor atom, score
      L1  H    10    34       P1 10171  1.00
      L1  H    13    41       P1 10171  0.87
      L1  H    15    35       P1 10175  1.73

> <Gold.PLP.Chemscore.Internal.Correction>
0.0066

> <Gold.Rescore>
     Score         DG    S(hbond)    S(metal)    S(lipo)     H(rot)  DE(clash)    DE(int)     intcor
     16.67     -21.26       2.66        0.00      80.78       1.00       1.85       2.75       ----

> <Gold.Chemscore.Fitness>
16.6718

> <Gold.Chemscore.DG>
-21.2621

> <Gold.Chemscore.ZeroCoef>
-5.4800

> <Gold.Chemscore.Hbond>
2.6618

> <Gold.Chemscore.Metal>
0.0000

> <Gold.Chemscore.Lipo>
80.7847

> <Gold.Chemscore.Internal_Hbond>
0.0000

> <Gold.Chemscore.DEClash>
1.8450

> <Gold.Chemscore.DEInternal>
2.7453

> <Gold.Chemscore.Rot>
1.0000

> <Gold.Chemscore.Internal.Correction>
   9.000000E+99

> <Gold.Chemscore.Hbonds>
donor molecule, donor type, donor heavy atom, donor atom, acceptor molecule, acceptor atom, score
      L1  H    10    34       P1 10171  0.99
      L1  H    13    41       P1 10171  0.80
      L1  H    15    35       P1 10175  0.55

> <Gold.Chemscore.Hbond.Weighted>
-8.8903

> <Gold.Chemscore.Metal.Weighted>
-0.0000

> <Gold.Chemscore.Lipo.Weighted>
-9.4518

> <Gold.Chemscore.Internal_Hbond.Weighted>
0.0000

> <Gold.Chemscore.DEClash.Weighted>
1.8450

> <Gold.Chemscore.DEInternal.Weighted>
2.7453

> <Gold.Chemscore.Rot.Weighted>
2.5600

> <Gold.Chemscore.Internal.Correction.Weighted>
   9.000000E+99

> <Gold.Protein.RotatedTorsions>
[ 6907 6896 6895 6894 ] final  -54.80 input  -60.11 | X-H torsion
[ 7974 7965 7964 7962 ] final   12.93 input  175.53 | X-H torsion
[ 8008 7997 7996 7995 ] final  -82.63 input   59.86 | X-H torsion
[ 10167 10162 10161 10158 ] final  -68.17 input  -65.29 | X-H torsion
[ 10718 10713 10712 10709 ] final   70.78 input   66.30 | X-H torsion
[ 10763 10752 10751 10750 ] final  -48.42 input  -60.55 | X-H torsion
[ 11005 11000 10999 10996 ] final  136.19 input  -57.11 | X-H torsion

> <Gold.Protein.ActiveResidues>
 VAL166  LYS551  ARG553  GLY616  TRP617  ASP618  TYR619  PRO620  LYS621  CYS622 
 ASP623  PHE694  ASN695  SER759  ASP760  ASP761  ALA762  ILE779  LEU786  VAL792 
 PHE793  MET794  SER795  GLU796  ALA797  LYS798  CYS799  TRP800  GLU811  SER814 

> <Gold.Protein.RotatedAtoms>
  150.8306  134.7558  159.6850 H   0  0  0  0  0  0  0  0  0  0  0  0  # atno 6907 bound_to 6896
  152.4411  134.5585  159.9897 H   0  0  0  0  0  0  0  0  0  0  0  0  # atno 6908 bound_to 6896
  151.5747  133.3348  159.3032 H   0  0  0  0  0  0  0  0  0  0  0  0  # atno 6909 bound_to 6896
  146.2340  139.9263  142.8502 H   0  0  0  0  0  0  0  0  0  0  0  0  # atno 7974 bound_to 7965
  154.6106  140.0630  156.9488 H   0  0  0  0  0  0  0  0  0  0  0  0  # atno 8008 bound_to 7997
  155.1980  140.3312  155.4329 H   0  0  0  0  0  0  0  0  0  0  0  0  # atno 8009 bound_to 7997
  156.2374  140.1869  156.7065 H   0  0  0  0  0  0  0  0  0  0  0  0  # atno 8010 bound_to 7997
  140.5527  143.2312  151.6880 H   0  0  0  0  0  0  0  0  0  0  0  0  # atno 10167 bound_to 10162
  157.6417  130.9494  150.0697 H   0  0  0  0  0  0  0  0  0  0  0  0  # atno 10718 bound_to 10713
  154.0775  135.6596  153.4833 H   0  0  0  0  0  0  0  0  0  0  0  0  # atno 10763 bound_to 10752
  153.0368  135.5172  154.7506 H   0  0  0  0  0  0  0  0  0  0  0  0  # atno 10764 bound_to 10752
  154.6591  135.3012  154.9857 H   0  0  0  0  0  0  0  0  0  0  0  0  # atno 10765 bound_to 10752
  140.0029  134.9471  157.0112 H   0  0  0  0  0  0  0  0  0  0  0  0  # atno 11005 bound_to 11000
  145.2087  140.9886  143.4113 LP  0  0  0  0  0  0  0  0  0  0  0  0  # atno 17320 bound_to 7965
  144.9710  139.3880  143.6309 LP  0  0  0  0  0  0  0  0  0  0  0  0  # atno 17321 bound_to 7965
  139.5034  144.3791  152.0394 LP  0  0  0  0  0  0  0  0  0  0  0  0  # atno 17342 bound_to 10162
  140.2910  144.3754  150.6089 LP  0  0  0  0  0  0  0  0  0  0  0  0  # atno 17343 bound_to 10162
  156.1705  130.3646  149.9172 LP  0  0  0  0  0  0  0  0  0  0  0  0  # atno 17370 bound_to 10713
  156.7148  130.8984  151.3613 LP  0  0  0  0  0  0  0  0  0  0  0  0  # atno 17371 bound_to 10713
  140.4694  134.1402  155.7201 LP  0  0  0  0  0  0  0  0  0  0  0  0  # atno 17394 bound_to 11000
  141.1655  133.8710  157.1725 LP  0  0  0  0  0  0  0  0  0  0  0  0  # atno 17395 bound_to 11000

$$$$
