AV-unprocessed.smi:1950|AV-procd|sdf|7880|dock7
  -GOLD-   2272010 33D 1   1.00000     0.00000
 Structure written by MMmdl.
 32 33  0  0  0  0  0  0  0  0  2 V2000
  152.9645  142.5867  162.1745 C   0  0  0  0  0  0  0  0  0  0  0  0
  152.2548  143.3817  161.0762 C   0  0  0  0  0  0  0  0  0  0  0  0
  151.4190  144.2189  161.4179 O   0  0  0  0  0  0  0  0  0  0  0  0
  152.5650  143.1429  159.7791 N   0  0  0  0  0  0  0  0  0  0  0  0
  153.5127  142.1000  159.3682 C   0  0  0  0  0  0  0  0  0  0  0  0
  152.7387  140.9700  158.6652 C   0  0  0  0  0  0  0  0  0  0  0  0
  151.9178  141.5073  157.4737 C   0  0  0  0  0  0  0  0  0  0  0  0
  151.0670  140.4442  156.9452 N   0  0  0  0  0  0  0  0  0  0  0  0
  150.9301  140.1097  155.6539 C   0  0  0  0  0  0  0  0  0  0  0  0
  151.5533  140.7281  154.7878 O   0  0  0  0  0  0  0  0  0  0  0  0
  150.0798  139.0785  155.4457 N   0  5  0  0  0  0  0  0  0  0  0  0
  149.0797  139.2007  154.5573 C   0  0  0  0  0  0  0  0  0  0  0  0
  148.4339  138.1371  154.0529 N   0  0  0  0  0  0  0  0  0  0  0  0
  147.4390  138.4809  153.1476 N   0  0  0  0  0  0  0  0  0  0  0  0
  147.3642  139.8016  152.9865 C   0  0  0  0  0  0  0  0  0  0  0  0
  148.5050  140.7448  153.9215 S   0  0  0  0  0  0  0  0  0  0  0  0
  151.0709  142.7337  157.8841 C   0  0  0  0  0  0  0  0  0  0  0  0
  151.9257  143.7801  158.6208 C   0  0  0  0  0  0  0  0  0  0  0  0
  154.0439  142.7313  162.1218 H   0  0  0  0  0  0  0  0  0  0  0  0
  152.7433  141.5228  162.0850 H   0  0  0  0  0  0  0  0  0  0  0  0
  152.6331  142.9139  163.1606 H   0  0  0  0  0  0  0  0  0  0  0  0
  154.2497  142.5292  158.6880 H   0  0  0  0  0  0  0  0  0  0  0  0
  154.0826  141.6928  160.2043 H   0  0  0  0  0  0  0  0  0  0  0  0
  153.4320  140.2002  158.3244 H   0  0  0  0  0  0  0  0  0  0  0  0
  152.0746  140.4907  159.3864 H   0  0  0  0  0  0  0  0  0  0  0  0
  152.6238  141.8175  156.7011 H   0  0  0  0  0  0  0  0  0  0  0  0
  150.5351  139.9113  157.6176 H   0  0  0  0  0  0  0  0  0  0  0  0
  146.6355  140.2225  152.3100 H   0  0  0  0  0  0  0  0  0  0  0  0
  150.6108  143.1851  157.0045 H   0  0  0  0  0  0  0  0  0  0  0  0
  150.2522  142.4180  158.5327 H   0  0  0  0  0  0  0  0  0  0  0  0
  151.3124  144.6422  158.8782 H   0  0  0  0  0  0  0  0  0  0  0  0
  152.6982  144.1635  157.9528 H   0  0  0  0  0  0  0  0  0  0  0  0
  1  2  1  0  0  0  0
  1 19  1  0  0  0  0
  1 20  1  0  0  0  0
  1 21  1  0  0  0  0
  2  3  2  0  0  0  0
  2  4  1  0  0  0  0
  4 18  1  0  0  0  0
  4  5  1  0  0  0  0
  5  6  1  0  0  0  0
  5 22  1  0  0  0  0
  5 23  1  0  0  0  0
  6  7  1  0  0  0  0
  6 24  1  0  0  0  0
  6 25  1  0  0  0  0
  7  8  1  0  0  0  0
  7 17  1  0  0  0  0
  7 26  1  0  0  0  0
  8  9  1  0  0  0  0
  8 27  1  0  0  0  0
  9 10  2  0  0  0  0
  9 11  1  0  0  0  0
 11 12  1  0  0  0  0
 12 16  1  0  0  0  0
 12 13  2  0  0  0  0
 13 14  1  0  0  0  0
 14 15  2  0  0  0  0
 15 16  1  0  0  0  0
 15 28  1  0  0  0  0
 17 18  1  0  0  0  0
 17 29  1  0  0  0  0
 17 30  1  0  0  0  0
 18 31  1  0  0  0  0
 18 32  1  0  0  0  0
M  CHG  1  11  -1
M  END
> <s_m_source_file>
AV-unprocessed.smi

> <i_m_source_file_index>
1950

> <i_lp_mmshare_version>
43012

> <i_f3d_flags>
0

> <s_epik_input>
W0NIM11DKD1PKU4xW0NIMl1bQ0gyXVtDSF0oW0NIMl1bQ0gyXTEpW05IXUMoPU8pW05IXWMybm5bY0hdczI=

> <s_epik_cmdline>
J2VwaWtfcHl0aG9uJywgJy1waCcsICc3LjAnLCAnLXRuJywgJzgnLCAnLW1hJywgJzIwMCcsICctbWV0YWxfYmluZGluZycsICctaW1hZScsICc8aW5maWxlLm1hZT4nLCAnLW9tYWUnLCAnPG91dGZpbGUubWFlPic=

> <r_lp_tautomer_probability>
1

> <r_epik_Ionization_Penalty>
3.45176

> <r_epik_Ionization_Penalty_Charging>
3.40771

> <r_epik_Ionization_Penalty_Neutral>
0.0440522

> <r_epik_State_Penalty>
3.40583

> <r_epik_Charging_Adjusted_Penalty>
6.81354

> <i_epik_Tot_Q>
-1

> <i_epik_Tot_abs_Q>
1

> <r_epik_Metal_State_Penalty>
0.49593

> <b_epik_Metal_Only>
1

> <s_lp_Force_Field>
OPLS_2005

> <r_lp_Energy>
20.3266

> <b_lp_Chiralities_Consistent>
1

> <s_lp_Variant>
AV-unprocessed.smi:1950-2

> <Gold.Version>
5.8.1

> <Gold.Id.Protein>
6NUR|6NUR_protein|mol2

> <Gold.PLP.Fitness>
38.6382

> <Gold.PLP.PLP>
-34.1280

> <Gold.PLP.part.hbond>
-1.0000

> <Gold.PLP.part.metal>
0.0000

> <Gold.PLP.part.buried>
-5.3521

> <Gold.PLP.part.nonpolar>
-29.5957

> <Gold.PLP.part.repulsive>
0.8131

> <Gold.PLP.ligand.clash>
0.0000

> <Gold.PLP.ligand.torsion>
0.7045

> <Gold.PLP.Chemscore.Hbond>
1.0000

> <Gold.PLP.Chemscore.CHOScore>
0.9677

> <Gold.PLP.Chemscore.Metal>
0.0000

> <Gold.Chemscore.Hbonds>
donor molecule, donor type, donor heavy atom, donor atom, acceptor molecule, acceptor atom, score
      P1  H  7989  7998       L1    10  0.30

> <Gold.PLP.Chemscore.Internal.Correction>
0.0162

> <Gold.Rescore>
     Score         DG    S(hbond)    S(metal)    S(lipo)     H(rot)  DE(clash)    DE(int)     intcor
     14.33     -14.97       1.00        0.00      74.54       1.00       0.04       0.60       ----

> <Gold.Chemscore.Fitness>
14.3287

> <Gold.Chemscore.DG>
-14.9661

> <Gold.Chemscore.ZeroCoef>
-5.4800

> <Gold.Chemscore.Hbond>
0.9955

> <Gold.Chemscore.Metal>
0.0000

> <Gold.Chemscore.Lipo>
74.5404

> <Gold.Chemscore.Internal_Hbond>
0.0000

> <Gold.Chemscore.DEClash>
0.0396

> <Gold.Chemscore.DEInternal>
0.5979

> <Gold.Chemscore.Rot>
1.0000

> <Gold.Chemscore.Internal.Correction>
   9.000000E+99

> <Gold.Chemscore.Hbonds>
donor molecule, donor type, donor heavy atom, donor atom, acceptor molecule, acceptor atom, score
      P1  H  7989  7998       L1    10  0.30

> <Gold.Chemscore.Hbond.Weighted>
-3.3249

> <Gold.Chemscore.Metal.Weighted>
-0.0000

> <Gold.Chemscore.Lipo.Weighted>
-8.7212

> <Gold.Chemscore.Internal_Hbond.Weighted>
0.0000

> <Gold.Chemscore.DEClash.Weighted>
0.0396

> <Gold.Chemscore.DEInternal.Weighted>
0.5979

> <Gold.Chemscore.Rot.Weighted>
2.5600

> <Gold.Chemscore.Internal.Correction.Weighted>
   9.000000E+99

> <Gold.Protein.RotatedTorsions>
[ 6907 6896 6895 6894 ] final -161.66 input  -60.11 | X-H torsion
[ 7974 7965 7964 7962 ] final -168.42 input  175.53 | X-H torsion
[ 8008 7997 7996 7995 ] final  119.13 input   59.86 | X-H torsion
[ 10167 10162 10161 10158 ] final -112.76 input  -65.29 | X-H torsion
[ 10718 10713 10712 10709 ] final -133.29 input   66.30 | X-H torsion
[ 10763 10752 10751 10750 ] final  170.76 input  -60.55 | X-H torsion
[ 11005 11000 10999 10996 ] final   21.07 input  -57.11 | X-H torsion

> <Gold.Protein.ActiveResidues>
 VAL166  LYS551  ARG553  GLY616  TRP617  ASP618  TYR619  PRO620  LYS621  CYS622 
 ASP623  PHE694  ASN695  SER759  ASP760  ASP761  ALA762  ILE779  LEU786  VAL792 
 PHE793  MET794  SER795  GLU796  ALA797  LYS798  CYS799  TRP800  GLU811  SER814 

> <Gold.Protein.RotatedAtoms>
  151.3681  133.3865  159.2696 H   0  0  0  0  0  0  0  0  0  0  0  0  # atno 6907 bound_to 6896
  150.9672  134.9052  159.7777 H   0  0  0  0  0  0  0  0  0  0  0  0  # atno 6908 bound_to 6896
  152.5171  134.3642  159.9347 H   0  0  0  0  0  0  0  0  0  0  0  0  # atno 6909 bound_to 6896
  144.7203  140.2373  143.6296 H   0  0  0  0  0  0  0  0  0  0  0  0  # atno 7974 bound_to 7965
  156.2581  140.2859  156.0944 H   0  0  0  0  0  0  0  0  0  0  0  0  # atno 8008 bound_to 7997
  155.1428  140.0396  157.2820 H   0  0  0  0  0  0  0  0  0  0  0  0  # atno 8009 bound_to 7997
  154.6517  140.2546  155.7212 H   0  0  0  0  0  0  0  0  0  0  0  0  # atno 8010 bound_to 7997
  140.1192  143.4459  152.1702 H   0  0  0  0  0  0  0  0  0  0  0  0  # atno 10167 bound_to 10162
  156.2433  130.7109  151.0979 H   0  0  0  0  0  0  0  0  0  0  0  0  # atno 10718 bound_to 10713
  154.4022  135.2755  155.2089 H   0  0  0  0  0  0  0  0  0  0  0  0  # atno 10763 bound_to 10752
  154.4110  135.6022  153.5956 H   0  0  0  0  0  0  0  0  0  0  0  0  # atno 10764 bound_to 10752
  152.9831  135.5949  154.4291 H   0  0  0  0  0  0  0  0  0  0  0  0  # atno 10765 bound_to 10752
  140.3957  134.1772  155.7663 H   0  0  0  0  0  0  0  0  0  0  0  0  # atno 11005 bound_to 11000
  145.8354  139.2105  143.1859 LP  0  0  0  0  0  0  0  0  0  0  0  0  # atno 17320 bound_to 7965
  146.0394  140.8180  142.9836 LP  0  0  0  0  0  0  0  0  0  0  0  0  # atno 17321 bound_to 7965
  139.5578  144.7385  151.4243 LP  0  0  0  0  0  0  0  0  0  0  0  0  # atno 17342 bound_to 10162
  140.6882  143.7924  150.7216 LP  0  0  0  0  0  0  0  0  0  0  0  0  # atno 17343 bound_to 10162
  157.7184  131.0696  150.6233 LP  0  0  0  0  0  0  0  0  0  0  0  0  # atno 17370 bound_to 10713
  156.6308  130.4431  149.5787 LP  0  0  0  0  0  0  0  0  0  0  0  0  # atno 17371 bound_to 10713
  141.1875  133.8280  157.1030 LP  0  0  0  0  0  0  0  0  0  0  0  0  # atno 17394 bound_to 11000
  140.0373  134.9871  157.0896 LP  0  0  0  0  0  0  0  0  0  0  0  0  # atno 17395 bound_to 11000

$$$$
