#       Name:                AV-unprocessed.smi:72
#       Creating user name   scv26
#       Creation time:       Thu Mar 26 17:01:27 2020


#       File generated by GOLD software.
#

@<TRIPOS>MOLECULE
AV-unprocessed.smi:72
    41    42     1
SMALL
NO_CHARGES


@<TRIPOS>ATOM
      1 ****        -4.9850  -0.0013   0.1690 N.pl3          1 S1                 0.0000
      2 ****        -3.6552  -0.3655   0.1310 C.2            1 S1                 0.0000
      3 ****        -2.7451   0.4568   0.7698 N.pl3          1 S1                 1.0000
      4 ****        -1.4215   0.2535   0.8177 C.2            1 S1                 0.0000
      5 ****        -0.9111  -0.7951   0.2000 N.am           1 S1                 0.0000
      6 ****         0.5705  -1.0941   0.2181 C.3            1 S1                 0.0000
      7 ****         1.1964  -0.1302   1.0069 O.3            1 S1                 0.0000
      8 ****         1.6593   0.9289   0.1757 C.3            1 S1                 0.0000
      9 ****         2.6592   1.8296   0.9205 C.3            1 S1                 0.0000
     10 ****         1.9578   2.7791   1.6951 O.3            1 S1                 0.0000
     11 ****         2.2168   0.1544  -1.0224 C.3            1 S1                 0.0000
     12 ****         3.5139  -0.3395  -0.7308 O.3            1 S1                 0.0000
     13 ****         1.1842  -0.9610  -1.1948 C.3            1 S1                 0.0000
     14 ****         1.7538  -2.1640  -1.6765 O.3            1 S1                 0.0000
     15 ****        -1.7735  -1.7200  -0.4443 C.2            1 S1                 0.0000
     16 ****        -1.3152  -2.7306  -0.9761 O.2            1 S1                 0.0000
     17 ****        -3.1429  -1.4185  -0.4430 N.2            1 S1                 0.0000
     18 ****         0.6634  -2.0817   0.6735 H              1 S1                 0.0000
     19 ****         0.8098   1.5220  -0.1693 H              1 S1                 0.0000
     20 ****         2.2841   0.7799  -1.9131 H              1 S1                 0.0000
     21 ****         0.4182  -0.6292  -1.8974 H              1 S1                 0.0000
     22 ****        -5.7190  -0.5429  -0.2651 H              1 S1                 0.0000
     23 ****        -5.3308   0.8293   0.6279 H              1 S1                 0.0000
     24 ****        -0.8100   0.9543   1.3706 H              1 S1                 0.0000
     25 ****         3.3299   1.2468   1.5526 H              1 S1                 0.0000
     26 ****         3.2755   2.3777   0.2073 H              1 S1                 0.0000
     27 ****         2.5873   3.3285   2.1372 H              1 S1                 0.0000
     28 ****         3.7705  -0.9275  -1.4253 H              1 S1                 0.0000
     29 ****         1.0697  -2.8118  -1.7559 H              1 S1                 0.0000
     30 ****        -3.1109   1.2722   1.2405 H              1 S1                 0.0000
     31 ****         1.9715  -0.5422   1.4859 LP             1 S1                 0.0000
     32 ****         0.5449   0.2295   1.6748 LP             1 S1                 0.0000
     33 ****         1.3873   2.3097   2.3691 LP             1 S1                 0.0000
     34 ****         1.3799   3.3386   1.1011 LP             1 S1                 0.0000
     35 ****         3.5009  -0.8303   0.1404 LP             1 S1                 0.0000
     36 ****         4.1608   0.4210  -0.6753 LP             1 S1                 0.0000
     37 ****         2.4505  -2.4868  -1.0359 LP             1 S1                 0.0000
     38 ****         2.1717  -2.0042  -2.5708 LP             1 S1                 0.0000
     39 ****        -0.3305  -2.9036  -0.9557 LP             1 S1                 0.0000
     40 ****        -1.9275  -3.3789  -1.4287 LP             1 S1                 0.0000
     41 ****        -3.7636  -2.0484  -0.9099 LP             1 S1                 0.0000
@<TRIPOS>BOND
    1    1    2 1     
    2    1   22 1     
    3    1   23 1     
    4    2   17 2     
    5    2    3 1     
    6    3    4 2     
    7    3   30 1     
    8    4    5 1     
    9    4   24 1     
   10    5    6 1     
   11    5   15 am    
   12    6   18 1     
   13    6   13 1     
   14    6    7 1     
   15    7    8 1     
   16    8   19 1     
   17    8    9 1     
   18    8   11 1     
   19    9   10 1     
   20    9   25 1     
   21    9   26 1     
   22   10   27 1     
   23   11   20 1     
   24   11   12 1     
   25   11   13 1     
   26   12   28 1     
   27   13   21 1     
   28   13   14 1     
   29   14   29 1     
   30   15   16 2     
   31   15   17 1     
   32    7   31 1     
   33    7   32 1     
   34   10   33 1     
   35   10   34 1     
   36   12   35 1     
   37   12   36 1     
   38   14   37 1     
   39   14   38 1     
   40   16   39 1     
   41   16   40 1     
   42   17   41 1     
@<TRIPOS>SUBSTRUCTURE
      1 S1             1
@<TRIPOS>SET
LONE_PAIRS      STATIC     ATOMS    <user>   **** ""
11 31 32 33 34 35 36 37 38 39 40 41
DONOR_HYDROGENS      STATIC     ATOMS    <user>   **** ""
6 22 23 30 27 28 29
ATOM$BLUE        STATIC     ATOMS    COLORGROUP SYSTEM
11 31 32 33 34 35 36 37 38 39 40 41
ATOM$RED        STATIC     ATOMS    COLORGROUP SYSTEM
6 22 23 30 27 28 29
