AV-unprocessed.smi:3259|AV-procd|sdf|12472|dock9
  -GOLD-   2272018373D 1   1.00000     0.00000
 Structure written by MMmdl.
 39 40  0  0  0  0  0  0  0  0  1 V2000
  149.9326  141.2707  153.1068 C   0  0  0  0  0  0  0  0  0  0  0  0
  151.2350  141.1892  153.6711 O   0  0  0  0  0  0  0  0  0  0  0  0
  151.4073  140.2508  154.7346 C   0  0  1  0  0  0  0  0  0  0  0  0
  151.2308  138.8188  154.2057 C   0  0  0  0  0  0  0  0  0  0  0  0
  152.6544  140.5558  155.5843 C   0  0  0  0  0  0  0  0  0  0  0  0
  151.7814  140.2798  156.8066 C   0  0  1  0  0  0  0  0  0  0  0  0
  152.0922  141.1613  157.9248 N   0  0  0  0  0  0  0  0  0  0  0  0
  152.9726  140.8778  158.8964 C   0  0  0  0  0  0  0  0  0  0  0  0
  153.6698  139.8637  158.9045 O   0  0  0  0  0  0  0  0  0  0  0  0
  153.0723  141.8878  160.0407 C   0  0  0  0  0  0  0  0  0  0  0  0
  152.5210  143.1758  159.6548 N   0  0  0  0  0  0  0  0  0  0  0  0
  153.1861  144.2818  159.1669 C   0  0  0  0  0  0  0  0  0  0  0  0
  152.2509  145.2477  158.9303 C   0  0  0  0  0  0  0  0  0  0  0  0
  151.0258  144.6320  159.3103 C   0  0  0  0  0  0  0  0  0  0  0  0
  151.1901  143.3924  159.7430 N   0  0  0  0  0  0  0  0  0  0  0  0
  150.5564  140.7152  155.9613 C   0  0  0  0  0  0  0  0  0  0  0  0
  150.1808  142.2115  156.0017 C   0  0  0  0  0  0  0  0  0  0  0  0
  149.2562  139.9505  156.2282 C   0  0  0  0  0  0  0  0  0  0  0  0
  149.9589  141.9416  152.2484 H   0  0  0  0  0  0  0  0  0  0  0  0
  149.2082  141.6769  153.8122 H   0  0  0  0  0  0  0  0  0  0  0  0
  149.5772  140.3015  152.7565 H   0  0  0  0  0  0  0  0  0  0  0  0
  151.2240  138.0859  155.0122 H   0  0  0  0  0  0  0  0  0  0  0  0
  152.0408  138.5292  153.5371 H   0  0  0  0  0  0  0  0  0  0  0  0
  150.2940  138.7108  153.6587 H   0  0  0  0  0  0  0  0  0  0  0  0
  153.4806  139.8566  155.4520 H   0  0  0  0  0  0  0  0  0  0  0  0
  152.9925  141.5911  155.5120 H   0  0  0  0  0  0  0  0  0  0  0  0
  151.7690  139.2191  157.0678 H   0  0  0  0  0  0  0  0  0  0  0  0
  151.5646  142.0194  157.9930 H   0  0  0  0  0  0  0  0  0  0  0  0
  152.5424  141.5180  160.9200 H   0  0  0  0  0  0  0  0  0  0  0  0
  154.1168  142.0196  160.3259 H   0  0  0  0  0  0  0  0  0  0  0  0
  154.2571  144.2872  159.0269 H   0  0  0  0  0  0  0  0  0  0  0  0
  152.4169  146.2423  158.5437 H   0  0  0  0  0  0  0  0  0  0  0  0
  150.0284  145.0460  159.2838 H   0  0  0  0  0  0  0  0  0  0  0  0
  149.7609  142.4969  156.9670 H   0  0  0  0  0  0  0  0  0  0  0  0
  149.4363  142.4563  155.2434 H   0  0  0  0  0  0  0  0  0  0  0  0
  151.0394  142.8598  155.8257 H   0  0  0  0  0  0  0  0  0  0  0  0
  148.7693  140.2941  157.1413 H   0  0  0  0  0  0  0  0  0  0  0  0
  149.4286  138.8816  156.3512 H   0  0  0  0  0  0  0  0  0  0  0  0
  148.5459  140.0740  155.4102 H   0  0  0  0  0  0  0  0  0  0  0  0
  1  2  1  0  0  0  0
  1 19  1  0  0  0  0
  1 20  1  0  0  0  0
  1 21  1  0  0  0  0
  2  3  1  0  0  0  0
  3 16  1  0  0  0  0
  3  4  1  0  0  0  0
  3  5  1  0  0  0  0
  4 22  1  0  0  0  0
  4 23  1  0  0  0  0
  4 24  1  0  0  0  0
  5  6  1  0  0  0  0
  5 25  1  0  0  0  0
  5 26  1  0  0  0  0
  6  7  1  0  0  0  0
  6 16  1  0  0  0  0
  6 27  1  0  0  0  0
  7  8  1  0  0  0  0
  7 28  1  0  0  0  0
  8  9  2  0  0  0  0
  8 10  1  0  0  0  0
 10 11  1  0  0  0  0
 10 29  1  0  0  0  0
 10 30  1  0  0  0  0
 11 15  1  0  0  0  0
 11 12  1  0  0  0  0
 12 13  2  0  0  0  0
 12 31  1  0  0  0  0
 13 14  1  0  0  0  0
 13 32  1  0  0  0  0
 14 15  2  0  0  0  0
 14 33  1  0  0  0  0
 16 17  1  0  0  0  0
 16 18  1  0  0  0  0
 17 34  1  0  0  0  0
 17 35  1  0  0  0  0
 17 36  1  0  0  0  0
 18 37  1  0  0  0  0
 18 38  1  0  0  0  0
 18 39  1  0  0  0  0
M  END
> <s_m_source_file>
AV-unprocessed.smi

> <i_m_source_file_index>
3259

> <i_lp_mmshare_version>
43012

> <i_f3d_flags>
0

> <s_epik_input>
W0NIM11PW0NAQF0xKFtDSDNdKVtDSDJdW0NASF0oQzEoW0NIM10pW0NIM10pW05IXUMoPU8pW0NIMl1uMltjSF1bY0hdW2NIXW4y

> <s_epik_cmdline>
J2VwaWtfcHl0aG9uJywgJy1waCcsICc3LjAnLCAnLXRuJywgJzgnLCAnLW1hJywgJzIwMCcsICctbWV0YWxfYmluZGluZycsICctaW1hZScsICc8aW5maWxlLm1hZT4nLCAnLW9tYWUnLCAnPG91dGZpbGUubWFlPic=

> <r_lp_tautomer_probability>
1

> <r_epik_Ionization_Penalty>
1.78399e-05

> <r_epik_Ionization_Penalty_Charging>
0

> <r_epik_Ionization_Penalty_Neutral>
1.78399e-05

> <r_epik_State_Penalty>
-0

> <r_epik_Charging_Adjusted_Penalty>
0

> <i_epik_Tot_Q>
0

> <i_epik_Tot_abs_Q>
0

> <r_epik_Metal_State_Penalty>
-0

> <b_epik_Metal_Only>
0

> <s_lp_Force_Field>
OPLS_2005

> <r_lp_Energy>
22.2184

> <b_lp_Chiralities_Consistent>
1

> <s_lp_Variant>
AV-unprocessed.smi:3259-1

> <Gold.Version>
5.8.1

> <Gold.Id.Protein>
6NUR|6NUR_protein|mol2

> <Gold.PLP.Fitness>
42.0932

> <Gold.PLP.PLP>
-38.0038

> <Gold.PLP.part.hbond>
-2.9210

> <Gold.PLP.part.metal>
0.0000

> <Gold.PLP.part.buried>
-5.2676

> <Gold.PLP.part.nonpolar>
-30.8244

> <Gold.PLP.part.repulsive>
0.2656

> <Gold.PLP.ligand.clash>
0.0000

> <Gold.PLP.ligand.torsion>
0.9401

> <Gold.PLP.Chemscore.Hbond>
1.8640

> <Gold.PLP.Chemscore.CHOScore>
0.0000

> <Gold.PLP.Chemscore.Metal>
0.0000

> <Gold.Chemscore.Hbonds>
donor molecule, donor type, donor heavy atom, donor atom, acceptor molecule, acceptor atom, score
      P1  H  7997  8008       L1     9  0.78

> <Gold.PLP.Chemscore.Internal.Correction>
0.3776

> <Gold.Rescore>
     Score         DG    S(hbond)    S(metal)    S(lipo)     H(rot)  DE(clash)    DE(int)     intcor
     14.80     -16.89       1.57        0.00      87.55       1.60       0.20       1.89       ----

> <Gold.Chemscore.Fitness>
14.7951

> <Gold.Chemscore.DG>
-16.8852

> <Gold.Chemscore.ZeroCoef>
-5.4800

> <Gold.Chemscore.Hbond>
1.5713

> <Gold.Chemscore.Metal>
0.0000

> <Gold.Chemscore.Lipo>
87.5506

> <Gold.Chemscore.Internal_Hbond>
0.0000

> <Gold.Chemscore.DEClash>
0.1958

> <Gold.Chemscore.DEInternal>
1.8943

> <Gold.Chemscore.Rot>
1.5962

> <Gold.Chemscore.Internal.Correction>
   9.000000E+99

> <Gold.Chemscore.Hbonds>
donor molecule, donor type, donor heavy atom, donor atom, acceptor molecule, acceptor atom, score
      P1  H  7997  8008       L1     9  0.44

> <Gold.Chemscore.Hbond.Weighted>
-5.2480

> <Gold.Chemscore.Metal.Weighted>
-0.0000

> <Gold.Chemscore.Lipo.Weighted>
-10.2434

> <Gold.Chemscore.Internal_Hbond.Weighted>
0.0000

> <Gold.Chemscore.DEClash.Weighted>
0.1958

> <Gold.Chemscore.DEInternal.Weighted>
1.8943

> <Gold.Chemscore.Rot.Weighted>
4.0862

> <Gold.Chemscore.Internal.Correction.Weighted>
   9.000000E+99

> <Gold.Protein.RotatedTorsions>
[ 6907 6896 6895 6894 ] final  -26.68 input  -60.11 | X-H torsion
[ 7974 7965 7964 7962 ] final  -84.53 input  175.53 | X-H torsion
[ 8008 7997 7996 7995 ] final -116.95 input   59.86 | X-H torsion
[ 10167 10162 10161 10158 ] final   63.87 input  -65.29 | X-H torsion
[ 10718 10713 10712 10709 ] final  -71.81 input   66.30 | X-H torsion
[ 10763 10752 10751 10750 ] final -157.37 input  -60.55 | X-H torsion
[ 11005 11000 10999 10996 ] final  166.35 input  -57.11 | X-H torsion

> <Gold.Protein.ActiveResidues>
 VAL166  LYS551  ARG553  GLY616  TRP617  ASP618  TYR619  PRO620  LYS621  CYS622 
 ASP623  PHE694  ASN695  SER759  ASP760  ASP761  ALA762  ILE779  LEU786  VAL792 
 PHE793  MET794  SER795  GLU796  ALA797  LYS798  CYS799  TRP800  GLU811  SER814 

> <Gold.Protein.RotatedAtoms>
  151.1575  135.0257  159.8695 H   0  0  0  0  0  0  0  0  0  0  0  0  # atno 6907 bound_to 6896
  152.5452  134.1317  159.8452 H   0  0  0  0  0  0  0  0  0  0  0  0  # atno 6908 bound_to 6896
  151.1409  133.4926  159.2629 H   0  0  0  0  0  0  0  0  0  0  0  0  # atno 6909 bound_to 6896
  145.5054  140.9544  143.1737 H   0  0  0  0  0  0  0  0  0  0  0  0  # atno 7974 bound_to 7965
  155.0759  140.0394  157.2624 H   0  0  0  0  0  0  0  0  0  0  0  0  # atno 8008 bound_to 7997
  154.6945  140.2660  155.6755 H   0  0  0  0  0  0  0  0  0  0  0  0  # atno 8009 bound_to 7997
  156.2740  140.2753  156.1534 H   0  0  0  0  0  0  0  0  0  0  0  0  # atno 8010 bound_to 7997
  140.1283  144.4667  150.6879 H   0  0  0  0  0  0  0  0  0  0  0  0  # atno 10167 bound_to 10162
  156.0347  130.4359  150.2499 H   0  0  0  0  0  0  0  0  0  0  0  0  # atno 10718 bound_to 10713
  154.7641  135.3126  154.8320 H   0  0  0  0  0  0  0  0  0  0  0  0  # atno 10763 bound_to 10752
  153.9073  135.6809  153.4756 H   0  0  0  0  0  0  0  0  0  0  0  0  # atno 10764 bound_to 10752
  153.1245  135.4807  154.9182 H   0  0  0  0  0  0  0  0  0  0  0  0  # atno 10765 bound_to 10752
  140.2655  134.7868  157.3629 H   0  0  0  0  0  0  0  0  0  0  0  0  # atno 11005 bound_to 11000
  144.7757  139.6636  143.7176 LP  0  0  0  0  0  0  0  0  0  0  0  0  # atno 17320 bound_to 7965
  146.2200  139.5619  142.9624 LP  0  0  0  0  0  0  0  0  0  0  0  0  # atno 17321 bound_to 7965
  140.6832  143.2337  151.5330 LP  0  0  0  0  0  0  0  0  0  0  0  0  # atno 17342 bound_to 10162
  139.5533  144.2340  152.1568 LP  0  0  0  0  0  0  0  0  0  0  0  0  # atno 17343 bound_to 10162
  157.0599  131.0087  151.3226 LP  0  0  0  0  0  0  0  0  0  0  0  0  # atno 17370 bound_to 10713
  157.5078  130.7919  149.7672 LP  0  0  0  0  0  0  0  0  0  0  0  0  # atno 17371 bound_to 10713
  140.1423  134.4956  155.8022 LP  0  0  0  0  0  0  0  0  0  0  0  0  # atno 17394 bound_to 11000
  141.2184  133.6830  156.7232 LP  0  0  0  0  0  0  0  0  0  0  0  0  # atno 17395 bound_to 11000

$$$$
