AV-unprocessed.smi:99|AV-procd|sdf|878|dock7
  -GOLD-   2262017353D 1   1.00000     0.00000
 Structure written by MMmdl.
 53 56  0  0  0  0  0  0  0  0  1 V2000
  143.6119  135.0179  153.8513 O   0  0  0  0  0  0  0  0  0  0  0  0
  144.6839  134.4996  153.5320 C   0  0  0  0  0  0  0  0  0  0  0  0
  145.8327  134.6854  154.2109 O   0  0  0  0  0  0  0  0  0  0  0  0
  145.8604  135.5461  155.3372 C   0  0  0  0  0  0  0  0  0  0  0  0
  147.3171  135.8525  155.6986 C   0  0  1  0  0  0  0  0  0  0  0  0
  147.9350  136.6054  154.6566 O   0  0  0  0  0  0  0  0  0  0  0  0
  148.9053  137.4663  155.1844 C   0  0  1  0  0  0  0  0  0  0  0  0
  148.5979  138.8842  154.7560 N   0  0  0  0  0  0  0  0  0  0  0  0
  147.2969  139.3694  154.7059 C   0  0  0  0  0  0  0  0  0  0  0  0
  146.9961  140.6394  154.3446 C   0  0  0  0  0  0  0  0  0  0  0  0
  148.0546  141.5793  153.9901 C   0  0  0  0  0  0  0  0  0  0  0  0
  147.8804  142.7466  153.6473 O   0  0  0  0  0  0  0  0  0  0  0  0
  149.3473  141.0537  154.0692 N   0  0  0  0  0  0  0  0  0  0  0  0
  149.6701  139.7487  154.4440 C   0  0  0  0  0  0  0  0  0  0  0  0
  150.8478  139.3970  154.4994 O   0  0  0  0  0  0  0  0  0  0  0  0
  148.8495  137.3556  156.7151 C   0  0  2  0  0  0  0  0  0  0  0  0
  149.8706  136.4930  157.1824 O   0  0  0  0  0  0  0  0  0  0  0  0
  147.4591  136.7680  156.9085 C   0  0  2  0  0  0  0  0  0  0  0  0
  147.2947  136.1101  158.1596 O   0  0  0  0  0  0  0  0  0  0  0  0
  147.4252  136.7940  159.3171 C   0  0  0  0  0  0  0  0  0  0  0  0
  147.6712  138.0004  159.3730 O   0  0  0  0  0  0  0  0  0  0  0  0
  147.2497  135.9343  160.5225 C   0  0  0  0  0  0  0  0  0  0  0  0
  147.0968  136.5429  161.7901 C   0  0  0  0  0  0  0  0  0  0  0  0
  146.9323  135.7577  162.9478 C   0  0  0  0  0  0  0  0  0  0  0  0
  146.9189  134.3542  162.8518 C   0  0  0  0  0  0  0  0  0  0  0  0
  147.0692  133.7367  161.5964 C   0  0  0  0  0  0  0  0  0  0  0  0
  147.2335  134.5203  160.4374 C   0  0  0  0  0  0  0  0  0  0  0  0
  144.8456  133.6015  152.3520 C   0  0  0  0  0  0  0  0  0  0  0  0
  143.7171  133.2888  151.5584 C   0  0  0  0  0  0  0  0  0  0  0  0
  143.8402  132.4475  150.4355 C   0  0  0  0  0  0  0  0  0  0  0  0
  145.0936  131.9084  150.0925 C   0  0  0  0  0  0  0  0  0  0  0  0
  146.2238  132.2108  150.8741 C   0  0  0  0  0  0  0  0  0  0  0  0
  146.1026  133.0519  151.9975 C   0  0  0  0  0  0  0  0  0  0  0  0
  150.1124  141.6719  153.8415 H   0  0  0  0  0  0  0  0  0  0  0  0
  145.3146  136.4677  155.1309 H   0  0  0  0  0  0  0  0  0  0  0  0
  145.3673  135.0509  156.1748 H   0  0  0  0  0  0  0  0  0  0  0  0
  147.8826  134.9331  155.8601 H   0  0  0  0  0  0  0  0  0  0  0  0
  149.8757  137.2190  154.7489 H   0  0  0  0  0  0  0  0  0  0  0  0
  146.4725  138.7230  154.9673 H   0  0  0  0  0  0  0  0  0  0  0  0
  145.9656  140.9632  154.3203 H   0  0  0  0  0  0  0  0  0  0  0  0
  148.9614  138.3293  157.1939 H   0  0  0  0  0  0  0  0  0  0  0  0
  150.2641  136.0632  156.4383 H   0  0  0  0  0  0  0  0  0  0  0  0
  146.7218  137.5668  156.8093 H   0  0  0  0  0  0  0  0  0  0  0  0
  147.1049  137.6189  161.8891 H   0  0  0  0  0  0  0  0  0  0  0  0
  146.8170  136.2338  163.9104 H   0  0  0  0  0  0  0  0  0  0  0  0
  146.7935  133.7524  163.7399 H   0  0  0  0  0  0  0  0  0  0  0  0
  147.0590  132.6593  161.5217 H   0  0  0  0  0  0  0  0  0  0  0  0
  147.3463  134.0140  159.4898 H   0  0  0  0  0  0  0  0  0  0  0  0
  142.7444  133.6913  151.8018 H   0  0  0  0  0  0  0  0  0  0  0  0
  142.9718  132.2169  149.8364 H   0  0  0  0  0  0  0  0  0  0  0  0
  145.1880  131.2643  149.2307 H   0  0  0  0  0  0  0  0  0  0  0  0
  147.1867  131.7981  150.6115 H   0  0  0  0  0  0  0  0  0  0  0  0
  146.9907  133.2648  152.5744 H   0  0  0  0  0  0  0  0  0  0  0  0
  1  2  2  0  0  0  0
  2  3  1  0  0  0  0
  2 28  1  0  0  0  0
  3  4  1  0  0  0  0
  4  5  1  0  0  0  0
  4 35  1  0  0  0  0
  4 36  1  0  0  0  0
  5 18  1  0  0  0  0
  5  6  1  0  0  0  0
  5 37  1  0  0  0  0
  6  7  1  0  0  0  0
  7  8  1  0  0  0  0
  7 16  1  0  0  0  0
  7 38  1  0  0  0  0
  8 14  1  0  0  0  0
  8  9  1  0  0  0  0
  9 10  2  0  0  0  0
  9 39  1  0  0  0  0
 10 11  1  0  0  0  0
 10 40  1  0  0  0  0
 11 12  2  0  0  0  0
 11 13  1  0  0  0  0
 13 34  1  0  0  0  0
 13 14  1  0  0  0  0
 14 15  2  0  0  0  0
 16 17  1  0  0  0  0
 16 18  1  0  0  0  0
 16 41  1  0  0  0  0
 17 42  1  0  0  0  0
 18 19  1  0  0  0  0
 18 43  1  0  0  0  0
 19 20  1  0  0  0  0
 20 21  2  0  0  0  0
 20 22  1  0  0  0  0
 22 27  1  0  0  0  0
 22 23  2  0  0  0  0
 23 24  1  0  0  0  0
 23 44  1  0  0  0  0
 24 25  2  0  0  0  0
 24 45  1  0  0  0  0
 25 26  1  0  0  0  0
 25 46  1  0  0  0  0
 26 27  2  0  0  0  0
 26 47  1  0  0  0  0
 27 48  1  0  0  0  0
 28 33  1  0  0  0  0
 28 29  2  0  0  0  0
 29 30  1  0  0  0  0
 29 49  1  0  0  0  0
 30 31  2  0  0  0  0
 30 50  1  0  0  0  0
 31 32  1  0  0  0  0
 31 51  1  0  0  0  0
 32 33  2  0  0  0  0
 32 52  1  0  0  0  0
 33 53  1  0  0  0  0
M  END
> <s_m_source_file>
AV-unprocessed.smi

> <i_m_source_file_index>
99

> <i_lp_mmshare_version>
43012

> <i_f3d_flags>
0

> <s_epik_input>
W2NIXTFbY0hdW2NIXVtjSF1bY0hdYzFDKD1PKU9bQ0gyXVtDQEBIXTJPW0NAQEhdKG4zW2NIXVtjSF1jKD1PKVtuSF1jMz1PKVtDQEBIXShbT0hdKVtDQEhdMk9DKD1PKWM0W2NIXVtjSF1bY0hdW2NIXVtjSF00

> <s_epik_cmdline>
J2VwaWtfcHl0aG9uJywgJy1waCcsICc3LjAnLCAnLXRuJywgJzgnLCAnLW1hJywgJzIwMCcsICctbWV0YWxfYmluZGluZycsICctaW1hZScsICc8aW5maWxlLm1hZT4nLCAnLW9tYWUnLCAnPG91dGZpbGUubWFlPic=

> <r_lp_tautomer_probability>
1

> <r_epik_Ionization_Penalty>
0.00454555

> <r_epik_Ionization_Penalty_Charging>
0.0045191

> <r_epik_Ionization_Penalty_Neutral>
2.64449e-05

> <r_epik_State_Penalty>
-0

> <r_epik_Charging_Adjusted_Penalty>
0.0045191

> <i_epik_Tot_Q>
0

> <i_epik_Tot_abs_Q>
0

> <r_epik_Metal_State_Penalty>
1.27877

> <b_epik_Metal_Only>
0

> <s_epik_Chemistry_Notes>
This compound has an ester and may undergo hydrolysis at high or low pH. This compound contains an acetal/aminal-like group ( X-CH(R)-Y where X, Y are N, S, or O) that may be acid/base labile, releasing an aldehyde.

> <s_lp_Force_Field>
OPLS_2005

> <r_lp_Energy>
38.7636

> <b_lp_Chiralities_Consistent>
1

> <s_lp_Variant>
AV-unprocessed.smi:99-14

> <Gold.Version>
5.8.1

> <Gold.Id.Protein>
6NUR|6NUR_protein|mol2

> <Gold.PLP.Fitness>
50.2580

> <Gold.PLP.PLP>
-45.3939

> <Gold.PLP.part.hbond>
-4.6839

> <Gold.PLP.part.metal>
0.0000

> <Gold.PLP.part.buried>
-5.6256

> <Gold.PLP.part.nonpolar>
-38.6858

> <Gold.PLP.part.repulsive>
4.2754

> <Gold.PLP.ligand.clash>
0.0000

> <Gold.PLP.ligand.torsion>
0.7268

> <Gold.PLP.Chemscore.Hbond>
2.0134

> <Gold.PLP.Chemscore.CHOScore>
0.0000

> <Gold.PLP.Chemscore.Metal>
0.0000

> <Gold.Chemscore.Hbonds>
donor molecule, donor type, donor heavy atom, donor atom, acceptor molecule, acceptor atom, score
      P1  H  6934  6947       L1    21  0.46
      P1  H  7989  7998       L1    15  0.95
      P1  H  8022  8030       L1    12  0.53

> <Gold.PLP.Chemscore.Internal.Correction>
0.2776

> <Gold.Rescore>
     Score         DG    S(hbond)    S(metal)    S(lipo)     H(rot)  DE(clash)    DE(int)     intcor
     12.57     -15.72       2.15        0.00      95.87       3.19       1.54       1.61       ----

> <Gold.Chemscore.Fitness>
12.5674

> <Gold.Chemscore.DG>
-15.7193

> <Gold.Chemscore.ZeroCoef>
-5.4800

> <Gold.Chemscore.Hbond>
2.1526

> <Gold.Chemscore.Metal>
0.0000

> <Gold.Chemscore.Lipo>
95.8693

> <Gold.Chemscore.Internal_Hbond>
0.0000

> <Gold.Chemscore.DEClash>
1.5423

> <Gold.Chemscore.DEInternal>
1.6096

> <Gold.Chemscore.Rot>
3.1903

> <Gold.Chemscore.Internal.Correction>
   9.000000E+99

> <Gold.Chemscore.Hbonds>
donor molecule, donor type, donor heavy atom, donor atom, acceptor molecule, acceptor atom, score
      P1  H  6934  6947       L1    21  0.45
      P1  H  7989  7998       L1    15  0.21
      P1  H  8022  8030       L1    12  0.52

> <Gold.Chemscore.Hbond.Weighted>
-7.1896

> <Gold.Chemscore.Metal.Weighted>
-0.0000

> <Gold.Chemscore.Lipo.Weighted>
-11.2167

> <Gold.Chemscore.Internal_Hbond.Weighted>
0.0000

> <Gold.Chemscore.DEClash.Weighted>
1.5423

> <Gold.Chemscore.DEInternal.Weighted>
1.6096

> <Gold.Chemscore.Rot.Weighted>
8.1671

> <Gold.Chemscore.Internal.Correction.Weighted>
   9.000000E+99

> <Gold.Protein.RotatedTorsions>
[ 6907 6896 6895 6894 ] final  120.02 input  -60.11 | X-H torsion
[ 7974 7965 7964 7962 ] final  -58.34 input  175.53 | X-H torsion
[ 8008 7997 7996 7995 ] final  -59.95 input   59.86 | X-H torsion
[ 10167 10162 10161 10158 ] final   52.33 input  -65.29 | X-H torsion
[ 10718 10713 10712 10709 ] final  -15.99 input   66.30 | X-H torsion
[ 10763 10752 10751 10750 ] final  -11.97 input  -60.55 | X-H torsion
[ 11005 11000 10999 10996 ] final  -70.62 input  -57.11 | X-H torsion

> <Gold.Protein.ActiveResidues>
 VAL166  LYS551  ARG553  GLY616  TRP617  ASP618  TYR619  PRO620  LYS621  CYS622 
 ASP623  PHE694  ASN695  SER759  ASP760  ASP761  ALA762  ILE779  LEU786  VAL792 
 PHE793  MET794  SER795  GLU796  ALA797  LYS798  CYS799  TRP800  GLU811  SER814 

> <Gold.Protein.RotatedAtoms>
  152.4429  133.7482  159.6678 H   0  0  0  0  0  0  0  0  0  0  0  0  # atno 6907 bound_to 6896
  150.8323  133.8060  159.3099 H   0  0  0  0  0  0  0  0  0  0  0  0  # atno 6908 bound_to 6896
  151.5710  135.1065  160.0047 H   0  0  0  0  0  0  0  0  0  0  0  0  # atno 6909 bound_to 6896
  145.8405  140.8420  143.0037 H   0  0  0  0  0  0  0  0  0  0  0  0  # atno 7974 bound_to 7965
  154.4376  140.1050  156.6196 H   0  0  0  0  0  0  0  0  0  0  0  0  # atno 8008 bound_to 7997
  155.5721  140.3489  155.4499 H   0  0  0  0  0  0  0  0  0  0  0  0  # atno 8009 bound_to 7997
  156.0382  140.1276  157.0174 H   0  0  0  0  0  0  0  0  0  0  0  0  # atno 8010 bound_to 7997
  140.2525  144.3463  150.6343 H   0  0  0  0  0  0  0  0  0  0  0  0  # atno 10167 bound_to 10162
  156.5940  130.4806  149.6267 H   0  0  0  0  0  0  0  0  0  0  0  0  # atno 10718 bound_to 10713
  153.4915  135.7017  153.5881 H   0  0  0  0  0  0  0  0  0  0  0  0  # atno 10763 bound_to 10752
  153.4052  135.3862  155.2014 H   0  0  0  0  0  0  0  0  0  0  0  0  # atno 10764 bound_to 10752
  154.8716  135.3891  154.4376 H   0  0  0  0  0  0  0  0  0  0  0  0  # atno 10765 bound_to 10752
  141.1577  133.6795  156.6781 H   0  0  0  0  0  0  0  0  0  0  0  0  # atno 11005 bound_to 11000
  144.6734  140.0805  143.7469 LP  0  0  0  0  0  0  0  0  0  0  0  0  # atno 17320 bound_to 7965
  145.9470  139.2708  143.1234 LP  0  0  0  0  0  0  0  0  0  0  0  0  # atno 17321 bound_to 7965
  140.6029  143.2167  151.7037 LP  0  0  0  0  0  0  0  0  0  0  0  0  # atno 17342 bound_to 10162
  139.5042  144.3764  152.0420 LP  0  0  0  0  0  0  0  0  0  0  0  0  # atno 17343 bound_to 10162
  156.2526  130.6916  151.1658 LP  0  0  0  0  0  0  0  0  0  0  0  0  # atno 17370 bound_to 10713
  157.7296  131.0622  150.5764 LP  0  0  0  0  0  0  0  0  0  0  0  0  # atno 17371 bound_to 10713
  140.3124  134.8075  157.4187 LP  0  0  0  0  0  0  0  0  0  0  0  0  # atno 17394 bound_to 11000
  140.1167  134.5273  155.8218 LP  0  0  0  0  0  0  0  0  0  0  0  0  # atno 17395 bound_to 11000

$$$$
