AV-unprocessed.smi:712|AV-procd|sdf|3473|dock8
  -GOLD-   22720 0463D 1   1.00000     0.00000
 Structure written by MMmdl.
 50 51  0  0  0  0  0  0  0  0  1 V2000
  151.5676  144.6712  159.1056 C   0  0  0  0  0  0  0  0  0  0  0  0
  152.3202  143.5486  159.7897 C   0  0  0  0  0  0  0  0  0  0  0  0
  152.5621  143.5807  161.2172 C   0  0  0  0  0  0  0  0  0  0  0  0
  153.2266  142.5652  161.7907 C   0  0  0  0  0  0  0  0  0  0  0  0
  153.6966  141.4691  161.0445 N   0  0  0  0  0  0  0  0  0  0  0  0
  154.4075  140.4081  161.7767 C   0  0  0  0  0  0  0  0  0  0  0  0
  155.7049  139.9662  161.0859 C   0  0  0  0  0  0  0  0  0  0  0  0
  156.5504  140.7961  160.7502 O   0  0  0  0  0  0  0  0  0  0  0  0
  155.8562  138.6449  160.9086 N   0  0  0  0  0  0  0  0  0  0  0  0
  157.0067  137.9923  160.2891 C   0  0  0  0  0  0  0  0  0  0  0  0
  157.2171  136.5593  160.8105 C   0  0  1  0  0  0  0  0  0  0  0  0
  155.9827  135.9600  161.5169 C   0  0  0  0  0  0  0  0  0  0  0  0
  156.2157  134.5916  161.9676 N   0  0  0  0  0  0  0  0  0  0  0  0
  155.0266  134.0662  162.6463 C   0  0  0  0  0  0  0  0  0  0  0  0
  154.6802  134.6426  164.0415 C   0  0  0  0  0  0  0  0  0  0  0  0
  153.9196  133.6609  164.9487 C   0  0  0  0  0  0  0  0  0  0  0  0
  154.0247  136.0335  163.9906 C   0  0  0  0  0  0  0  0  0  0  0  0
  156.6312  133.7851  160.8232 C   0  0  0  0  0  0  0  0  0  0  0  0
  157.8553  134.3833  160.1085 C   0  0  0  0  0  0  0  0  0  0  0  0
  157.5817  135.7232  159.7153 O   0  0  0  0  0  0  0  0  0  0  0  0
  153.5077  141.3814  159.6933 C   0  0  0  0  0  0  0  0  0  0  0  0
  153.9220  140.4274  159.0342 O   0  0  0  0  0  0  0  0  0  0  0  0
  152.7771  142.4952  159.0776 C   0  0  0  0  0  0  0  0  0  0  0  0
  151.3801  145.4968  159.7927 H   0  0  0  0  0  0  0  0  0  0  0  0
  150.6080  144.3114  158.7340 H   0  0  0  0  0  0  0  0  0  0  0  0
  152.1417  145.0554  158.2620 H   0  0  0  0  0  0  0  0  0  0  0  0
  152.2157  144.4105  161.8157 H   0  0  0  0  0  0  0  0  0  0  0  0
  153.4444  142.5307  162.8482 H   0  0  0  0  0  0  0  0  0  0  0  0
  154.6593  140.7390  162.7851 H   0  0  0  0  0  0  0  0  0  0  0  0
  153.7500  139.5474  161.9149 H   0  0  0  0  0  0  0  0  0  0  0  0
  155.1143  138.0392  161.2284 H   0  0  0  0  0  0  0  0  0  0  0  0
  156.8336  137.9642  159.2129 H   0  0  0  0  0  0  0  0  0  0  0  0
  157.9157  138.5786  160.4318 H   0  0  0  0  0  0  0  0  0  0  0  0
  158.0494  136.5806  161.5163 H   0  0  0  0  0  0  0  0  0  0  0  0
  155.7181  136.5892  162.3675 H   0  0  0  0  0  0  0  0  0  0  0  0
  155.1262  135.9759  160.8415 H   0  0  0  0  0  0  0  0  0  0  0  0
  154.1663  134.2787  162.0099 H   0  0  0  0  0  0  0  0  0  0  0  0
  155.0778  132.9776  162.6980 H   0  0  0  0  0  0  0  0  0  0  0  0
  155.6434  134.8100  164.5256 H   0  0  0  0  0  0  0  0  0  0  0  0
  152.9115  133.4684  164.5817 H   0  0  0  0  0  0  0  0  0  0  0  0
  153.8297  134.0556  165.9609 H   0  0  0  0  0  0  0  0  0  0  0  0
  154.4393  132.7048  165.0141 H   0  0  0  0  0  0  0  0  0  0  0  0
  153.0150  136.0101  163.5867 H   0  0  0  0  0  0  0  0  0  0  0  0
  154.6103  136.7210  163.3795 H   0  0  0  0  0  0  0  0  0  0  0  0
  153.9596  136.4646  164.9899 H   0  0  0  0  0  0  0  0  0  0  0  0
  156.8931  132.7802  161.1456 H   0  0  0  0  0  0  0  0  0  0  0  0
  155.8062  133.6895  160.1156 H   0  0  0  0  0  0  0  0  0  0  0  0
  158.7300  134.3613  160.7601 H   0  0  0  0  0  0  0  0  0  0  0  0
  158.1016  133.7966  159.2236 H   0  0  0  0  0  0  0  0  0  0  0  0
  152.5994  142.4650  158.0123 H   0  0  0  0  0  0  0  0  0  0  0  0
  1  2  1  0  0  0  0
  1 24  1  0  0  0  0
  1 25  1  0  0  0  0
  1 26  1  0  0  0  0
  2 23  2  0  0  0  0
  2  3  1  0  0  0  0
  3  4  2  0  0  0  0
  3 27  1  0  0  0  0
  4  5  1  0  0  0  0
  4 28  1  0  0  0  0
  5  6  1  0  0  0  0
  5 21  1  0  0  0  0
  6  7  1  0  0  0  0
  6 29  1  0  0  0  0
  6 30  1  0  0  0  0
  7  8  2  0  0  0  0
  7  9  1  0  0  0  0
  9 10  1  0  0  0  0
  9 31  1  0  0  0  0
 10 11  1  0  0  0  0
 10 32  1  0  0  0  0
 10 33  1  0  0  0  0
 11 20  1  0  0  0  0
 11 12  1  0  0  0  0
 11 34  1  0  0  0  0
 12 13  1  0  0  0  0
 12 35  1  0  0  0  0
 12 36  1  0  0  0  0
 13 14  1  0  0  0  0
 13 18  1  0  0  0  0
 14 15  1  0  0  0  0
 14 37  1  0  0  0  0
 14 38  1  0  0  0  0
 15 16  1  0  0  0  0
 15 17  1  0  0  0  0
 15 39  1  0  0  0  0
 16 40  1  0  0  0  0
 16 41  1  0  0  0  0
 16 42  1  0  0  0  0
 17 43  1  0  0  0  0
 17 44  1  0  0  0  0
 17 45  1  0  0  0  0
 18 19  1  0  0  0  0
 18 46  1  0  0  0  0
 18 47  1  0  0  0  0
 19 20  1  0  0  0  0
 19 48  1  0  0  0  0
 19 49  1  0  0  0  0
 21 22  2  0  0  0  0
 21 23  1  0  0  0  0
 23 50  1  0  0  0  0
M  END
> <s_m_source_file>
AV-unprocessed.smi

> <i_m_source_file_index>
712

> <i_lp_mmshare_version>
43012

> <i_f3d_flags>
0

> <s_epik_input>
W0NIM11jMVtjSF1bY0hdbihjKD1PKVtjSF0xKVtDSDJdQyg9TylbTkhdW0NIMl1bQ0BASF0yW0NIMl1OKFtDSDJdW0NIMl1PMilbQ0gyXVtDSF0oW0NIM10pW0NIM10=

> <s_epik_cmdline>
J2VwaWtfcHl0aG9uJywgJy1waCcsICc3LjAnLCAnLXRuJywgJzgnLCAnLW1hJywgJzIwMCcsICctbWV0YWxfYmluZGluZycsICctaW1hZScsICc8aW5maWxlLm1hZT4nLCAnLW9tYWUnLCAnPG91dGZpbGUubWFlPic=

> <r_lp_tautomer_probability>
1

> <r_epik_Ionization_Penalty>
1.11669

> <r_epik_Ionization_Penalty_Charging>
4.93496e-07

> <r_epik_Ionization_Penalty_Neutral>
1.11669

> <r_epik_State_Penalty>
1.17516

> <r_epik_Charging_Adjusted_Penalty>
1.17516

> <i_epik_Tot_Q>
0

> <i_epik_Tot_abs_Q>
0

> <r_epik_Metal_State_Penalty>
1.17513

> <b_epik_Metal_Only>
0

> <s_lp_Force_Field>
OPLS_2005

> <r_lp_Energy>
40.1187

> <b_lp_Chiralities_Consistent>
1

> <s_lp_Variant>
AV-unprocessed.smi:712-6

> <Gold.Version>
5.8.1

> <Gold.Id.Protein>
6NUR|6NUR_protein|mol2

> <Gold.PLP.Fitness>
43.5570

> <Gold.PLP.PLP>
-43.5703

> <Gold.PLP.part.hbond>
-2.0000

> <Gold.PLP.part.metal>
0.0000

> <Gold.PLP.part.buried>
-3.1517

> <Gold.PLP.part.nonpolar>
-37.7013

> <Gold.PLP.part.repulsive>
0.0212

> <Gold.PLP.ligand.clash>
0.0000

> <Gold.PLP.ligand.torsion>
1.3188

> <Gold.PLP.Chemscore.Hbond>
0.8406

> <Gold.PLP.Chemscore.CHOScore>
0.0000

> <Gold.PLP.Chemscore.Metal>
0.0000

> <Gold.Chemscore.Hbonds>
donor molecule, donor type, donor heavy atom, donor atom, acceptor molecule, acceptor atom, score
      P1  H  7997  8008       L1    22  0.74

> <Gold.PLP.Chemscore.Internal.Correction>
0.1026

> <Gold.Rescore>
     Score         DG    S(hbond)    S(metal)    S(lipo)     H(rot)  DE(clash)    DE(int)     intcor
     12.62     -16.21       0.93        0.00     105.12       1.82       0.94       2.66       ----

> <Gold.Chemscore.Fitness>
12.6167

> <Gold.Chemscore.DG>
-16.2131

> <Gold.Chemscore.ZeroCoef>
-5.4800

> <Gold.Chemscore.Hbond>
0.9295

> <Gold.Chemscore.Metal>
0.0000

> <Gold.Chemscore.Lipo>
105.1178

> <Gold.Chemscore.Internal_Hbond>
0.0000

> <Gold.Chemscore.DEClash>
0.9387

> <Gold.Chemscore.DEInternal>
2.6578

> <Gold.Chemscore.Rot>
1.8243

> <Gold.Chemscore.Internal.Correction>
   9.000000E+99

> <Gold.Chemscore.Hbonds>
donor molecule, donor type, donor heavy atom, donor atom, acceptor molecule, acceptor atom, score
      P1  H  7997  8008       L1    22  0.70

> <Gold.Chemscore.Hbond.Weighted>
-3.1046

> <Gold.Chemscore.Metal.Weighted>
-0.0000

> <Gold.Chemscore.Lipo.Weighted>
-12.2988

> <Gold.Chemscore.Internal_Hbond.Weighted>
0.0000

> <Gold.Chemscore.DEClash.Weighted>
0.9387

> <Gold.Chemscore.DEInternal.Weighted>
2.6578

> <Gold.Chemscore.Rot.Weighted>
4.6703

> <Gold.Chemscore.Internal.Correction.Weighted>
   9.000000E+99

> <Gold.Protein.RotatedTorsions>
[ 6907 6896 6895 6894 ] final   97.96 input  -60.11 | X-H torsion
[ 7974 7965 7964 7962 ] final  -85.55 input  175.53 | X-H torsion
[ 8008 7997 7996 7995 ] final -100.49 input   59.86 | X-H torsion
[ 10167 10162 10161 10158 ] final  -89.86 input  -65.29 | X-H torsion
[ 10718 10713 10712 10709 ] final   82.77 input   66.30 | X-H torsion
[ 10763 10752 10751 10750 ] final  172.04 input  -60.55 | X-H torsion
[ 11005 11000 10999 10996 ] final   -4.84 input  -57.11 | X-H torsion

> <Gold.Protein.ActiveResidues>
 VAL166  LYS551  ARG553  GLY616  TRP617  ASP618  TYR619  PRO620  LYS621  CYS622 
 ASP623  PHE694  ASN695  SER759  ASP760  ASP761  ALA762  ILE779  LEU786  VAL792 
 PHE793  MET794  SER795  GLU796  ALA797  LYS798  CYS799  TRP800  GLU811  SER814 

> <Gold.Protein.RotatedAtoms>
  152.5416  134.0653  159.8169 H   0  0  0  0  0  0  0  0  0  0  0  0  # atno 6907 bound_to 6896
  151.0775  133.5409  159.2630 H   0  0  0  0  0  0  0  0  0  0  0  0  # atno 6908 bound_to 6896
  151.2249  135.0541  159.9018 H   0  0  0  0  0  0  0  0  0  0  0  0  # atno 6909 bound_to 6896
  145.4917  140.9552  143.1808 H   0  0  0  0  0  0  0  0  0  0  0  0  # atno 7974 bound_to 7965
  154.8293  140.0440  157.1466 H   0  0  0  0  0  0  0  0  0  0  0  0  # atno 8008 bound_to 7997
  154.9170  140.3021  155.5216 H   0  0  0  0  0  0  0  0  0  0  0  0  # atno 8009 bound_to 7997
  156.2986  140.2347  156.4216 H   0  0  0  0  0  0  0  0  0  0  0  0  # atno 8010 bound_to 7997
  140.3606  143.2844  151.9619 H   0  0  0  0  0  0  0  0  0  0  0  0  # atno 10167 bound_to 10162
  157.6864  131.0062  150.2424 H   0  0  0  0  0  0  0  0  0  0  0  0  # atno 10718 bound_to 10713
  154.4204  135.2758  155.1979 H   0  0  0  0  0  0  0  0  0  0  0  0  # atno 10763 bound_to 10752
  154.3927  135.6062  153.5856 H   0  0  0  0  0  0  0  0  0  0  0  0  # atno 10764 bound_to 10752
  152.9833  135.5907  154.4499 H   0  0  0  0  0  0  0  0  0  0  0  0  # atno 10765 bound_to 10752
  140.6846  133.9124  155.8577 H   0  0  0  0  0  0  0  0  0  0  0  0  # atno 11005 bound_to 11000
  144.7830  139.6486  143.7146 LP  0  0  0  0  0  0  0  0  0  0  0  0  # atno 17320 bound_to 7965
  146.2280  139.5759  142.9574 LP  0  0  0  0  0  0  0  0  0  0  0  0  # atno 17321 bound_to 7965
  139.4814  144.5996  151.7629 LP  0  0  0  0  0  0  0  0  0  0  0  0  # atno 17342 bound_to 10162
  140.5131  144.0995  150.6000 LP  0  0  0  0  0  0  0  0  0  0  0  0  # atno 17343 bound_to 10162
  156.3036  130.3762  149.7727 LP  0  0  0  0  0  0  0  0  0  0  0  0  # atno 17370 bound_to 10713
  156.5349  130.8274  151.3250 LP  0  0  0  0  0  0  0  0  0  0  0  0  # atno 17371 bound_to 10713
  141.0290  134.0783  157.4035 LP  0  0  0  0  0  0  0  0  0  0  0  0  # atno 17394 bound_to 11000
  139.8941  135.0134  156.6935 LP  0  0  0  0  0  0  0  0  0  0  0  0  # atno 17395 bound_to 11000

$$$$
