AV-unprocessed.smi:2702|AV-procd|sdf|10430|dock2
  -GOLD-   2272014473D 1   1.00000     0.00000
 Structure written by MMmdl.
 47 48  0  0  0  0  0  0  0  0  1 V2000
  147.2901  135.8948  162.7697 C   0  0  0  0  0  0  0  0  0  0  0  0
  148.0145  136.5942  161.7733 O   0  0  0  0  0  0  0  0  0  0  0  0
  147.9675  135.9474  160.5130 C   0  0  0  0  0  0  0  0  0  0  0  0
  148.9561  136.5819  159.5562 C   0  0  0  0  0  0  0  0  0  0  0  0
  148.6538  136.7926  158.2541 C   0  0  0  0  0  0  0  0  0  0  0  0
  149.6331  137.3930  157.3483 C   0  0  0  0  0  0  0  0  0  0  0  0
  149.3910  137.6129  156.1612 O   0  0  0  0  0  0  0  0  0  0  0  0
  150.8372  137.6912  157.9196 N   0  0  0  0  0  0  0  0  0  0  0  0
  151.9251  138.3084  157.1385 C   0  0  0  0  0  0  0  0  0  0  0  0
  151.9878  139.8375  157.2732 C   0  0  0  0  0  0  0  0  0  0  0  0
  152.3498  140.5425  156.3300 O   0  0  0  0  0  0  0  0  0  0  0  0
  151.6053  140.3320  158.4608 N   0  0  0  0  0  0  0  0  0  0  0  0
  151.5570  141.7471  158.8276 C   0  0  2  0  0  0  0  0  0  0  0  0
  150.9944  142.5465  157.6363 C   0  0  0  0  0  0  0  0  0  0  0  0
  150.9840  144.0561  157.9137 C   0  0  0  0  0  0  0  0  0  0  0  0
  152.3833  144.5562  158.3053 C   0  0  0  0  0  0  0  0  0  0  0  0
  152.9595  143.7889  159.5126 C   0  0  1  0  0  0  0  0  0  0  0  0
  152.2571  144.1872  160.8271 C   0  0  0  0  0  0  0  0  0  0  0  0
  152.9641  142.2618  159.2330 C   0  0  1  0  0  0  0  0  0  0  0  0
  153.5961  141.4579  160.3869 C   0  0  0  0  0  0  0  0  0  0  0  0
  151.1023  137.4428  159.2813 C   0  0  0  0  0  0  0  0  0  0  0  0
  150.2166  136.9129  160.0636 N   0  0  0  0  0  0  0  0  0  0  0  0
  147.3618  136.4289  163.7170 H   0  0  0  0  0  0  0  0  0  0  0  0
  147.6909  134.8911  162.9179 H   0  0  0  0  0  0  0  0  0  0  0  0
  146.2343  135.8156  162.5073 H   0  0  0  0  0  0  0  0  0  0  0  0
  148.2043  134.8880  160.6259 H   0  0  0  0  0  0  0  0  0  0  0  0
  146.9619  136.0099  160.0936 H   0  0  0  0  0  0  0  0  0  0  0  0
  147.6796  136.5212  157.8744 H   0  0  0  0  0  0  0  0  0  0  0  0
  152.8959  137.9003  157.4259 H   0  0  0  0  0  0  0  0  0  0  0  0
  151.8176  138.0530  156.0826 H   0  0  0  0  0  0  0  0  0  0  0  0
  151.3198  139.6741  159.1716 H   0  0  0  0  0  0  0  0  0  0  0  0
  150.8788  141.8866  159.6706 H   0  0  0  0  0  0  0  0  0  0  0  0
  151.5936  142.3519  156.7454 H   0  0  0  0  0  0  0  0  0  0  0  0
  149.9827  142.2108  157.4055 H   0  0  0  0  0  0  0  0  0  0  0  0
  150.6339  144.5912  157.0307 H   0  0  0  0  0  0  0  0  0  0  0  0
  150.2706  144.2798  158.7073 H   0  0  0  0  0  0  0  0  0  0  0  0
  153.0530  144.4379  157.4523 H   0  0  0  0  0  0  0  0  0  0  0  0
  152.3521  145.6257  158.5162 H   0  0  0  0  0  0  0  0  0  0  0  0
  153.9989  144.1037  159.6162 H   0  0  0  0  0  0  0  0  0  0  0  0
  151.2164  143.8658  160.8527 H   0  0  0  0  0  0  0  0  0  0  0  0
  152.2685  145.2691  160.9609 H   0  0  0  0  0  0  0  0  0  0  0  0
  152.7568  143.7566  161.6945 H   0  0  0  0  0  0  0  0  0  0  0  0
  153.6164  142.1122  158.3707 H   0  0  0  0  0  0  0  0  0  0  0  0
  152.9448  141.4308  161.2607 H   0  0  0  0  0  0  0  0  0  0  0  0
  154.5494  141.8901  160.6915 H   0  0  0  0  0  0  0  0  0  0  0  0
  153.7916  140.4260  160.0946 H   0  0  0  0  0  0  0  0  0  0  0  0
  152.0972  137.7309  159.6251 H   0  0  0  0  0  0  0  0  0  0  0  0
  1  2  1  0  0  0  0
  1 23  1  0  0  0  0
  1 24  1  0  0  0  0
  1 25  1  0  0  0  0
  2  3  1  0  0  0  0
  3  4  1  0  0  0  0
  3 26  1  0  0  0  0
  3 27  1  0  0  0  0
  4 22  1  0  0  0  0
  4  5  2  0  0  0  0
  5  6  1  0  0  0  0
  5 28  1  0  0  0  0
  6  7  2  0  0  0  0
  6  8  1  0  0  0  0
  8  9  1  0  0  0  0
  8 21  1  0  0  0  0
  9 10  1  0  0  0  0
  9 29  1  0  0  0  0
  9 30  1  0  0  0  0
 10 11  2  0  0  0  0
 10 12  1  0  0  0  0
 12 13  1  0  0  0  0
 12 31  1  0  0  0  0
 13 19  1  0  0  0  0
 13 14  1  0  0  0  0
 13 32  1  0  0  0  0
 14 15  1  0  0  0  0
 14 33  1  0  0  0  0
 14 34  1  0  0  0  0
 15 16  1  0  0  0  0
 15 35  1  0  0  0  0
 15 36  1  0  0  0  0
 16 17  1  0  0  0  0
 16 37  1  0  0  0  0
 16 38  1  0  0  0  0
 17 18  1  0  0  0  0
 17 19  1  0  0  0  0
 17 39  1  0  0  0  0
 18 40  1  0  0  0  0
 18 41  1  0  0  0  0
 18 42  1  0  0  0  0
 19 20  1  0  0  0  0
 19 43  1  0  0  0  0
 20 44  1  0  0  0  0
 20 45  1  0  0  0  0
 20 46  1  0  0  0  0
 21 22  2  0  0  0  0
 21 47  1  0  0  0  0
M  END
> <s_m_source_file>
AV-unprocessed.smi

> <i_m_source_file_index>
2702

> <i_lp_mmshare_version>
43012

> <i_f3d_flags>
0

> <s_epik_input>
W0NIM11PW0NIMl1jMVtjSF1jKD1PKW4oW2NIXW4xKVtDSDJdQyg9TylbTkhdW0NAQEhdMltDSDJdW0NIMl1bQ0gyXVtDQEBIXShbQ0gzXSlbQ0BIXTJbQ0gzXQ==

> <s_epik_cmdline>
J2VwaWtfcHl0aG9uJywgJy1waCcsICc3LjAnLCAnLXRuJywgJzgnLCAnLW1hJywgJzIwMCcsICctbWV0YWxfYmluZGluZycsICctaW1hZScsICc8aW5maWxlLm1hZT4nLCAnLW9tYWUnLCAnPG91dGZpbGUubWFlPic=

> <r_lp_tautomer_probability>
1

> <r_epik_Ionization_Penalty>
1.22164e-06

> <r_epik_Ionization_Penalty_Charging>
3.17988e-07

> <r_epik_Ionization_Penalty_Neutral>
9.03656e-07

> <r_epik_State_Penalty>
-0

> <r_epik_Charging_Adjusted_Penalty>
3.17988e-07

> <i_epik_Tot_Q>
0

> <i_epik_Tot_abs_Q>
0

> <r_epik_Metal_State_Penalty>
-0

> <b_epik_Metal_Only>
0

> <s_lp_Force_Field>
OPLS_2005

> <r_lp_Energy>
19.3371

> <b_lp_Chiralities_Consistent>
1

> <s_lp_Variant>
AV-unprocessed.smi:2702-1

> <Gold.Version>
5.8.1

> <Gold.Id.Protein>
6NUR|6NUR_protein|mol2

> <Gold.PLP.Fitness>
46.5383

> <Gold.PLP.PLP>
-41.7971

> <Gold.PLP.part.hbond>
-3.8872

> <Gold.PLP.part.metal>
0.0000

> <Gold.PLP.part.buried>
-1.2279

> <Gold.PLP.part.nonpolar>
-37.1992

> <Gold.PLP.part.repulsive>
0.1464

> <Gold.PLP.ligand.clash>
0.0210

> <Gold.PLP.ligand.torsion>
1.2735

> <Gold.PLP.Chemscore.Hbond>
2.4330

> <Gold.PLP.Chemscore.CHOScore>
0.0000

> <Gold.PLP.Chemscore.Metal>
0.0000

> <Gold.Chemscore.Hbonds>
donor molecule, donor type, donor heavy atom, donor atom, acceptor molecule, acceptor atom, score
      P1  H  6896  6908       L1    22  0.44
      P1  H  6931  6943       L1     2  1.00
      P1  H  7997  8009       L1    11  0.93

> <Gold.PLP.Chemscore.Internal.Correction>
0.0102

> <Gold.Rescore>
     Score         DG    S(hbond)    S(metal)    S(lipo)     H(rot)  DE(clash)    DE(int)     intcor
     16.01     -19.58       1.58        0.00     117.46       1.93       0.78       2.79       ----

> <Gold.Chemscore.Fitness>
16.0116

> <Gold.Chemscore.DG>
-19.5765

> <Gold.Chemscore.ZeroCoef>
-5.4800

> <Gold.Chemscore.Hbond>
1.5841

> <Gold.Chemscore.Metal>
0.0000

> <Gold.Chemscore.Lipo>
117.4572

> <Gold.Chemscore.Internal_Hbond>
0.0000

> <Gold.Chemscore.DEClash>
0.7779

> <Gold.Chemscore.DEInternal>
2.7870

> <Gold.Chemscore.Rot>
1.9284

> <Gold.Chemscore.Internal.Correction>
   9.000000E+99

> <Gold.Chemscore.Hbonds>
donor molecule, donor type, donor heavy atom, donor atom, acceptor molecule, acceptor atom, score
      P1  H  6931  6943       L1     2  0.95
      P1  H  7997  8009       L1    11  0.26

> <Gold.Chemscore.Hbond.Weighted>
-5.2908

> <Gold.Chemscore.Metal.Weighted>
-0.0000

> <Gold.Chemscore.Lipo.Weighted>
-13.7425

> <Gold.Chemscore.Internal_Hbond.Weighted>
0.0000

> <Gold.Chemscore.DEClash.Weighted>
0.7779

> <Gold.Chemscore.DEInternal.Weighted>
2.7870

> <Gold.Chemscore.Rot.Weighted>
4.9368

> <Gold.Chemscore.Internal.Correction.Weighted>
   9.000000E+99

> <Gold.Protein.RotatedTorsions>
[ 6907 6896 6895 6894 ] final -151.13 input  -60.11 | X-H torsion
[ 7974 7965 7964 7962 ] final   -9.50 input  175.53 | X-H torsion
[ 8008 7997 7996 7995 ] final -161.16 input   59.86 | X-H torsion
[ 10167 10162 10161 10158 ] final  -72.93 input  -65.29 | X-H torsion
[ 10718 10713 10712 10709 ] final  -21.39 input   66.30 | X-H torsion
[ 10763 10752 10751 10750 ] final -167.56 input  -60.55 | X-H torsion
[ 11005 11000 10999 10996 ] final   39.10 input  -57.11 | X-H torsion

> <Gold.Protein.ActiveResidues>
 VAL166  LYS551  ARG553  GLY616  TRP617  ASP618  TYR619  PRO620  LYS621  CYS622 
 ASP623  PHE694  ASN695  SER759  ASP760  ASP761  ALA762  ILE779  LEU786  VAL792 
 PHE793  MET794  SER795  GLU796  ALA797  LYS798  CYS799  TRP800  GLU811  SER814 

> <Gold.Protein.RotatedAtoms>
  151.2086  133.4569  159.2597 H   0  0  0  0  0  0  0  0  0  0  0  0  # atno 6907 bound_to 6896
  151.0999  134.9966  159.8453 H   0  0  0  0  0  0  0  0  0  0  0  0  # atno 6908 bound_to 6896
  152.5442  134.2014  159.8766 H   0  0  0  0  0  0  0  0  0  0  0  0  # atno 6909 bound_to 6896
  146.2249  140.2626  142.8352 H   0  0  0  0  0  0  0  0  0  0  0  0  # atno 7974 bound_to 7965
  155.7881  140.0874  157.2023 H   0  0  0  0  0  0  0  0  0  0  0  0  # atno 8008 bound_to 7997
  154.3986  140.1495  156.3189 H   0  0  0  0  0  0  0  0  0  0  0  0  # atno 8009 bound_to 7997
  155.8586  140.3431  155.5744 H   0  0  0  0  0  0  0  0  0  0  0  0  # atno 8010 bound_to 7997
  140.5152  143.2339  151.7525 H   0  0  0  0  0  0  0  0  0  0  0  0  # atno 10167 bound_to 10162
  156.5189  130.4627  149.6608 H   0  0  0  0  0  0  0  0  0  0  0  0  # atno 10718 bound_to 10713
  154.6719  135.2940  154.9730 H   0  0  0  0  0  0  0  0  0  0  0  0  # atno 10763 bound_to 10752
  154.0754  135.6612  153.4834 H   0  0  0  0  0  0  0  0  0  0  0  0  # atno 10764 bound_to 10752
  153.0492  135.5184  154.7720 H   0  0  0  0  0  0  0  0  0  0  0  0  # atno 10765 bound_to 10752
  140.2061  134.3812  155.8072 H   0  0  0  0  0  0  0  0  0  0  0  0  # atno 11005 bound_to 11000
  144.9328  140.7993  143.5679 LP  0  0  0  0  0  0  0  0  0  0  0  0  # atno 17320 bound_to 7965
  145.2571  139.2007  143.4911 LP  0  0  0  0  0  0  0  0  0  0  0  0  # atno 17321 bound_to 7965
  139.4907  144.4334  151.9846 LP  0  0  0  0  0  0  0  0  0  0  0  0  # atno 17342 bound_to 10162
  140.3428  144.3183  150.5964 LP  0  0  0  0  0  0  0  0  0  0  0  0  # atno 17343 bound_to 10162
  156.3169  130.7259  151.2163 LP  0  0  0  0  0  0  0  0  0  0  0  0  # atno 17370 bound_to 10713
  157.7440  131.0466  150.4902 LP  0  0  0  0  0  0  0  0  0  0  0  0  # atno 17371 bound_to 10713
  141.2227  133.7119  156.8339 LP  0  0  0  0  0  0  0  0  0  0  0  0  # atno 17394 bound_to 11000
  140.2001  134.8903  157.3160 LP  0  0  0  0  0  0  0  0  0  0  0  0  # atno 17395 bound_to 11000

$$$$
