AV-unprocessed.smi:1358|AV-procd|sdf|5549|dock3
  -GOLD-   22720 5143D 1   1.00000     0.00000
 Structure written by MMmdl.
 37 38  0  0  0  0  0  0  0  0  1 V2000
  144.5179  143.7399  162.3938 C   0  0  0  0  0  0  0  0  0  0  0  0
  145.8615  143.1763  161.9182 C   0  0  0  0  0  0  0  0  0  0  0  0
  146.2125  143.6221  160.4923 C   0  0  0  0  0  0  0  0  0  0  0  0
  146.6876  145.0826  160.4276 C   0  0  0  0  0  0  0  0  0  0  0  0
  147.9440  145.1835  159.6974 N   0  0  0  0  0  0  0  0  0  0  0  0
  149.1405  144.7805  160.1532 C   0  0  0  0  0  0  0  0  0  0  0  0
  149.2977  144.1751  161.2135 O   0  0  0  0  0  0  0  0  0  0  0  0
  150.3515  145.1504  159.2937 C   0  0  0  0  0  0  0  0  0  0  0  0
  151.1214  143.9117  158.9307 C   0  0  0  0  0  0  0  0  0  0  0  0
  152.3389  143.5202  159.4323 C   0  0  0  0  0  0  0  0  0  0  0  0
  152.8905  142.0264  158.7221 S   0  0  0  0  0  0  0  0  0  0  0  0
  151.4241  141.9879  157.7462 C   0  0  0  0  0  0  0  0  0  0  0  0
  151.1362  140.9673  156.7927 N   0  0  0  0  0  0  0  0  0  0  0  0
  150.0164  141.0903  155.8680 C   0  0  0  0  0  0  0  0  0  0  0  0
  150.0750  139.8031  155.0502 C   0  0  0  0  0  0  0  0  0  0  0  0
  151.2066  139.1217  155.6345 N   0  0  0  0  0  0  0  0  0  0  0  0
  151.7904  139.7986  156.6258 C   0  0  0  0  0  0  0  0  0  0  0  0
  152.7616  139.3896  157.2611 O   0  0  0  0  0  0  0  0  0  0  0  0
  150.6041  143.0157  157.9881 N   0  0  0  0  0  0  0  0  0  0  0  0
  144.2936  143.4075  163.4075 H   0  0  0  0  0  0  0  0  0  0  0  0
  143.7031  143.4117  161.7480 H   0  0  0  0  0  0  0  0  0  0  0  0
  144.5266  144.8300  162.3951 H   0  0  0  0  0  0  0  0  0  0  0  0
  146.6476  143.4922  162.6047 H   0  0  0  0  0  0  0  0  0  0  0  0
  145.8301  142.0873  161.9634 H   0  0  0  0  0  0  0  0  0  0  0  0
  146.9895  142.9701  160.0903 H   0  0  0  0  0  0  0  0  0  0  0  0
  145.3408  143.4928  159.8495 H   0  0  0  0  0  0  0  0  0  0  0  0
  145.9258  145.7168  159.9711 H   0  0  0  0  0  0  0  0  0  0  0  0
  146.8504  145.4662  161.4350 H   0  0  0  0  0  0  0  0  0  0  0  0
  147.9175  145.6754  158.8156 H   0  0  0  0  0  0  0  0  0  0  0  0
  150.0075  145.6693  158.3981 H   0  0  0  0  0  0  0  0  0  0  0  0
  150.9863  145.8543  159.8336 H   0  0  0  0  0  0  0  0  0  0  0  0
  152.9470  144.0240  160.1688 H   0  0  0  0  0  0  0  0  0  0  0  0
  149.0745  141.1721  156.4124 H   0  0  0  0  0  0  0  0  0  0  0  0
  150.1328  141.9719  155.2359 H   0  0  0  0  0  0  0  0  0  0  0  0
  149.1688  139.2061  155.1584 H   0  0  0  0  0  0  0  0  0  0  0  0
  150.2499  139.9971  153.9913 H   0  0  0  0  0  0  0  0  0  0  0  0
  151.5130  138.2126  155.3195 H   0  0  0  0  0  0  0  0  0  0  0  0
  1  2  1  0  0  0  0
  1 20  1  0  0  0  0
  1 21  1  0  0  0  0
  1 22  1  0  0  0  0
  2  3  1  0  0  0  0
  2 23  1  0  0  0  0
  2 24  1  0  0  0  0
  3  4  1  0  0  0  0
  3 25  1  0  0  0  0
  3 26  1  0  0  0  0
  4  5  1  0  0  0  0
  4 27  1  0  0  0  0
  4 28  1  0  0  0  0
  5  6  1  0  0  0  0
  5 29  1  0  0  0  0
  6  7  2  0  0  0  0
  6  8  1  0  0  0  0
  8  9  1  0  0  0  0
  8 30  1  0  0  0  0
  8 31  1  0  0  0  0
  9 19  1  0  0  0  0
  9 10  2  0  0  0  0
 10 11  1  0  0  0  0
 10 32  1  0  0  0  0
 11 12  1  0  0  0  0
 12 13  1  0  0  0  0
 12 19  2  0  0  0  0
 13 17  1  0  0  0  0
 13 14  1  0  0  0  0
 14 15  1  0  0  0  0
 14 33  1  0  0  0  0
 14 34  1  0  0  0  0
 15 16  1  0  0  0  0
 15 35  1  0  0  0  0
 15 36  1  0  0  0  0
 16 17  1  0  0  0  0
 16 37  1  0  0  0  0
 17 18  2  0  0  0  0
M  END
> <s_m_source_file>
AV-unprocessed.smi

> <i_m_source_file_index>
1358

> <i_lp_mmshare_version>
43012

> <i_f3d_flags>
0

> <s_epik_input>
W0NIM11bQ0gyXVtDSDJdW0NIMl1bTkhdQyg9TylbQ0gyXWMxW2NIXXNjKG4xKU4yW0NIMl1bQ0gyXVtOSF1DMj1P

> <s_epik_cmdline>
J2VwaWtfcHl0aG9uJywgJy1waCcsICc3LjAnLCAnLXRuJywgJzgnLCAnLW1hJywgJzIwMCcsICctbWV0YWxfYmluZGluZycsICctaW1hZScsICc8aW5maWxlLm1hZT4nLCAnLW9tYWUnLCAnPG91dGZpbGUubWFlPic=

> <r_lp_tautomer_probability>
1

> <r_epik_Ionization_Penalty>
0.000120185

> <r_epik_Ionization_Penalty_Charging>
0

> <r_epik_Ionization_Penalty_Neutral>
0.000120185

> <r_epik_State_Penalty>
-0

> <r_epik_Charging_Adjusted_Penalty>
0

> <i_epik_Tot_Q>
0

> <i_epik_Tot_abs_Q>
0

> <r_epik_Metal_State_Penalty>
-0

> <b_epik_Metal_Only>
0

> <s_lp_Force_Field>
OPLS_2005

> <r_lp_Energy>
29.7034

> <b_lp_Chiralities_Consistent>
1

> <s_lp_Variant>
AV-unprocessed.smi:1358-1

> <Gold.Version>
5.8.1

> <Gold.Id.Protein>
6NUR|6NUR_protein|mol2

> <Gold.PLP.Fitness>
47.7251

> <Gold.PLP.PLP>
-41.6508

> <Gold.PLP.part.hbond>
-3.0000

> <Gold.PLP.part.metal>
0.0000

> <Gold.PLP.part.buried>
-6.6248

> <Gold.PLP.part.nonpolar>
-32.3484

> <Gold.PLP.part.repulsive>
0.6652

> <Gold.PLP.ligand.clash>
0.0000

> <Gold.PLP.ligand.torsion>
0.6844

> <Gold.PLP.Chemscore.Hbond>
2.4480

> <Gold.PLP.Chemscore.CHOScore>
0.0000

> <Gold.PLP.Chemscore.Metal>
0.0000

> <Gold.Chemscore.Hbonds>
donor molecule, donor type, donor heavy atom, donor atom, acceptor molecule, acceptor atom, score
      L1  H     5    29       P1  8029  1.00
      P1  H  6933  6944       L1     7  0.45
      P1  H  7997  8010       L1    18  1.00

> <Gold.PLP.Chemscore.Internal.Correction>
0.0991

> <Gold.Rescore>
     Score         DG    S(hbond)    S(metal)    S(lipo)     H(rot)  DE(clash)    DE(int)     intcor
     15.53     -17.40       2.39        0.00      76.73       1.97       0.28       1.59       ----

> <Gold.Chemscore.Fitness>
15.5317

> <Gold.Chemscore.DG>
-17.4010

> <Gold.Chemscore.ZeroCoef>
-5.4800

> <Gold.Chemscore.Hbond>
2.3926

> <Gold.Chemscore.Metal>
0.0000

> <Gold.Chemscore.Lipo>
76.7306

> <Gold.Chemscore.Internal_Hbond>
0.0000

> <Gold.Chemscore.DEClash>
0.2761

> <Gold.Chemscore.DEInternal>
1.5932

> <Gold.Chemscore.Rot>
1.9718

> <Gold.Chemscore.Internal.Correction>
   9.000000E+99

> <Gold.Chemscore.Hbonds>
donor molecule, donor type, donor heavy atom, donor atom, acceptor molecule, acceptor atom, score
      L1  H     5    29       P1  8029  0.95
      P1  H  6933  6944       L1     7  0.43
      P1  H  7997  8010       L1    18  0.82

> <Gold.Chemscore.Hbond.Weighted>
-7.9913

> <Gold.Chemscore.Metal.Weighted>
-0.0000

> <Gold.Chemscore.Lipo.Weighted>
-8.9775

> <Gold.Chemscore.Internal_Hbond.Weighted>
0.0000

> <Gold.Chemscore.DEClash.Weighted>
0.2761

> <Gold.Chemscore.DEInternal.Weighted>
1.5932

> <Gold.Chemscore.Rot.Weighted>
5.0478

> <Gold.Chemscore.Internal.Correction.Weighted>
   9.000000E+99

> <Gold.Protein.RotatedTorsions>
[ 6907 6896 6895 6894 ] final   96.67 input  -60.11 | X-H torsion
[ 7974 7965 7964 7962 ] final   19.19 input  175.53 | X-H torsion
[ 8008 7997 7996 7995 ] final   63.16 input   59.86 | X-H torsion
[ 10167 10162 10161 10158 ] final   71.54 input  -65.29 | X-H torsion
[ 10718 10713 10712 10709 ] final   98.94 input   66.30 | X-H torsion
[ 10763 10752 10751 10750 ] final  -97.98 input  -60.55 | X-H torsion
[ 11005 11000 10999 10996 ] final  -46.74 input  -57.11 | X-H torsion

> <Gold.Protein.ActiveResidues>
 VAL166  LYS551  ARG553  GLY616  TRP617  ASP618  TYR619  PRO620  LYS621  CYS622 
 ASP623  PHE694  ASN695  SER759  ASP760  ASP761  ALA762  ILE779  LEU786  VAL792 
 PHE793  MET794  SER795  GLU796  ALA797  LYS798  CYS799  TRP800  GLU811  SER814 

> <Gold.Protein.RotatedAtoms>
  152.5432  134.0851  159.8252 H   0  0  0  0  0  0  0  0  0  0  0  0  # atno 6907 bound_to 6896
  151.0948  133.5281  159.2620 H   0  0  0  0  0  0  0  0  0  0  0  0  # atno 6908 bound_to 6896
  151.2059  135.0470  159.8945 H   0  0  0  0  0  0  0  0  0  0  0  0  # atno 6909 bound_to 6896
  146.2158  139.8348  142.8653 H   0  0  0  0  0  0  0  0  0  0  0  0  # atno 7974 bound_to 7965
  155.6259  140.3496  155.4667 H   0  0  0  0  0  0  0  0  0  0  0  0  # atno 8008 bound_to 7997
  156.0042  140.1219  157.0541 H   0  0  0  0  0  0  0  0  0  0  0  0  # atno 8009 bound_to 7997
  154.4259  140.1094  156.5725 H   0  0  0  0  0  0  0  0  0  0  0  0  # atno 8010 bound_to 7997
  140.0450  144.5359  150.7406 H   0  0  0  0  0  0  0  0  0  0  0  0  # atno 10167 bound_to 10162
  157.6886  131.0655  150.4873 H   0  0  0  0  0  0  0  0  0  0  0  0  # atno 10718 bound_to 10713
  154.7375  135.5026  153.9067 H   0  0  0  0  0  0  0  0  0  0  0  0  # atno 10763 bound_to 10752
  153.1010  135.6685  153.9681 H   0  0  0  0  0  0  0  0  0  0  0  0  # atno 10764 bound_to 10752
  153.9467  135.3062  155.3419 H   0  0  0  0  0  0  0  0  0  0  0  0  # atno 10765 bound_to 10752
  141.0598  133.6713  156.3198 H   0  0  0  0  0  0  0  0  0  0  0  0  # atno 11005 bound_to 11000
  145.2959  141.0180  143.3636 LP  0  0  0  0  0  0  0  0  0  0  0  0  # atno 17320 bound_to 7965
  144.9042  139.4610  143.6618 LP  0  0  0  0  0  0  0  0  0  0  0  0  # atno 17321 bound_to 7965
  140.7243  143.2620  151.4174 LP  0  0  0  0  0  0  0  0  0  0  0  0  # atno 17342 bound_to 10162
  139.5989  144.1337  152.2176 LP  0  0  0  0  0  0  0  0  0  0  0  0  # atno 17343 bound_to 10162
  156.5202  130.4160  149.6255 LP  0  0  0  0  0  0  0  0  0  0  0  0  # atno 17370 bound_to 10713
  156.3161  130.7255  151.2158 LP  0  0  0  0  0  0  0  0  0  0  0  0  # atno 17371 bound_to 10713
  140.5892  134.5668  157.5496 LP  0  0  0  0  0  0  0  0  0  0  0  0  # atno 17394 bound_to 11000
  139.9422  134.7766  156.0650 LP  0  0  0  0  0  0  0  0  0  0  0  0  # atno 17395 bound_to 11000

$$$$
