AV-unprocessed.smi:1504|AV-procd|sdf|6071|dock4
  -GOLD-   22720 6193D 1   1.00000     0.00000
 Structure written by MMmdl.
 39 40  0  0  0  0  0  0  0  0  1 V2000
  145.8130  138.7577  153.6168 O   0  0  0  0  0  0  0  0  0  0  0  0
  146.7530  138.2239  153.0279 C   0  0  0  0  0  0  0  0  0  0  0  0
  146.6612  137.0626  152.3658 N   0  0  0  0  0  0  0  0  0  0  0  0
  145.4499  136.2545  152.2571 C   0  0  0  0  0  0  0  0  0  0  0  0
  145.1927  135.7377  150.8273 C   0  0  0  0  0  0  0  0  0  0  0  0
  145.0082  134.2318  150.7473 C   0  0  0  0  0  0  0  0  0  0  0  0
  143.8135  133.6264  151.1927 C   0  0  0  0  0  0  0  0  0  0  0  0
  143.6925  132.2270  151.0937 C   0  0  0  0  0  0  0  0  0  0  0  0
  144.7657  131.4902  150.5567 C   0  0  0  0  0  0  0  0  0  0  0  0
  145.9167  132.1889  150.1411 C   0  0  0  0  0  0  0  0  0  0  0  0
  146.0425  133.5306  150.2306 N   0  0  0  0  0  0  0  0  0  0  0  0
  147.9932  138.7297  152.9757 N   0  0  0  0  0  0  0  0  0  0  0  0
  148.4218  139.9828  153.5902 C   0  0  0  0  0  0  0  0  0  0  0  0
  149.4053  139.7596  154.7569 C   0  0  2  0  0  0  0  0  0  0  0  0
  150.0125  141.0592  155.3282 C   0  0  0  0  0  0  0  0  0  0  0  0
  151.1725  140.6932  156.2584 C   0  0  0  0  0  0  0  0  0  0  0  0
  151.9446  139.2089  155.5172 S   0  0  0  0  0  0  0  0  0  0  0  0
  153.1269  139.6085  154.7390 O   0  0  0  0  0  0  0  0  0  0  0  0
  152.0309  138.1530  156.5374 O   0  0  0  0  0  0  0  0  0  0  0  0
  150.5703  138.8374  154.3613 C   0  0  0  0  0  0  0  0  0  0  0  0
  147.4881  136.7059  151.9095 H   0  0  0  0  0  0  0  0  0  0  0  0
  145.5619  135.4069  152.9337 H   0  0  0  0  0  0  0  0  0  0  0  0
  144.5893  136.8211  152.6158 H   0  0  0  0  0  0  0  0  0  0  0  0
  144.3065  136.2240  150.4177 H   0  0  0  0  0  0  0  0  0  0  0  0
  146.0181  136.0286  150.1762 H   0  0  0  0  0  0  0  0  0  0  0  0
  143.0066  134.2195  151.5979 H   0  0  0  0  0  0  0  0  0  0  0  0
  142.7934  131.7282  151.4239 H   0  0  0  0  0  0  0  0  0  0  0  0
  144.7089  130.4155  150.4667 H   0  0  0  0  0  0  0  0  0  0  0  0
  146.7587  131.6554  149.7254 H   0  0  0  0  0  0  0  0  0  0  0  0
  148.6945  138.2128  152.4655 H   0  0  0  0  0  0  0  0  0  0  0  0
  148.9094  140.5741  152.8146 H   0  0  0  0  0  0  0  0  0  0  0  0
  147.5611  140.5676  153.9196 H   0  0  0  0  0  0  0  0  0  0  0  0
  148.8687  139.2687  155.5705 H   0  0  0  0  0  0  0  0  0  0  0  0
  150.3972  141.6657  154.5071 H   0  0  0  0  0  0  0  0  0  0  0  0
  149.2704  141.6631  155.8505 H   0  0  0  0  0  0  0  0  0  0  0  0
  151.9074  141.4915  156.3630 H   0  0  0  0  0  0  0  0  0  0  0  0
  150.8038  140.4233  157.2483 H   0  0  0  0  0  0  0  0  0  0  0  0
  150.3109  137.7800  154.4155 H   0  0  0  0  0  0  0  0  0  0  0  0
  150.9202  139.0557  153.3519 H   0  0  0  0  0  0  0  0  0  0  0  0
  1  2  2  0  0  0  0
  2  3  1  0  0  0  0
  2 12  1  0  0  0  0
  3  4  1  0  0  0  0
  3 21  1  0  0  0  0
  4  5  1  0  0  0  0
  4 22  1  0  0  0  0
  4 23  1  0  0  0  0
  5  6  1  0  0  0  0
  5 24  1  0  0  0  0
  5 25  1  0  0  0  0
  6 11  1  0  0  0  0
  6  7  2  0  0  0  0
  7  8  1  0  0  0  0
  7 26  1  0  0  0  0
  8  9  2  0  0  0  0
  8 27  1  0  0  0  0
  9 10  1  0  0  0  0
  9 28  1  0  0  0  0
 10 11  2  0  0  0  0
 10 29  1  0  0  0  0
 12 13  1  0  0  0  0
 12 30  1  0  0  0  0
 13 14  1  0  0  0  0
 13 31  1  0  0  0  0
 13 32  1  0  0  0  0
 14 20  1  0  0  0  0
 14 15  1  0  0  0  0
 14 33  1  0  0  0  0
 15 16  1  0  0  0  0
 15 34  1  0  0  0  0
 15 35  1  0  0  0  0
 16 17  1  0  0  0  0
 16 36  1  0  0  0  0
 16 37  1  0  0  0  0
 17 18  2  0  0  0  0
 17 19  2  0  0  0  0
 17 20  1  0  0  0  0
 20 38  1  0  0  0  0
 20 39  1  0  0  0  0
M  END
> <s_m_source_file>
AV-unprocessed.smi

> <i_m_source_file_index>
1504

> <i_lp_mmshare_version>
43012

> <i_f3d_flags>
0

> <s_epik_input>
Tz1TMSg9TylbQ0gyXVtDSDJdW0NASF0oW0NIMl0xKVtDSDJdW05IXUMoPU8pW05IXVtDSDJdW0NIMl1jMltjSF1bY0hdW2NIXVtjSF1uMg==

> <s_epik_cmdline>
J2VwaWtfcHl0aG9uJywgJy1waCcsICc3LjAnLCAnLXRuJywgJzgnLCAnLW1hJywgJzIwMCcsICctbWV0YWxfYmluZGluZycsICctaW1hZScsICc8aW5maWxlLm1hZT4nLCAnLW9tYWUnLCAnPG91dGZpbGUubWFlPic=

> <r_epik_Ionization_Penalty>
0.0431785

> <r_epik_Ionization_Penalty_Charging>
0

> <r_epik_Ionization_Penalty_Neutral>
0.0431785

> <r_epik_State_Penalty>
0.0364691

> <r_epik_Charging_Adjusted_Penalty>
0.0364691

> <i_epik_Tot_Q>
0

> <i_epik_Tot_abs_Q>
0

> <r_epik_Metal_State_Penalty>
0.0339827

> <b_epik_Metal_Only>
0

> <s_lp_Force_Field>
OPLS_2005

> <r_lp_Energy>
2.61241

> <b_lp_Chiralities_Consistent>
1

> <s_lp_Variant>
AV-unprocessed.smi:1504-1

> <Gold.Version>
5.8.1

> <Gold.Id.Protein>
6NUR|6NUR_protein|mol2

> <Gold.PLP.Fitness>
48.0751

> <Gold.PLP.PLP>
-38.5153

> <Gold.PLP.part.hbond>
-4.7976

> <Gold.PLP.part.metal>
0.0000

> <Gold.PLP.part.buried>
-1.8531

> <Gold.PLP.part.nonpolar>
-34.7116

> <Gold.PLP.part.repulsive>
3.0899

> <Gold.PLP.ligand.clash>
0.0000

> <Gold.PLP.ligand.torsion>
0.6971

> <Gold.PLP.Chemscore.Hbond>
2.6449

> <Gold.PLP.Chemscore.CHOScore>
1.0000

> <Gold.PLP.Chemscore.Metal>
0.0000

> <Gold.Chemscore.Hbonds>
donor molecule, donor type, donor heavy atom, donor atom, acceptor molecule, acceptor atom, score
      L1  H     3    21       P1  7948  0.98
      L1  H    12    30       P1  7948  0.71
      P1  H  7989  7998       L1    18  0.05
      P1  H  7997  8009       L1    18  0.93
      L1  C    10    29       P1 10747  1.00

> <Gold.PLP.Chemscore.Internal.Correction>
0.0194

> <Gold.Rescore>
     Score         DG    S(hbond)    S(metal)    S(lipo)     H(rot)  DE(clash)    DE(int)     intcor
     18.66     -19.49       2.90        0.00      78.84       1.91       0.13       0.70       ----

> <Gold.Chemscore.Fitness>
18.6603

> <Gold.Chemscore.DG>
-19.4901

> <Gold.Chemscore.ZeroCoef>
-5.4800

> <Gold.Chemscore.Hbond>
2.8971

> <Gold.Chemscore.Metal>
0.0000

> <Gold.Chemscore.Lipo>
78.8427

> <Gold.Chemscore.Internal_Hbond>
0.0000

> <Gold.Chemscore.DEClash>
0.1298

> <Gold.Chemscore.DEInternal>
0.7000

> <Gold.Chemscore.Rot>
1.9105

> <Gold.Chemscore.Internal.Correction>
   9.000000E+99

> <Gold.Chemscore.Hbonds>
donor molecule, donor type, donor heavy atom, donor atom, acceptor molecule, acceptor atom, score
      L1  H     3    21       P1  7948  0.90
      L1  H    12    30       P1  7948  0.66
      P1  H  7997  8009       L1    18  0.31

> <Gold.Chemscore.Hbond.Weighted>
-9.6763

> <Gold.Chemscore.Metal.Weighted>
-0.0000

> <Gold.Chemscore.Lipo.Weighted>
-9.2246

> <Gold.Chemscore.Internal_Hbond.Weighted>
0.0000

> <Gold.Chemscore.DEClash.Weighted>
0.1298

> <Gold.Chemscore.DEInternal.Weighted>
0.7000

> <Gold.Chemscore.Rot.Weighted>
4.8908

> <Gold.Chemscore.Internal.Correction.Weighted>
   9.000000E+99

> <Gold.Protein.RotatedTorsions>
[ 6907 6896 6895 6894 ] final  153.87 input  -60.11 | X-H torsion
[ 7974 7965 7964 7962 ] final  -61.83 input  175.53 | X-H torsion
[ 8008 7997 7996 7995 ] final -153.64 input   59.86 | X-H torsion
[ 10167 10162 10161 10158 ] final  -45.59 input  -65.29 | X-H torsion
[ 10718 10713 10712 10709 ] final   -3.45 input   66.30 | X-H torsion
[ 10763 10752 10751 10750 ] final   73.01 input  -60.55 | X-H torsion
[ 11005 11000 10999 10996 ] final   -4.43 input  -57.11 | X-H torsion

> <Gold.Protein.ActiveResidues>
 VAL166  LYS551  ARG553  GLY616  TRP617  ASP618  TYR619  PRO620  LYS621  CYS622 
 ASP623  PHE694  ASN695  SER759  ASP760  ASP761  ALA762  ILE779  LEU786  VAL792 
 PHE793  MET794  SER795  GLU796  ALA797  LYS798  CYS799  TRP800  GLU811  SER814 

> <Gold.Protein.RotatedAtoms>
  152.0666  133.4087  159.4440 H   0  0  0  0  0  0  0  0  0  0  0  0  # atno 6907 bound_to 6896
  150.6864  134.3140  159.4767 H   0  0  0  0  0  0  0  0  0  0  0  0  # atno 6908 bound_to 6896
  152.0967  134.9370  160.0621 H   0  0  0  0  0  0  0  0  0  0  0  0  # atno 6909 bound_to 6896
  145.7987  140.8667  143.0242 H   0  0  0  0  0  0  0  0  0  0  0  0  # atno 7974 bound_to 7965
  155.6739  140.0736  157.2509 H   0  0  0  0  0  0  0  0  0  0  0  0  # atno 8008 bound_to 7997
  154.4118  140.1694  156.1961 H   0  0  0  0  0  0  0  0  0  0  0  0  # atno 8009 bound_to 7997
  155.9592  140.3371  155.6479 H   0  0  0  0  0  0  0  0  0  0  0  0  # atno 8010 bound_to 7997
  140.6852  143.2872  151.3661 H   0  0  0  0  0  0  0  0  0  0  0  0  # atno 10167 bound_to 10162
  156.7758  130.5314  149.5759 H   0  0  0  0  0  0  0  0  0  0  0  0  # atno 10718 bound_to 10713
  153.0495  135.5078  154.7830 H   0  0  0  0  0  0  0  0  0  0  0  0  # atno 10763 bound_to 10752
  154.6704  135.2952  154.9752 H   0  0  0  0  0  0  0  0  0  0  0  0  # atno 10764 bound_to 10752
  154.0572  135.6696  153.4860 H   0  0  0  0  0  0  0  0  0  0  0  0  # atno 10765 bound_to 10752
  140.6802  133.9160  155.8550 H   0  0  0  0  0  0  0  0  0  0  0  0  # atno 11005 bound_to 11000
  144.6771  140.0228  143.7483 LP  0  0  0  0  0  0  0  0  0  0  0  0  # atno 17320 bound_to 7965
  145.9900  139.3007  143.0990 LP  0  0  0  0  0  0  0  0  0  0  0  0  # atno 17321 bound_to 7965
  139.6204  144.0918  152.2386 LP  0  0  0  0  0  0  0  0  0  0  0  0  # atno 17342 bound_to 10162
  140.0361  144.6044  150.7449 LP  0  0  0  0  0  0  0  0  0  0  0  0  # atno 17343 bound_to 10162
  156.1249  130.6136  151.0249 LP  0  0  0  0  0  0  0  0  0  0  0  0  # atno 17370 bound_to 10713
  157.6670  131.0869  150.7705 LP  0  0  0  0  0  0  0  0  0  0  0  0  # atno 17371 bound_to 10713
  141.0324  134.0738  157.3999 LP  0  0  0  0  0  0  0  0  0  0  0  0  # atno 17394 bound_to 11000
  139.8954  135.0141  156.7001 LP  0  0  0  0  0  0  0  0  0  0  0  0  # atno 17395 bound_to 11000

$$$$
