AV-unprocessed.smi:560|AV-procd|sdf|2928|dock8
  -GOLD-   2262023423D 1   1.00000     0.00000
 Structure written by MMmdl.
 42 43  0  0  0  0  0  0  0  0  2 V2000
  147.6816  142.6843  154.5828 C   0  0  0  0  0  0  0  0  0  0  0  0
  148.3934  141.3768  154.1797 C   0  0  2  0  0  0  0  0  0  0  0  0
  147.4443  140.1667  154.1185 C   0  0  0  0  0  0  0  0  0  0  0  0
  146.9195  139.7214  155.1400 O   0  0  0  0  0  0  0  0  0  0  0  0
  147.2287  139.6415  152.9011 N   0  0  0  0  0  0  0  0  0  0  0  0
  146.3913  138.4798  152.6217 C   0  0  2  0  0  0  0  0  0  0  0  0
  146.6854  137.3402  153.6157 C   0  0  0  0  0  0  0  0  0  0  0  0
  145.8876  136.0755  153.2602 C   0  0  0  0  0  0  0  0  0  0  0  0
  146.1750  135.6360  151.8686 N   0  3  1  0  0  0  0  0  0  0  0  0
  145.5347  134.3388  151.5253 C   0  0  0  0  0  0  0  0  0  0  0  0
  144.0027  134.3858  151.4156 C   0  0  0  0  0  0  0  0  0  0  0  0
  143.4149  133.9505  150.2953 N   0  0  0  0  0  0  0  0  0  0  0  0
  143.3449  134.8202  152.3573 O   0  0  0  0  0  0  0  0  0  0  0  0
  145.8532  136.7041  150.8878 C   0  0  0  0  0  0  0  0  0  0  0  0
  146.6447  137.9886  151.1872 C   0  0  0  0  0  0  0  0  0  0  0  0
  149.5349  141.0975  155.0448 N   0  0  0  0  0  0  0  0  0  0  0  0
  149.8739  141.7170  156.2307 C   0  0  0  0  0  0  0  0  0  0  0  0
  151.0301  141.1445  156.6775 C   0  0  0  0  0  0  0  0  0  0  0  0
  151.3325  140.1735  155.6831 C   0  0  0  0  0  0  0  0  0  0  0  0
  150.4421  140.1521  154.7051 N   0  0  0  0  0  0  0  0  0  0  0  0
  146.8742  142.9240  153.8900 H   0  0  0  0  0  0  0  0  0  0  0  0
  148.3774  143.5238  154.5732 H   0  0  0  0  0  0  0  0  0  0  0  0
  147.2524  142.6233  155.5838 H   0  0  0  0  0  0  0  0  0  0  0  0
  148.7823  141.5189  153.1701 H   0  0  0  0  0  0  0  0  0  0  0  0
  147.6948  140.0701  152.1145 H   0  0  0  0  0  0  0  0  0  0  0  0
  145.3417  138.7682  152.7069 H   0  0  0  0  0  0  0  0  0  0  0  0
  147.7520  137.1096  153.6127 H   0  0  0  0  0  0  0  0  0  0  0  0
  146.4406  137.6511  154.6320 H   0  0  0  0  0  0  0  0  0  0  0  0
  146.1382  135.2838  153.9666 H   0  0  0  0  0  0  0  0  0  0  0  0
  144.8185  136.2652  153.3696 H   0  0  0  0  0  0  0  0  0  0  0  0
  145.9605  133.9447  150.6011 H   0  0  0  0  0  0  0  0  0  0  0  0
  145.7591  133.6065  152.3020 H   0  0  0  0  0  0  0  0  0  0  0  0
  142.4112  133.9667  150.1961 H   0  0  0  0  0  0  0  0  0  0  0  0
  143.9889  133.5986  149.5415 H   0  0  0  0  0  0  0  0  0  0  0  0
  146.0947  136.3648  149.8797 H   0  0  0  0  0  0  0  0  0  0  0  0
  144.7811  136.9071  150.9066 H   0  0  0  0  0  0  0  0  0  0  0  0
  146.3697  138.7649  150.4720 H   0  0  0  0  0  0  0  0  0  0  0  0
  147.7093  137.7978  151.0424 H   0  0  0  0  0  0  0  0  0  0  0  0
  149.2698  142.5056  156.6548 H   0  0  0  0  0  0  0  0  0  0  0  0
  151.5768  141.3828  157.5777 H   0  0  0  0  0  0  0  0  0  0  0  0
  152.1680  139.4902  155.6415 H   0  0  0  0  0  0  0  0  0  0  0  0
  147.1713  135.4862  151.8017 H   0  0  0  0  0  0  0  0  0  0  0  0
  1  2  1  0  0  0  0
  1 21  1  0  0  0  0
  1 22  1  0  0  0  0
  1 23  1  0  0  0  0
  2  3  1  0  0  0  0
  2 16  1  0  0  0  0
  2 24  1  0  0  0  0
  3  4  2  0  0  0  0
  3  5  1  0  0  0  0
  5  6  1  0  0  0  0
  5 25  1  0  0  0  0
  6 15  1  0  0  0  0
  6  7  1  0  0  0  0
  6 26  1  0  0  0  0
  7  8  1  0  0  0  0
  7 27  1  0  0  0  0
  7 28  1  0  0  0  0
  8  9  1  0  0  0  0
  8 29  1  0  0  0  0
  8 30  1  0  0  0  0
  9 10  1  0  0  0  0
  9 14  1  0  0  0  0
  9 42  1  0  0  0  0
 10 11  1  0  0  0  0
 10 31  1  0  0  0  0
 10 32  1  0  0  0  0
 11 12  1  0  0  0  0
 11 13  2  0  0  0  0
 12 33  1  0  0  0  0
 12 34  1  0  0  0  0
 14 15  1  0  0  0  0
 14 35  1  0  0  0  0
 14 36  1  0  0  0  0
 15 37  1  0  0  0  0
 15 38  1  0  0  0  0
 16 20  1  0  0  0  0
 16 17  1  0  0  0  0
 17 18  2  0  0  0  0
 17 39  1  0  0  0  0
 18 19  1  0  0  0  0
 18 40  1  0  0  0  0
 19 20  2  0  0  0  0
 19 41  1  0  0  0  0
M  CHG  1   9   1
M  END
> <s_m_source_file>
AV-unprocessed.smi

> <i_m_source_file_index>
560

> <i_lp_mmshare_version>
43012

> <i_f3d_flags>
0

> <s_epik_input>
bjFbY0hdW2NIXVtjSF1uMVtDQEhdKFtDSDNdKUMoPU8pW05IXVtDSF0yW0NIMl1bQ0gyXU4oW0NIMl1bQ0gyXTIpW0NIMl1DKD1PKVtOSDJd

> <s_epik_cmdline>
J2VwaWtfcHl0aG9uJywgJy1waCcsICc3LjAnLCAnLXRuJywgJzgnLCAnLW1hJywgJzIwMCcsICctbWV0YWxfYmluZGluZycsICctaW1hZScsICc8aW5maWxlLm1hZT4nLCAnLW9tYWUnLCAnPG91dGZpbGUubWFlPic=

> <r_lp_tautomer_probability>
1

> <r_epik_Ionization_Penalty>
1.02943

> <r_epik_Ionization_Penalty_Charging>
1.02936

> <r_epik_Ionization_Penalty_Neutral>
7.4537e-05

> <r_epik_State_Penalty>
1.08036

> <r_epik_Charging_Adjusted_Penalty>
2.10972

> <i_epik_Tot_Q>
1

> <i_epik_Tot_abs_Q>
1

> <r_epik_Metal_State_Penalty>
1.09347

> <b_epik_Metal_Only>
0

> <s_lp_Force_Field>
OPLS_2005

> <r_lp_Energy>
17.0208

> <b_lp_Chiralities_Consistent>
1

> <s_lp_Variant>
AV-unprocessed.smi:560-3

> <Gold.Version>
5.8.1

> <Gold.Id.Protein>
6NUR|6NUR_protein|mol2

> <Gold.PLP.Fitness>
43.3744

> <Gold.PLP.PLP>
-27.8014

> <Gold.PLP.part.hbond>
-4.0000

> <Gold.PLP.part.metal>
0.0000

> <Gold.PLP.part.buried>
9.6320

> <Gold.PLP.part.nonpolar>
-33.2585

> <Gold.PLP.part.repulsive>
0.4296

> <Gold.PLP.ligand.clash>
0.0000

> <Gold.PLP.ligand.torsion>
0.4193

> <Gold.PLP.Chemscore.Hbond>
4.4520

> <Gold.PLP.Chemscore.CHOScore>
0.9753

> <Gold.PLP.Chemscore.Metal>
0.0000

> <Gold.Chemscore.Hbonds>
donor molecule, donor type, donor heavy atom, donor atom, acceptor molecule, acceptor atom, score
      L1  H     5    25       P1  7957  0.64
      L1  H     9    42       P1  7948  1.98
      L1  H    12    33       P1 10186  1.00
      P1  H  7989  7998       L1    20  0.65
      L1  C    17    39       P1  8028  0.93

> <Gold.PLP.Chemscore.Internal.Correction>
0.1298

> <Gold.Rescore>
     Score         DG    S(hbond)    S(metal)    S(lipo)     H(rot)  DE(clash)    DE(int)     intcor
     15.24     -21.60       4.19        0.00      73.37       2.52       4.46       1.90       ----

> <Gold.Chemscore.Fitness>
15.2368

> <Gold.Chemscore.DG>
-21.6001

> <Gold.Chemscore.ZeroCoef>
-5.4800

> <Gold.Chemscore.Hbond>
4.1909

> <Gold.Chemscore.Metal>
0.0000

> <Gold.Chemscore.Lipo>
73.3742

> <Gold.Chemscore.Internal_Hbond>
0.0000

> <Gold.Chemscore.DEClash>
4.4593

> <Gold.Chemscore.DEInternal>
1.9040

> <Gold.Chemscore.Rot>
2.5243

> <Gold.Chemscore.Internal.Correction>
   9.000000E+99

> <Gold.Chemscore.Hbonds>
donor molecule, donor type, donor heavy atom, donor atom, acceptor molecule, acceptor atom, score
      L1  H     5    25       P1  7957  0.63
      L1  H     9    42       P1  7948  0.93
      L1  H    12    33       P1 10186  0.95
      P1  H  7989  7998       L1    20  0.04

> <Gold.Chemscore.Hbond.Weighted>
-13.9975

> <Gold.Chemscore.Metal.Weighted>
-0.0000

> <Gold.Chemscore.Lipo.Weighted>
-8.5848

> <Gold.Chemscore.Internal_Hbond.Weighted>
0.0000

> <Gold.Chemscore.DEClash.Weighted>
4.4593

> <Gold.Chemscore.DEInternal.Weighted>
1.9040

> <Gold.Chemscore.Rot.Weighted>
6.4622

> <Gold.Chemscore.Internal.Correction.Weighted>
   9.000000E+99

> <Gold.Protein.RotatedTorsions>
[ 6907 6896 6895 6894 ] final -179.46 input  -60.11 | X-H torsion
[ 7974 7965 7964 7962 ] final  -71.96 input  175.53 | X-H torsion
[ 8008 7997 7996 7995 ] final  178.67 input   59.86 | X-H torsion
[ 10167 10162 10161 10158 ] final   33.94 input  -65.29 | X-H torsion
[ 10718 10713 10712 10709 ] final -148.18 input   66.30 | X-H torsion
[ 10763 10752 10751 10750 ] final -149.83 input  -60.55 | X-H torsion
[ 11005 11000 10999 10996 ] final  102.97 input  -57.11 | X-H torsion

> <Gold.Protein.ActiveResidues>
 VAL166  LYS551  ARG553  GLY616  TRP617  ASP618  TYR619  PRO620  LYS621  CYS622 
 ASP623  PHE694  ASN695  SER759  ASP760  ASP761  ALA762  ILE779  LEU786  VAL792 
 PHE793  MET794  SER795  GLU796  ALA797  LYS798  CYS799  TRP800  GLU811  SER814 

> <Gold.Protein.RotatedAtoms>
  151.6538  133.3320  159.3157 H   0  0  0  0  0  0  0  0  0  0  0  0  # atno 6907 bound_to 6896
  150.7947  134.7001  159.6555 H   0  0  0  0  0  0  0  0  0  0  0  0  # atno 6908 bound_to 6896
  152.4032  134.6255  160.0113 H   0  0  0  0  0  0  0  0  0  0  0  0  # atno 6909 bound_to 6896
  145.6713  140.9220  143.0881 H   0  0  0  0  0  0  0  0  0  0  0  0  # atno 7974 bound_to 7965
  156.0521  140.1328  157.0039 H   0  0  0  0  0  0  0  0  0  0  0  0  # atno 8008 bound_to 7997
  154.4440  140.1009  156.6462 H   0  0  0  0  0  0  0  0  0  0  0  0  # atno 8009 bound_to 7997
  155.5508  140.3463  155.4470 H   0  0  0  0  0  0  0  0  0  0  0  0  # atno 8010 bound_to 7997
  140.4361  144.1255  150.6166 H   0  0  0  0  0  0  0  0  0  0  0  0  # atno 10167 bound_to 10162
  156.4170  130.8010  151.2231 H   0  0  0  0  0  0  0  0  0  0  0  0  # atno 10718 bound_to 10713
  154.8154  135.3299  154.7189 H   0  0  0  0  0  0  0  0  0  0  0  0  # atno 10763 bound_to 10752
  153.7831  135.6917  153.4889 H   0  0  0  0  0  0  0  0  0  0  0  0  # atno 10764 bound_to 10752
  153.1967  135.4531  155.0163 H   0  0  0  0  0  0  0  0  0  0  0  0  # atno 10765 bound_to 10752
  139.8780  134.9245  156.5139 H   0  0  0  0  0  0  0  0  0  0  0  0  # atno 11005 bound_to 11000
  144.7056  139.8576  143.7431 LP  0  0  0  0  0  0  0  0  0  0  0  0  # atno 17320 bound_to 7965
  146.1043  139.4041  143.0327 LP  0  0  0  0  0  0  0  0  0  0  0  0  # atno 17321 bound_to 7965
  140.4372  143.2542  151.9520 LP  0  0  0  0  0  0  0  0  0  0  0  0  # atno 17342 bound_to 10162
  139.4787  144.5689  151.8121 LP  0  0  0  0  0  0  0  0  0  0  0  0  # atno 17343 bound_to 10162
  157.7508  131.0240  150.3857 LP  0  0  0  0  0  0  0  0  0  0  0  0  # atno 17370 bound_to 10713
  156.4167  130.3945  149.6853 LP  0  0  0  0  0  0  0  0  0  0  0  0  # atno 17371 bound_to 10713
  140.8500  133.8139  155.9159 LP  0  0  0  0  0  0  0  0  0  0  0  0  # atno 17394 bound_to 11000
  140.9154  134.2209  157.4960 LP  0  0  0  0  0  0  0  0  0  0  0  0  # atno 17395 bound_to 11000

$$$$
