#       Name:                AV-unprocessed.smi:3023
#       Creating user name   scv26
#       Creation time:       Fri Mar 27 16:43:52 2020


#       File generated by GOLD software.
#

@<TRIPOS>MOLECULE
AV-unprocessed.smi:3023
    46    47     1
SMALL
NO_CHARGES


@<TRIPOS>ATOM
      1 ****        -2.7526   2.8816  -3.1783 C.3            1 S1                 0.0000
      2 ****        -2.1499   1.8282  -2.3305 N.4            1 S1                 1.0000
      3 ****        -1.0001   1.1647  -3.0041 C.3            1 S1                 0.0000
      4 ****        -0.9207  -0.3510  -2.7175 C.3            1 S1                 0.0000
      5 ****        -1.0959  -0.7626  -1.2421 C.3            1 S1                 0.0000
      6 ****        -0.5935   0.2722  -0.3254 N.am           1 S1                 0.0000
      7 ****         0.7040   0.4342   0.0384 C.2            1 S1                 0.0000
      8 ****         1.0909   1.3677   0.7422 O.2            1 S1                 0.0000
      9 ****         1.5358  -0.5181  -0.4213 N.am           1 S1                 0.0000
     10 ****         2.9585  -0.6354  -0.1085 C.3            1 S1                 0.0000
     11 ****         3.2291  -1.7524   0.9164 C.3            1 S1                 0.0000
     12 ****         2.4363  -1.5841   2.1858 C.2            1 S1                 0.0000
     13 ****         2.6242  -0.6159   3.2134 C.2            1 S1                 0.0000
     14 ****         1.7339  -0.7196   4.1864 N.2            1 S1                 0.0000
     15 ****         0.9541  -1.7570   3.8193 N.pl3          1 S1                 0.0000
     16 ****        -0.1508  -2.1552   4.6647 C.3            1 S1                 0.0000
     17 ****         1.3558  -2.3001   2.6185 C.2            1 S1                 0.0000
     18 ****        -1.6282   1.2319   0.0812 C.3            1 S1                 0.0000
     19 ****        -1.8243   2.3436  -0.9696 C.3            1 S1                 0.0000
     20 ****        -2.0410   3.6871  -3.3643 H              1 S1                 0.0000
     21 ****        -3.6355   3.3076  -2.7007 H              1 S1                 0.0000
     22 ****        -3.0684   2.4722  -4.1385 H              1 S1                 0.0000
     23 ****        -1.0766   1.2863  -4.0857 H              1 S1                 0.0000
     24 ****        -0.0688   1.6598  -2.7247 H              1 S1                 0.0000
     25 ****        -1.6673  -0.8754  -3.3150 H              1 S1                 0.0000
     26 ****         0.0451  -0.7105  -3.0744 H              1 S1                 0.0000
     27 ****        -2.1559  -0.9401  -1.0571 H              1 S1                 0.0000
     28 ****        -0.6291  -1.7310  -1.0557 H              1 S1                 0.0000
     29 ****         1.1397  -1.2476  -0.9957 H              1 S1                 0.0000
     30 ****         3.4970  -0.8475  -1.0323 H              1 S1                 0.0000
     31 ****         3.3558   0.3110   0.2619 H              1 S1                 0.0000
     32 ****         3.0034  -2.7141   0.4545 H              1 S1                 0.0000
     33 ****         4.2972  -1.7793   1.1347 H              1 S1                 0.0000
     34 ****         3.3701   0.1628   3.2731 H              1 S1                 0.0000
     35 ****        -0.4977  -3.1493   4.3809 H              1 S1                 0.0000
     36 ****        -0.9718  -1.4463   4.5532 H              1 S1                 0.0000
     37 ****         0.1655  -2.1769   5.7082 H              1 S1                 0.0000
     38 ****         0.8391  -3.1357   2.1699 H              1 S1                 0.0000
     39 ****        -2.5760   0.7205   0.2528 H              1 S1                 0.0000
     40 ****        -1.3864   1.6823   1.0455 H              1 S1                 0.0000
     41 ****        -0.9405   2.9819  -1.0193 H              1 S1                 0.0000
     42 ****        -2.6375   2.9834  -0.6246 H              1 S1                 0.0000
     43 ****        -2.8684   1.1273  -2.2176 H              1 S1                 0.0000
     44 ****         0.4377   2.0492   1.0723 LP             1 S1                 0.0000
     45 ****         2.0583   1.4442   0.9837 LP             1 S1                 0.0000
     46 ****         1.6566  -0.1559   5.0088 LP             1 S1                 0.0000
@<TRIPOS>BOND
    1    1    2 1     
    2    1   20 1     
    3    1   21 1     
    4    1   22 1     
    5    2   19 1     
    6    2    3 1     
    7    2   43 1     
    8    3    4 1     
    9    3   23 1     
   10    3   24 1     
   11    4    5 1     
   12    4   25 1     
   13    4   26 1     
   14    5    6 1     
   15    5   27 1     
   16    5   28 1     
   17    6    7 am    
   18    6   18 1     
   19    7    8 2     
   20    7    9 am    
   21    9   10 1     
   22    9   29 1     
   23   10   11 1     
   24   10   30 1     
   25   10   31 1     
   26   11   12 1     
   27   11   32 1     
   28   11   33 1     
   29   12   17 2     
   30   12   13 1     
   31   13   14 2     
   32   13   34 1     
   33   14   15 1     
   34   15   16 1     
   35   15   17 1     
   36   16   35 1     
   37   16   36 1     
   38   16   37 1     
   39   17   38 1     
   40   18   19 1     
   41   18   39 1     
   42   18   40 1     
   43   19   41 1     
   44   19   42 1     
   45    8   44 1     
   46    8   45 1     
   47   14   46 1     
@<TRIPOS>SUBSTRUCTURE
      1 S1             1
@<TRIPOS>SET
LONE_PAIRS      STATIC     ATOMS    <user>   **** ""
3 44 45 46
DONOR_HYDROGENS      STATIC     ATOMS    <user>   **** ""
2 43 29
ATOM$BLUE        STATIC     ATOMS    COLORGROUP SYSTEM
3 44 45 46
ATOM$RED        STATIC     ATOMS    COLORGROUP SYSTEM
2 43 29
