AV-unprocessed.smi:2724|AV-procd|sdf|10512|dock4
  -GOLD-   2272014553D 1   1.00000     0.00000
 Structure written by MMmdl.
 26 27  0  0  0  0  0  0  0  0  2 V2000
  144.3129  134.3283  148.9550 O   0  0  0  0  0  0  0  0  0  0  0  0
  144.1895  133.1021  149.6491 C   0  0  1  0  0  0  0  0  0  0  0  0
  145.3766  132.1681  149.4141 C   0  0  0  0  0  0  0  0  0  0  0  0
  145.2782  131.1778  150.5720 C   0  0  0  0  0  0  0  0  0  0  0  0
  144.8393  132.0291  151.7674 C   0  0  0  0  0  0  0  0  0  0  0  0
  144.0415  133.2171  151.1859 C   0  0  1  0  0  0  0  0  0  0  0  0
  144.4688  134.5556  151.7864 C   0  0  0  0  0  0  0  0  0  0  0  0
  143.5032  135.4354  152.3267 C   0  0  0  0  0  0  0  0  0  0  0  0
  143.9144  136.6673  152.8769 C   0  0  0  0  0  0  0  0  0  0  0  0
  145.2848  136.9964  152.8765 C   0  0  0  0  0  0  0  0  0  0  0  0
  146.1821  136.1328  152.3538 N   0  3  0  0  0  0  0  0  0  0  0  0
  145.8286  134.9436  151.8197 C   0  0  0  0  0  0  0  0  0  0  0  0
  145.1077  134.3066  148.4438 H   0  0  0  0  0  0  0  0  0  0  0  0
  143.3018  132.6006  149.2606 H   0  0  0  0  0  0  0  0  0  0  0  0
  145.3408  131.6796  148.4397 H   0  0  0  0  0  0  0  0  0  0  0  0
  146.3160  132.7186  149.4782 H   0  0  0  0  0  0  0  0  0  0  0  0
  144.5141  130.4310  150.3515 H   0  0  0  0  0  0  0  0  0  0  0  0
  146.2151  130.6506  150.7542 H   0  0  0  0  0  0  0  0  0  0  0  0
  144.2574  131.4557  152.4896 H   0  0  0  0  0  0  0  0  0  0  0  0
  145.7317  132.3778  152.2886 H   0  0  0  0  0  0  0  0  0  0  0  0
  142.9862  133.0722  151.4227 H   0  0  0  0  0  0  0  0  0  0  0  0
  142.4551  135.1729  152.3225 H   0  0  0  0  0  0  0  0  0  0  0  0
  143.1881  137.3502  153.2931 H   0  0  0  0  0  0  0  0  0  0  0  0
  145.6870  137.9165  153.2749 H   0  0  0  0  0  0  0  0  0  0  0  0
  146.6394  134.3435  151.4335 H   0  0  0  0  0  0  0  0  0  0  0  0
  147.1697  136.3893  152.3622 H   0  0  0  0  0  0  0  0  0  0  0  0
  1  2  1  0  0  0  0
  1 13  1  0  0  0  0
  2  6  1  0  0  0  0
  2  3  1  0  0  0  0
  2 14  1  0  0  0  0
  3  4  1  0  0  0  0
  3 15  1  0  0  0  0
  3 16  1  0  0  0  0
  4  5  1  0  0  0  0
  4 17  1  0  0  0  0
  4 18  1  0  0  0  0
  5  6  1  0  0  0  0
  5 19  1  0  0  0  0
  5 20  1  0  0  0  0
  6  7  1  0  0  0  0
  6 21  1  0  0  0  0
  7 12  1  0  0  0  0
  7  8  2  0  0  0  0
  8  9  1  0  0  0  0
  8 22  1  0  0  0  0
  9 10  2  0  0  0  0
  9 23  1  0  0  0  0
 10 11  1  0  0  0  0
 10 24  1  0  0  0  0
 11 12  2  0  0  0  0
 11 26  1  0  0  0  0
 12 25  1  0  0  0  0
M  CHG  1  11   1
M  END
> <s_m_source_file>
AV-unprocessed.smi

> <i_m_source_file_index>
2724

> <i_lp_mmshare_version>
43012

> <i_f3d_flags>
0

> <s_epik_input>
W09IXVtDQEBIXTFbQ0gyXVtDSDJdW0NIMl1bQ0BIXTFjMltjSF1bY0hdW2NIXW5bY0hdMg==

> <s_epik_cmdline>
J2VwaWtfcHl0aG9uJywgJy1waCcsICc3LjAnLCAnLXRuJywgJzgnLCAnLW1hJywgJzIwMCcsICctbWV0YWxfYmluZGluZycsICctaW1hZScsICc8aW5maWxlLm1hZT4nLCAnLW9tYWUnLCAnPG91dGZpbGUubWFlPic=

> <r_epik_Ionization_Penalty>
2.09455

> <r_epik_Ionization_Penalty_Charging>
2.09455

> <r_epik_Ionization_Penalty_Neutral>
5.26757e-08

> <r_epik_State_Penalty>
2.23025

> <r_epik_Charging_Adjusted_Penalty>
4.3248

> <i_epik_Tot_Q>
1

> <i_epik_Tot_abs_Q>
1

> <r_epik_Metal_State_Penalty>
6.30911

> <b_epik_Metal_Only>
0

> <s_lp_Force_Field>
OPLS_2005

> <r_lp_Energy>
31.4786

> <b_lp_Chiralities_Consistent>
1

> <s_lp_Variant>
AV-unprocessed.smi:2724-6

> <Gold.Version>
5.8.1

> <Gold.Id.Protein>
6NUR|6NUR_protein|mol2

> <Gold.PLP.Fitness>
36.4890

> <Gold.PLP.PLP>
-27.8422

> <Gold.PLP.part.hbond>
-2.3058

> <Gold.PLP.part.metal>
0.0000

> <Gold.PLP.part.buried>
-5.1680

> <Gold.PLP.part.nonpolar>
-20.0762

> <Gold.PLP.part.repulsive>
0.0464

> <Gold.PLP.ligand.clash>
0.0000

> <Gold.PLP.ligand.torsion>
0.1532

> <Gold.PLP.Chemscore.Hbond>
2.9840

> <Gold.PLP.Chemscore.CHOScore>
0.0000

> <Gold.PLP.Chemscore.Metal>
0.0000

> <Gold.Chemscore.Hbonds>
donor molecule, donor type, donor heavy atom, donor atom, acceptor molecule, acceptor atom, score
      L1  H     1    13       P1  7921  0.67
      L1  H    11    26       P1  7948  2.00

> <Gold.PLP.Chemscore.Internal.Correction>
0.0012

> <Gold.Rescore>
     Score         DG    S(hbond)    S(metal)    S(lipo)     H(rot)  DE(clash)    DE(int)     intcor
     16.73     -17.13       1.93        0.00      74.10       1.35       0.19       0.21       ----

> <Gold.Chemscore.Fitness>
16.7269

> <Gold.Chemscore.DG>
-17.1297

> <Gold.Chemscore.ZeroCoef>
-5.4800

> <Gold.Chemscore.Hbond>
1.9266

> <Gold.Chemscore.Metal>
0.0000

> <Gold.Chemscore.Lipo>
74.1030

> <Gold.Chemscore.Internal_Hbond>
0.0000

> <Gold.Chemscore.DEClash>
0.1927

> <Gold.Chemscore.DEInternal>
0.2101

> <Gold.Chemscore.Rot>
1.3496

> <Gold.Chemscore.Internal.Correction>
   9.000000E+99

> <Gold.Chemscore.Hbonds>
donor molecule, donor type, donor heavy atom, donor atom, acceptor molecule, acceptor atom, score
      L1  H     1    13       P1  7921  0.66
      L1  H    11    26       P1  7948  0.98

> <Gold.Chemscore.Hbond.Weighted>
-6.4347

> <Gold.Chemscore.Metal.Weighted>
-0.0000

> <Gold.Chemscore.Lipo.Weighted>
-8.6700

> <Gold.Chemscore.Internal_Hbond.Weighted>
0.0000

> <Gold.Chemscore.DEClash.Weighted>
0.1927

> <Gold.Chemscore.DEInternal.Weighted>
0.2101

> <Gold.Chemscore.Rot.Weighted>
3.4550

> <Gold.Chemscore.Internal.Correction.Weighted>
   9.000000E+99

> <Gold.Protein.RotatedTorsions>
[ 6907 6896 6895 6894 ] final -132.55 input  -60.11 | X-H torsion
[ 7974 7965 7964 7962 ] final -111.64 input  175.53 | X-H torsion
[ 8008 7997 7996 7995 ] final   31.61 input   59.86 | X-H torsion
[ 10167 10162 10161 10158 ] final  -71.66 input  -65.29 | X-H torsion
[ 10718 10713 10712 10709 ] final  -44.93 input   66.30 | X-H torsion
[ 10763 10752 10751 10750 ] final -111.59 input  -60.55 | X-H torsion
[ 11005 11000 10999 10996 ] final   36.23 input  -57.11 | X-H torsion

> <Gold.Protein.ActiveResidues>
 VAL166  LYS551  ARG553  GLY616  TRP617  ASP618  TYR619  PRO620  LYS621  CYS622 
 ASP623  PHE694  ASN695  SER759  ASP760  ASP761  ALA762  ILE779  LEU786  VAL792 
 PHE793  MET794  SER795  GLU796  ALA797  LYS798  CYS799  TRP800  GLU811  SER814 

> <Gold.Protein.RotatedAtoms>
  150.9637  133.6417  159.2749 H   0  0  0  0  0  0  0  0  0  0  0  0  # atno 6907 bound_to 6896
  151.3730  135.0925  159.9481 H   0  0  0  0  0  0  0  0  0  0  0  0  # atno 6908 bound_to 6896
  152.5157  133.9188  159.7578 H   0  0  0  0  0  0  0  0  0  0  0  0  # atno 6909 bound_to 6896
  145.1537  140.8842  143.3631 H   0  0  0  0  0  0  0  0  0  0  0  0  # atno 7974 bound_to 7965
  155.1092  140.3237  155.4526 H   0  0  0  0  0  0  0  0  0  0  0  0  # atno 8008 bound_to 7997
  156.2695  140.2047  156.6164 H   0  0  0  0  0  0  0  0  0  0  0  0  # atno 8009 bound_to 7997
  154.6769  140.0530  157.0212 H   0  0  0  0  0  0  0  0  0  0  0  0  # atno 8010 bound_to 7997
  140.5255  143.2327  151.7355 H   0  0  0  0  0  0  0  0  0  0  0  0  # atno 10167 bound_to 10162
  156.2335  130.4174  149.8846 H   0  0  0  0  0  0  0  0  0  0  0  0  # atno 10718 bound_to 10713
  154.8308  135.4522  154.1062 H   0  0  0  0  0  0  0  0  0  0  0  0  # atno 10763 bound_to 10752
  153.2337  135.6908  153.7867 H   0  0  0  0  0  0  0  0  0  0  0  0  # atno 10764 bound_to 10752
  153.7240  135.3337  155.3248 H   0  0  0  0  0  0  0  0  0  0  0  0  # atno 10765 bound_to 10752
  140.2347  134.3486  155.7949 H   0  0  0  0  0  0  0  0  0  0  0  0  # atno 11005 bound_to 11000
  145.0404  139.3265  143.5979 LP  0  0  0  0  0  0  0  0  0  0  0  0  # atno 17320 bound_to 7965
  146.3491  139.9775  142.8699 LP  0  0  0  0  0  0  0  0  0  0  0  0  # atno 17321 bound_to 7965
  139.4937  144.4192  151.9996 LP  0  0  0  0  0  0  0  0  0  0  0  0  # atno 17342 bound_to 10162
  140.3291  144.3338  150.5991 LP  0  0  0  0  0  0  0  0  0  0  0  0  # atno 17343 bound_to 10162
  156.6452  130.8721  151.3521 LP  0  0  0  0  0  0  0  0  0  0  0  0  # atno 17370 bound_to 10713
  157.7144  130.9479  150.1202 LP  0  0  0  0  0  0  0  0  0  0  0  0  # atno 17371 bound_to 10713
  141.2215  133.7265  156.8788 LP  0  0  0  0  0  0  0  0  0  0  0  0  # atno 17394 bound_to 11000
  140.1715  134.9097  157.2838 LP  0  0  0  0  0  0  0  0  0  0  0  0  # atno 17395 bound_to 11000

$$$$
