#       Name:                AV-unprocessed.smi:21
#       Creating user name   scv26
#       Creation time:       Thu Mar 26 15:33:30 2020


#       File generated by GOLD software.
#

@<TRIPOS>MOLECULE
AV-unprocessed.smi:21
    71    74     1
SMALL
NO_CHARGES


@<TRIPOS>ATOM
      1 ****        -1.7460   0.8169   5.0891 C.3            1 S1                 0.0000
      2 ****        -2.5554  -0.3222   4.8464 O.3            1 S1                 0.0000
      3 ****        -3.4277  -0.1738   3.7358 C.3            1 S1                 0.0000
      4 ****        -2.7073  -0.2297   2.3927 C.3            1 S1                 0.0000
      5 ****        -3.8057  -0.6521   1.4061 C.3            1 S1                 0.0000
      6 ****        -3.2649  -1.3497   0.1334 C.3            1 S1                 0.0000
      7 ****        -2.4178  -0.4658  -0.6728 N.pl3          1 S1                 0.0000
      8 ****        -3.0727   0.5585  -1.4773 C.3            1 S1                 0.0000
      9 ****        -1.0672  -0.4234  -0.4775 C.ar           1 S1                 0.0000
     10 ****        -0.4651  -1.5058   0.0842 N.ar           1 S1                 0.0000
     11 ****         0.8511  -1.5245   0.3045 C.ar           1 S1                 0.0000
     12 ****         1.7504  -0.5787   0.0404 N.ar           1 S1                 0.0000
     13 ****         1.1686   0.5133  -0.5295 C.ar           1 S1                 0.0000
     14 ****        -0.2195   0.6783  -0.8160 C.ar           1 S1                 0.0000
     15 ****        -0.4250   1.9380  -1.3700 N.2            1 S1                 0.0000
     16 ****         0.7621   2.4749  -1.4180 C.2            1 S1                 0.0000
     17 ****         1.7833   1.6812  -0.9501 N.pl3          1 S1                 0.0000
     18 ****         3.1961   2.0317  -0.8957 C.3            1 S1                 0.0000
     19 ****         3.9999   1.6627  -2.1740 C.3            1 S1                 0.0000
     20 ****         3.3956   2.2881  -3.4540 C.3            1 S1                 0.0000
     21 ****         3.3550   3.6971  -3.3614 O.3            1 S1                 0.0000
     22 ****         4.1839   0.1304  -2.3297 C.3            1 S1                 0.0000
     23 ****         4.9867  -0.5274  -1.2189 C.3            1 S1                 0.0000
     24 ****         5.3718  -1.8622  -1.8457 C.3            1 S1                 0.0000
     25 ****         5.5151  -1.6030  -3.2375 O.3            1 S1                 0.0000
     26 ****         5.0136  -0.3058  -3.5426 C.3            1 S1                 0.0000
     27 ****        -4.7895  -1.4355   2.2117 N.4            1 S1                 1.0000
     28 ****        -5.1139  -2.8102   1.7627 C.3            1 S1                 0.0000
     29 ****        -4.3720  -1.3689   3.6308 C.3            1 S1                 0.0000
     30 ****        -4.0127   0.7444   3.8163 H              1 S1                 0.0000
     31 ****        -4.3434   0.2469   1.1012 H              1 S1                 0.0000
     32 ****        -1.1362   0.6466   5.9765 H              1 S1                 0.0000
     33 ****        -2.3547   1.7043   5.2658 H              1 S1                 0.0000
     34 ****        -1.0714   1.0149   4.2558 H              1 S1                 0.0000
     35 ****        -2.2391   0.7168   2.1201 H              1 S1                 0.0000
     36 ****        -1.9266  -0.9906   2.4345 H              1 S1                 0.0000
     37 ****        -2.7543  -2.2773   0.3901 H              1 S1                 0.0000
     38 ****        -4.0995  -1.6479  -0.5011 H              1 S1                 0.0000
     39 ****        -3.0667   1.5182  -0.9601 H              1 S1                 0.0000
     40 ****        -4.1114   0.2935  -1.6751 H              1 S1                 0.0000
     41 ****        -2.5759   0.6719  -2.4414 H              1 S1                 0.0000
     42 ****         1.2389  -2.4260   0.7558 H              1 S1                 0.0000
     43 ****         0.9269   3.4696  -1.8064 H              1 S1                 0.0000
     44 ****         3.2643   3.1056  -0.7183 H              1 S1                 0.0000
     45 ****         3.6348   1.5676  -0.0127 H              1 S1                 0.0000
     46 ****         4.9964   2.0905  -2.0529 H              1 S1                 0.0000
     47 ****         4.0002   2.0464  -4.3274 H              1 S1                 0.0000
     48 ****         2.3946   1.9042  -3.6517 H              1 S1                 0.0000
     49 ****         3.0128   4.0417  -4.1724 H              1 S1                 0.0000
     50 ****         3.2086  -0.3534  -2.3976 H              1 S1                 0.0000
     51 ****         5.8843   0.0540  -1.0028 H              1 S1                 0.0000
     52 ****         4.4359  -0.6526  -0.2877 H              1 S1                 0.0000
     53 ****         6.2857  -2.2753  -1.4185 H              1 S1                 0.0000
     54 ****         4.5722  -2.5912  -1.7081 H              1 S1                 0.0000
     55 ****         4.4324  -0.3223  -4.4646 H              1 S1                 0.0000
     56 ****         5.8633   0.3624  -3.6902 H              1 S1                 0.0000
     57 ****        -4.2311  -3.4507   1.7613 H              1 S1                 0.0000
     58 ****        -5.5492  -2.8061   0.7635 H              1 S1                 0.0000
     59 ****        -5.8496  -3.2570   2.4326 H              1 S1                 0.0000
     60 ****        -3.8305  -2.2799   3.8931 H              1 S1                 0.0000
     61 ****        -5.2286  -1.2866   4.3003 H              1 S1                 0.0000
     62 ****        -5.6524  -0.9137   2.1521 H              1 S1                 0.0000
     63 ****        -3.1081  -0.4967   5.6614 LP             1 S1                 0.0000
     64 ****        -1.9568  -1.1048   4.6758 LP             1 S1                 0.0000
     65 ****        -1.0175  -2.3004   0.3362 LP             1 S1                 0.0000
     66 ****         2.7278  -0.6597   0.2355 LP             1 S1                 0.0000
     67 ****        -1.2908   2.3418  -1.6656 LP             1 S1                 0.0000
     68 ****         4.2772   4.0516  -3.2068 LP             1 S1                 0.0000
     69 ****         2.7622   3.9682  -2.6030 LP             1 S1                 0.0000
     70 ****         5.0029  -2.2872  -3.7567 LP             1 S1                 0.0000
     71 ****         6.4825  -1.6515  -3.4859 LP             1 S1                 0.0000
@<TRIPOS>BOND
    1    1    2 1     
    2    1   32 1     
    3    1   33 1     
    4    1   34 1     
    5    2    3 1     
    6    3   30 1     
    7    3   29 1     
    8    3    4 1     
    9    4    5 1     
   10    4   35 1     
   11    4   36 1     
   12    5   31 1     
   13    5    6 1     
   14    5   27 1     
   15    6    7 1     
   16    6   37 1     
   17    6   38 1     
   18    7    8 1     
   19    7    9 1     
   20    8   39 1     
   21    8   40 1     
   22    8   41 1     
   23    9   14 ar    
   24    9   10 ar    
   25   10   11 ar    
   26   11   12 ar    
   27   11   42 1     
   28   12   13 ar    
   29   13   17 1     
   30   13   14 ar    
   31   14   15 1     
   32   15   16 2     
   33   16   17 1     
   34   16   43 1     
   35   17   18 1     
   36   18   19 1     
   37   18   44 1     
   38   18   45 1     
   39   19   20 1     
   40   19   22 1     
   41   19   46 1     
   42   20   21 1     
   43   20   47 1     
   44   20   48 1     
   45   21   49 1     
   46   22   26 1     
   47   22   23 1     
   48   22   50 1     
   49   23   24 1     
   50   23   51 1     
   51   23   52 1     
   52   24   25 1     
   53   24   53 1     
   54   24   54 1     
   55   25   26 1     
   56   26   55 1     
   57   26   56 1     
   58   27   28 1     
   59   27   29 1     
   60   27   62 1     
   61   28   57 1     
   62   28   58 1     
   63   28   59 1     
   64   29   60 1     
   65   29   61 1     
   66    2   63 1     
   67    2   64 1     
   68   10   65 1     
   69   12   66 1     
   70   15   67 1     
   71   21   68 1     
   72   21   69 1     
   73   25   70 1     
   74   25   71 1     
@<TRIPOS>SUBSTRUCTURE
      1 S1             1
@<TRIPOS>SET
LONE_PAIRS      STATIC     ATOMS    <user>   **** ""
9 63 64 65 66 67 68 69 70 71
DONOR_HYDROGENS      STATIC     ATOMS    <user>   **** ""
2 49 62
ATOM$BLUE        STATIC     ATOMS    COLORGROUP SYSTEM
9 63 64 65 66 67 68 69 70 71
ATOM$RED        STATIC     ATOMS    COLORGROUP SYSTEM
2 49 62
