#       Name:                AV-unprocessed.smi:63
#       Creating user name   scv26
#       Creation time:       Thu Mar 26 16:50:15 2020


#       File generated by GOLD software.
#

@<TRIPOS>MOLECULE
AV-unprocessed.smi:63
    34    35     1
SMALL
NO_CHARGES


@<TRIPOS>ATOM
      1 ****        -4.7499  -0.1832   0.4319 C.3            1 S1                 0.0000
      2 ****        -3.2371  -0.2495   0.4245 C.ar           1 S1                 0.0000
      3 ****        -2.5469  -1.0470   1.3556 C.ar           1 S1                 0.0000
      4 ****        -1.1434  -1.0503   1.2856 C.ar           1 S1                 0.0000
      5 ****        -0.5258  -0.2567   0.2919 C.ar           1 S1                 0.0000
      6 ****         0.8810  -0.2211   0.1856 N.3            1 S1                 0.0000
      7 ****         1.6340  -0.1314   1.4327 C.3            1 S1                 0.0000
      8 ****         2.8468   0.7554   1.1393 C.3            1 S1                 0.0000
      9 ****         2.9988   0.6686  -0.3753 C.3            1 S1                 0.0000
     10 ****         1.5490   0.5557  -0.8580 C.3            1 S1                 0.0000
     11 ****         1.4256  -0.0805  -2.2573 C.3            1 S1                 0.0000
     12 ****         2.0157   0.7595  -3.2262 O.3            1 S1                 0.0000
     13 ****        -1.2646   0.4859  -0.5720 N.ar           1 S1                 0.0000
     14 ****        -2.6003   0.4922  -0.5094 N.ar           1 S1                 0.0000
     15 ****        -5.1736  -1.1874   0.4612 H              1 S1                 0.0000
     16 ****        -5.1317   0.3204  -0.4573 H              1 S1                 0.0000
     17 ****        -5.0975   0.3624   1.3094 H              1 S1                 0.0000
     18 ****        -3.0719  -1.6338   2.0949 H              1 S1                 0.0000
     19 ****        -0.5653  -1.6499   1.9732 H              1 S1                 0.0000
     20 ****         1.0420   0.2802   2.2513 H              1 S1                 0.0000
     21 ****         1.9543  -1.1341   1.7177 H              1 S1                 0.0000
     22 ****         2.6263   1.7847   1.4254 H              1 S1                 0.0000
     23 ****         3.7418   0.4412   1.6769 H              1 S1                 0.0000
     24 ****         3.5209   1.5269  -0.7988 H              1 S1                 0.0000
     25 ****         3.5600  -0.2303  -0.6353 H              1 S1                 0.0000
     26 ****         1.1097   1.5547  -0.8710 H              1 S1                 0.0000
     27 ****         1.9094  -1.0574  -2.2845 H              1 S1                 0.0000
     28 ****         0.3836  -0.2333  -2.5365 H              1 S1                 0.0000
     29 ****         1.9099   0.3580  -4.0751 H              1 S1                 0.0000
     30 ****         0.9207  -1.1548  -0.1701 LP             1 S1                 0.0000
     31 ****         2.9887   0.8739  -3.0260 LP             1 S1                 0.0000
     32 ****         1.5662   1.6528  -3.2171 LP             1 S1                 0.0000
     33 ****        -0.8023   1.0372  -1.2665 LP             1 S1                 0.0000
     34 ****        -3.1283   1.0457  -1.1535 LP             1 S1                 0.0000
@<TRIPOS>BOND
    1    1    2 1     
    2    1   15 1     
    3    1   16 1     
    4    1   17 1     
    5    2   14 ar    
    6    2    3 ar    
    7    3    4 ar    
    8    3   18 1     
    9    4    5 ar    
   10    4   19 1     
   11    5    6 1     
   12    5   13 ar    
   13    6   10 1     
   14    6    7 1     
   15    7    8 1     
   16    7   20 1     
   17    7   21 1     
   18    8    9 1     
   19    8   22 1     
   20    8   23 1     
   21    9   10 1     
   22    9   24 1     
   23    9   25 1     
   24   10   11 1     
   25   10   26 1     
   26   11   12 1     
   27   11   27 1     
   28   11   28 1     
   29   12   29 1     
   30   13   14 ar    
   31    6   30 1     
   32   12   31 1     
   33   12   32 1     
   34   13   33 1     
   35   14   34 1     
@<TRIPOS>SUBSTRUCTURE
      1 S1             1
@<TRIPOS>SET
LONE_PAIRS      STATIC     ATOMS    <user>   **** ""
5 30 31 32 33 34
DONOR_HYDROGENS      STATIC     ATOMS    <user>   **** ""
1 29
ATOM$BLUE        STATIC     ATOMS    COLORGROUP SYSTEM
5 30 31 32 33 34
ATOM$RED        STATIC     ATOMS    COLORGROUP SYSTEM
1 29
