AV-unprocessed.smi:2807|AV-procd|sdf|10818|dock9
  -GOLD-   2272015253D 1   1.00000     0.00000
 Structure written by MMmdl.
 32 33  0  0  0  0  0  0  0  0  1 V2000
  152.0134  140.3818  155.4318 O   0  0  0  0  0  0  0  0  0  0  0  0
  151.1413  139.8147  156.0912 C   0  0  0  0  0  0  0  0  0  0  0  0
  149.8808  139.6509  155.6556 N   0  0  0  0  0  0  0  0  0  0  0  0
  149.3531  140.1063  154.3685 C   0  0  2  0  0  0  0  0  0  0  0  0
  148.6252  141.4560  154.5307 C   0  0  0  0  0  0  0  0  0  0  0  0
  147.2631  141.2959  153.8507 C   0  0  0  0  0  0  0  0  0  0  0  0
  146.9537  139.8070  153.9664 C   0  0  0  0  0  0  0  0  0  0  0  0
  148.3120  139.1349  153.7588 C   0  0  2  0  0  0  0  0  0  0  0  0
  148.3155  137.8254  154.2960 O   0  0  0  0  0  0  0  0  0  0  0  0
  151.4663  139.2562  157.4848 C   0  0  0  0  0  0  0  0  0  0  0  0
  150.3435  138.8030  158.0485 F   0  0  0  0  0  0  0  0  0  0  0  0
  152.3001  138.2221  157.3507 F   0  0  0  0  0  0  0  0  0  0  0  0
  152.0987  140.3376  158.3569 C   0  0  0  0  0  0  0  0  0  0  0  0
  151.3817  141.5063  158.7004 C   0  0  0  0  0  0  0  0  0  0  0  0
  152.0073  142.4674  159.5174 C   0  0  0  0  0  0  0  0  0  0  0  0
  153.3205  142.2277  159.9635 C   0  0  0  0  0  0  0  0  0  0  0  0
  153.9521  141.0311  159.5723 C   0  0  0  0  0  0  0  0  0  0  0  0
  153.3615  140.1032  158.7892 N   0  0  0  0  0  0  0  0  0  0  0  0
  149.2318  139.1805  156.2701 H   0  0  0  0  0  0  0  0  0  0  0  0
  150.1714  140.2330  153.6572 H   0  0  0  0  0  0  0  0  0  0  0  0
  148.4704  141.6863  155.5862 H   0  0  0  0  0  0  0  0  0  0  0  0
  149.1947  142.2826  154.1044 H   0  0  0  0  0  0  0  0  0  0  0  0
  146.4927  141.9219  154.3017 H   0  0  0  0  0  0  0  0  0  0  0  0
  147.3426  141.5719  152.7983 H   0  0  0  0  0  0  0  0  0  0  0  0
  146.5733  139.5936  154.9667 H   0  0  0  0  0  0  0  0  0  0  0  0
  146.2052  139.4747  153.2461 H   0  0  0  0  0  0  0  0  0  0  0  0
  148.4984  139.0571  152.6867 H   0  0  0  0  0  0  0  0  0  0  0  0
  148.7392  137.2494  153.6783 H   0  0  0  0  0  0  0  0  0  0  0  0
  150.3721  141.6650  158.3507 H   0  0  0  0  0  0  0  0  0  0  0  0
  151.4878  143.3718  159.7982 H   0  0  0  0  0  0  0  0  0  0  0  0
  153.8307  142.9427  160.5919 H   0  0  0  0  0  0  0  0  0  0  0  0
  154.9587  140.8129  159.8970 H   0  0  0  0  0  0  0  0  0  0  0  0
  1  2  2  0  0  0  0
  2  3  1  0  0  0  0
  2 10  1  0  0  0  0
  3  4  1  0  0  0  0
  3 19  1  0  0  0  0
  4  8  1  0  0  0  0
  4  5  1  0  0  0  0
  4 20  1  0  0  0  0
  5  6  1  0  0  0  0
  5 21  1  0  0  0  0
  5 22  1  0  0  0  0
  6  7  1  0  0  0  0
  6 23  1  0  0  0  0
  6 24  1  0  0  0  0
  7  8  1  0  0  0  0
  7 25  1  0  0  0  0
  7 26  1  0  0  0  0
  8  9  1  0  0  0  0
  8 27  1  0  0  0  0
  9 28  1  0  0  0  0
 10 11  1  0  0  0  0
 10 12  1  0  0  0  0
 10 13  1  0  0  0  0
 13 18  1  0  0  0  0
 13 14  2  0  0  0  0
 14 15  1  0  0  0  0
 14 29  1  0  0  0  0
 15 16  2  0  0  0  0
 15 30  1  0  0  0  0
 16 17  1  0  0  0  0
 16 31  1  0  0  0  0
 17 18  2  0  0  0  0
 17 32  1  0  0  0  0
M  END
> <s_m_source_file>
AV-unprocessed.smi

> <i_m_source_file_index>
2807

> <i_lp_mmshare_version>
43012

> <i_f3d_flags>
0

> <s_epik_input>
bjFbY0hdW2NIXVtjSF1bY0hdYzFDKEYpKEYpQyg9TylbTkhdW0NAQEhdMltDSDJdW0NIMl1bQ0gyXVtDQEhdMltPSF0=

> <s_epik_cmdline>
J2VwaWtfcHl0aG9uJywgJy1waCcsICc3LjAnLCAnLXRuJywgJzgnLCAnLW1hJywgJzIwMCcsICctbWV0YWxfYmluZGluZycsICctaW1hZScsICc8aW5maWxlLm1hZT4nLCAnLW9tYWUnLCAnPG91dGZpbGUubWFlPic=

> <r_lp_tautomer_probability>
1

> <r_epik_Ionization_Penalty>
4.08325e-05

> <r_epik_Ionization_Penalty_Charging>
0

> <r_epik_Ionization_Penalty_Neutral>
4.08325e-05

> <r_epik_State_Penalty>
-0

> <r_epik_Charging_Adjusted_Penalty>
0

> <i_epik_Tot_Q>
0

> <i_epik_Tot_abs_Q>
0

> <r_epik_Metal_State_Penalty>
0.034564

> <b_epik_Metal_Only>
0

> <s_lp_Force_Field>
OPLS_2005

> <r_lp_Energy>
28.2651

> <b_lp_Chiralities_Consistent>
1

> <s_lp_Variant>
AV-unprocessed.smi:2807-3

> <Gold.Version>
5.8.1

> <Gold.Id.Protein>
6NUR|6NUR_protein|mol2

> <Gold.PLP.Fitness>
38.1218

> <Gold.PLP.PLP>
-31.0621

> <Gold.PLP.part.hbond>
-3.0000

> <Gold.PLP.part.metal>
0.0000

> <Gold.PLP.part.buried>
-0.9386

> <Gold.PLP.part.nonpolar>
-26.2285

> <Gold.PLP.part.repulsive>
0.0605

> <Gold.PLP.ligand.clash>
0.0000

> <Gold.PLP.ligand.torsion>
0.4951

> <Gold.PLP.Chemscore.Hbond>
2.6793

> <Gold.PLP.Chemscore.CHOScore>
0.0000

> <Gold.PLP.Chemscore.Metal>
0.0000

> <Gold.Chemscore.Hbonds>
donor molecule, donor type, donor heavy atom, donor atom, acceptor molecule, acceptor atom, score
      L1  H     9    28       P1  7948  0.88
      P1  H  7989  7998       L1     1  0.69
      P1  H  7997  8010       L1    18  0.76

> <Gold.PLP.Chemscore.Internal.Correction>
0.0122

> <Gold.Rescore>
     Score         DG    S(hbond)    S(metal)    S(lipo)     H(rot)  DE(clash)    DE(int)     intcor
     15.48     -16.35       2.12        0.00      77.05       2.05       0.31       0.55       ----

> <Gold.Chemscore.Fitness>
15.4830

> <Gold.Chemscore.DG>
-16.3482

> <Gold.Chemscore.ZeroCoef>
-5.4800

> <Gold.Chemscore.Hbond>
2.1229

> <Gold.Chemscore.Metal>
0.0000

> <Gold.Chemscore.Lipo>
77.0499

> <Gold.Chemscore.Internal_Hbond>
0.0000

> <Gold.Chemscore.DEClash>
0.3142

> <Gold.Chemscore.DEInternal>
0.5510

> <Gold.Chemscore.Rot>
2.0457

> <Gold.Chemscore.Internal.Correction>
   9.000000E+99

> <Gold.Chemscore.Hbonds>
donor molecule, donor type, donor heavy atom, donor atom, acceptor molecule, acceptor atom, score
      L1  H     9    28       P1  7948  0.84
      P1  H  7989  7998       L1     1  0.63
      P1  H  7997  8010       L1    18  0.16

> <Gold.Chemscore.Hbond.Weighted>
-7.0905

> <Gold.Chemscore.Metal.Weighted>
-0.0000

> <Gold.Chemscore.Lipo.Weighted>
-9.0148

> <Gold.Chemscore.Internal_Hbond.Weighted>
0.0000

> <Gold.Chemscore.DEClash.Weighted>
0.3142

> <Gold.Chemscore.DEInternal.Weighted>
0.5510

> <Gold.Chemscore.Rot.Weighted>
5.2371

> <Gold.Chemscore.Internal.Correction.Weighted>
   9.000000E+99

> <Gold.Protein.RotatedTorsions>
[ 6907 6896 6895 6894 ] final    7.28 input  -60.11 | X-H torsion
[ 7974 7965 7964 7962 ] final   65.73 input  175.53 | X-H torsion
[ 8008 7997 7996 7995 ] final   26.58 input   59.86 | X-H torsion
[ 10167 10162 10161 10158 ] final  164.85 input  -65.29 | X-H torsion
[ 10718 10713 10712 10709 ] final  -24.83 input   66.30 | X-H torsion
[ 10763 10752 10751 10750 ] final   -7.70 input  -60.55 | X-H torsion
[ 11005 11000 10999 10996 ] final -128.45 input  -57.11 | X-H torsion

> <Gold.Protein.ActiveResidues>
 VAL166  LYS551  ARG553  GLY616  TRP617  ASP618  TYR619  PRO620  LYS621  CYS622 
 ASP623  PHE694  ASN695  SER759  ASP760  ASP761  ALA762  ILE779  LEU786  VAL792 
 PHE793  MET794  SER795  GLU796  ALA797  LYS798  CYS799  TRP800  GLU811  SER814 

> <Gold.Protein.RotatedAtoms>
  151.6874  135.0952  160.0227 H   0  0  0  0  0  0  0  0  0  0  0  0  # atno 6907 bound_to 6896
  152.3799  133.6528  159.6161 H   0  0  0  0  0  0  0  0  0  0  0  0  # atno 6908 bound_to 6896
  150.7739  133.9047  159.3393 H   0  0  0  0  0  0  0  0  0  0  0  0  # atno 6909 bound_to 6896
  145.8350  139.3161  143.0965 H   0  0  0  0  0  0  0  0  0  0  0  0  # atno 7974 bound_to 7965
  155.0295  140.3157  155.4763 H   0  0  0  0  0  0  0  0  0  0  0  0  # atno 8008 bound_to 7997
  156.2877  140.2183  156.5358 H   0  0  0  0  0  0  0  0  0  0  0  0  # atno 8009 bound_to 7997
  154.7383  140.0475  157.0776 H   0  0  0  0  0  0  0  0  0  0  0  0  # atno 8010 bound_to 7997
  139.4896  144.4193  151.9206 H   0  0  0  0  0  0  0  0  0  0  0  0  # atno 10167 bound_to 10162
  156.4724  130.4527  149.6861 H   0  0  0  0  0  0  0  0  0  0  0  0  # atno 10718 bound_to 10713
  153.4301  135.7012  153.6236 H   0  0  0  0  0  0  0  0  0  0  0  0  # atno 10763 bound_to 10752
  153.4655  135.3726  155.2362 H   0  0  0  0  0  0  0  0  0  0  0  0  # atno 10764 bound_to 10752
  154.8725  135.4030  154.3683 H   0  0  0  0  0  0  0  0  0  0  0  0  # atno 10765 bound_to 10752
  140.9515  134.1059  157.4057 H   0  0  0  0  0  0  0  0  0  0  0  0  # atno 11005 bound_to 11000
  145.9529  140.8895  143.0250 LP  0  0  0  0  0  0  0  0  0  0  0  0  # atno 17320 bound_to 7965
  144.6737  140.1705  143.7414 LP  0  0  0  0  0  0  0  0  0  0  0  0  # atno 17321 bound_to 7965
  140.3636  144.2942  150.5930 LP  0  0  0  0  0  0  0  0  0  0  0  0  # atno 17342 bound_to 10162
  140.5381  143.2229  151.8130 LP  0  0  0  0  0  0  0  0  0  0  0  0  # atno 17343 bound_to 10162
  156.3605  130.7479  151.2450 LP  0  0  0  0  0  0  0  0  0  0  0  0  # atno 17370 bound_to 10713
  157.7490  131.0351  150.4350 LP  0  0  0  0  0  0  0  0  0  0  0  0  # atno 17371 bound_to 10713
  139.8849  135.0067  156.6399 LP  0  0  0  0  0  0  0  0  0  0  0  0  # atno 17394 bound_to 11000
  140.7595  133.8829  155.8408 LP  0  0  0  0  0  0  0  0  0  0  0  0  # atno 17395 bound_to 11000

$$$$
