AV-unprocessed.smi:3298|AV-procd|sdf|12647|dock5
  -GOLD-   2272018583D 1   1.00000     0.00000
 Structure written by MMmdl.
 36 37  0  0  0  0  0  0  0  0  2 V2000
  146.2225  143.1850  154.1108 C   0  0  0  0  0  0  0  0  0  0  0  0
  147.1664  142.0042  154.1956 C   0  0  0  0  0  0  0  0  0  0  0  0
  146.8688  140.7573  153.6052 C   0  0  0  0  0  0  0  0  0  0  0  0
  147.7849  139.6893  153.7279 C   0  0  0  0  0  0  0  0  0  0  0  0
  147.4477  138.4582  153.1029 N   0  0  0  0  0  0  0  0  0  0  0  0
  146.2280  137.9318  152.8975 C   0  0  0  0  0  0  0  0  0  0  0  0
  145.1621  138.4657  153.2041 O   0  0  0  0  0  0  0  0  0  0  0  0
  146.3096  136.7395  152.2907 N   0  0  0  0  0  0  0  0  0  0  0  0
  145.1675  135.9061  151.9325 C   0  0  1  0  0  0  0  0  0  0  0  0
  145.1281  135.6831  150.4444 C   0  0  0  0  0  0  0  0  0  0  0  0
  145.1730  134.3943  150.1148 C   0  0  0  0  0  0  0  0  0  0  0  0
  145.2639  133.4911  151.3173 C   0  0  1  0  0  0  0  0  0  0  0  0
  146.4756  132.5411  151.2699 C   0  0  0  0  0  0  0  0  0  0  0  0
  146.4699  131.7420  150.1031 O   0  0  0  0  0  0  0  0  0  0  0  0
  145.2671  134.4720  152.5179 C   0  0  0  0  0  0  0  0  0  0  0  0
  148.9986  139.9139  154.4258 C   0  0  0  0  0  0  0  0  0  0  0  0
  149.2426  141.1802  154.9946 C   0  0  0  0  0  0  0  0  0  0  0  0
  148.3295  142.1661  154.8638 N   0  3  0  0  0  0  0  0  0  0  0  0
  144.2366  136.3881  152.2362 H   0  0  0  0  0  0  0  0  0  0  0  0
  144.3519  132.8937  151.3460 H   0  0  0  0  0  0  0  0  0  0  0  0
  145.3940  142.9774  153.4328 H   0  0  0  0  0  0  0  0  0  0  0  0
  146.7468  144.0684  153.7451 H   0  0  0  0  0  0  0  0  0  0  0  0
  145.8102  143.4110  155.0944 H   0  0  0  0  0  0  0  0  0  0  0  0
  145.9411  140.6199  153.0683 H   0  0  0  0  0  0  0  0  0  0  0  0
  148.2233  137.9401  152.7167 H   0  0  0  0  0  0  0  0  0  0  0  0
  147.2244  136.3726  152.0721 H   0  0  0  0  0  0  0  0  0  0  0  0
  145.0580  136.5006  149.7419 H   0  0  0  0  0  0  0  0  0  0  0  0
  145.1477  134.0089  149.1062 H   0  0  0  0  0  0  0  0  0  0  0  0
  147.4040  133.1118  151.3020 H   0  0  0  0  0  0  0  0  0  0  0  0
  146.4748  131.8854  152.1411 H   0  0  0  0  0  0  0  0  0  0  0  0
  147.2329  131.1847  150.1175 H   0  0  0  0  0  0  0  0  0  0  0  0
  146.1614  134.3474  153.1301 H   0  0  0  0  0  0  0  0  0  0  0  0
  144.4176  134.2723  153.1722 H   0  0  0  0  0  0  0  0  0  0  0  0
  149.7506  139.1460  154.5252 H   0  0  0  0  0  0  0  0  0  0  0  0
  150.1390  141.4334  155.5416 H   0  0  0  0  0  0  0  0  0  0  0  0
  148.5289  143.0745  155.2837 H   0  0  0  0  0  0  0  0  0  0  0  0
  1  2  1  0  0  0  0
  1 21  1  0  0  0  0
  1 22  1  0  0  0  0
  1 23  1  0  0  0  0
  2 18  1  0  0  0  0
  2  3  2  0  0  0  0
  3  4  1  0  0  0  0
  3 24  1  0  0  0  0
  4  5  1  0  0  0  0
  4 16  2  0  0  0  0
  5  6  1  0  0  0  0
  5 25  1  0  0  0  0
  6  7  2  0  0  0  0
  6  8  1  0  0  0  0
  8  9  1  0  0  0  0
  8 26  1  0  0  0  0
  9 19  1  0  0  0  0
  9 15  1  0  0  0  0
  9 10  1  0  0  0  0
 10 11  2  0  0  0  0
 10 27  1  0  0  0  0
 11 12  1  0  0  0  0
 11 28  1  0  0  0  0
 12 20  1  0  0  0  0
 12 13  1  0  0  0  0
 12 15  1  0  0  0  0
 13 14  1  0  0  0  0
 13 29  1  0  0  0  0
 13 30  1  0  0  0  0
 14 31  1  0  0  0  0
 15 32  1  0  0  0  0
 15 33  1  0  0  0  0
 16 17  1  0  0  0  0
 16 34  1  0  0  0  0
 17 18  2  0  0  0  0
 17 35  1  0  0  0  0
 18 36  1  0  0  0  0
M  CHG  1  18   1
M  END
> <s_m_source_file>
AV-unprocessed.smi

> <i_m_source_file_index>
3298

> <i_lp_mmshare_version>
43012

> <i_f3d_flags>
0

> <s_epik_input>
W0NIM11jMVtjSF1jKFtjSF1bY0hdbjEpW05IXUMoPU8pW05IXVtDQEBIXTJbQ0hdPVtDSF1bQ0BASF0oW0NIMl0yKVtDSDJdW09IXQ==

> <s_epik_cmdline>
J2VwaWtfcHl0aG9uJywgJy1waCcsICc3LjAnLCAnLXRuJywgJzgnLCAnLW1hJywgJzIwMCcsICctbWV0YWxfYmluZGluZycsICctaW1hZScsICc8aW5maWxlLm1hZT4nLCAnLW9tYWUnLCAnPG91dGZpbGUubWFlPic=

> <r_epik_Ionization_Penalty>
0.443901

> <r_epik_Ionization_Penalty_Charging>
0.443881

> <r_epik_Ionization_Penalty_Neutral>
1.94967e-05

> <r_epik_State_Penalty>
0.446172

> <r_epik_Charging_Adjusted_Penalty>
0.890053

> <i_epik_Tot_Q>
1

> <i_epik_Tot_abs_Q>
1

> <r_epik_Metal_State_Penalty>
0.675842

> <b_epik_Metal_Only>
0

> <s_lp_Force_Field>
OPLS_2005

> <r_lp_Energy>
27.9023

> <b_lp_Chiralities_Consistent>
1

> <s_lp_Variant>
AV-unprocessed.smi:3298-8

> <Gold.Version>
5.8.1

> <Gold.Id.Protein>
6NUR|6NUR_protein|mol2

> <Gold.PLP.Fitness>
46.9740

> <Gold.PLP.PLP>
-32.3815

> <Gold.PLP.part.hbond>
-4.1148

> <Gold.PLP.part.metal>
0.0000

> <Gold.PLP.part.buried>
-3.8075

> <Gold.PLP.part.nonpolar>
-27.6560

> <Gold.PLP.part.repulsive>
2.9038

> <Gold.PLP.ligand.clash>
0.0000

> <Gold.PLP.ligand.torsion>
0.2102

> <Gold.PLP.Chemscore.Hbond>
5.0000

> <Gold.PLP.Chemscore.CHOScore>
0.0000

> <Gold.PLP.Chemscore.Metal>
0.0000

> <Gold.Chemscore.Hbonds>
donor molecule, donor type, donor heavy atom, donor atom, acceptor molecule, acceptor atom, score
      L1  H     5    25       P1  7948  1.00
      L1  H     8    26       P1  7948  1.00
      L1  H    14    31       P1 10747  1.00
      L1  H    18    36       P1  8028  2.00

> <Gold.PLP.Chemscore.Internal.Correction>
0.0130

> <Gold.Rescore>
     Score         DG    S(hbond)    S(metal)    S(lipo)     H(rot)  DE(clash)    DE(int)     intcor
     19.54     -22.41       3.91        0.00      72.48       1.81       1.31       1.56       ----

> <Gold.Chemscore.Fitness>
19.5401

> <Gold.Chemscore.DG>
-22.4063

> <Gold.Chemscore.ZeroCoef>
-5.4800

> <Gold.Chemscore.Hbond>
3.9130

> <Gold.Chemscore.Metal>
0.0000

> <Gold.Chemscore.Lipo>
72.4840

> <Gold.Chemscore.Internal_Hbond>
0.0000

> <Gold.Chemscore.DEClash>
1.3086

> <Gold.Chemscore.DEInternal>
1.5577

> <Gold.Chemscore.Rot>
1.8061

> <Gold.Chemscore.Internal.Correction>
   9.000000E+99

> <Gold.Chemscore.Hbonds>
donor molecule, donor type, donor heavy atom, donor atom, acceptor molecule, acceptor atom, score
      L1  H     5    25       P1  7948  0.89
      L1  H     8    26       P1  7948  1.00
      L1  H    14    31       P1 10747  0.98
      L1  H    18    36       P1  8028  1.00

> <Gold.Chemscore.Hbond.Weighted>
-13.0694

> <Gold.Chemscore.Metal.Weighted>
-0.0000

> <Gold.Chemscore.Lipo.Weighted>
-8.4806

> <Gold.Chemscore.Internal_Hbond.Weighted>
0.0000

> <Gold.Chemscore.DEClash.Weighted>
1.3086

> <Gold.Chemscore.DEInternal.Weighted>
1.5577

> <Gold.Chemscore.Rot.Weighted>
4.6237

> <Gold.Chemscore.Internal.Correction.Weighted>
   9.000000E+99

> <Gold.Protein.RotatedTorsions>
[ 6907 6896 6895 6894 ] final -101.16 input  -60.11 | X-H torsion
[ 7974 7965 7964 7962 ] final  114.45 input  175.53 | X-H torsion
[ 8008 7997 7996 7995 ] final -134.95 input   59.86 | X-H torsion
[ 10167 10162 10161 10158 ] final   33.04 input  -65.29 | X-H torsion
[ 10718 10713 10712 10709 ] final   12.00 input   66.30 | X-H torsion
[ 10763 10752 10751 10750 ] final  101.94 input  -60.55 | X-H torsion
[ 11005 11000 10999 10996 ] final  147.78 input  -57.11 | X-H torsion

> <Gold.Protein.ActiveResidues>
 VAL166  LYS551  ARG553  GLY616  TRP617  ASP618  TYR619  PRO620  LYS621  CYS622 
 ASP623  PHE694  ASN695  SER759  ASP760  ASP761  ALA762  ILE779  LEU786  VAL792 
 PHE793  MET794  SER795  GLU796  ALA797  LYS798  CYS799  TRP800  GLU811  SER814 

> <Gold.Protein.RotatedAtoms>
  150.7144  134.0776  159.3886 H   0  0  0  0  0  0  0  0  0  0  0  0  # atno 6907 bound_to 6896
  151.8759  135.0469  160.0493 H   0  0  0  0  0  0  0  0  0  0  0  0  # atno 6908 bound_to 6896
  152.2606  133.5258  159.5416 H   0  0  0  0  0  0  0  0  0  0  0  0  # atno 6909 bound_to 6896
  145.2043  139.2937  143.4302 H   0  0  0  0  0  0  0  0  0  0  0  0  # atno 7974 bound_to 7965
  155.3706  140.0488  157.3045 H   0  0  0  0  0  0  0  0  0  0  0  0  # atno 8008 bound_to 7997
  154.5132  140.2199  155.9079 H   0  0  0  0  0  0  0  0  0  0  0  0  # atno 8009 bound_to 7997
  156.1606  140.3117  155.8807 H   0  0  0  0  0  0  0  0  0  0  0  0  # atno 8010 bound_to 7997
  140.4443  144.1141  150.6179 H   0  0  0  0  0  0  0  0  0  0  0  0  # atno 10167 bound_to 10162
  157.0038  130.6090  149.5699 H   0  0  0  0  0  0  0  0  0  0  0  0  # atno 10718 bound_to 10713
  153.3331  135.4027  155.1511 H   0  0  0  0  0  0  0  0  0  0  0  0  # atno 10763 bound_to 10752
  154.8627  135.3615  154.5444 H   0  0  0  0  0  0  0  0  0  0  0  0  # atno 10764 bound_to 10752
  153.5884  135.7074  153.5493 H   0  0  0  0  0  0  0  0  0  0  0  0  # atno 10765 bound_to 10752
  140.0904  134.9044  157.1642 H   0  0  0  0  0  0  0  0  0  0  0  0  # atno 11005 bound_to 11000
  146.3411  140.2297  142.8593 LP  0  0  0  0  0  0  0  0  0  0  0  0  # atno 17320 bound_to 7965
  144.9918  140.8553  143.5335 LP  0  0  0  0  0  0  0  0  0  0  0  0  # atno 17321 bound_to 7965
  140.4281  143.2580  151.9630 LP  0  0  0  0  0  0  0  0  0  0  0  0  # atno 17342 bound_to 10162
  139.4792  144.5769  151.7997 LP  0  0  0  0  0  0  0  0  0  0  0  0  # atno 17343 bound_to 10162
  156.0161  130.5255  150.8138 LP  0  0  0  0  0  0  0  0  0  0  0  0  # atno 17370 bound_to 10713
  157.5370  131.0939  150.9878 LP  0  0  0  0  0  0  0  0  0  0  0  0  # atno 17371 bound_to 10713
  140.3360  134.2756  155.7220 LP  0  0  0  0  0  0  0  0  0  0  0  0  # atno 17394 bound_to 11000
  141.2076  133.7801  157.0109 LP  0  0  0  0  0  0  0  0  0  0  0  0  # atno 17395 bound_to 11000

$$$$
