AV-unprocessed.smi:1125|AV-procd|sdf|4835|dock2
  -GOLD-   22720 3393D 1   1.00000     0.00000
 Structure written by MMmdl.
 46 47  0  0  0  0  0  0  0  0  2 V2000
  146.5828  138.7346  152.0527 C   0  0  0  0  0  0  0  0  0  0  0  0
  146.3563  139.6404  153.1991 N   0  3  2  0  0  0  0  0  0  0  0  0
  147.4510  140.6299  153.3593 C   0  0  0  0  0  0  0  0  0  0  0  0
  147.1310  141.6358  154.4798 C   0  0  0  0  0  0  0  0  0  0  0  0
  146.8238  140.9300  155.8146 C   0  0  2  0  0  0  0  0  0  0  0  0
  148.0196  140.3103  156.3784 N   0  0  0  0  0  0  0  0  0  0  0  0
  148.6332  140.6644  157.5187 C   0  0  0  0  0  0  0  0  0  0  0  0
  148.2670  141.6067  158.2203 O   0  0  0  0  0  0  0  0  0  0  0  0
  149.8564  139.8342  157.9214 C   0  0  0  0  0  0  0  0  0  0  0  0
  150.9915  140.7259  158.3413 C   0  0  0  0  0  0  0  0  0  0  0  0
  152.3003  140.3611  158.5305 C   0  0  0  0  0  0  0  0  0  0  0  0
  153.2921  141.7177  158.9869 S   0  0  0  0  0  0  0  0  0  0  0  0
  151.8678  142.7610  158.9097 C   0  0  0  0  0  0  0  0  0  0  0  0
  151.8670  144.2501  159.1571 C   0  0  0  0  0  0  0  0  0  0  0  0
  150.4226  144.7842  159.0962 C   0  0  0  0  0  0  0  0  0  0  0  0
  152.6911  144.9972  158.0863 C   0  0  0  0  0  0  0  0  0  0  0  0
  152.5005  144.5546  160.5284 C   0  0  0  0  0  0  0  0  0  0  0  0
  150.7624  142.0860  158.5765 N   0  0  0  0  0  0  0  0  0  0  0  0
  145.7304  139.8677  155.6030 C   0  0  0  0  0  0  0  0  0  0  0  0
  146.0819  138.9012  154.4566 C   0  0  0  0  0  0  0  0  0  0  0  0
  147.4758  138.1269  152.2044 H   0  0  0  0  0  0  0  0  0  0  0  0
  146.7088  139.3046  151.1316 H   0  0  0  0  0  0  0  0  0  0  0  0
  145.7324  138.0658  151.9156 H   0  0  0  0  0  0  0  0  0  0  0  0
  148.3865  140.1101  153.5721 H   0  0  0  0  0  0  0  0  0  0  0  0
  147.5961  141.1676  152.4215 H   0  0  0  0  0  0  0  0  0  0  0  0
  147.9564  142.3386  154.5993 H   0  0  0  0  0  0  0  0  0  0  0  0
  146.2676  142.2335  154.1851 H   0  0  0  0  0  0  0  0  0  0  0  0
  146.4496  141.6661  156.5285 H   0  0  0  0  0  0  0  0  0  0  0  0
  148.3971  139.5168  155.8801 H   0  0  0  0  0  0  0  0  0  0  0  0
  149.5743  139.1596  158.7308 H   0  0  0  0  0  0  0  0  0  0  0  0
  150.1559  139.2021  157.0846 H   0  0  0  0  0  0  0  0  0  0  0  0
  152.7418  139.3816  158.4199 H   0  0  0  0  0  0  0  0  0  0  0  0
  150.3897  145.8627  159.2549 H   0  0  0  0  0  0  0  0  0  0  0  0
  149.7938  144.3245  159.8595 H   0  0  0  0  0  0  0  0  0  0  0  0
  149.9646  144.5791  158.1278 H   0  0  0  0  0  0  0  0  0  0  0  0
  152.2869  144.8426  157.0852 H   0  0  0  0  0  0  0  0  0  0  0  0
  153.7318  144.6705  158.0796 H   0  0  0  0  0  0  0  0  0  0  0  0
  152.6935  146.0725  158.2680 H   0  0  0  0  0  0  0  0  0  0  0  0
  152.5280  145.6268  160.7249 H   0  0  0  0  0  0  0  0  0  0  0  0
  153.5244  144.1827  160.5835 H   0  0  0  0  0  0  0  0  0  0  0  0
  151.9390  144.0912  161.3404 H   0  0  0  0  0  0  0  0  0  0  0  0
  145.5622  139.3086  156.5246 H   0  0  0  0  0  0  0  0  0  0  0  0
  144.7869  140.3648  155.3740 H   0  0  0  0  0  0  0  0  0  0  0  0
  145.2531  138.2096  154.2999 H   0  0  0  0  0  0  0  0  0  0  0  0
  146.9500  138.2958  154.7222 H   0  0  0  0  0  0  0  0  0  0  0  0
  145.5209  140.1670  152.9867 H   0  0  0  0  0  0  0  0  0  0  0  0
  1  2  1  0  0  0  0
  1 21  1  0  0  0  0
  1 22  1  0  0  0  0
  1 23  1  0  0  0  0
  2 20  1  0  0  0  0
  2  3  1  0  0  0  0
  2 46  1  0  0  0  0
  3  4  1  0  0  0  0
  3 24  1  0  0  0  0
  3 25  1  0  0  0  0
  4  5  1  0  0  0  0
  4 26  1  0  0  0  0
  4 27  1  0  0  0  0
  5  6  1  0  0  0  0
  5 19  1  0  0  0  0
  5 28  1  0  0  0  0
  6  7  1  0  0  0  0
  6 29  1  0  0  0  0
  7  8  2  0  0  0  0
  7  9  1  0  0  0  0
  9 10  1  0  0  0  0
  9 30  1  0  0  0  0
  9 31  1  0  0  0  0
 10 18  1  0  0  0  0
 10 11  2  0  0  0  0
 11 12  1  0  0  0  0
 11 32  1  0  0  0  0
 12 13  1  0  0  0  0
 13 14  1  0  0  0  0
 13 18  2  0  0  0  0
 14 15  1  0  0  0  0
 14 16  1  0  0  0  0
 14 17  1  0  0  0  0
 15 33  1  0  0  0  0
 15 34  1  0  0  0  0
 15 35  1  0  0  0  0
 16 36  1  0  0  0  0
 16 37  1  0  0  0  0
 16 38  1  0  0  0  0
 17 39  1  0  0  0  0
 17 40  1  0  0  0  0
 17 41  1  0  0  0  0
 19 20  1  0  0  0  0
 19 42  1  0  0  0  0
 19 43  1  0  0  0  0
 20 44  1  0  0  0  0
 20 45  1  0  0  0  0
M  CHG  1   2   1
M  END
> <s_m_source_file>
AV-unprocessed.smi

> <i_m_source_file_index>
1125

> <i_lp_mmshare_version>
43012

> <i_f3d_flags>
0

> <s_epik_input>
W0NIM11OMVtDSDJdW0NIMl1bQ0hdKFtDSDJdW0NIMl0xKVtOSF1DKD1PKVtDSDJdYzJbY0hdc2MobjIpQyhbQ0gzXSkoW0NIM10pW0NIM10=

> <s_epik_cmdline>
J2VwaWtfcHl0aG9uJywgJy1waCcsICc3LjAnLCAnLXRuJywgJzgnLCAnLW1hJywgJzIwMCcsICctbWV0YWxfYmluZGluZycsICctaW1hZScsICc8aW5maWxlLm1hZT4nLCAnLW9tYWUnLCAnPG91dGZpbGUubWFlPic=

> <r_epik_Ionization_Penalty>
0.00829478

> <r_epik_Ionization_Penalty_Charging>
0.0082618

> <r_epik_Ionization_Penalty_Neutral>
3.29858e-05

> <r_epik_State_Penalty>
0.00621662

> <r_epik_Charging_Adjusted_Penalty>
0.0144784

> <i_epik_Tot_Q>
1

> <i_epik_Tot_abs_Q>
1

> <r_epik_Metal_State_Penalty>
0.00621672

> <b_epik_Metal_Only>
0

> <s_lp_Force_Field>
OPLS_2005

> <r_lp_Energy>
6.26884

> <b_lp_Chiralities_Consistent>
1

> <s_lp_Variant>
AV-unprocessed.smi:1125-2

> <Gold.Version>
5.8.1

> <Gold.Id.Protein>
6NUR|6NUR_protein|mol2

> <Gold.PLP.Fitness>
43.7513

> <Gold.PLP.PLP>
-38.5841

> <Gold.PLP.part.hbond>
-1.8060

> <Gold.PLP.part.metal>
0.0000

> <Gold.PLP.part.buried>
-4.2108

> <Gold.PLP.part.nonpolar>
-31.5129

> <Gold.PLP.part.repulsive>
0.0978

> <Gold.PLP.ligand.clash>
0.0000

> <Gold.PLP.ligand.torsion>
0.4285

> <Gold.PLP.Chemscore.Hbond>
2.0000

> <Gold.PLP.Chemscore.CHOScore>
0.0000

> <Gold.PLP.Chemscore.Metal>
0.0000

> <Gold.Chemscore.Hbonds>
donor molecule, donor type, donor heavy atom, donor atom, acceptor molecule, acceptor atom, score
      L1  H     2    46       P1 10175  2.00

> <Gold.PLP.Chemscore.Internal.Correction>
0.0242

> <Gold.Rescore>
     Score         DG    S(hbond)    S(metal)    S(lipo)     H(rot)  DE(clash)    DE(int)     intcor
     15.87     -17.79       0.99        0.00     107.62       1.40       0.01       1.90       ----

> <Gold.Chemscore.Fitness>
15.8741

> <Gold.Chemscore.DG>
-17.7879

> <Gold.Chemscore.ZeroCoef>
-5.4800

> <Gold.Chemscore.Hbond>
0.9906

> <Gold.Chemscore.Metal>
0.0000

> <Gold.Chemscore.Lipo>
107.6150

> <Gold.Chemscore.Internal_Hbond>
0.0000

> <Gold.Chemscore.DEClash>
0.0148

> <Gold.Chemscore.DEInternal>
1.8991

> <Gold.Chemscore.Rot>
1.4030

> <Gold.Chemscore.Internal.Correction>
   9.000000E+99

> <Gold.Chemscore.Hbonds>
donor molecule, donor type, donor heavy atom, donor atom, acceptor molecule, acceptor atom, score
      L1  H     2    46       P1 10175  0.97

> <Gold.Chemscore.Hbond.Weighted>
-3.3087

> <Gold.Chemscore.Metal.Weighted>
-0.0000

> <Gold.Chemscore.Lipo.Weighted>
-12.5910

> <Gold.Chemscore.Internal_Hbond.Weighted>
0.0000

> <Gold.Chemscore.DEClash.Weighted>
0.0148

> <Gold.Chemscore.DEInternal.Weighted>
1.8991

> <Gold.Chemscore.Rot.Weighted>
3.5917

> <Gold.Chemscore.Internal.Correction.Weighted>
   9.000000E+99

> <Gold.Protein.RotatedTorsions>
[ 6907 6896 6895 6894 ] final    2.68 input  -60.11 | X-H torsion
[ 7974 7965 7964 7962 ] final  158.89 input  175.53 | X-H torsion
[ 8008 7997 7996 7995 ] final  -38.05 input   59.86 | X-H torsion
[ 10167 10162 10161 10158 ] final  -31.06 input  -65.29 | X-H torsion
[ 10718 10713 10712 10709 ] final   59.72 input   66.30 | X-H torsion
[ 10763 10752 10751 10750 ] final  -41.23 input  -60.55 | X-H torsion
[ 11005 11000 10999 10996 ] final -156.03 input  -57.11 | X-H torsion

> <Gold.Protein.ActiveResidues>
 VAL166  LYS551  ARG553  GLY616  TRP617  ASP618  TYR619  PRO620  LYS621  CYS622 
 ASP623  PHE694  ASN695  SER759  ASP760  ASP761  ALA762  ILE779  LEU786  VAL792 
 PHE793  MET794  SER795  GLU796  ALA797  LYS798  CYS799  TRP800  GLU811  SER814 

> <Gold.Protein.RotatedAtoms>
  151.6129  135.1039  160.0084 H   0  0  0  0  0  0  0  0  0  0  0  0  # atno 6907 bound_to 6896
  152.4199  133.7095  159.6481 H   0  0  0  0  0  0  0  0  0  0  0  0  # atno 6908 bound_to 6896
  150.8086  133.8390  159.3215 H   0  0  0  0  0  0  0  0  0  0  0  0  # atno 6909 bound_to 6896
  144.7820  139.7541  143.6256 H   0  0  0  0  0  0  0  0  0  0  0  0  # atno 7974 bound_to 7965
  154.4043  140.1588  156.2637 H   0  0  0  0  0  0  0  0  0  0  0  0  # atno 8008 bound_to 7997
  155.9014  140.3433  155.6007 H   0  0  0  0  0  0  0  0  0  0  0  0  # atno 8009 bound_to 7997
  155.7443  140.0796  157.2221 H   0  0  0  0  0  0  0  0  0  0  0  0  # atno 8010 bound_to 7997
  140.7241  143.3800  151.1618 H   0  0  0  0  0  0  0  0  0  0  0  0  # atno 10167 bound_to 10162
  157.5698  130.8898  149.9247 H   0  0  0  0  0  0  0  0  0  0  0  0  # atno 10718 bound_to 10713
  153.9591  135.6741  153.4745 H   0  0  0  0  0  0  0  0  0  0  0  0  # atno 10763 bound_to 10752
  153.0847  135.4905  154.8569 H   0  0  0  0  0  0  0  0  0  0  0  0  # atno 10764 bound_to 10752
  154.7282  135.3132  154.8895 H   0  0  0  0  0  0  0  0  0  0  0  0  # atno 10765 bound_to 10752
  140.6800  134.4154  157.5227 H   0  0  0  0  0  0  0  0  0  0  0  0  # atno 11005 bound_to 11000
  146.2033  139.5342  142.9729 LP  0  0  0  0  0  0  0  0  0  0  0  0  # atno 17320 bound_to 7965
  145.6024  141.0353  143.2011 LP  0  0  0  0  0  0  0  0  0  0  0  0  # atno 17321 bound_to 7965
  139.7387  143.8958  152.3043 LP  0  0  0  0  0  0  0  0  0  0  0  0  # atno 17342 bound_to 10162
  139.8772  144.7037  150.8920 LP  0  0  0  0  0  0  0  0  0  0  0  0  # atno 17343 bound_to 10162
  156.0744  130.3681  150.0709 LP  0  0  0  0  0  0  0  0  0  0  0  0  # atno 17370 bound_to 10713
  156.8863  130.9573  151.3594 LP  0  0  0  0  0  0  0  0  0  0  0  0  # atno 17371 bound_to 10713
  139.8954  134.8682  156.2131 LP  0  0  0  0  0  0  0  0  0  0  0  0  # atno 17394 bound_to 11000
  141.0325  133.6981  156.1454 LP  0  0  0  0  0  0  0  0  0  0  0  0  # atno 17395 bound_to 11000

$$$$
