#       Name:                AV-unprocessed.smi:1997
#       Creating user name   scv26
#       Creation time:       Fri Mar 27 10:30:26 2020


#       File generated by GOLD software.
#

@<TRIPOS>MOLECULE
AV-unprocessed.smi:1997
    43    45     1
SMALL
NO_CHARGES


@<TRIPOS>ATOM
      1 ****         0.4617   1.1423   0.9264 O.2            1 S1                 0.0000
      2 ****         0.1291   0.1504   0.2772 C.2            1 S1                 0.0000
      3 ****         0.9519  -0.8419  -0.1053 N.am           1 S1                 0.0000
      4 ****         2.3487  -0.9631   0.1187 C.2            1 S1                 0.0000
      5 ****         3.0757  -0.0648   0.7972 N.2            1 S1                 0.0000
      6 ****         4.4150  -0.4236   0.8598 N.2            1 S1                 0.0000
      7 ****         4.6621  -1.5774   0.2281 C.2            1 S1                 0.0000
      8 ****         6.0314  -2.1658   0.1506 C.3            1 S1                 0.0000
      9 ****         7.0812  -1.5620  -0.7539 C.3            1 S1                 0.0000
     10 ****         6.5032  -2.9162  -1.0760 C.3            1 S1                 0.0000
     11 ****         3.2497  -2.3364  -0.4992 S.3            1 S1                 0.0000
     12 ****        -1.1260  -0.0727  -0.1421 N.am           1 S1                 0.0000
     13 ****        -2.2733   0.8035   0.1066 C.3            1 S1                 0.0000
     14 ****        -3.3141   0.5354  -1.0049 C.3            1 S1                 0.0000
     15 ****        -4.3025   1.6942  -1.2234 C.3            1 S1                 0.0000
     16 ****        -5.2352   1.9842  -0.0376 C.3            1 S1                 0.0000
     17 ****        -4.4956   2.4202   1.2387 C.3            1 S1                 0.0000
     18 ****        -3.8918   1.2918   1.9351 N.am           1 S1                 0.0000
     19 ****        -2.9097   0.4974   1.4828 C.2            1 S1                 0.0000
     20 ****        -2.5282  -0.4623   2.1525 O.2            1 S1                 0.0000
     21 ****         0.5315  -1.5946  -0.6298 H              1 S1                 0.0000
     22 ****         6.3478  -2.5334   1.1248 H              1 S1                 0.0000
     23 ****         6.7849  -0.7272  -1.3862 H              1 S1                 0.0000
     24 ****         8.1030  -1.5261  -0.3822 H              1 S1                 0.0000
     25 ****         7.1400  -3.7842  -0.9189 H              1 S1                 0.0000
     26 ****         5.8343  -2.9788  -1.9319 H              1 S1                 0.0000
     27 ****        -1.3093  -0.9187  -0.6609 H              1 S1                 0.0000
     28 ****        -1.9416   1.8427   0.0694 H              1 S1                 0.0000
     29 ****        -2.7920   0.3815  -1.9508 H              1 S1                 0.0000
     30 ****        -3.8563  -0.3934  -0.8180 H              1 S1                 0.0000
     31 ****        -3.7484   2.5985  -1.4783 H              1 S1                 0.0000
     32 ****        -4.9151   1.4670  -2.0965 H              1 S1                 0.0000
     33 ****        -5.9164   2.7834  -0.3313 H              1 S1                 0.0000
     34 ****        -5.8643   1.1172   0.1689 H              1 S1                 0.0000
     35 ****        -3.7461   3.1826   1.0213 H              1 S1                 0.0000
     36 ****        -5.2073   2.8775   1.9264 H              1 S1                 0.0000
     37 ****        -4.2773   1.0712   2.8420 H              1 S1                 0.0000
     38 ****         1.4131   1.2569   1.2123 LP             1 S1                 0.0000
     39 ****        -0.2196   1.8334   1.1678 LP             1 S1                 0.0000
     40 ****         2.6984   0.7647   1.2091 LP             1 S1                 0.0000
     41 ****         5.1156   0.1183   1.3241 LP             1 S1                 0.0000
     42 ****        -1.7993  -1.0540   1.8083 LP             1 S1                 0.0000
     43 ****        -2.9472  -0.6502   3.0408 LP             1 S1                 0.0000
@<TRIPOS>BOND
    1    1    2 2     
    2    2    3 am    
    3    2   12 am    
    4    3    4 1     
    5    3   21 1     
    6    4   11 1     
    7    4    5 2     
    8    5    6 1     
    9    6    7 2     
   10    7    8 1     
   11    7   11 1     
   12    8   10 1     
   13    8    9 1     
   14    8   22 1     
   15    9   10 1     
   16    9   23 1     
   17    9   24 1     
   18   10   25 1     
   19   10   26 1     
   20   12   13 1     
   21   12   27 1     
   22   13   19 1     
   23   13   14 1     
   24   13   28 1     
   25   14   15 1     
   26   14   29 1     
   27   14   30 1     
   28   15   16 1     
   29   15   31 1     
   30   15   32 1     
   31   16   17 1     
   32   16   33 1     
   33   16   34 1     
   34   17   18 1     
   35   17   35 1     
   36   17   36 1     
   37   18   19 am    
   38   18   37 1     
   39   19   20 2     
   40    1   38 1     
   41    1   39 1     
   42    5   40 1     
   43    6   41 1     
   44   20   42 1     
   45   20   43 1     
@<TRIPOS>SUBSTRUCTURE
      1 S1             1
@<TRIPOS>SET
LONE_PAIRS      STATIC     ATOMS    <user>   **** ""
6 38 39 40 41 42 43
DONOR_HYDROGENS      STATIC     ATOMS    <user>   **** ""
3 21 27 37
ATOM$BLUE        STATIC     ATOMS    COLORGROUP SYSTEM
6 38 39 40 41 42 43
ATOM$RED        STATIC     ATOMS    COLORGROUP SYSTEM
3 21 27 37
