AV-unprocessed.smi:10|AV-procd|sdf|53|dock6
  -GOLD-   2262015173D 1   1.00000     0.00000
 Structure written by MMmdl.
 34 36  0  0  0  0  0  0  0  0  1 V2000
  152.5926  143.5179  162.0056 C   0  0  0  0  0  0  0  0  0  0  0  0
  152.7243  142.5105  160.9733 N   0  0  0  0  0  0  0  0  0  0  0  0
  153.4621  141.3852  161.0187 C   0  0  0  0  0  0  0  0  0  0  0  0
  153.4030  140.6260  159.9261 N   0  0  0  0  0  0  0  0  0  0  0  0
  152.5400  141.3478  159.1093 C   0  0  0  0  0  0  0  0  0  0  0  0
  152.0404  141.0626  157.7448 C   0  0  0  0  0  0  0  0  0  0  0  0
  152.3588  140.0475  157.1250 O   0  0  0  0  0  0  0  0  0  0  0  0
  151.2023  142.0306  157.2687 N   0  0  0  0  0  0  0  0  0  0  0  0
  150.6014  141.9128  155.9316 C   0  0  0  0  0  0  0  0  0  0  0  0
  150.0424  140.4942  155.6766 C   0  0  2  0  0  0  0  0  0  0  0  0
  150.8129  139.8771  154.6654 O   0  0  0  0  0  0  0  0  0  0  0  0
  148.5979  140.5141  155.1787 C   0  0  0  0  0  0  0  0  0  0  0  0
  148.0775  139.3618  154.3041 C   0  0  0  0  0  0  0  0  0  0  0  0
  147.2250  140.3807  153.5440 C   0  0  0  0  0  0  0  0  0  0  0  0
  148.1986  141.4561  154.0312 C   0  0  0  0  0  0  0  0  0  0  0  0
  150.8391  143.1806  158.0336 C   0  0  0  0  0  0  0  0  0  0  0  0
  151.2605  143.4567  159.2403 N   0  0  0  0  0  0  0  0  0  0  0  0
  152.1163  142.4930  159.7241 C   0  0  0  0  0  0  0  0  0  0  0  0
  153.2801  143.3103  162.8263 H   0  0  0  0  0  0  0  0  0  0  0  0
  151.5718  143.5187  162.3882 H   0  0  0  0  0  0  0  0  0  0  0  0
  152.8206  144.5007  161.5921 H   0  0  0  0  0  0  0  0  0  0  0  0
  154.0589  141.1139  161.8772 H   0  0  0  0  0  0  0  0  0  0  0  0
  149.7998  142.6477  155.8398 H   0  0  0  0  0  0  0  0  0  0  0  0
  151.3075  142.2009  155.1497 H   0  0  0  0  0  0  0  0  0  0  0  0
  150.1074  139.8892  156.5824 H   0  0  0  0  0  0  0  0  0  0  0  0
  150.2409  139.3468  154.1311 H   0  0  0  0  0  0  0  0  0  0  0  0
  147.9011  140.6544  156.0084 H   0  0  0  0  0  0  0  0  0  0  0  0
  148.8567  138.9172  153.6827 H   0  0  0  0  0  0  0  0  0  0  0  0
  147.5097  138.6016  154.8411 H   0  0  0  0  0  0  0  0  0  0  0  0
  147.2003  140.2409  152.4629 H   0  0  0  0  0  0  0  0  0  0  0  0
  146.2242  140.4940  153.9636 H   0  0  0  0  0  0  0  0  0  0  0  0
  147.7301  142.3875  154.3500 H   0  0  0  0  0  0  0  0  0  0  0  0
  149.0123  141.6368  153.3268 H   0  0  0  0  0  0  0  0  0  0  0  0
  150.1448  143.8470  157.5185 H   0  0  0  0  0  0  0  0  0  0  0  0
  1  2  1  0  0  0  0
  1 19  1  0  0  0  0
  1 20  1  0  0  0  0
  1 21  1  0  0  0  0
  2 18  1  0  0  0  0
  2  3  1  0  0  0  0
  3  4  2  0  0  0  0
  3 22  1  0  0  0  0
  4  5  1  0  0  0  0
  5 18  2  0  0  0  0
  5  6  1  0  0  0  0
  6  7  2  0  0  0  0
  6  8  1  0  0  0  0
  8  9  1  0  0  0  0
  8 16  1  0  0  0  0
  9 10  1  0  0  0  0
  9 23  1  0  0  0  0
  9 24  1  0  0  0  0
 10 11  1  0  0  0  0
 10 12  1  0  0  0  0
 10 25  1  0  0  0  0
 11 26  1  0  0  0  0
 12 15  1  0  0  0  0
 12 13  1  0  0  0  0
 12 27  1  0  0  0  0
 13 14  1  0  0  0  0
 13 28  1  0  0  0  0
 13 29  1  0  0  0  0
 14 15  1  0  0  0  0
 14 30  1  0  0  0  0
 14 31  1  0  0  0  0
 15 32  1  0  0  0  0
 15 33  1  0  0  0  0
 16 17  2  0  0  0  0
 16 34  1  0  0  0  0
 17 18  1  0  0  0  0
M  END
> <s_m_source_file>
AV-unprocessed.smi

> <i_m_source_file_index>
10

> <i_lp_mmshare_version>
43012

> <i_f3d_flags>
0

> <s_epik_input>
bjFbY0hdbihbQ0gzXSljKGMxMiluW2NIXW4oYzI9TylbQ0gyXVtDQEhdKFtPSF0pW0NIXTNbQ0gyXVtDSDJdW0NIMl0z

> <s_epik_cmdline>
J2VwaWtfcHl0aG9uJywgJy1waCcsICc3LjAnLCAnLXRuJywgJzgnLCAnLW1hJywgJzIwMCcsICctbWV0YWxfYmluZGluZycsICctaW1hZScsICc8aW5maWxlLm1hZT4nLCAnLW9tYWUnLCAnPG91dGZpbGUubWFlPic=

> <r_lp_tautomer_probability>
1

> <r_epik_Ionization_Penalty>
0.0003743

> <r_epik_Ionization_Penalty_Charging>
2.98177e-12

> <r_epik_Ionization_Penalty_Neutral>
0.000374299

> <r_epik_State_Penalty>
0.000224514

> <r_epik_Charging_Adjusted_Penalty>
0.000224514

> <i_epik_Tot_Q>
0

> <i_epik_Tot_abs_Q>
0

> <r_epik_Metal_State_Penalty>
-0

> <b_epik_Metal_Only>
0

> <s_lp_Force_Field>
OPLS_2005

> <r_lp_Energy>
32.1402

> <b_lp_Chiralities_Consistent>
1

> <s_lp_Variant>
AV-unprocessed.smi:10-1

> <Gold.Version>
5.8.1

> <Gold.Id.Protein>
6NUR|6NUR_protein|mol2

> <Gold.PLP.Fitness>
45.5797

> <Gold.PLP.PLP>
-38.9894

> <Gold.PLP.part.hbond>
-2.0000

> <Gold.PLP.part.metal>
0.0000

> <Gold.PLP.part.buried>
-5.1309

> <Gold.PLP.part.nonpolar>
-30.7763

> <Gold.PLP.part.repulsive>
0.0436

> <Gold.PLP.ligand.clash>
0.0000

> <Gold.PLP.ligand.torsion>
1.2649

> <Gold.PLP.Chemscore.Hbond>
2.0000

> <Gold.PLP.Chemscore.CHOScore>
1.0000

> <Gold.PLP.Chemscore.Metal>
0.0000

> <Gold.Chemscore.Hbonds>
donor molecule, donor type, donor heavy atom, donor atom, acceptor molecule, acceptor atom, score
      P1  H  7989  7998       L1    11  1.00
      P1  H  7997  8009       L1     7  0.88
      L1  C    16    34       P1  8028  1.00

> <Gold.PLP.Chemscore.Internal.Correction>
0.1200

> <Gold.Rescore>
     Score         DG    S(hbond)    S(metal)    S(lipo)     H(rot)  DE(clash)    DE(int)     intcor
     10.27     -12.34       1.72        0.00      59.53       2.28       0.08       2.00       ----

> <Gold.Chemscore.Fitness>
10.2658

> <Gold.Chemscore.DG>
-12.3448

> <Gold.Chemscore.ZeroCoef>
-5.4800

> <Gold.Chemscore.Hbond>
1.7193

> <Gold.Chemscore.Metal>
0.0000

> <Gold.Chemscore.Lipo>
59.5346

> <Gold.Chemscore.Internal_Hbond>
0.0000

> <Gold.Chemscore.DEClash>
0.0784

> <Gold.Chemscore.DEInternal>
2.0006

> <Gold.Chemscore.Rot>
2.2824

> <Gold.Chemscore.Internal.Correction>
   9.000000E+99

> <Gold.Chemscore.Hbonds>
donor molecule, donor type, donor heavy atom, donor atom, acceptor molecule, acceptor atom, score
      P1  H  7989  7998       L1    11  0.38
      P1  H  7997  8009       L1     7  0.69

> <Gold.Chemscore.Hbond.Weighted>
-5.7423

> <Gold.Chemscore.Metal.Weighted>
-0.0000

> <Gold.Chemscore.Lipo.Weighted>
-6.9656

> <Gold.Chemscore.Internal_Hbond.Weighted>
0.0000

> <Gold.Chemscore.DEClash.Weighted>
0.0784

> <Gold.Chemscore.DEInternal.Weighted>
2.0006

> <Gold.Chemscore.Rot.Weighted>
5.8431

> <Gold.Chemscore.Internal.Correction.Weighted>
   9.000000E+99

> <Gold.Protein.RotatedTorsions>
[ 6907 6896 6895 6894 ] final -164.48 input  -60.11 | X-H torsion
[ 7974 7965 7964 7962 ] final   36.61 input  175.53 | X-H torsion
[ 8008 7997 7996 7995 ] final -171.08 input   59.86 | X-H torsion
[ 10167 10162 10161 10158 ] final    9.54 input  -65.29 | X-H torsion
[ 10718 10713 10712 10709 ] final  121.61 input   66.30 | X-H torsion
[ 10763 10752 10751 10750 ] final  -80.88 input  -60.55 | X-H torsion
[ 11005 11000 10999 10996 ] final  138.38 input  -57.11 | X-H torsion

> <Gold.Protein.ActiveResidues>
 VAL166  LYS551  ARG553  GLY616  TRP617  ASP618  TYR619  PRO620  LYS621  CYS622 
 ASP623  PHE694  ASN695  SER759  ASP760  ASP761  ALA762  ILE779  LEU786  VAL792 
 PHE793  MET794  SER795  GLU796  ALA797  LYS798  CYS799  TRP800  GLU811  SER814 

> <Gold.Protein.RotatedAtoms>
  151.4125  133.3723  159.2745 H   0  0  0  0  0  0  0  0  0  0  0  0  # atno 6907 bound_to 6896
  150.9352  134.8766  159.7587 H   0  0  0  0  0  0  0  0  0  0  0  0  # atno 6908 bound_to 6896
  152.5046  134.4073  159.9489 H   0  0  0  0  0  0  0  0  0  0  0  0  # atno 6909 bound_to 6896
  146.1199  139.5997  142.9297 H   0  0  0  0  0  0  0  0  0  0  0  0  # atno 7974 bound_to 7965
  155.9268  140.1084  157.1164 H   0  0  0  0  0  0  0  0  0  0  0  0  # atno 8008 bound_to 7997
  154.4063  140.1245  156.4816 H   0  0  0  0  0  0  0  0  0  0  0  0  # atno 8009 bound_to 7997
  155.7129  140.3470  155.4984 H   0  0  0  0  0  0  0  0  0  0  0  0  # atno 8010 bound_to 7997
  140.6249  143.8123  150.7221 H   0  0  0  0  0  0  0  0  0  0  0  0  # atno 10167 bound_to 10162
  157.5804  131.1075  150.8198 H   0  0  0  0  0  0  0  0  0  0  0  0  # atno 10718 bound_to 10713
  154.5567  135.5645  153.6970 H   0  0  0  0  0  0  0  0  0  0  0  0  # atno 10763 bound_to 10752
  153.0005  135.6264  154.2300 H   0  0  0  0  0  0  0  0  0  0  0  0  # atno 10764 bound_to 10752
  154.2237  135.2868  155.2895 H   0  0  0  0  0  0  0  0  0  0  0  0  # atno 10765 bound_to 10752
  140.0180  134.9409  157.0416 H   0  0  0  0  0  0  0  0  0  0  0  0  # atno 11005 bound_to 11000
  145.5488  141.0415  143.2289 LP  0  0  0  0  0  0  0  0  0  0  0  0  # atno 17320 bound_to 7965
  144.7587  139.7010  143.7243 LP  0  0  0  0  0  0  0  0  0  0  0  0  # atno 17321 bound_to 7965
  140.1722  143.4185  152.1993 LP  0  0  0  0  0  0  0  0  0  0  0  0  # atno 17342 bound_to 10162
  139.5471  144.7307  151.4550 LP  0  0  0  0  0  0  0  0  0  0  0  0  # atno 17343 bound_to 10162
  156.8645  130.5124  149.5301 LP  0  0  0  0  0  0  0  0  0  0  0  0  # atno 17370 bound_to 10713
  156.0850  130.5851  150.9632 LP  0  0  0  0  0  0  0  0  0  0  0  0  # atno 17371 bound_to 10713
  140.4437  134.1654  155.7176 LP  0  0  0  0  0  0  0  0  0  0  0  0  # atno 17394 bound_to 11000
  141.1755  133.8522  157.1434 LP  0  0  0  0  0  0  0  0  0  0  0  0  # atno 17395 bound_to 11000

$$$$
