#       Name:                AV-unprocessed.smi:2545
#       Creating user name   scv26
#       Creation time:       Fri Mar 27 14:04:45 2020


#       File generated by GOLD software.
#

@<TRIPOS>MOLECULE
AV-unprocessed.smi:2545
    30    31     1
SMALL
NO_CHARGES


@<TRIPOS>ATOM
      1 ****        -1.7552   1.9204   0.0104 N.pl3          1 S1                 0.0000
      2 ****        -0.3602   1.9774   0.0080 C.ar           1 S1                 0.0000
      3 ****         0.2857   3.2295   0.0071 C.ar           1 S1                 0.0000
      4 ****         1.6939   3.2612   0.0045 C.ar           1 S1                 0.0000
      5 ****         2.4602   2.1507   0.0027 N.ar           1 S1                 0.0000
      6 ****         1.8362   0.9538   0.0036 C.ar           1 S1                 0.0000
      7 ****         0.4288   0.8018   0.0063 C.ar           1 S1                 0.0000
      8 ****        -0.1717  -0.4683   0.0053 N.3            1 S1                 0.0000
      9 ****         0.0685  -1.2239  -1.2174 C.3            1 S1                 0.0000
     10 ****        -0.7307  -2.5385  -1.1874 C.3            1 S1                 0.0000
     11 ****        -0.3932  -3.2763  -0.0158 O.3            1 S1                 0.0000
     12 ****        -0.7016  -2.5584   1.1761 C.3            1 S1                 0.0000
     13 ****         0.0990  -1.2447   1.2086 C.3            1 S1                 0.0000
     14 ****        -2.2520   1.0413   0.0110 H              1 S1                 0.0000
     15 ****        -2.3105   2.7640   0.0197 H              1 S1                 0.0000
     16 ****        -0.2811   4.1491   0.0083 H              1 S1                 0.0000
     17 ****         2.2188   4.2051   0.0035 H              1 S1                 0.0000
     18 ****         2.4843   0.0895   0.0009 H              1 S1                 0.0000
     19 ****        -0.2224  -0.6282  -2.0837 H              1 S1                 0.0000
     20 ****         1.1327  -1.4421  -1.3165 H              1 S1                 0.0000
     21 ****        -1.8038  -2.3416  -1.2095 H              1 S1                 0.0000
     22 ****        -0.4991  -3.1399  -2.0665 H              1 S1                 0.0000
     23 ****        -1.7738  -2.3616   1.2276 H              1 S1                 0.0000
     24 ****        -0.4492  -3.1747   2.0390 H              1 S1                 0.0000
     25 ****         1.1650  -1.4655   1.2776 H              1 S1                 0.0000
     26 ****        -0.1696  -0.6639   2.0920 H              1 S1                 0.0000
     27 ****         3.4583   2.2123   0.0008 LP             1 S1                 0.0000
     28 ****        -1.1541  -0.2825   0.0213 LP             1 S1                 0.0000
     29 ****         0.5872  -3.4728  -0.0295 LP             1 S1                 0.0000
     30 ****        -0.9053  -4.1353  -0.0167 LP             1 S1                 0.0000
@<TRIPOS>BOND
    1    1    2 1     
    2    1   14 1     
    3    1   15 1     
    4    2    7 ar    
    5    2    3 ar    
    6    3    4 ar    
    7    3   16 1     
    8    4    5 ar    
    9    4   17 1     
   10    5    6 ar    
   11    6    7 ar    
   12    6   18 1     
   13    7    8 1     
   14    8   13 1     
   15    8    9 1     
   16    9   10 1     
   17    9   19 1     
   18    9   20 1     
   19   10   11 1     
   20   10   21 1     
   21   10   22 1     
   22   11   12 1     
   23   12   13 1     
   24   12   23 1     
   25   12   24 1     
   26   13   25 1     
   27   13   26 1     
   28    5   27 1     
   29    8   28 1     
   30   11   29 1     
   31   11   30 1     
@<TRIPOS>SUBSTRUCTURE
      1 S1             1
@<TRIPOS>SET
LONE_PAIRS      STATIC     ATOMS    <user>   **** ""
4 27 28 29 30
DONOR_HYDROGENS      STATIC     ATOMS    <user>   **** ""
2 14 15
ATOM$BLUE        STATIC     ATOMS    COLORGROUP SYSTEM
4 27 28 29 30
ATOM$RED        STATIC     ATOMS    COLORGROUP SYSTEM
2 14 15
