#       Name:                AV-unprocessed.smi:3248
#       Creating user name   scv26
#       Creation time:       Fri Mar 27 18:29:47 2020


#       File generated by GOLD software.
#

@<TRIPOS>MOLECULE
AV-unprocessed.smi:3248
    43    44     1
SMALL
NO_CHARGES


@<TRIPOS>ATOM
      1 ****        -1.9673  -3.1640  -0.1975 C.3            1 S1                 0.0000
      2 ****        -1.8319  -1.6441  -0.0359 C.3            1 S1                 0.0000
      3 ****        -2.5569  -1.1478   1.2339 C.3            1 S1                 0.0000
      4 ****        -2.5770   0.3006   1.3421 N.pl3          1 S1                 0.0000
      5 ****        -1.8238   1.1094   2.1673 C.2            1 S1                 0.0000
      6 ****        -2.1761   2.4014   1.9019 C.2            1 S1                 0.0000
      7 ****        -3.1685   2.2792   0.8896 C.2            1 S1                 0.0000
      8 ****        -3.4104   1.0205   0.5606 N.2            1 S1                 0.0000
      9 ****        -0.4118  -1.2980   0.0086 N.am           1 S1                 0.0000
     10 ****         0.1597  -0.2355  -0.5849 C.2            1 S1                 0.0000
     11 ****        -0.4822   0.5880  -1.2366 O.2            1 S1                 0.0000
     12 ****         1.4681  -0.0929  -0.2649 N.am           1 S1                 0.0000
     13 ****         2.4119  -1.2028  -0.4574 C.3            1 S1                 0.0000
     14 ****         3.0859  -1.0344  -1.8336 C.3            1 S1                 0.0000
     15 ****         3.7398   0.2310  -1.9037 O.3            1 S1                 0.0000
     16 ****         2.8666   1.3347  -1.6715 C.3            1 S1                 0.0000
     17 ****         2.2119   1.1814  -0.2840 C.3            1 S1                 0.0000
     18 ****         1.4027   2.4264   0.1374 C.3            1 S1                 0.0000
     19 ****        -3.0149  -3.4586  -0.2651 H              1 S1                 0.0000
     20 ****        -1.5264  -3.6947   0.6470 H              1 S1                 0.0000
     21 ****        -1.4705  -3.5088  -1.1051 H              1 S1                 0.0000
     22 ****        -2.2984  -1.1858  -0.9100 H              1 S1                 0.0000
     23 ****        -3.5894  -1.4995   1.2384 H              1 S1                 0.0000
     24 ****        -2.0861  -1.5586   2.1284 H              1 S1                 0.0000
     25 ****        -1.1015   0.7032   2.8598 H              1 S1                 0.0000
     26 ****        -1.7829   3.2973   2.3588 H              1 S1                 0.0000
     27 ****        -3.7176   3.0623   0.3881 H              1 S1                 0.0000
     28 ****         0.1817  -1.8977   0.5630 H              1 S1                 0.0000
     29 ****         3.1615  -1.1920   0.3352 H              1 S1                 0.0000
     30 ****         1.9356  -2.1825  -0.4025 H              1 S1                 0.0000
     31 ****         3.8233  -1.8214  -1.9917 H              1 S1                 0.0000
     32 ****         2.3535  -1.1169  -2.6384 H              1 S1                 0.0000
     33 ****         3.4510   2.2539  -1.7185 H              1 S1                 0.0000
     34 ****         2.1148   1.3919  -2.4603 H              1 S1                 0.0000
     35 ****         3.0119   1.0935   0.4532 H              1 S1                 0.0000
     36 ****         2.0660   3.2785   0.2866 H              1 S1                 0.0000
     37 ****         0.8761   2.2572   1.0770 H              1 S1                 0.0000
     38 ****         0.6726   2.7257  -0.6138 H              1 S1                 0.0000
     39 ****        -4.0638   0.6790  -0.1151 LP             1 S1                 0.0000
     40 ****        -1.4710   0.4814  -1.3417 LP             1 S1                 0.0000
     41 ****        -0.0150   1.3636  -1.6611 LP             1 S1                 0.0000
     42 ****         4.1407   0.3304  -2.8144 LP             1 S1                 0.0000
     43 ****         4.4655   0.2511  -1.2161 LP             1 S1                 0.0000
@<TRIPOS>BOND
    1    1    2 1     
    2    1   19 1     
    3    1   20 1     
    4    1   21 1     
    5    2    3 1     
    6    2    9 1     
    7    2   22 1     
    8    3    4 1     
    9    3   23 1     
   10    3   24 1     
   11    4    8 1     
   12    4    5 1     
   13    5    6 2     
   14    5   25 1     
   15    6    7 1     
   16    6   26 1     
   17    7    8 2     
   18    7   27 1     
   19    9   10 am    
   20    9   28 1     
   21   10   11 2     
   22   10   12 am    
   23   12   17 1     
   24   12   13 1     
   25   13   14 1     
   26   13   29 1     
   27   13   30 1     
   28   14   15 1     
   29   14   31 1     
   30   14   32 1     
   31   15   16 1     
   32   16   17 1     
   33   16   33 1     
   34   16   34 1     
   35   17   18 1     
   36   17   35 1     
   37   18   36 1     
   38   18   37 1     
   39   18   38 1     
   40    8   39 1     
   41   11   40 1     
   42   11   41 1     
   43   15   42 1     
   44   15   43 1     
@<TRIPOS>SUBSTRUCTURE
      1 S1             1
@<TRIPOS>SET
LONE_PAIRS      STATIC     ATOMS    <user>   **** ""
5 39 40 41 42 43
DONOR_HYDROGENS      STATIC     ATOMS    <user>   **** ""
1 28
ATOM$BLUE        STATIC     ATOMS    COLORGROUP SYSTEM
5 39 40 41 42 43
ATOM$RED        STATIC     ATOMS    COLORGROUP SYSTEM
1 28
