AV-unprocessed.smi:8|AV-procd|sdf|45|dock8
  -GOLD-   2262015163D 1   1.00000     0.00000
 Structure written by MMmdl.
 34 35  0  0  0  0  0  0  0  0  1 V2000
  150.7375  143.4604  158.3068 C   0  0  0  0  0  0  0  0  0  0  0  0
  151.5804  142.1832  158.1723 C   0  0  0  0  0  0  0  0  0  0  0  0
  151.1368  141.3277  157.0993 N   0  0  0  0  0  0  0  0  0  0  0  0
  150.0328  141.6277  156.3161 C   0  0  0  0  0  0  0  0  0  0  0  0
  149.5798  140.8295  155.3161 C   0  0  0  0  0  0  0  0  0  0  0  0
  148.3774  141.2125  154.4673 C   0  0  0  0  0  0  0  0  0  0  0  0
  148.1229  140.2701  153.3853 N   0  0  0  0  0  0  0  0  0  0  0  0
  147.1768  139.2456  153.5415 C   0  0  0  0  0  0  0  0  0  0  0  0
  146.9929  138.7045  154.7696 N   0  0  0  0  0  0  0  0  0  0  0  0
  146.0844  137.7326  154.8826 C   0  0  0  0  0  0  0  0  0  0  0  0
  145.3285  137.2292  153.9049 N   0  0  0  0  0  0  0  0  0  0  0  0
  145.4982  137.7588  152.6750 C   0  0  0  0  0  0  0  0  0  0  0  0
  146.4285  138.7917  152.4288 C   0  0  0  0  0  0  0  0  0  0  0  0
  146.6036  139.3715  151.0370 C   0  0  0  0  0  0  0  0  0  0  0  0
  150.2927  139.5824  155.0155 C   0  0  0  0  0  0  0  0  0  0  0  0
  149.9933  138.7861  154.1275 O   0  0  0  0  0  0  0  0  0  0  0  0
  151.3954  139.3183  155.8335 N   0  0  0  0  0  0  0  0  0  0  0  0
  151.8511  140.1303  156.8707 C   0  0  0  0  0  0  0  0  0  0  0  0
  152.8301  139.7885  157.5344 O   0  0  0  0  0  0  0  0  0  0  0  0
  151.9055  138.4645  155.6593 H   0  0  0  0  0  0  0  0  0  0  0  0
  151.1269  144.0975  159.1011 H   0  0  0  0  0  0  0  0  0  0  0  0
  149.6984  143.2336  158.5465 H   0  0  0  0  0  0  0  0  0  0  0  0
  150.7493  144.0381  157.3823 H   0  0  0  0  0  0  0  0  0  0  0  0
  152.6207  142.4314  157.9567 H   0  0  0  0  0  0  0  0  0  0  0  0
  151.5922  141.5905  159.0895 H   0  0  0  0  0  0  0  0  0  0  0  0
  149.4991  142.5461  156.5162 H   0  0  0  0  0  0  0  0  0  0  0  0
  147.4885  141.2756  155.0961 H   0  0  0  0  0  0  0  0  0  0  0  0
  148.5451  142.2087  154.0552 H   0  0  0  0  0  0  0  0  0  0  0  0
  148.7891  140.2096  152.6292 H   0  0  0  0  0  0  0  0  0  0  0  0
  145.9489  137.3089  155.8666 H   0  0  0  0  0  0  0  0  0  0  0  0
  144.8861  137.3532  151.8830 H   0  0  0  0  0  0  0  0  0  0  0  0
  145.9394  138.8865  150.3214 H   0  0  0  0  0  0  0  0  0  0  0  0
  147.6295  139.2344  150.6942 H   0  0  0  0  0  0  0  0  0  0  0  0
  146.3788  140.4383  151.0389 H   0  0  0  0  0  0  0  0  0  0  0  0
  1  2  1  0  0  0  0
  1 21  1  0  0  0  0
  1 22  1  0  0  0  0
  1 23  1  0  0  0  0
  2  3  1  0  0  0  0
  2 24  1  0  0  0  0
  2 25  1  0  0  0  0
  3 18  1  0  0  0  0
  3  4  1  0  0  0  0
  4  5  2  0  0  0  0
  4 26  1  0  0  0  0
  5  6  1  0  0  0  0
  5 15  1  0  0  0  0
  6  7  1  0  0  0  0
  6 27  1  0  0  0  0
  6 28  1  0  0  0  0
  7  8  1  0  0  0  0
  7 29  1  0  0  0  0
  8 13  1  0  0  0  0
  8  9  2  0  0  0  0
  9 10  1  0  0  0  0
 10 11  2  0  0  0  0
 10 30  1  0  0  0  0
 11 12  1  0  0  0  0
 12 13  2  0  0  0  0
 12 31  1  0  0  0  0
 13 14  1  0  0  0  0
 14 32  1  0  0  0  0
 14 33  1  0  0  0  0
 14 34  1  0  0  0  0
 15 16  2  0  0  0  0
 15 17  1  0  0  0  0
 17 20  1  0  0  0  0
 17 18  1  0  0  0  0
 18 19  2  0  0  0  0
M  END
> <s_m_source_file>
AV-unprocessed.smi

> <i_m_source_file_index>
8

> <i_lp_mmshare_version>
43012

> <i_f3d_flags>
0

> <s_epik_input>
W0NIM11bQ0gyXW4xW2NIXWMoYyg9TylbbkhdYzE9TylbQ0gyXVtOSF1jMm5bY0hdbltjSF1jMltDSDNd

> <s_epik_cmdline>
J2VwaWtfcHl0aG9uJywgJy1waCcsICc3LjAnLCAnLXRuJywgJzgnLCAnLW1hJywgJzIwMCcsICctbWV0YWxfYmluZGluZycsICctaW1hZScsICc8aW5maWxlLm1hZT4nLCAnLW9tYWUnLCAnPG91dGZpbGUubWFlPic=

> <r_lp_tautomer_probability>
0.999537

> <r_epik_Ionization_Penalty>
0.0165471

> <r_epik_Ionization_Penalty_Charging>
0.000694205

> <r_epik_Ionization_Penalty_Neutral>
0.0158529

> <r_epik_State_Penalty>
0.0119799

> <r_epik_Charging_Adjusted_Penalty>
0.0126741

> <i_epik_Tot_Q>
0

> <i_epik_Tot_abs_Q>
0

> <r_epik_Metal_State_Penalty>
0.262409

> <b_epik_Metal_Only>
0

> <s_lp_Force_Field>
OPLS_2005

> <r_lp_Energy>
9.23324

> <b_lp_Chiralities_Consistent>
1

> <s_lp_Variant>
AV-unprocessed.smi:8-1

> <Gold.Version>
5.8.1

> <Gold.Id.Protein>
6NUR|6NUR_protein|mol2

> <Gold.PLP.Fitness>
38.2920

> <Gold.PLP.PLP>
-27.0887

> <Gold.PLP.part.hbond>
-2.0000

> <Gold.PLP.part.metal>
0.0000

> <Gold.PLP.part.buried>
-0.1839

> <Gold.PLP.part.nonpolar>
-26.4159

> <Gold.PLP.part.repulsive>
0.7553

> <Gold.PLP.ligand.clash>
0.0000

> <Gold.PLP.ligand.torsion>
0.4004

> <Gold.PLP.Chemscore.Hbond>
2.0000

> <Gold.PLP.Chemscore.CHOScore>
1.9997

> <Gold.PLP.Chemscore.Metal>
0.0000

> <Gold.Chemscore.Hbonds>
donor molecule, donor type, donor heavy atom, donor atom, acceptor molecule, acceptor atom, score
      L1  H     7    29       P1  7957  1.00
      P1  H  7997  8009       L1    19  1.00
      L1  C     4    26       P1  8028  1.00
      L1  C    12    31       P1 10171  0.76

> <Gold.PLP.Chemscore.Internal.Correction>
0.0049

> <Gold.Rescore>
     Score         DG    S(hbond)    S(metal)    S(lipo)     H(rot)  DE(clash)    DE(int)     intcor
     12.44     -14.65       1.95        0.00      60.65       1.73       0.07       2.14       ----

> <Gold.Chemscore.Fitness>
12.4430

> <Gold.Chemscore.DG>
-14.6549

> <Gold.Chemscore.ZeroCoef>
-5.4800

> <Gold.Chemscore.Hbond>
1.9488

> <Gold.Chemscore.Metal>
0.0000

> <Gold.Chemscore.Lipo>
60.6531

> <Gold.Chemscore.Internal_Hbond>
0.0000

> <Gold.Chemscore.DEClash>
0.0684

> <Gold.Chemscore.DEInternal>
2.1435

> <Gold.Chemscore.Rot>
1.7307

> <Gold.Chemscore.Internal.Correction>
   9.000000E+99

> <Gold.Chemscore.Hbonds>
donor molecule, donor type, donor heavy atom, donor atom, acceptor molecule, acceptor atom, score
      L1  H     7    29       P1  7957  1.00
      P1  H  7997  8009       L1    19  0.97

> <Gold.Chemscore.Hbond.Weighted>
-6.5091

> <Gold.Chemscore.Metal.Weighted>
-0.0000

> <Gold.Chemscore.Lipo.Weighted>
-7.0964

> <Gold.Chemscore.Internal_Hbond.Weighted>
0.0000

> <Gold.Chemscore.DEClash.Weighted>
0.0684

> <Gold.Chemscore.DEInternal.Weighted>
2.1435

> <Gold.Chemscore.Rot.Weighted>
4.4305

> <Gold.Chemscore.Internal.Correction.Weighted>
   9.000000E+99

> <Gold.Protein.RotatedTorsions>
[ 6907 6896 6895 6894 ] final -150.81 input  -60.11 | X-H torsion
[ 7974 7965 7964 7962 ] final    4.33 input  175.53 | X-H torsion
[ 8008 7997 7996 7995 ] final  164.21 input   59.86 | X-H torsion
[ 10167 10162 10161 10158 ] final   54.87 input  -65.29 | X-H torsion
[ 10718 10713 10712 10709 ] final  118.19 input   66.30 | X-H torsion
[ 10763 10752 10751 10750 ] final -166.65 input  -60.55 | X-H torsion
[ 11005 11000 10999 10996 ] final  -47.73 input  -57.11 | X-H torsion

> <Gold.Protein.ActiveResidues>
 VAL166  LYS551  ARG553  GLY616  TRP617  ASP618  TYR619  PRO620  LYS621  CYS622 
 ASP623  PHE694  ASN695  SER759  ASP760  ASP761  ALA762  ILE779  LEU786  VAL792 
 PHE793  MET794  SER795  GLU796  ALA797  LYS798  CYS799  TRP800  GLU811  SER814 

> <Gold.Protein.RotatedAtoms>
  151.2039  133.4595  159.2596 H   0  0  0  0  0  0  0  0  0  0  0  0  # atno 6907 bound_to 6896
  151.1042  134.9990  159.8473 H   0  0  0  0  0  0  0  0  0  0  0  0  # atno 6908 bound_to 6896
  152.5446  134.1963  159.8747 H   0  0  0  0  0  0  0  0  0  0  0  0  # atno 6909 bound_to 6896
  146.2444  140.0551  142.8372 H   0  0  0  0  0  0  0  0  0  0  0  0  # atno 7974 bound_to 7965
  156.1898  140.1703  156.8115 H   0  0  0  0  0  0  0  0  0  0  0  0  # atno 8008 bound_to 7997
  154.5457  140.0727  156.8617 H   0  0  0  0  0  0  0  0  0  0  0  0  # atno 8009 bound_to 7997
  155.3127  140.3368  155.4246 H   0  0  0  0  0  0  0  0  0  0  0  0  # atno 8010 bound_to 7997
  140.2256  144.3742  150.6434 H   0  0  0  0  0  0  0  0  0  0  0  0  # atno 10167 bound_to 10162
  157.6047  131.1045  150.7721 H   0  0  0  0  0  0  0  0  0  0  0  0  # atno 10718 bound_to 10713
  154.6811  135.2955  154.9611 H   0  0  0  0  0  0  0  0  0  0  0  0  # atno 10763 bound_to 10752
  154.0606  135.6632  153.4815 H   0  0  0  0  0  0  0  0  0  0  0  0  # atno 10764 bound_to 10752
  153.0548  135.5151  154.7855 H   0  0  0  0  0  0  0  0  0  0  0  0  # atno 10765 bound_to 10752
  141.0658  133.6694  156.3340 H   0  0  0  0  0  0  0  0  0  0  0  0  # atno 11005 bound_to 11000
  145.0950  140.9309  143.4746 LP  0  0  0  0  0  0  0  0  0  0  0  0  # atno 17320 bound_to 7965
  145.0731  139.3016  143.5822 LP  0  0  0  0  0  0  0  0  0  0  0  0  # atno 17321 bound_to 7965
  140.6223  143.2177  151.6668 LP  0  0  0  0  0  0  0  0  0  0  0  0  # atno 17342 bound_to 10162
  139.5128  144.3463  152.0694 LP  0  0  0  0  0  0  0  0  0  0  0  0  # atno 17343 bound_to 10162
  156.8112  130.4953  149.5355 LP  0  0  0  0  0  0  0  0  0  0  0  0  # atno 17370 bound_to 10713
  156.1129  130.6054  151.0076 LP  0  0  0  0  0  0  0  0  0  0  0  0  # atno 17371 bound_to 10713
  140.5775  134.5779  157.5472 LP  0  0  0  0  0  0  0  0  0  0  0  0  # atno 17394 bound_to 11000
  139.9475  134.7675  156.0526 LP  0  0  0  0  0  0  0  0  0  0  0  0  # atno 17395 bound_to 11000

$$$$
