AV-unprocessed.smi:1697|AV-procd|sdf|6804|dock5
  -GOLD-   22720 7573D 1   1.00000     0.00000
 Structure written by MMmdl.
 54 56  0  0  0  0  0  0  0  0  2 V2000
  144.1280  133.3671  150.5614 C   0  0  0  0  0  0  0  0  0  0  0  0
  144.1507  134.5586  151.5289 C   0  0  0  0  0  0  0  0  0  0  0  0
  144.9907  135.6097  151.0675 O   0  0  0  0  0  0  0  0  0  0  0  0
  145.3063  136.6057  152.0325 C   0  0  2  0  0  0  0  0  0  0  0  0
  146.2583  137.6230  151.3882 C   0  0  0  0  0  0  0  0  0  0  0  0
  146.7486  138.6512  152.4218 C   0  0  0  0  0  0  0  0  0  0  0  0
  147.4051  137.9820  153.5748 N   0  3  1  0  0  0  0  0  0  0  0  0
  148.0103  138.9515  154.5239 C   0  0  0  0  0  0  0  0  0  0  0  0
  149.5504  138.9328  154.4765 C   0  0  1  0  0  0  0  0  0  0  0  0
  149.9632  138.5337  153.1831 O   0  0  0  0  0  0  0  0  0  0  0  0
  150.1559  140.3118  154.8005 C   0  0  0  0  0  0  0  0  0  0  0  0
  151.1462  140.2412  155.8596 N   0  0  0  0  0  0  0  0  0  0  0  0
  152.1260  139.3283  156.0043 C   0  0  0  0  0  0  0  0  0  0  0  0
  152.9222  139.4530  157.0623 N   0  0  0  0  0  0  0  0  0  0  0  0
  152.3998  140.5796  157.6743 C   0  0  0  0  0  0  0  0  0  0  0  0
  152.7905  141.2475  158.8553 C   0  0  0  0  0  0  0  0  0  0  0  0
  152.1000  142.3977  159.2999 C   0  0  0  0  0  0  0  0  0  0  0  0
  152.5523  143.0829  160.5773 C   0  0  0  0  0  0  0  0  0  0  0  0
  151.0000  142.8979  158.5574 C   0  0  0  0  0  0  0  0  0  0  0  0
  150.2430  144.1318  159.0160 C   0  0  0  0  0  0  0  0  0  0  0  0
  150.5970  142.2433  157.3748 C   0  0  0  0  0  0  0  0  0  0  0  0
  151.2905  141.0984  156.9448 C   0  0  0  0  0  0  0  0  0  0  0  0
  146.4936  137.0068  154.2323 C   0  0  0  0  0  0  0  0  0  0  0  0
  146.0040  135.9470  153.2326 C   0  0  0  0  0  0  0  0  0  0  0  0
  143.4100  132.6164  150.8918 H   0  0  0  0  0  0  0  0  0  0  0  0
  145.1011  132.8808  150.4969 H   0  0  0  0  0  0  0  0  0  0  0  0
  143.8407  133.6829  149.5582 H   0  0  0  0  0  0  0  0  0  0  0  0
  143.1415  134.9615  151.6166 H   0  0  0  0  0  0  0  0  0  0  0  0
  144.4455  134.2442  152.5310 H   0  0  0  0  0  0  0  0  0  0  0  0
  144.4131  137.1332  152.3732 H   0  0  0  0  0  0  0  0  0  0  0  0
  147.1153  137.1047  150.9555 H   0  0  0  0  0  0  0  0  0  0  0  0
  145.7565  138.1320  150.5645 H   0  0  0  0  0  0  0  0  0  0  0  0
  147.4528  139.3309  151.9404 H   0  0  0  0  0  0  0  0  0  0  0  0
  145.9136  139.2572  152.7777 H   0  0  0  0  0  0  0  0  0  0  0  0
  147.6691  139.9628  154.2959 H   0  0  0  0  0  0  0  0  0  0  0  0
  147.6539  138.7333  155.5318 H   0  0  0  0  0  0  0  0  0  0  0  0
  149.9400  138.2089  155.1912 H   0  0  0  0  0  0  0  0  0  0  0  0
  149.5044  137.7412  152.9483 H   0  0  0  0  0  0  0  0  0  0  0  0
  150.6164  140.7503  153.9139 H   0  0  0  0  0  0  0  0  0  0  0  0
  149.3728  141.0010  155.1190 H   0  0  0  0  0  0  0  0  0  0  0  0
  152.2596  138.5233  155.2963 H   0  0  0  0  0  0  0  0  0  0  0  0
  153.6280  140.8663  159.4210 H   0  0  0  0  0  0  0  0  0  0  0  0
  151.7545  143.0695  161.3201 H   0  0  0  0  0  0  0  0  0  0  0  0
  152.8256  144.1195  160.3801 H   0  0  0  0  0  0  0  0  0  0  0  0
  153.4208  142.5859  161.0103 H   0  0  0  0  0  0  0  0  0  0  0  0
  149.4266  144.3734  158.3351 H   0  0  0  0  0  0  0  0  0  0  0  0
  150.9083  144.9943  159.0594 H   0  0  0  0  0  0  0  0  0  0  0  0
  149.8167  143.9725  160.0064 H   0  0  0  0  0  0  0  0  0  0  0  0
  149.7613  142.6134  156.7998 H   0  0  0  0  0  0  0  0  0  0  0  0
  146.9998  136.5047  155.0557 H   0  0  0  0  0  0  0  0  0  0  0  0
  145.6419  137.5352  154.6634 H   0  0  0  0  0  0  0  0  0  0  0  0
  145.3267  135.2539  153.7313 H   0  0  0  0  0  0  0  0  0  0  0  0
  146.8516  135.3535  152.8871 H   0  0  0  0  0  0  0  0  0  0  0  0
  148.1743  137.4523  153.1887 H   0  0  0  0  0  0  0  0  0  0  0  0
  1  2  1  0  0  0  0
  1 25  1  0  0  0  0
  1 26  1  0  0  0  0
  1 27  1  0  0  0  0
  2  3  1  0  0  0  0
  2 28  1  0  0  0  0
  2 29  1  0  0  0  0
  3  4  1  0  0  0  0
  4 24  1  0  0  0  0
  4  5  1  0  0  0  0
  4 30  1  0  0  0  0
  5  6  1  0  0  0  0
  5 31  1  0  0  0  0
  5 32  1  0  0  0  0
  6  7  1  0  0  0  0
  6 33  1  0  0  0  0
  6 34  1  0  0  0  0
  7  8  1  0  0  0  0
  7 23  1  0  0  0  0
  7 54  1  0  0  0  0
  8  9  1  0  0  0  0
  8 35  1  0  0  0  0
  8 36  1  0  0  0  0
  9 10  1  0  0  0  0
  9 11  1  0  0  0  0
  9 37  1  0  0  0  0
 10 38  1  0  0  0  0
 11 12  1  0  0  0  0
 11 39  1  0  0  0  0
 11 40  1  0  0  0  0
 12 22  1  0  0  0  0
 12 13  1  0  0  0  0
 13 14  2  0  0  0  0
 13 41  1  0  0  0  0
 14 15  1  0  0  0  0
 15 22  2  0  0  0  0
 15 16  1  0  0  0  0
 16 17  2  0  0  0  0
 16 42  1  0  0  0  0
 17 18  1  0  0  0  0
 17 19  1  0  0  0  0
 18 43  1  0  0  0  0
 18 44  1  0  0  0  0
 18 45  1  0  0  0  0
 19 20  1  0  0  0  0
 19 21  2  0  0  0  0
 20 46  1  0  0  0  0
 20 47  1  0  0  0  0
 20 48  1  0  0  0  0
 21 22  1  0  0  0  0
 21 49  1  0  0  0  0
 23 24  1  0  0  0  0
 23 50  1  0  0  0  0
 23 51  1  0  0  0  0
 24 52  1  0  0  0  0
 24 53  1  0  0  0  0
M  CHG  1   7   1
M  END
> <s_m_source_file>
AV-unprocessed.smi

> <i_m_source_file_index>
1697

> <i_lp_mmshare_version>
43012

> <i_f3d_flags>
0

> <s_epik_input>
W0NIM11bQ0gyXU9bQ0hdMVtDSDJdW0NIMl1OKFtDSDJdW0NIMl0xKVtDSDJdW0NASF0oW09IXSlbQ0gyXW4oW2NIXW4yKWMoYzIzKVtjSF1jKFtDSDNdKWMoW2NIXTMpW0NIM10=

> <s_epik_cmdline>
J2VwaWtfcHl0aG9uJywgJy1waCcsICc3LjAnLCAnLXRuJywgJzgnLCAnLW1hJywgJzIwMCcsICctbWV0YWxfYmluZGluZycsICctaW1hZScsICc8aW5maWxlLm1hZT4nLCAnLW9tYWUnLCAnPG91dGZpbGUubWFlPic=

> <r_epik_Ionization_Penalty>
0.112476

> <r_epik_Ionization_Penalty_Charging>
0.0244612

> <r_epik_Ionization_Penalty_Neutral>
0.0880147

> <r_epik_State_Penalty>
0.0961447

> <r_epik_Charging_Adjusted_Penalty>
0.120606

> <i_epik_Tot_Q>
1

> <i_epik_Tot_abs_Q>
1

> <r_epik_Metal_State_Penalty>
0.0206204

> <b_epik_Metal_Only>
0

> <s_lp_Force_Field>
OPLS_2005

> <r_lp_Energy>
24.3812

> <b_lp_Chiralities_Consistent>
1

> <s_lp_Variant>
AV-unprocessed.smi:1697-2

> <Gold.Version>
5.8.1

> <Gold.Id.Protein>
6NUR|6NUR_protein|mol2

> <Gold.PLP.Fitness>
52.2628

> <Gold.PLP.PLP>
-44.1937

> <Gold.PLP.part.hbond>
-4.1263

> <Gold.PLP.part.metal>
0.0000

> <Gold.PLP.part.buried>
1.2915

> <Gold.PLP.part.nonpolar>
-40.8801

> <Gold.PLP.part.repulsive>
0.2500

> <Gold.PLP.ligand.clash>
0.0000

> <Gold.PLP.ligand.torsion>
2.0914

> <Gold.PLP.Chemscore.Hbond>
4.0000

> <Gold.PLP.Chemscore.CHOScore>
0.0000

> <Gold.PLP.Chemscore.Metal>
0.0000

> <Gold.Chemscore.Hbonds>
donor molecule, donor type, donor heavy atom, donor atom, acceptor molecule, acceptor atom, score
      L1  H     7    54       P1  7948  2.00
      L1  H    10    38       P1  7948  1.00
      P1  H  7997  8010       L1    14  0.95

> <Gold.PLP.Chemscore.Internal.Correction>
0.2520

> <Gold.Rescore>
     Score         DG    S(hbond)    S(metal)    S(lipo)     H(rot)  DE(clash)    DE(int)     intcor
     18.26     -20.93       2.30        0.00     116.02       2.27       0.55       2.12       ----

> <Gold.Chemscore.Fitness>
18.2554

> <Gold.Chemscore.DG>
-20.9298

> <Gold.Chemscore.ZeroCoef>
-5.4800

> <Gold.Chemscore.Hbond>
2.3021

> <Gold.Chemscore.Metal>
0.0000

> <Gold.Chemscore.Lipo>
116.0203

> <Gold.Chemscore.Internal_Hbond>
0.0000

> <Gold.Chemscore.DEClash>
0.5497

> <Gold.Chemscore.DEInternal>
2.1247

> <Gold.Chemscore.Rot>
2.2710

> <Gold.Chemscore.Internal.Correction>
   9.000000E+99

> <Gold.Chemscore.Hbonds>
donor molecule, donor type, donor heavy atom, donor atom, acceptor molecule, acceptor atom, score
      L1  H     7    54       P1  7948  0.96
      L1  H    10    38       P1  7948  0.81
      P1  H  7997  8010       L1    14  0.11

> <Gold.Chemscore.Hbond.Weighted>
-7.6891

> <Gold.Chemscore.Metal.Weighted>
-0.0000

> <Gold.Chemscore.Lipo.Weighted>
-13.5744

> <Gold.Chemscore.Internal_Hbond.Weighted>
0.0000

> <Gold.Chemscore.DEClash.Weighted>
0.5497

> <Gold.Chemscore.DEInternal.Weighted>
2.1247

> <Gold.Chemscore.Rot.Weighted>
5.8137

> <Gold.Chemscore.Internal.Correction.Weighted>
   9.000000E+99

> <Gold.Protein.RotatedTorsions>
[ 6907 6896 6895 6894 ] final  -56.56 input  -60.11 | X-H torsion
[ 7974 7965 7964 7962 ] final -142.82 input  175.53 | X-H torsion
[ 8008 7997 7996 7995 ] final   71.38 input   59.86 | X-H torsion
[ 10167 10162 10161 10158 ] final  -85.98 input  -65.29 | X-H torsion
[ 10718 10713 10712 10709 ] final -148.83 input   66.30 | X-H torsion
[ 10763 10752 10751 10750 ] final   27.35 input  -60.55 | X-H torsion
[ 11005 11000 10999 10996 ] final   75.94 input  -57.11 | X-H torsion

> <Gold.Protein.ActiveResidues>
 VAL166  LYS551  ARG553  GLY616  TRP617  ASP618  TYR619  PRO620  LYS621  CYS622 
 ASP623  PHE694  ASN695  SER759  ASP760  ASP761  ALA762  ILE779  LEU786  VAL792 
 PHE793  MET794  SER795  GLU796  ALA797  LYS798  CYS799  TRP800  GLU811  SER814 

> <Gold.Protein.RotatedAtoms>
  150.8157  134.7338  159.6727 H   0  0  0  0  0  0  0  0  0  0  0  0  # atno 6907 bound_to 6896
  152.4276  134.5836  159.9964 H   0  0  0  0  0  0  0  0  0  0  0  0  # atno 6908 bound_to 6896
  151.6033  133.3317  159.3088 H   0  0  0  0  0  0  0  0  0  0  0  0  # atno 6909 bound_to 6896
  144.8415  140.5910  143.5449 H   0  0  0  0  0  0  0  0  0  0  0  0  # atno 7974 bound_to 7965
  155.7530  140.3488  155.5160 H   0  0  0  0  0  0  0  0  0  0  0  0  # atno 8008 bound_to 7997
  155.8986  140.1030  157.1387 H   0  0  0  0  0  0  0  0  0  0  0  0  # atno 8009 bound_to 7997
  154.4041  140.1290  156.4394 H   0  0  0  0  0  0  0  0  0  0  0  0  # atno 8010 bound_to 7997
  140.3985  143.2673  151.9173 H   0  0  0  0  0  0  0  0  0  0  0  0  # atno 10167 bound_to 10162
  156.4253  130.8049  151.2273 H   0  0  0  0  0  0  0  0  0  0  0  0  # atno 10718 bound_to 10713
  153.0561  135.6539  154.0574 H   0  0  0  0  0  0  0  0  0  0  0  0  # atno 10763 bound_to 10752
  154.0251  135.2916  155.3377 H   0  0  0  0  0  0  0  0  0  0  0  0  # atno 10764 bound_to 10752
  154.6877  135.5295  153.8416 H   0  0  0  0  0  0  0  0  0  0  0  0  # atno 10765 bound_to 10752
  139.9320  134.7560  156.1334 H   0  0  0  0  0  0  0  0  0  0  0  0  # atno 11005 bound_to 11000
  145.4685  139.1505  143.3827 LP  0  0  0  0  0  0  0  0  0  0  0  0  # atno 17320 bound_to 7965
  146.2706  140.4817  142.8816 LP  0  0  0  0  0  0  0  0  0  0  0  0  # atno 17321 bound_to 7965
  139.4785  144.5657  151.8168 LP  0  0  0  0  0  0  0  0  0  0  0  0  # atno 17342 bound_to 10162
  140.4765  144.1512  150.5925 LP  0  0  0  0  0  0  0  0  0  0  0  0  # atno 17343 bound_to 10162
  157.7508  131.0215  150.3754 LP  0  0  0  0  0  0  0  0  0  0  0  0  # atno 17370 bound_to 10713
  156.4080  130.3928  149.6912 LP  0  0  0  0  0  0  0  0  0  0  0  0  # atno 17371 bound_to 10713
  141.0914  133.6713  156.2550 LP  0  0  0  0  0  0  0  0  0  0  0  0  # atno 17394 bound_to 11000
  140.6175  134.5395  157.5543 LP  0  0  0  0  0  0  0  0  0  0  0  0  # atno 17395 bound_to 11000

$$$$
