AV-unprocessed.smi:3206|AV-procd|sdf|12256|dock10
  -GOLD-   2272018 93D 1   1.00000     0.00000
 Structure written by MMmdl.
 42 43  0  0  0  0  0  0  0  0  2 V2000
  144.7714  131.1402  151.0028 C   0  0  0  0  0  0  0  0  0  0  0  0
  144.8573  132.5344  151.6405 C   0  0  2  0  0  0  0  0  0  0  0  0
  143.7642  133.4730  151.0967 C   0  0  0  0  0  0  0  0  0  0  0  0
  143.8540  134.8717  151.7289 C   0  0  0  0  0  0  0  0  0  0  0  0
  145.2430  135.5059  151.5184 C   0  0  1  0  0  0  0  0  0  0  0  0
  145.3112  136.9048  152.1583 C   0  0  0  0  0  0  0  0  0  0  0  0
  146.5423  137.6206  151.7697 N   0  3  0  0  0  0  0  0  0  0  0  0
  146.8081  138.8393  152.5609 C   0  0  0  0  0  0  0  0  0  0  0  0
  147.5989  138.5249  153.8401 C   0  0  0  0  0  0  0  0  0  0  0  0
  148.5826  139.5950  154.2055 C   0  0  0  0  0  0  0  0  0  0  0  0
  148.2582  140.8656  154.4216 N   0  0  0  0  0  0  0  0  0  0  0  0
  149.4832  141.3820  154.7309 C   0  0  0  0  0  0  0  0  0  0  0  0
  150.4940  140.5168  154.7273 N   0  0  0  0  0  0  0  0  0  0  0  0
  149.8889  139.3562  154.3852 N   0  0  0  0  0  0  0  0  0  0  0  0
  150.6563  138.1307  154.2717 C   0  0  0  0  0  0  0  0  0  0  0  0
  146.3352  134.5630  152.0672 C   0  0  0  0  0  0  0  0  0  0  0  0
  146.2483  133.1632  151.4373 C   0  0  0  0  0  0  0  0  0  0  0  0
  144.9254  131.1870  149.9242 H   0  0  0  0  0  0  0  0  0  0  0  0
  143.7962  130.6858  151.1805 H   0  0  0  0  0  0  0  0  0  0  0  0
  145.5257  130.4715  151.4179 H   0  0  0  0  0  0  0  0  0  0  0  0
  144.6949  132.4148  152.7129 H   0  0  0  0  0  0  0  0  0  0  0  0
  143.8560  133.5579  150.0129 H   0  0  0  0  0  0  0  0  0  0  0  0
  142.7784  133.0484  151.2897 H   0  0  0  0  0  0  0  0  0  0  0  0
  143.0820  135.5118  151.3001 H   0  0  0  0  0  0  0  0  0  0  0  0
  143.6377  134.8021  152.7959 H   0  0  0  0  0  0  0  0  0  0  0  0
  145.3943  135.6184  150.4433 H   0  0  0  0  0  0  0  0  0  0  0  0
  144.4549  137.5003  151.8383 H   0  0  0  0  0  0  0  0  0  0  0  0
  145.2576  136.8276  153.2452 H   0  0  0  0  0  0  0  0  0  0  0  0
  147.3258  136.9920  151.8751 H   0  0  0  0  0  0  0  0  0  0  0  0
  147.3566  139.5587  151.9510 H   0  0  0  0  0  0  0  0  0  0  0  0
  145.8566  139.3023  152.8243 H   0  0  0  0  0  0  0  0  0  0  0  0
  146.9093  138.3734  154.6709 H   0  0  0  0  0  0  0  0  0  0  0  0
  148.1367  137.5832  153.7223 H   0  0  0  0  0  0  0  0  0  0  0  0
  149.6326  142.4242  154.9716 H   0  0  0  0  0  0  0  0  0  0  0  0
  150.2053  137.3547  154.8906 H   0  0  0  0  0  0  0  0  0  0  0  0
  151.6842  138.2892  154.6008 H   0  0  0  0  0  0  0  0  0  0  0  0
  150.6657  137.7995  153.2332 H   0  0  0  0  0  0  0  0  0  0  0  0
  147.3255  134.9778  151.8771 H   0  0  0  0  0  0  0  0  0  0  0  0
  146.2401  134.4784  153.1507 H   0  0  0  0  0  0  0  0  0  0  0  0
  147.0146  132.5198  151.8712 H   0  0  0  0  0  0  0  0  0  0  0  0
  146.4711  133.2306  150.3713 H   0  0  0  0  0  0  0  0  0  0  0  0
  146.4690  137.8804  150.7960 H   0  0  0  0  0  0  0  0  0  0  0  0
  1  2  1  0  0  0  0
  1 18  1  0  0  0  0
  1 19  1  0  0  0  0
  1 20  1  0  0  0  0
  2 17  1  0  0  0  0
  2  3  1  0  0  0  0
  2 21  1  0  0  0  0
  3  4  1  0  0  0  0
  3 22  1  0  0  0  0
  3 23  1  0  0  0  0
  4  5  1  0  0  0  0
  4 24  1  0  0  0  0
  4 25  1  0  0  0  0
  5  6  1  0  0  0  0
  5 16  1  0  0  0  0
  5 26  1  0  0  0  0
  6  7  1  0  0  0  0
  6 27  1  0  0  0  0
  6 28  1  0  0  0  0
  7  8  1  0  0  0  0
  7 29  1  0  0  0  0
  7 42  1  0  0  0  0
  8  9  1  0  0  0  0
  8 30  1  0  0  0  0
  8 31  1  0  0  0  0
  9 10  1  0  0  0  0
  9 32  1  0  0  0  0
  9 33  1  0  0  0  0
 10 14  1  0  0  0  0
 10 11  2  0  0  0  0
 11 12  1  0  0  0  0
 12 13  2  0  0  0  0
 12 34  1  0  0  0  0
 13 14  1  0  0  0  0
 14 15  1  0  0  0  0
 15 35  1  0  0  0  0
 15 36  1  0  0  0  0
 15 37  1  0  0  0  0
 16 17  1  0  0  0  0
 16 38  1  0  0  0  0
 16 39  1  0  0  0  0
 17 40  1  0  0  0  0
 17 41  1  0  0  0  0
M  CHG  1   7   1
M  END
> <s_m_source_file>
AV-unprocessed.smi

> <i_m_source_file_index>
3206

> <i_lp_mmshare_version>
43012

> <i_f3d_flags>
0

> <s_epik_input>
W0NIM11bQ0BASF0xW0NIMl1bQ0gyXVtDQEhdKFtDSDJdW0NIMl0xKVtDSDJdW05IXVtDSDJdW0NIMl1jMm5bY0hdbm4yW0NIM10=

> <s_epik_cmdline>
J2VwaWtfcHl0aG9uJywgJy1waCcsICc3LjAnLCAnLXRuJywgJzgnLCAnLW1hJywgJzIwMCcsICctbWV0YWxfYmluZGluZycsICctaW1hZScsICc8aW5maWxlLm1hZT4nLCAnLW9tYWUnLCAnPG91dGZpbGUubWFlPic=

> <r_lp_tautomer_probability>
1

> <r_epik_Ionization_Penalty>
0.00114491

> <r_epik_Ionization_Penalty_Charging>
0.00114083

> <r_epik_Ionization_Penalty_Neutral>
4.0852e-06

> <r_epik_State_Penalty>
-0

> <r_epik_Charging_Adjusted_Penalty>
0.00114083

> <i_epik_Tot_Q>
1

> <i_epik_Tot_abs_Q>
1

> <r_epik_Metal_State_Penalty>
-0

> <b_epik_Metal_Only>
0

> <s_lp_Force_Field>
OPLS_2005

> <r_lp_Energy>
13.9676

> <b_lp_Chiralities_Consistent>
1

> <s_lp_Variant>
AV-unprocessed.smi:3206-1

> <Gold.Version>
5.8.1

> <Gold.Id.Protein>
6NUR|6NUR_protein|mol2

> <Gold.PLP.Fitness>
45.5810

> <Gold.PLP.PLP>
-34.5487

> <Gold.PLP.part.hbond>
-2.0000

> <Gold.PLP.part.metal>
0.0000

> <Gold.PLP.part.buried>
-2.8672

> <Gold.PLP.part.nonpolar>
-29.4925

> <Gold.PLP.part.repulsive>
0.2954

> <Gold.PLP.ligand.clash>
0.0000

> <Gold.PLP.ligand.torsion>
0.4913

> <Gold.PLP.Chemscore.Hbond>
3.0000

> <Gold.PLP.Chemscore.CHOScore>
1.0000

> <Gold.PLP.Chemscore.Metal>
0.0000

> <Gold.Chemscore.Hbonds>
donor molecule, donor type, donor heavy atom, donor atom, acceptor molecule, acceptor atom, score
      L1  H     7    29       P1  7948  2.00
      P1  H  7989  7998       L1    13  1.00
      L1  C    12    34       P1  8028  1.00

> <Gold.PLP.Chemscore.Internal.Correction>
0.0149

> <Gold.Rescore>
     Score         DG    S(hbond)    S(metal)    S(lipo)     H(rot)  DE(clash)    DE(int)     intcor
     13.70     -14.49       1.75        0.00      71.82       2.05       0.26       0.53       ----

> <Gold.Chemscore.Fitness>
13.6987

> <Gold.Chemscore.DG>
-14.4850

> <Gold.Chemscore.ZeroCoef>
-5.4800

> <Gold.Chemscore.Hbond>
1.7535

> <Gold.Chemscore.Metal>
0.0000

> <Gold.Chemscore.Lipo>
71.8241

> <Gold.Chemscore.Internal_Hbond>
0.0000

> <Gold.Chemscore.DEClash>
0.2612

> <Gold.Chemscore.DEInternal>
0.5252

> <Gold.Chemscore.Rot>
2.0528

> <Gold.Chemscore.Internal.Correction>
   9.000000E+99

> <Gold.Chemscore.Hbonds>
donor molecule, donor type, donor heavy atom, donor atom, acceptor molecule, acceptor atom, score
      L1  H     7    29       P1  7948  1.00
      P1  H  7989  7998       L1    13  0.45

> <Gold.Chemscore.Hbond.Weighted>
-5.8567

> <Gold.Chemscore.Metal.Weighted>
-0.0000

> <Gold.Chemscore.Lipo.Weighted>
-8.4034

> <Gold.Chemscore.Internal_Hbond.Weighted>
0.0000

> <Gold.Chemscore.DEClash.Weighted>
0.2612

> <Gold.Chemscore.DEInternal.Weighted>
0.5252

> <Gold.Chemscore.Rot.Weighted>
5.2551

> <Gold.Chemscore.Internal.Correction.Weighted>
   9.000000E+99

> <Gold.Protein.RotatedTorsions>
[ 6907 6896 6895 6894 ] final -170.86 input  -60.11 | X-H torsion
[ 7974 7965 7964 7962 ] final   85.67 input  175.53 | X-H torsion
[ 8008 7997 7996 7995 ] final   65.51 input   59.86 | X-H torsion
[ 10167 10162 10161 10158 ] final -178.61 input  -65.29 | X-H torsion
[ 10718 10713 10712 10709 ] final   19.87 input   66.30 | X-H torsion
[ 10763 10752 10751 10750 ] final   59.63 input  -60.55 | X-H torsion
[ 11005 11000 10999 10996 ] final  162.80 input  -57.11 | X-H torsion

> <Gold.Protein.ActiveResidues>
 VAL166  LYS551  ARG553  GLY616  TRP617  ASP618  TYR619  PRO620  LYS621  CYS622 
 ASP623  PHE694  ASN695  SER759  ASP760  ASP761  ALA762  ILE779  LEU786  VAL792 
 PHE793  MET794  SER795  GLU796  ALA797  LYS798  CYS799  TRP800  GLU811  SER814 

> <Gold.Protein.RotatedAtoms>
  151.5144  133.3478  159.2890 H   0  0  0  0  0  0  0  0  0  0  0  0  # atno 6907 bound_to 6896
  150.8691  134.8064  159.7152 H   0  0  0  0  0  0  0  0  0  0  0  0  # atno 6908 bound_to 6896
  152.4686  134.5026  159.9781 H   0  0  0  0  0  0  0  0  0  0  0  0  # atno 6909 bound_to 6896
  145.5824  139.2327  143.2345 H   0  0  0  0  0  0  0  0  0  0  0  0  # atno 7974 bound_to 7965
  155.6629  140.3497  155.4789 H   0  0  0  0  0  0  0  0  0  0  0  0  # atno 8008 bound_to 7997
  155.9753  140.1164  157.0798 H   0  0  0  0  0  0  0  0  0  0  0  0  # atno 8009 bound_to 7997
  154.4177  140.1149  156.5348 H   0  0  0  0  0  0  0  0  0  0  0  0  # atno 8010 bound_to 7997
  139.5424  144.2326  152.0922 H   0  0  0  0  0  0  0  0  0  0  0  0  # atno 10167 bound_to 10162
  157.1166  130.6531  149.5912 H   0  0  0  0  0  0  0  0  0  0  0  0  # atno 10718 bound_to 10713
  152.9899  135.5565  154.5744 H   0  0  0  0  0  0  0  0  0  0  0  0  # atno 10763 bound_to 10752
  154.5138  135.2804  155.1322 H   0  0  0  0  0  0  0  0  0  0  0  0  # atno 10764 bound_to 10752
  154.2703  135.6364  153.5360 H   0  0  0  0  0  0  0  0  0  0  0  0  # atno 10765 bound_to 10752
  140.2293  134.8136  157.3301 H   0  0  0  0  0  0  0  0  0  0  0  0  # atno 11005 bound_to 11000
  146.1706  140.6651  142.9235 LP  0  0  0  0  0  0  0  0  0  0  0  0  # atno 17320 bound_to 7965
  144.7388  140.4883  143.6884 LP  0  0  0  0  0  0  0  0  0  0  0  0  # atno 17321 bound_to 7965
  140.1806  144.4847  150.6530 LP  0  0  0  0  0  0  0  0  0  0  0  0  # atno 17342 bound_to 10162
  140.6660  143.2268  151.5742 LP  0  0  0  0  0  0  0  0  0  0  0  0  # atno 17343 bound_to 10162
  155.9838  130.4859  150.6951 LP  0  0  0  0  0  0  0  0  0  0  0  0  # atno 17370 bound_to 10713
  157.4513  131.0873  151.0843 LP  0  0  0  0  0  0  0  0  0  0  0  0  # atno 17371 bound_to 10713
  140.1767  134.4541  155.7797 LP  0  0  0  0  0  0  0  0  0  0  0  0  # atno 17394 bound_to 11000
  141.2219  133.6965  156.7799 LP  0  0  0  0  0  0  0  0  0  0  0  0  # atno 17395 bound_to 11000

$$$$
