AV-unprocessed.smi:3057|AV-procd|sdf|11663|dock9
  -GOLD-   2272017 63D 1   1.00000     0.00000
 Structure written by MMmdl.
 40 42  0  0  0  0  0  0  0  0  1 V2000
  154.5418  134.9755  162.8311 C   0  0  0  0  0  0  0  0  0  0  0  0
  153.8725  136.3551  162.6595 C   0  0  1  0  0  0  0  0  0  0  0  0
  152.7484  136.5620  163.6869 C   0  0  0  0  0  0  0  0  0  0  0  0
  153.4527  137.2332  164.8766 C   0  0  0  0  0  0  0  0  0  0  0  0
  154.6645  137.8797  164.2206 C   0  0  0  0  0  0  0  0  0  0  0  0
  155.3523  138.7374  164.7721 O   0  0  0  0  0  0  0  0  0  0  0  0
  154.8049  137.4242  162.9657 N   0  0  0  0  0  0  0  0  0  0  0  0
  155.5659  137.9838  161.8380 C   0  0  2  0  0  0  0  0  0  0  0  0
  155.4191  139.5089  161.6740 C   0  0  0  0  0  0  0  0  0  0  0  0
  156.3593  140.2632  161.9278 O   0  0  0  0  0  0  0  0  0  0  0  0
  154.2119  139.9470  161.2855 N   0  0  0  0  0  0  0  0  0  0  0  0
  153.8387  141.3463  161.0975 C   0  0  0  0  0  0  0  0  0  0  0  0
  153.5474  141.7142  159.6269 C   0  0  0  0  0  0  0  0  0  0  0  0
  152.8921  143.0739  159.4502 C   0  0  0  0  0  0  0  0  0  0  0  0
  152.4823  143.8256  160.5727 C   0  0  0  0  0  0  0  0  0  0  0  0
  151.8660  145.0729  160.3575 C   0  0  0  0  0  0  0  0  0  0  0  0
  151.6870  145.5203  159.0345 C   0  0  0  0  0  0  0  0  0  0  0  0
  152.1355  144.6975  157.9818 C   0  0  0  0  0  0  0  0  0  0  0  0
  152.7266  143.4987  158.1773 N   0  0  0  0  0  0  0  0  0  0  0  0
  155.0995  137.2269  160.5751 C   0  0  0  0  0  0  0  0  0  0  0  0
  153.4179  136.6549  160.9388 S   0  0  0  0  0  0  0  0  0  0  0  0
  154.8724  134.8151  163.8579 H   0  0  0  0  0  0  0  0  0  0  0  0
  155.4153  134.8627  162.1892 H   0  0  0  0  0  0  0  0  0  0  0  0
  153.8475  134.1730  162.5814 H   0  0  0  0  0  0  0  0  0  0  0  0
  151.9853  137.2333  163.2896 H   0  0  0  0  0  0  0  0  0  0  0  0
  152.2536  135.6308  163.9654 H   0  0  0  0  0  0  0  0  0  0  0  0
  152.8179  137.9675  165.3731 H   0  0  0  0  0  0  0  0  0  0  0  0
  153.7874  136.4995  165.6105 H   0  0  0  0  0  0  0  0  0  0  0  0
  156.6207  137.7650  162.0119 H   0  0  0  0  0  0  0  0  0  0  0  0
  153.4935  139.2593  161.1100 H   0  0  0  0  0  0  0  0  0  0  0  0
  152.9847  141.5956  161.7289 H   0  0  0  0  0  0  0  0  0  0  0  0
  154.6730  141.9483  161.4585 H   0  0  0  0  0  0  0  0  0  0  0  0
  154.4757  141.6960  159.0550 H   0  0  0  0  0  0  0  0  0  0  0  0
  152.9095  140.9518  159.1782 H   0  0  0  0  0  0  0  0  0  0  0  0
  152.6268  143.4512  161.5758 H   0  0  0  0  0  0  0  0  0  0  0  0
  151.5349  145.6734  161.1920 H   0  0  0  0  0  0  0  0  0  0  0  0
  151.2176  146.4713  158.8312 H   0  0  0  0  0  0  0  0  0  0  0  0
  152.0149  145.0102  156.9552 H   0  0  0  0  0  0  0  0  0  0  0  0
  155.1190  137.8317  159.6682 H   0  0  0  0  0  0  0  0  0  0  0  0
  155.7342  136.3585  160.3988 H   0  0  0  0  0  0  0  0  0  0  0  0
  1  2  1  0  0  0  0
  1 22  1  0  0  0  0
  1 23  1  0  0  0  0
  1 24  1  0  0  0  0
  2  7  1  0  0  0  0
  2 21  1  0  0  0  0
  2  3  1  0  0  0  0
  3  4  1  0  0  0  0
  3 25  1  0  0  0  0
  3 26  1  0  0  0  0
  4  5  1  0  0  0  0
  4 27  1  0  0  0  0
  4 28  1  0  0  0  0
  5  6  2  0  0  0  0
  5  7  1  0  0  0  0
  7  8  1  0  0  0  0
  8  9  1  0  0  0  0
  8 20  1  0  0  0  0
  8 29  1  0  0  0  0
  9 10  2  0  0  0  0
  9 11  1  0  0  0  0
 11 12  1  0  0  0  0
 11 30  1  0  0  0  0
 12 13  1  0  0  0  0
 12 31  1  0  0  0  0
 12 32  1  0  0  0  0
 13 14  1  0  0  0  0
 13 33  1  0  0  0  0
 13 34  1  0  0  0  0
 14 19  1  0  0  0  0
 14 15  2  0  0  0  0
 15 16  1  0  0  0  0
 15 35  1  0  0  0  0
 16 17  2  0  0  0  0
 16 36  1  0  0  0  0
 17 18  1  0  0  0  0
 17 37  1  0  0  0  0
 18 19  2  0  0  0  0
 18 38  1  0  0  0  0
 20 21  1  0  0  0  0
 20 39  1  0  0  0  0
 20 40  1  0  0  0  0
M  END
> <s_m_source_file>
AV-unprocessed.smi

> <i_m_source_file_index>
3057

> <i_lp_mmshare_version>
43012

> <i_f3d_flags>
0

> <s_epik_input>
W0NIMl0xW0NIMl1DKD1PKU4oW0NAQF0xMltDSDNdKVtDQEhdKFtDSDJdUzIpQyg9TylbTkhdW0NIMl1bQ0gyXWMzW2NIXVtjSF1bY0hdW2NIXW4z

> <s_epik_cmdline>
J2VwaWtfcHl0aG9uJywgJy1waCcsICc3LjAnLCAnLXRuJywgJzgnLCAnLW1hJywgJzIwMCcsICctbWV0YWxfYmluZGluZycsICctaW1hZScsICc8aW5maWxlLm1hZT4nLCAnLW9tYWUnLCAnPG91dGZpbGUubWFlPic=

> <r_epik_Ionization_Penalty>
0.0249631

> <r_epik_Ionization_Penalty_Charging>
0

> <r_epik_Ionization_Penalty_Neutral>
0.0249631

> <r_epik_State_Penalty>
0.0202943

> <r_epik_Charging_Adjusted_Penalty>
0.0202943

> <i_epik_Tot_Q>
0

> <i_epik_Tot_abs_Q>
0

> <r_epik_Metal_State_Penalty>
0.0194661

> <b_epik_Metal_Only>
0

> <s_lp_Force_Field>
OPLS_2005

> <r_lp_Energy>
26.5663

> <b_lp_Chiralities_Consistent>
1

> <s_lp_Variant>
AV-unprocessed.smi:3057-3

> <Gold.Version>
5.8.1

> <Gold.Id.Protein>
6NUR|6NUR_protein|mol2

> <Gold.PLP.Fitness>
47.8229

> <Gold.PLP.PLP>
-45.3239

> <Gold.PLP.part.hbond>
-1.0000

> <Gold.PLP.part.metal>
0.0000

> <Gold.PLP.part.buried>
-5.3371

> <Gold.PLP.part.nonpolar>
-39.3957

> <Gold.PLP.part.repulsive>
0.0424

> <Gold.PLP.ligand.clash>
0.0000

> <Gold.PLP.ligand.torsion>
0.2545

> <Gold.PLP.Chemscore.Hbond>
0.0000

> <Gold.PLP.Chemscore.CHOScore>
1.0000

> <Gold.PLP.Chemscore.Metal>
0.0000

> <Gold.PLP.Chemscore.Internal.Correction>
0.0081

> <Gold.Rescore>
     Score         DG    S(hbond)    S(metal)    S(lipo)     H(rot)  DE(clash)    DE(int)     intcor
     15.60     -16.01       0.00        0.00     123.60       1.53       0.01       0.40       ----

> <Gold.Chemscore.Fitness>
15.5958

> <Gold.Chemscore.DG>
-16.0141

> <Gold.Chemscore.ZeroCoef>
-5.4800

> <Gold.Chemscore.Hbond>
0.0000

> <Gold.Chemscore.Metal>
0.0000

> <Gold.Chemscore.Lipo>
123.5971

> <Gold.Chemscore.Internal_Hbond>
0.0000

> <Gold.Chemscore.DEClash>
0.0149

> <Gold.Chemscore.DEInternal>
0.4035

> <Gold.Chemscore.Rot>
1.5339

> <Gold.Chemscore.Internal.Correction>
   9.000000E+99

> <Gold.Chemscore.Hbond.Weighted>
-0.0000

> <Gold.Chemscore.Metal.Weighted>
-0.0000

> <Gold.Chemscore.Lipo.Weighted>
-14.4609

> <Gold.Chemscore.Internal_Hbond.Weighted>
0.0000

> <Gold.Chemscore.DEClash.Weighted>
0.0149

> <Gold.Chemscore.DEInternal.Weighted>
0.4035

> <Gold.Chemscore.Rot.Weighted>
3.9267

> <Gold.Chemscore.Internal.Correction.Weighted>
   9.000000E+99

> <Gold.Protein.RotatedTorsions>
[ 6907 6896 6895 6894 ] final -173.71 input  -60.11 | X-H torsion
[ 7974 7965 7964 7962 ] final  -96.99 input  175.53 | X-H torsion
[ 8008 7997 7996 7995 ] final  -96.93 input   59.86 | X-H torsion
[ 10167 10162 10161 10158 ] final   81.01 input  -65.29 | X-H torsion
[ 10718 10713 10712 10709 ] final  -79.28 input   66.30 | X-H torsion
[ 10763 10752 10751 10750 ] final  125.27 input  -60.55 | X-H torsion
[ 11005 11000 10999 10996 ] final -162.42 input  -57.11 | X-H torsion

> <Gold.Protein.ActiveResidues>
 VAL166  LYS551  ARG553  GLY616  TRP617  ASP618  TYR619  PRO620  LYS621  CYS622 
 ASP623  PHE694  ASN695  SER759  ASP760  ASP761  ALA762  ILE779  LEU786  VAL792 
 PHE793  MET794  SER795  GLU796  ALA797  LYS798  CYS799  TRP800  GLU811  SER814 

> <Gold.Protein.RotatedAtoms>
  151.5606  133.3404  159.2970 H   0  0  0  0  0  0  0  0  0  0  0  0  # atno 6907 bound_to 6896
  150.8425  134.7725  159.6955 H   0  0  0  0  0  0  0  0  0  0  0  0  # atno 6908 bound_to 6896
  152.4490  134.5442  159.9899 H   0  0  0  0  0  0  0  0  0  0  0  0  # atno 6909 bound_to 6896
  145.3396  140.9457  143.2615 H   0  0  0  0  0  0  0  0  0  0  0  0  # atno 7974 bound_to 7965
  154.7810  140.0467  157.1127 H   0  0  0  0  0  0  0  0  0  0  0  0  # atno 8008 bound_to 7997
  154.9704  140.3089  155.4971 H   0  0  0  0  0  0  0  0  0  0  0  0  # atno 8009 bound_to 7997
  156.2936  140.2254  156.4797 H   0  0  0  0  0  0  0  0  0  0  0  0  # atno 8010 bound_to 7997
  139.9437  144.6073  150.8227 H   0  0  0  0  0  0  0  0  0  0  0  0  # atno 10167 bound_to 10162
  156.0096  130.4541  150.3625 H   0  0  0  0  0  0  0  0  0  0  0  0  # atno 10718 bound_to 10713
  153.6746  135.3324  155.3162 H   0  0  0  0  0  0  0  0  0  0  0  0  # atno 10763 bound_to 10752
  154.8482  135.4394  154.1669 H   0  0  0  0  0  0  0  0  0  0  0  0  # atno 10764 bound_to 10752
  153.2670  135.6996  153.7596 H   0  0  0  0  0  0  0  0  0  0  0  0  # atno 10765 bound_to 10752
  140.6095  134.4864  157.5214 H   0  0  0  0  0  0  0  0  0  0  0  0  # atno 11005 bound_to 11000
  144.8800  139.4917  143.6727 LP  0  0  0  0  0  0  0  0  0  0  0  0  # atno 17320 bound_to 7965
  146.3012  139.7434  142.9089 LP  0  0  0  0  0  0  0  0  0  0  0  0  # atno 17321 bound_to 7965
  140.7603  143.3149  151.2757 LP  0  0  0  0  0  0  0  0  0  0  0  0  # atno 17342 bound_to 10162
  139.6684  144.0064  152.2737 LP  0  0  0  0  0  0  0  0  0  0  0  0  # atno 17343 bound_to 10162
  157.1713  131.0369  151.2794 LP  0  0  0  0  0  0  0  0  0  0  0  0  # atno 17370 bound_to 10713
  157.4227  130.7446  149.6926 LP  0  0  0  0  0  0  0  0  0  0  0  0  # atno 17371 bound_to 10713
  139.9198  134.8171  156.1247 LP  0  0  0  0  0  0  0  0  0  0  0  0  # atno 17394 bound_to 11000
  141.0818  133.6751  156.2352 LP  0  0  0  0  0  0  0  0  0  0  0  0  # atno 17395 bound_to 11000

$$$$
