AV-unprocessed.smi:2406|AV-procd|sdf|9517|dock2
  -GOLD-   2272013143D 1   1.00000     0.00000
 Structure written by MMmdl.
 36 37  0  0  0  0  0  0  0  0  1 V2000
  154.3989  140.4516  160.6700 C   0  0  0  0  0  0  0  0  0  0  0  0
  153.3660  140.4471  159.6909 O   0  0  0  0  0  0  0  0  0  0  0  0
  152.7573  141.6456  159.3810 C   0  0  0  0  0  0  0  0  0  0  0  0
  151.6972  141.6622  158.4515 C   0  0  0  0  0  0  0  0  0  0  0  0
  151.0963  142.9094  158.1682 C   0  0  0  0  0  0  0  0  0  0  0  0
  150.0262  142.8806  157.2355 N   0  0  0  0  0  0  0  0  0  0  0  0
  149.2927  141.8228  156.8475 C   0  0  0  0  0  0  0  0  0  0  0  0
  149.4087  140.6777  157.2849 O   0  0  0  0  0  0  0  0  0  0  0  0
  148.4077  142.1719  155.9021 N   0  0  0  0  0  0  0  0  0  0  0  0
  147.4910  141.2679  155.2099 C   0  0  1  0  0  0  0  0  0  0  0  0
  146.5306  140.6333  156.2257 C   0  0  0  0  0  0  0  0  0  0  0  0
  146.7336  142.0271  154.1042 C   0  0  0  0  0  0  0  0  0  0  0  0
  146.1119  143.3269  154.5857 C   0  0  0  0  0  0  0  0  0  0  0  0
  144.6413  143.4197  154.9227 C   0  0  0  0  0  0  0  0  0  0  0  0
  145.1813  144.1147  153.6948 C   0  0  0  0  0  0  0  0  0  0  0  0
  151.5484  144.0323  158.7791 N   0  0  0  0  0  0  0  0  0  0  0  0
  152.5595  143.9113  159.6413 C   0  0  0  0  0  0  0  0  0  0  0  0
  153.1875  142.7838  159.9770 N   0  0  0  0  0  0  0  0  0  0  0  0
  154.7695  139.4361  160.8079 H   0  0  0  0  0  0  0  0  0  0  0  0
  154.0315  140.8032  161.6351 H   0  0  0  0  0  0  0  0  0  0  0  0
  155.2408  141.0721  160.3600 H   0  0  0  0  0  0  0  0  0  0  0  0
  151.3593  140.7501  157.9812 H   0  0  0  0  0  0  0  0  0  0  0  0
  149.8134  143.7615  156.7913 H   0  0  0  0  0  0  0  0  0  0  0  0
  148.3854  143.1387  155.6125 H   0  0  0  0  0  0  0  0  0  0  0  0
  148.0500  140.4613  154.7322 H   0  0  0  0  0  0  0  0  0  0  0  0
  145.8453  139.9401  155.7373 H   0  0  0  0  0  0  0  0  0  0  0  0
  145.9321  141.3899  156.7340 H   0  0  0  0  0  0  0  0  0  0  0  0
  147.0768  140.0736  156.9857 H   0  0  0  0  0  0  0  0  0  0  0  0
  147.4186  142.2649  153.2898 H   0  0  0  0  0  0  0  0  0  0  0  0
  145.9554  141.3928  153.6771 H   0  0  0  0  0  0  0  0  0  0  0  0
  146.7782  143.9207  155.2089 H   0  0  0  0  0  0  0  0  0  0  0  0
  144.0279  142.5340  154.7691 H   0  0  0  0  0  0  0  0  0  0  0  0
  144.3607  144.0395  155.7718 H   0  0  0  0  0  0  0  0  0  0  0  0
  145.2578  145.1996  153.7240 H   0  0  0  0  0  0  0  0  0  0  0  0
  144.9240  143.6909  152.7259 H   0  0  0  0  0  0  0  0  0  0  0  0
  152.9032  144.8182  160.1163 H   0  0  0  0  0  0  0  0  0  0  0  0
  1  2  1  0  0  0  0
  1 19  1  0  0  0  0
  1 20  1  0  0  0  0
  1 21  1  0  0  0  0
  2  3  1  0  0  0  0
  3 18  1  0  0  0  0
  3  4  2  0  0  0  0
  4  5  1  0  0  0  0
  4 22  1  0  0  0  0
  5  6  1  0  0  0  0
  5 16  2  0  0  0  0
  6  7  1  0  0  0  0
  6 23  1  0  0  0  0
  7  8  2  0  0  0  0
  7  9  1  0  0  0  0
  9 10  1  0  0  0  0
  9 24  1  0  0  0  0
 10 11  1  0  0  0  0
 10 12  1  0  0  0  0
 10 25  1  0  0  0  0
 11 26  1  0  0  0  0
 11 27  1  0  0  0  0
 11 28  1  0  0  0  0
 12 13  1  0  0  0  0
 12 29  1  0  0  0  0
 12 30  1  0  0  0  0
 13 15  1  0  0  0  0
 13 14  1  0  0  0  0
 13 31  1  0  0  0  0
 14 15  1  0  0  0  0
 14 32  1  0  0  0  0
 14 33  1  0  0  0  0
 15 34  1  0  0  0  0
 15 35  1  0  0  0  0
 16 17  1  0  0  0  0
 17 18  2  0  0  0  0
 17 36  1  0  0  0  0
M  END
> <s_m_source_file>
AV-unprocessed.smi

> <i_m_source_file_index>
2406

> <i_lp_mmshare_version>
43012

> <i_f3d_flags>
0

> <s_epik_input>
W0NIM11PYzFbY0hdYyhuW2NIXW4xKVtOSF1DKD1PKVtOSF1bQ0BIXShbQ0gzXSlbQ0gyXVtDSF0yW0NIMl1bQ0gyXTI=

> <s_epik_cmdline>
J2VwaWtfcHl0aG9uJywgJy1waCcsICc3LjAnLCAnLXRuJywgJzgnLCAnLW1hJywgJzIwMCcsICctbWV0YWxfYmluZGluZycsICctaW1hZScsICc8aW5maWxlLm1hZT4nLCAnLW9tYWUnLCAnPG91dGZpbGUubWFlPic=

> <r_lp_tautomer_probability>
1

> <r_epik_Ionization_Penalty>
2.82876e-05

> <r_epik_Ionization_Penalty_Charging>
0

> <r_epik_Ionization_Penalty_Neutral>
2.82876e-05

> <r_epik_State_Penalty>
-0

> <r_epik_Charging_Adjusted_Penalty>
0

> <i_epik_Tot_Q>
0

> <i_epik_Tot_abs_Q>
0

> <r_epik_Metal_State_Penalty>
-0

> <b_epik_Metal_Only>
0

> <s_lp_Force_Field>
OPLS_2005

> <r_lp_Energy>
10.7025

> <b_lp_Chiralities_Consistent>
1

> <s_lp_Variant>
AV-unprocessed.smi:2406-2

> <Gold.Version>
5.8.1

> <Gold.Id.Protein>
6NUR|6NUR_protein|mol2

> <Gold.PLP.Fitness>
38.8533

> <Gold.PLP.PLP>
-33.1670

> <Gold.PLP.part.hbond>
-2.0000

> <Gold.PLP.part.metal>
0.0000

> <Gold.PLP.part.buried>
-6.1119

> <Gold.PLP.part.nonpolar>
-25.4000

> <Gold.PLP.part.repulsive>
0.2240

> <Gold.PLP.ligand.clash>
0.0000

> <Gold.PLP.ligand.torsion>
0.4649

> <Gold.PLP.Chemscore.Hbond>
2.0000

> <Gold.PLP.Chemscore.CHOScore>
0.0000

> <Gold.PLP.Chemscore.Metal>
0.0000

> <Gold.Chemscore.Hbonds>
donor molecule, donor type, donor heavy atom, donor atom, acceptor molecule, acceptor atom, score
      L1  H     6    23       P1  8028  1.00
      L1  H     9    24       P1  8028  1.00

> <Gold.PLP.Chemscore.Internal.Correction>
0.6161

> <Gold.Rescore>
     Score         DG    S(hbond)    S(metal)    S(lipo)     H(rot)  DE(clash)    DE(int)     intcor
     12.65     -14.99       2.50        0.00      50.17       1.85       0.18       2.15       ----

> <Gold.Chemscore.Fitness>
12.6540

> <Gold.Chemscore.DG>
-14.9879

> <Gold.Chemscore.ZeroCoef>
-5.4800

> <Gold.Chemscore.Hbond>
2.5041

> <Gold.Chemscore.Metal>
0.0000

> <Gold.Chemscore.Lipo>
50.1678

> <Gold.Chemscore.Internal_Hbond>
0.0000

> <Gold.Chemscore.DEClash>
0.1818

> <Gold.Chemscore.DEInternal>
2.1521

> <Gold.Chemscore.Rot>
1.8458

> <Gold.Chemscore.Internal.Correction>
   9.000000E+99

> <Gold.Chemscore.Hbonds>
donor molecule, donor type, donor heavy atom, donor atom, acceptor molecule, acceptor atom, score
      L1  H     6    23       P1  8028  0.95
      L1  H     9    24       P1  8028  0.96

> <Gold.Chemscore.Hbond.Weighted>
-8.3636

> <Gold.Chemscore.Metal.Weighted>
-0.0000

> <Gold.Chemscore.Lipo.Weighted>
-5.8696

> <Gold.Chemscore.Internal_Hbond.Weighted>
0.0000

> <Gold.Chemscore.DEClash.Weighted>
0.1818

> <Gold.Chemscore.DEInternal.Weighted>
2.1521

> <Gold.Chemscore.Rot.Weighted>
4.7254

> <Gold.Chemscore.Internal.Correction.Weighted>
   9.000000E+99

> <Gold.Protein.RotatedTorsions>
[ 6907 6896 6895 6894 ] final  -86.23 input  -60.11 | X-H torsion
[ 7974 7965 7964 7962 ] final  -59.43 input  175.53 | X-H torsion
[ 8008 7997 7996 7995 ] final  147.40 input   59.86 | X-H torsion
[ 10167 10162 10161 10158 ] final  -93.47 input  -65.29 | X-H torsion
[ 10718 10713 10712 10709 ] final   43.34 input   66.30 | X-H torsion
[ 10763 10752 10751 10750 ] final  -77.35 input  -60.55 | X-H torsion
[ 11005 11000 10999 10996 ] final  -43.43 input  -57.11 | X-H torsion

> <Gold.Protein.ActiveResidues>
 VAL166  LYS551  ARG553  GLY616  TRP617  ASP618  TYR619  PRO620  LYS621  CYS622 
 ASP623  PHE694  ASN695  SER759  ASP760  ASP761  ALA762  ILE779  LEU786  VAL792 
 PHE793  MET794  SER795  GLU796  ALA797  LYS798  CYS799  TRP800  GLU811  SER814 

> <Gold.Protein.RotatedAtoms>
  150.6867  134.3083  159.4735 H   0  0  0  0  0  0  0  0  0  0  0  0  # atno 6907 bound_to 6896
  152.0972  134.9364  160.0579 H   0  0  0  0  0  0  0  0  0  0  0  0  # atno 6908 bound_to 6896
  152.0657  133.4048  159.4474 H   0  0  0  0  0  0  0  0  0  0  0  0  # atno 6909 bound_to 6896
  145.8276  140.8500  143.0100 H   0  0  0  0  0  0  0  0  0  0  0  0  # atno 7974 bound_to 7965
  156.2825  140.2156  156.5532 H   0  0  0  0  0  0  0  0  0  0  0  0  # atno 8008 bound_to 7997
  154.7274  140.0498  157.0717 H   0  0  0  0  0  0  0  0  0  0  0  0  # atno 8009 bound_to 7997
  155.0399  140.3144  155.4731 H   0  0  0  0  0  0  0  0  0  0  0  0  # atno 8010 bound_to 7997
  140.3243  143.3031  152.0012 H   0  0  0  0  0  0  0  0  0  0  0  0  # atno 10167 bound_to 10162
  157.4148  130.7935  149.7462 H   0  0  0  0  0  0  0  0  0  0  0  0  # atno 10718 bound_to 10713
  154.5118  135.5767  153.6611 H   0  0  0  0  0  0  0  0  0  0  0  0  # atno 10763 bound_to 10752
  152.9898  135.6160  154.2869 H   0  0  0  0  0  0  0  0  0  0  0  0  # atno 10764 bound_to 10752
  154.2784  135.2851  155.2687 H   0  0  0  0  0  0  0  0  0  0  0  0  # atno 10765 bound_to 10752
  141.0383  133.6790  156.2732 H   0  0  0  0  0  0  0  0  0  0  0  0  # atno 11005 bound_to 11000
  144.6742  140.0625  143.7475 LP  0  0  0  0  0  0  0  0  0  0  0  0  # atno 17320 bound_to 7965
  145.9606  139.2798  143.1157 LP  0  0  0  0  0  0  0  0  0  0  0  0  # atno 17321 bound_to 7965
  139.4868  144.6286  151.7115 LP  0  0  0  0  0  0  0  0  0  0  0  0  # atno 17342 bound_to 10162
  140.5455  144.0510  150.6105 LP  0  0  0  0  0  0  0  0  0  0  0  0  # atno 17343 bound_to 10162
  155.9862  130.3977  150.3226 LP  0  0  0  0  0  0  0  0  0  0  0  0  # atno 17370 bound_to 10713
  157.1367  131.0286  151.2945 LP  0  0  0  0  0  0  0  0  0  0  0  0  # atno 17371 bound_to 10713
  140.6281  134.5292  157.5556 LP  0  0  0  0  0  0  0  0  0  0  0  0  # atno 17394 bound_to 11000
  139.9257  134.8061  156.1076 LP  0  0  0  0  0  0  0  0  0  0  0  0  # atno 17395 bound_to 11000

$$$$
