AV-unprocessed.smi:2259|AV-procd|sdf|9131|dock2
  -GOLD-   2272012333D 1   1.00000     0.00000
 Structure written by MMmdl.
 39 40  0  0  0  0  0  0  0  0  1 V2000
  152.1397  144.4498  160.3535 C   0  0  0  0  0  0  0  0  0  0  0  0
  151.9462  143.3241  159.3531 C   0  0  0  0  0  0  0  0  0  0  0  0
  150.9964  143.5599  158.3554 N   0  0  0  0  0  0  0  0  0  0  0  0
  150.7706  142.6605  157.4547 C   0  0  0  0  0  0  0  0  0  0  0  0
  151.4600  141.4355  157.4435 N   0  0  0  0  0  0  0  0  0  0  0  0
  151.1133  140.4911  156.3652 C   0  0  0  0  0  0  0  0  0  0  0  0
  150.1847  141.1031  155.2897 C   0  0  1  0  0  0  0  0  0  0  0  0
  150.2473  140.2551  154.1610 O   0  0  0  0  0  0  0  0  0  0  0  0
  148.7131  141.2168  155.7277 C   0  0  0  0  0  0  0  0  0  0  0  0
  147.9363  141.6461  154.6175 O   0  0  0  0  0  0  0  0  0  0  0  0
  146.8754  142.4948  154.8507 C   0  0  0  0  0  0  0  0  0  0  0  0
  146.3175  143.1426  153.7296 C   0  0  0  0  0  0  0  0  0  0  0  0
  145.2311  144.0272  153.8729 C   0  0  0  0  0  0  0  0  0  0  0  0
  144.6885  144.2761  155.1488 C   0  0  0  0  0  0  0  0  0  0  0  0
  143.5676  145.1891  155.3001 C   0  0  0  0  0  0  0  0  0  0  0  0
  142.6755  145.9160  155.4206 N   0  0  0  0  0  0  0  0  0  0  0  0
  145.2380  143.6360  156.2774 C   0  0  0  0  0  0  0  0  0  0  0  0
  146.3238  142.7503  156.1318 C   0  0  0  0  0  0  0  0  0  0  0  0
  152.3866  141.1172  158.3934 C   0  0  0  0  0  0  0  0  0  0  0  0
  152.9669  140.0300  158.3923 O   0  0  0  0  0  0  0  0  0  0  0  0
  152.6402  142.1547  159.4063 C   0  0  0  0  0  0  0  0  0  0  0  0
  153.6862  141.8423  160.4694 C   0  0  0  0  0  0  0  0  0  0  0  0
  151.9110  144.1067  161.3628 H   0  0  0  0  0  0  0  0  0  0  0  0
  151.4860  145.2947  160.1324 H   0  0  0  0  0  0  0  0  0  0  0  0
  153.1689  144.8092  160.3304 H   0  0  0  0  0  0  0  0  0  0  0  0
  150.0423  142.7999  156.6541 H   0  0  0  0  0  0  0  0  0  0  0  0
  152.0382  140.1516  155.8945 H   0  0  0  0  0  0  0  0  0  0  0  0
  150.6584  139.5803  156.7606 H   0  0  0  0  0  0  0  0  0  0  0  0
  150.5575  142.0854  154.9982 H   0  0  0  0  0  0  0  0  0  0  0  0
  149.3916  139.8815  154.0159 H   0  0  0  0  0  0  0  0  0  0  0  0
  148.3533  140.2678  156.1294 H   0  0  0  0  0  0  0  0  0  0  0  0
  148.6180  141.9694  156.5104 H   0  0  0  0  0  0  0  0  0  0  0  0
  146.7265  142.9582  152.7468 H   0  0  0  0  0  0  0  0  0  0  0  0
  144.8192  144.5111  152.9988 H   0  0  0  0  0  0  0  0  0  0  0  0
  144.8307  143.8199  157.2614 H   0  0  0  0  0  0  0  0  0  0  0  0
  146.7162  142.2806  157.0207 H   0  0  0  0  0  0  0  0  0  0  0  0
  153.3944  140.9569  161.0347 H   0  0  0  0  0  0  0  0  0  0  0  0
  153.8309  142.6529  161.1819 H   0  0  0  0  0  0  0  0  0  0  0  0
  154.6505  141.6426  160.0004 H   0  0  0  0  0  0  0  0  0  0  0  0
  1  2  1  0  0  0  0
  1 23  1  0  0  0  0
  1 24  1  0  0  0  0
  1 25  1  0  0  0  0
  2 21  2  0  0  0  0
  2  3  1  0  0  0  0
  3  4  2  0  0  0  0
  4  5  1  0  0  0  0
  4 26  1  0  0  0  0
  5  6  1  0  0  0  0
  5 19  1  0  0  0  0
  6  7  1  0  0  0  0
  6 27  1  0  0  0  0
  6 28  1  0  0  0  0
  7  8  1  0  0  0  0
  7  9  1  0  0  0  0
  7 29  1  0  0  0  0
  8 30  1  0  0  0  0
  9 10  1  0  0  0  0
  9 31  1  0  0  0  0
  9 32  1  0  0  0  0
 10 11  1  0  0  0  0
 11 18  1  0  0  0  0
 11 12  2  0  0  0  0
 12 13  1  0  0  0  0
 12 33  1  0  0  0  0
 13 14  2  0  0  0  0
 13 34  1  0  0  0  0
 14 15  1  0  0  0  0
 14 17  1  0  0  0  0
 15 16  3  0  0  0  0
 17 18  2  0  0  0  0
 17 35  1  0  0  0  0
 18 36  1  0  0  0  0
 19 20  2  0  0  0  0
 19 21  1  0  0  0  0
 21 22  1  0  0  0  0
 22 37  1  0  0  0  0
 22 38  1  0  0  0  0
 22 39  1  0  0  0  0
M  END
> <s_m_source_file>
AV-unprocessed.smi

> <i_m_source_file_index>
2259

> <i_lp_mmshare_version>
43012

> <i_f3d_flags>
0

> <s_epik_input>
W0NIM11jMW5bY0hdbihjKD1PKWMxW0NIM10pW0NIMl1bQ0BIXShbT0hdKVtDSDJdT2MyW2NIXVtjSF1jKEMjTilbY0hdW2NIXTI=

> <s_epik_cmdline>
J2VwaWtfcHl0aG9uJywgJy1waCcsICc3LjAnLCAnLXRuJywgJzgnLCAnLW1hJywgJzIwMCcsICctbWV0YWxfYmluZGluZycsICctaW1hZScsICc8aW5maWxlLm1hZT4nLCAnLW9tYWUnLCAnPG91dGZpbGUubWFlPic=

> <r_lp_tautomer_probability>
1

> <r_epik_Ionization_Penalty>
3.47921e-05

> <r_epik_Ionization_Penalty_Charging>
7.82631e-08

> <r_epik_Ionization_Penalty_Neutral>
3.47138e-05

> <r_epik_State_Penalty>
-0

> <r_epik_Charging_Adjusted_Penalty>
7.82631e-08

> <i_epik_Tot_Q>
0

> <i_epik_Tot_abs_Q>
0

> <r_epik_Metal_State_Penalty>
-0

> <b_epik_Metal_Only>
0

> <s_lp_Force_Field>
OPLS_2005

> <r_lp_Energy>
23.7996

> <b_lp_Chiralities_Consistent>
1

> <s_lp_Variant>
AV-unprocessed.smi:2259-2

> <Gold.Version>
5.8.1

> <Gold.Id.Protein>
6NUR|6NUR_protein|mol2

> <Gold.PLP.Fitness>
52.0279

> <Gold.PLP.PLP>
-45.0416

> <Gold.PLP.part.hbond>
-2.9029

> <Gold.PLP.part.metal>
0.0000

> <Gold.PLP.part.buried>
-5.7090

> <Gold.PLP.part.nonpolar>
-36.4394

> <Gold.PLP.part.repulsive>
0.2627

> <Gold.PLP.ligand.clash>
0.7033

> <Gold.PLP.ligand.torsion>
0.6281

> <Gold.PLP.Chemscore.Hbond>
1.9440

> <Gold.PLP.Chemscore.CHOScore>
1.0000

> <Gold.PLP.Chemscore.Metal>
0.0000

> <Gold.Chemscore.Hbonds>
donor molecule, donor type, donor heavy atom, donor atom, acceptor molecule, acceptor atom, score
      P1  H  7989  7998       L1     8  0.86
      P1  H  7997  8008       L1    20  0.78
      L1  C     4    26       P1  8028  1.00

> <Gold.PLP.Chemscore.Internal.Correction>
0.1139

> <Gold.Rescore>
     Score         DG    S(hbond)    S(metal)    S(lipo)     H(rot)  DE(clash)    DE(int)     intcor
     13.53     -14.04       1.54        0.00      87.43       2.66       0.04       0.46       ----

> <Gold.Chemscore.Fitness>
13.5332

> <Gold.Chemscore.DG>
-14.0399

> <Gold.Chemscore.ZeroCoef>
-5.4800

> <Gold.Chemscore.Hbond>
1.5361

> <Gold.Chemscore.Metal>
0.0000

> <Gold.Chemscore.Lipo>
87.4313

> <Gold.Chemscore.Internal_Hbond>
0.0000

> <Gold.Chemscore.DEClash>
0.0445

> <Gold.Chemscore.DEInternal>
0.4622

> <Gold.Chemscore.Rot>
2.6563

> <Gold.Chemscore.Internal.Correction>
   9.000000E+99

> <Gold.Chemscore.Hbonds>
donor molecule, donor type, donor heavy atom, donor atom, acceptor molecule, acceptor atom, score
      P1  H  7989  7998       L1     8  0.16
      P1  H  7997  8008       L1    20  0.58

> <Gold.Chemscore.Hbond.Weighted>
-5.1307

> <Gold.Chemscore.Metal.Weighted>
-0.0000

> <Gold.Chemscore.Lipo.Weighted>
-10.2295

> <Gold.Chemscore.Internal_Hbond.Weighted>
0.0000

> <Gold.Chemscore.DEClash.Weighted>
0.0445

> <Gold.Chemscore.DEInternal.Weighted>
0.4622

> <Gold.Chemscore.Rot.Weighted>
6.8002

> <Gold.Chemscore.Internal.Correction.Weighted>
   9.000000E+99

> <Gold.Protein.RotatedTorsions>
[ 6907 6896 6895 6894 ] final  -56.37 input  -60.11 | X-H torsion
[ 7974 7965 7964 7962 ] final  -76.76 input  175.53 | X-H torsion
[ 8008 7997 7996 7995 ] final  -86.82 input   59.86 | X-H torsion
[ 10167 10162 10161 10158 ] final  138.60 input  -65.29 | X-H torsion
[ 10718 10713 10712 10709 ] final  117.66 input   66.30 | X-H torsion
[ 10763 10752 10751 10750 ] final -148.05 input  -60.55 | X-H torsion
[ 11005 11000 10999 10996 ] final -156.52 input  -57.11 | X-H torsion

> <Gold.Protein.ActiveResidues>
 VAL166  LYS551  ARG553  GLY616  TRP617  ASP618  TYR619  PRO620  LYS621  CYS622 
 ASP623  PHE694  ASN695  SER759  ASP760  ASP761  ALA762  ILE779  LEU786  VAL792 
 PHE793  MET794  SER795  GLU796  ALA797  LYS798  CYS799  TRP800  GLU811  SER814 

> <Gold.Protein.RotatedAtoms>
  150.8173  134.7362  159.6741 H   0  0  0  0  0  0  0  0  0  0  0  0  # atno 6907 bound_to 6896
  152.4291  134.5809  159.9957 H   0  0  0  0  0  0  0  0  0  0  0  0  # atno 6908 bound_to 6896
  151.6002  133.3320  159.3082 H   0  0  0  0  0  0  0  0  0  0  0  0  # atno 6909 bound_to 6896
  145.6086  140.9392  143.1202 H   0  0  0  0  0  0  0  0  0  0  0  0  # atno 7974 bound_to 7965
  154.6562  140.0573  157.0012 H   0  0  0  0  0  0  0  0  0  0  0  0  # atno 8008 bound_to 7997
  155.1296  140.3255  155.4459 H   0  0  0  0  0  0  0  0  0  0  0  0  # atno 8009 bound_to 7997
  156.2598  140.1983  156.6416 H   0  0  0  0  0  0  0  0  0  0  0  0  # atno 8010 bound_to 7997
  139.5105  144.6344  151.5735 H   0  0  0  0  0  0  0  0  0  0  0  0  # atno 10167 bound_to 10162
  157.6082  131.1039  150.7646 H   0  0  0  0  0  0  0  0  0  0  0  0  # atno 10718 bound_to 10713
  154.8253  135.3344  154.6914 H   0  0  0  0  0  0  0  0  0  0  0  0  # atno 10763 bound_to 10752
  153.7541  135.6937  153.4944 H   0  0  0  0  0  0  0  0  0  0  0  0  # atno 10764 bound_to 10752
  153.2156  135.4467  155.0380 H   0  0  0  0  0  0  0  0  0  0  0  0  # atno 10765 bound_to 10752
  140.6747  134.4209  157.5230 H   0  0  0  0  0  0  0  0  0  0  0  0  # atno 11005 bound_to 11000
  144.7279  139.7816  143.7358 LP  0  0  0  0  0  0  0  0  0  0  0  0  # atno 17320 bound_to 7965
  146.1521  139.4608  143.0042 LP  0  0  0  0  0  0  0  0  0  0  0  0  # atno 17321 bound_to 7965
  140.6088  143.9475  150.6438 LP  0  0  0  0  0  0  0  0  0  0  0  0  # atno 17342 bound_to 10162
  140.2711  143.3456  152.1237 LP  0  0  0  0  0  0  0  0  0  0  0  0  # atno 17343 bound_to 10162
  156.8029  130.4927  149.5367 LP  0  0  0  0  0  0  0  0  0  0  0  0  # atno 17370 bound_to 10713
  156.1175  130.6086  151.0143 LP  0  0  0  0  0  0  0  0  0  0  0  0  # atno 17371 bound_to 10713
  139.8970  134.8646  156.2061 LP  0  0  0  0  0  0  0  0  0  0  0  0  # atno 17394 bound_to 11000
  141.0365  133.6961  156.1521 LP  0  0  0  0  0  0  0  0  0  0  0  0  # atno 17395 bound_to 11000

$$$$
