AV-unprocessed.smi:155|AV-procd|sdf|1281|dock5
  -GOLD-   2262018553D 1   1.00000     0.00000
 Structure written by MMmdl.
 64 67  0  0  0  0  0  0  0  0  3 V2000
  145.2108  137.3672  152.5237 C   0  0  0  0  0  0  0  0  0  0  0  0
  145.8677  138.6724  152.7700 N   0  3  0  0  0  0  0  0  0  0  0  0
  146.7814  139.0306  151.6617 C   0  0  0  0  0  0  0  0  0  0  0  0
  146.5344  138.7558  154.0954 C   0  0  0  0  0  0  0  0  0  0  0  0
  147.3272  140.0682  154.2827 C   0  0  0  0  0  0  0  0  0  0  0  0
  148.6888  139.8508  154.8434 N   0  3  2  0  0  0  0  0  0  0  0  0
  149.4417  141.1200  155.0382 C   0  0  0  0  0  0  0  0  0  0  0  0
  150.1795  141.1140  156.3887 C   0  0  0  0  0  0  0  0  0  0  0  0
  151.4102  140.1922  156.4229 C   0  0  0  0  0  0  0  0  0  0  0  0
  151.0939  138.8160  156.0471 N   0  0  0  0  0  0  0  0  0  0  0  0
  150.5726  137.9226  156.9430 C   0  0  0  0  0  0  0  0  0  0  0  0
  150.7631  138.1718  158.2675 N   0  0  0  0  0  0  0  0  0  0  0  0
  150.2909  137.3452  159.2033 C   0  0  0  0  0  0  0  0  0  0  0  0
  149.6072  136.2140  159.0435 N   0  0  0  0  0  0  0  0  0  0  0  0
  149.4024  135.9471  157.7237 C   0  0  0  0  0  0  0  0  0  0  0  0
  149.8430  136.7343  156.6174 C   0  0  0  0  0  0  0  0  0  0  0  0
  149.4406  136.1167  155.4362 N   0  0  0  0  0  0  0  0  0  0  0  0
  148.8020  135.0457  155.8177 C   0  0  0  0  0  0  0  0  0  0  0  0
  148.7310  134.8683  157.1780 N   0  0  0  0  0  0  0  0  0  0  0  0
  148.0851  133.7735  157.8803 C   0  0  0  0  0  0  0  0  0  0  0  0
  146.8810  134.2473  158.7215 C   0  0  1  0  0  0  0  0  0  0  0  0
  145.8593  133.2696  158.7224 O   0  0  0  0  0  0  0  0  0  0  0  0
  147.2264  134.6093  160.1808 C   0  0  2  0  0  0  0  0  0  0  0  0
  147.6676  133.4203  161.0348 C   0  0  0  0  0  0  0  0  0  0  0  0
  147.4114  133.9409  162.4306 C   0  0  0  0  0  0  0  0  0  0  0  0
  146.1210  134.7342  162.2413 C   0  0  0  0  0  0  0  0  0  0  0  0
  146.1025  135.1448  160.8760 O   0  0  0  0  0  0  0  0  0  0  0  0
  150.9100  138.5876  154.6108 C   0  0  0  0  0  0  0  0  0  0  0  0
  149.4607  138.8016  154.1163 C   0  0  0  0  0  0  0  0  0  0  0  0
  145.9391  136.5553  152.5315 H   0  0  0  0  0  0  0  0  0  0  0  0
  144.7156  137.3656  151.5521 H   0  0  0  0  0  0  0  0  0  0  0  0
  144.4498  137.1494  153.2718 H   0  0  0  0  0  0  0  0  0  0  0  0
  147.6145  138.3291  151.5995 H   0  0  0  0  0  0  0  0  0  0  0  0
  147.1871  140.0337  151.7993 H   0  0  0  0  0  0  0  0  0  0  0  0
  146.2541  139.0199  150.7069 H   0  0  0  0  0  0  0  0  0  0  0  0
  145.7917  138.6341  154.8860 H   0  0  0  0  0  0  0  0  0  0  0  0
  147.2229  137.9154  154.1860 H   0  0  0  0  0  0  0  0  0  0  0  0
  147.3962  140.6145  153.3408 H   0  0  0  0  0  0  0  0  0  0  0  0
  146.7768  140.7077  154.9717 H   0  0  0  0  0  0  0  0  0  0  0  0
  150.1237  141.3060  154.2069 H   0  0  0  0  0  0  0  0  0  0  0  0
  148.7580  141.9694  155.0502 H   0  0  0  0  0  0  0  0  0  0  0  0
  150.5104  142.1285  156.6138 H   0  0  0  0  0  0  0  0  0  0  0  0
  149.4824  140.8465  157.1833 H   0  0  0  0  0  0  0  0  0  0  0  0
  152.1520  140.5751  155.7213 H   0  0  0  0  0  0  0  0  0  0  0  0
  151.9110  140.2322  157.3882 H   0  0  0  0  0  0  0  0  0  0  0  0
  150.4910  137.6304  160.2257 H   0  0  0  0  0  0  0  0  0  0  0  0
  148.3607  134.3542  155.1142 H   0  0  0  0  0  0  0  0  0  0  0  0
  147.7716  133.0310  157.1454 H   0  0  0  0  0  0  0  0  0  0  0  0
  148.8302  133.2904  158.5124 H   0  0  0  0  0  0  0  0  0  0  0  0
  146.4462  135.1297  158.2501 H   0  0  0  0  0  0  0  0  0  0  0  0
  145.1780  133.5491  159.3145 H   0  0  0  0  0  0  0  0  0  0  0  0
  148.0259  135.3523  160.2054 H   0  0  0  0  0  0  0  0  0  0  0  0
  147.0454  132.5452  160.8452 H   0  0  0  0  0  0  0  0  0  0  0  0
  148.7084  133.1415  160.8680 H   0  0  0  0  0  0  0  0  0  0  0  0
  147.3221  133.1506  163.1763 H   0  0  0  0  0  0  0  0  0  0  0  0
  148.2202  134.6072  162.7337 H   0  0  0  0  0  0  0  0  0  0  0  0
  145.2514  134.1019  162.4229 H   0  0  0  0  0  0  0  0  0  0  0  0
  146.0627  135.5907  162.9131 H   0  0  0  0  0  0  0  0  0  0  0  0
  151.5611  139.2783  154.0738 H   0  0  0  0  0  0  0  0  0  0  0  0
  151.2684  137.5974  154.3270 H   0  0  0  0  0  0  0  0  0  0  0  0
  148.9375  137.8532  154.2298 H   0  0  0  0  0  0  0  0  0  0  0  0
  149.4732  139.0191  153.0473 H   0  0  0  0  0  0  0  0  0  0  0  0
  145.1407  139.3739  152.7645 H   0  0  0  0  0  0  0  0  0  0  0  0
  148.5417  139.4946  155.7772 H   0  0  0  0  0  0  0  0  0  0  0  0
  1  2  1  0  0  0  0
  1 30  1  0  0  0  0
  1 31  1  0  0  0  0
  1 32  1  0  0  0  0
  2  3  1  0  0  0  0
  2  4  1  0  0  0  0
  2 63  1  0  0  0  0
  3 33  1  0  0  0  0
  3 34  1  0  0  0  0
  3 35  1  0  0  0  0
  4  5  1  0  0  0  0
  4 36  1  0  0  0  0
  4 37  1  0  0  0  0
  5  6  1  0  0  0  0
  5 38  1  0  0  0  0
  5 39  1  0  0  0  0
  6 29  1  0  0  0  0
  6  7  1  0  0  0  0
  6 64  1  0  0  0  0
  7  8  1  0  0  0  0
  7 40  1  0  0  0  0
  7 41  1  0  0  0  0
  8  9  1  0  0  0  0
  8 42  1  0  0  0  0
  8 43  1  0  0  0  0
  9 10  1  0  0  0  0
  9 44  1  0  0  0  0
  9 45  1  0  0  0  0
 10 11  1  0  0  0  0
 10 28  1  0  0  0  0
 11 16  1  0  0  0  0
 11 12  2  0  0  0  0
 12 13  1  0  0  0  0
 13 14  2  0  0  0  0
 13 46  1  0  0  0  0
 14 15  1  0  0  0  0
 15 19  1  0  0  0  0
 15 16  2  0  0  0  0
 16 17  1  0  0  0  0
 17 18  2  0  0  0  0
 18 19  1  0  0  0  0
 18 47  1  0  0  0  0
 19 20  1  0  0  0  0
 20 21  1  0  0  0  0
 20 48  1  0  0  0  0
 20 49  1  0  0  0  0
 21 22  1  0  0  0  0
 21 23  1  0  0  0  0
 21 50  1  0  0  0  0
 22 51  1  0  0  0  0
 23 27  1  0  0  0  0
 23 24  1  0  0  0  0
 23 52  1  0  0  0  0
 24 25  1  0  0  0  0
 24 53  1  0  0  0  0
 24 54  1  0  0  0  0
 25 26  1  0  0  0  0
 25 55  1  0  0  0  0
 25 56  1  0  0  0  0
 26 27  1  0  0  0  0
 26 57  1  0  0  0  0
 26 58  1  0  0  0  0
 28 29  1  0  0  0  0
 28 59  1  0  0  0  0
 28 60  1  0  0  0  0
 29 61  1  0  0  0  0
 29 62  1  0  0  0  0
M  CHG  1   2   1
M  CHG  1   6   1
M  END
> <s_m_source_file>
AV-unprocessed.smi

> <i_m_source_file_index>
155

> <i_lp_mmshare_version>
43012

> <i_f3d_flags>
0

> <s_epik_input>
W0NIM11OKFtDSDNdKVtDSDJdW0NIMl1OMVtDSDJdW0NIMl1bQ0gyXU4oW0NIMl1bQ0gyXTEpYyhuW2NIXW4yKWMoYzIzKW5bY0hdbjNbQ0gyXVtDQEhdKFtPSF0pW0NAQEhdNFtDSDJdW0NIMl1bQ0gyXU80

> <s_epik_cmdline>
J2VwaWtfcHl0aG9uJywgJy1waCcsICc3LjAnLCAnLXRuJywgJzgnLCAnLW1hJywgJzIwMCcsICctbWV0YWxfYmluZGluZycsICctaW1hZScsICc8aW5maWxlLm1hZT4nLCAnLW9tYWUnLCAnPG91dGZpbGUubWFlPic=

> <r_lp_tautomer_probability>
1

> <r_epik_Ionization_Penalty>
3.0333

> <r_epik_Ionization_Penalty_Charging>
3.03317

> <r_epik_Ionization_Penalty_Neutral>
0.000131872

> <r_epik_State_Penalty>
1.99939

> <r_epik_Charging_Adjusted_Penalty>
5.03256

> <i_epik_Tot_Q>
2

> <i_epik_Tot_abs_Q>
2

> <r_epik_Metal_State_Penalty>
2.00021

> <b_epik_Metal_Only>
0

> <s_lp_Force_Field>
OPLS_2005

> <r_lp_Energy>
62.4537

> <b_lp_Chiralities_Consistent>
1

> <s_lp_Variant>
AV-unprocessed.smi:155-15

> <Gold.Version>
5.8.1

> <Gold.Id.Protein>
6NUR|6NUR_protein|mol2

> <Gold.PLP.Fitness>
46.6633

> <Gold.PLP.PLP>
-39.2303

> <Gold.PLP.part.hbond>
-2.0000

> <Gold.PLP.part.metal>
0.0000

> <Gold.PLP.part.buried>
-3.5009

> <Gold.PLP.part.nonpolar>
-34.6540

> <Gold.PLP.part.repulsive>
0.1753

> <Gold.PLP.ligand.clash>
0.0000

> <Gold.PLP.ligand.torsion>
0.9858

> <Gold.PLP.Chemscore.Hbond>
3.0000

> <Gold.PLP.Chemscore.CHOScore>
0.0000

> <Gold.PLP.Chemscore.Metal>
0.0000

> <Gold.Chemscore.Hbonds>
donor molecule, donor type, donor heavy atom, donor atom, acceptor molecule, acceptor atom, score
      L1  H     2    63       P1 10175  2.00
      P1  H  6896  6907       L1    14  1.00

> <Gold.PLP.Chemscore.Internal.Correction>
0.4047

> <Gold.Rescore>
     Score         DG    S(hbond)    S(metal)    S(lipo)     H(rot)  DE(clash)    DE(int)     intcor
     10.34     -13.55       1.10        0.00      97.72       2.75       0.06       3.15       ----

> <Gold.Chemscore.Fitness>
10.3423

> <Gold.Chemscore.DG>
-13.5498

> <Gold.Chemscore.ZeroCoef>
-5.4800

> <Gold.Chemscore.Hbond>
1.1003

> <Gold.Chemscore.Metal>
0.0000

> <Gold.Chemscore.Lipo>
97.7176

> <Gold.Chemscore.Internal_Hbond>
0.0000

> <Gold.Chemscore.DEClash>
0.0597

> <Gold.Chemscore.DEInternal>
3.1478

> <Gold.Chemscore.Rot>
2.7493

> <Gold.Chemscore.Internal.Correction>
   9.000000E+99

> <Gold.Chemscore.Hbonds>
donor molecule, donor type, donor heavy atom, donor atom, acceptor molecule, acceptor atom, score
      L1  H     2    63       P1 10175  1.00
      P1  H  6896  6907       L1    14  0.24

> <Gold.Chemscore.Hbond.Weighted>
-3.6751

> <Gold.Chemscore.Metal.Weighted>
-0.0000

> <Gold.Chemscore.Lipo.Weighted>
-11.4330

> <Gold.Chemscore.Internal_Hbond.Weighted>
0.0000

> <Gold.Chemscore.DEClash.Weighted>
0.0597

> <Gold.Chemscore.DEInternal.Weighted>
3.1478

> <Gold.Chemscore.Rot.Weighted>
7.0383

> <Gold.Chemscore.Internal.Correction.Weighted>
   9.000000E+99

> <Gold.Protein.RotatedTorsions>
[ 6907 6896 6895 6894 ] final  -49.86 input  -60.11 | X-H torsion
[ 7974 7965 7964 7962 ] final   59.46 input  175.53 | X-H torsion
[ 8008 7997 7996 7995 ] final -174.98 input   59.86 | X-H torsion
[ 10167 10162 10161 10158 ] final -124.35 input  -65.29 | X-H torsion
[ 10718 10713 10712 10709 ] final  154.97 input   66.30 | X-H torsion
[ 10763 10752 10751 10750 ] final  -11.08 input  -60.55 | X-H torsion
[ 11005 11000 10999 10996 ] final  -85.62 input  -57.11 | X-H torsion

> <Gold.Protein.ActiveResidues>
 VAL166  LYS551  ARG553  GLY616  TRP617  ASP618  TYR619  PRO620  LYS621  CYS622 
 ASP623  PHE694  ASN695  SER759  ASP760  ASP761  ALA762  ILE779  LEU786  VAL792 
 PHE793  MET794  SER795  GLU796  ALA797  LYS798  CYS799  TRP800  GLU811  SER814 

> <Gold.Protein.RotatedAtoms>
  150.8763  134.8147  159.7192 H   0  0  0  0  0  0  0  0  0  0  0  0  # atno 6907 bound_to 6896
  152.4749  134.4866  159.9692 H   0  0  0  0  0  0  0  0  0  0  0  0  # atno 6908 bound_to 6896
  151.4947  133.3478  159.2894 H   0  0  0  0  0  0  0  0  0  0  0  0  # atno 6909 bound_to 6896
  145.9069  139.3624  143.0559 H   0  0  0  0  0  0  0  0  0  0  0  0  # atno 7974 bound_to 7965
  155.9768  140.1174  157.0762 H   0  0  0  0  0  0  0  0  0  0  0  0  # atno 8008 bound_to 7997
  154.4171  140.1152  156.5449 H   0  0  0  0  0  0  0  0  0  0  0  0  # atno 8009 bound_to 7997
  155.6523  140.3473  155.4755 H   0  0  0  0  0  0  0  0  0  0  0  0  # atno 8010 bound_to 7997
  139.9938  143.5613  152.2331 H   0  0  0  0  0  0  0  0  0  0  0  0  # atno 10167 bound_to 10162
  157.2246  131.0726  151.1891 H   0  0  0  0  0  0  0  0  0  0  0  0  # atno 10718 bound_to 10713
  153.4786  135.7017  153.5951 H   0  0  0  0  0  0  0  0  0  0  0  0  # atno 10763 bound_to 10752
  153.4174  135.3833  155.2089 H   0  0  0  0  0  0  0  0  0  0  0  0  # atno 10764 bound_to 10752
  154.8722  135.3919  154.4233 H   0  0  0  0  0  0  0  0  0  0  0  0  # atno 10765 bound_to 10752
  141.1639  133.7409  156.9042 H   0  0  0  0  0  0  0  0  0  0  0  0  # atno 11005 bound_to 11000
  145.8721  140.9414  143.0645 LP  0  0  0  0  0  0  0  0  0  0  0  0  # atno 17320 bound_to 7965
  144.6740  140.0668  143.7474 LP  0  0  0  0  0  0  0  0  0  0  0  0  # atno 17321 bound_to 7965
  139.6321  144.7645  151.2515 LP  0  0  0  0  0  0  0  0  0  0  0  0  # atno 17342 bound_to 10162
  140.7445  143.6462  150.8290 LP  0  0  0  0  0  0  0  0  0  0  0  0  # atno 17343 bound_to 10162
  157.3541  130.7097  149.6459 LP  0  0  0  0  0  0  0  0  0  0  0  0  # atno 17370 bound_to 10713
  155.9679  130.4244  150.4607 LP  0  0  0  0  0  0  0  0  0  0  0  0  # atno 17371 bound_to 10713
  140.1561  134.9197  157.2656 LP  0  0  0  0  0  0  0  0  0  0  0  0  # atno 17394 bound_to 11000
  140.2665  134.3510  155.7388 LP  0  0  0  0  0  0  0  0  0  0  0  0  # atno 17395 bound_to 11000

$$$$
