AV-unprocessed.smi:1821|AV-procd|sdf|7387|dock2
  -GOLD-   22720 9 53D 1   1.00000     0.00000
 Structure written by MMmdl.
 35 37  0  0  0  0  0  0  0  0  1 V2000
  152.4147  138.9608  155.8183 C   0  0  0  0  0  0  0  0  0  0  0  0
  151.1042  139.4064  155.2505 C   0  0  0  0  0  0  0  0  0  0  0  0
  150.3315  138.5976  154.5254 N   0  0  0  0  0  0  0  0  0  0  0  0
  149.2514  139.4037  154.2209 C   0  0  0  0  0  0  0  0  0  0  0  0
  148.0842  139.1311  153.4719 C   0  0  0  0  0  0  0  0  0  0  0  0
  147.1027  140.1276  153.2915 C   0  0  0  0  0  0  0  0  0  0  0  0
  147.2736  141.4084  153.8558 C   0  0  0  0  0  0  0  0  0  0  0  0
  148.4291  141.7012  154.6054 C   0  0  0  0  0  0  0  0  0  0  0  0
  149.4057  140.7028  154.7832 C   0  0  0  0  0  0  0  0  0  0  0  0
  150.6291  140.6609  155.4451 N   0  0  0  0  0  0  0  0  0  0  0  0
  151.2513  141.7500  156.1854 C   0  0  0  0  0  0  0  0  0  0  0  0
  150.6250  141.9591  157.5797 C   0  0  1  0  0  0  0  0  0  0  0  0
  149.6780  140.9429  157.8509 O   0  0  0  0  0  0  0  0  0  0  0  0
  151.6950  142.0619  158.6612 C   0  0  0  0  0  0  0  0  0  0  0  0
  152.0793  143.3211  159.1821 C   0  0  0  0  0  0  0  0  0  0  0  0
  151.5008  144.4601  158.7309 F   0  0  0  0  0  0  0  0  0  0  0  0
  153.0666  143.4045  160.1830 C   0  0  0  0  0  0  0  0  0  0  0  0
  153.6735  142.2354  160.6771 C   0  0  0  0  0  0  0  0  0  0  0  0
  153.2900  140.9796  160.1715 C   0  0  0  0  0  0  0  0  0  0  0  0
  152.3044  140.8907  159.1692 C   0  0  0  0  0  0  0  0  0  0  0  0
  151.9470  139.6701  158.7021 F   0  0  0  0  0  0  0  0  0  0  0  0
  152.6178  137.9258  155.5413 H   0  0  0  0  0  0  0  0  0  0  0  0
  152.3976  139.0266  156.9062 H   0  0  0  0  0  0  0  0  0  0  0  0
  153.2258  139.5810  155.4377 H   0  0  0  0  0  0  0  0  0  0  0  0
  147.9445  138.1531  153.0353 H   0  0  0  0  0  0  0  0  0  0  0  0
  146.2148  139.9083  152.7166 H   0  0  0  0  0  0  0  0  0  0  0  0
  146.5177  142.1665  153.7117 H   0  0  0  0  0  0  0  0  0  0  0  0
  148.5655  142.6823  155.0354 H   0  0  0  0  0  0  0  0  0  0  0  0
  152.3183  141.5417  156.2730 H   0  0  0  0  0  0  0  0  0  0  0  0
  151.1719  142.6640  155.5962 H   0  0  0  0  0  0  0  0  0  0  0  0
  150.0558  142.8879  157.5647 H   0  0  0  0  0  0  0  0  0  0  0  0
  150.1419  140.1367  158.0187 H   0  0  0  0  0  0  0  0  0  0  0  0
  153.3568  144.3685  160.5741 H   0  0  0  0  0  0  0  0  0  0  0  0
  154.4296  142.3016  161.4455 H   0  0  0  0  0  0  0  0  0  0  0  0
  153.7518  140.0814  160.5542 H   0  0  0  0  0  0  0  0  0  0  0  0
  1  2  1  0  0  0  0
  1 22  1  0  0  0  0
  1 23  1  0  0  0  0
  1 24  1  0  0  0  0
  2 10  1  0  0  0  0
  2  3  2  0  0  0  0
  3  4  1  0  0  0  0
  4  9  2  0  0  0  0
  4  5  1  0  0  0  0
  5  6  2  0  0  0  0
  5 25  1  0  0  0  0
  6  7  1  0  0  0  0
  6 26  1  0  0  0  0
  7  8  2  0  0  0  0
  7 27  1  0  0  0  0
  8  9  1  0  0  0  0
  8 28  1  0  0  0  0
  9 10  1  0  0  0  0
 10 11  1  0  0  0  0
 11 12  1  0  0  0  0
 11 29  1  0  0  0  0
 11 30  1  0  0  0  0
 12 13  1  0  0  0  0
 12 14  1  0  0  0  0
 12 31  1  0  0  0  0
 13 32  1  0  0  0  0
 14 20  1  0  0  0  0
 14 15  2  0  0  0  0
 15 16  1  0  0  0  0
 15 17  1  0  0  0  0
 17 18  2  0  0  0  0
 17 33  1  0  0  0  0
 18 19  1  0  0  0  0
 18 34  1  0  0  0  0
 19 20  2  0  0  0  0
 19 35  1  0  0  0  0
 20 21  1  0  0  0  0
M  END
> <s_m_source_file>
AV-unprocessed.smi

> <i_m_source_file_index>
1821

> <i_lp_mmshare_version>
43012

> <i_f3d_flags>
0

> <s_epik_input>
W2NIXTFbY0hdW2NIXVtjSF1jKGMxMiluKGMobjIpW0NIM10pW0NIMl1bQ0BIXShbT0hdKWMzYyhGKVtjSF1bY0hdW2NIXWMzRg==

> <s_epik_cmdline>
J2VwaWtfcHl0aG9uJywgJy1waCcsICc3LjAnLCAnLXRuJywgJzgnLCAnLW1hJywgJzIwMCcsICctbWV0YWxfYmluZGluZycsICctaW1hZScsICc8aW5maWxlLm1hZT4nLCAnLW9tYWUnLCAnPG91dGZpbGUubWFlPic=

> <r_epik_Ionization_Penalty>
0.129663

> <r_epik_Ionization_Penalty_Charging>
0

> <r_epik_Ionization_Penalty_Neutral>
0.129663

> <r_epik_State_Penalty>
0.119073

> <r_epik_Charging_Adjusted_Penalty>
0.119073

> <i_epik_Tot_Q>
0

> <i_epik_Tot_abs_Q>
0

> <r_epik_Metal_State_Penalty>
0.000131867

> <b_epik_Metal_Only>
0

> <s_lp_Force_Field>
OPLS_2005

> <r_lp_Energy>
13.032

> <b_lp_Chiralities_Consistent>
1

> <s_lp_Variant>
AV-unprocessed.smi:1821-2

> <Gold.Version>
5.8.1

> <Gold.Id.Protein>
6NUR|6NUR_protein|mol2

> <Gold.PLP.Fitness>
45.9653

> <Gold.PLP.PLP>
-48.7041

> <Gold.PLP.part.hbond>
0.0000

> <Gold.PLP.part.metal>
0.0000

> <Gold.PLP.part.buried>
-1.9477

> <Gold.PLP.part.nonpolar>
-45.8376

> <Gold.PLP.part.repulsive>
0.1808

> <Gold.PLP.ligand.clash>
0.0000

> <Gold.PLP.ligand.torsion>
1.3918

> <Gold.PLP.Chemscore.Hbond>
0.0000

> <Gold.PLP.Chemscore.CHOScore>
0.0000

> <Gold.PLP.Chemscore.Metal>
0.0000

> <Gold.PLP.Chemscore.Internal.Correction>
0.0449

> <Gold.Rescore>
     Score         DG    S(hbond)    S(metal)    S(lipo)     H(rot)  DE(clash)    DE(int)     intcor
     12.14     -14.88       0.00        0.00     121.52       1.88       0.22       2.52       ----

> <Gold.Chemscore.Fitness>
12.1400

> <Gold.Chemscore.DG>
-14.8752

> <Gold.Chemscore.ZeroCoef>
-5.4800

> <Gold.Chemscore.Hbond>
0.0000

> <Gold.Chemscore.Metal>
0.0000

> <Gold.Chemscore.Lipo>
121.5207

> <Gold.Chemscore.Internal_Hbond>
0.0000

> <Gold.Chemscore.DEClash>
0.2176

> <Gold.Chemscore.DEInternal>
2.5176

> <Gold.Chemscore.Rot>
1.8839

> <Gold.Chemscore.Internal.Correction>
   9.000000E+99

> <Gold.Chemscore.Hbond.Weighted>
-0.0000

> <Gold.Chemscore.Metal.Weighted>
-0.0000

> <Gold.Chemscore.Lipo.Weighted>
-14.2179

> <Gold.Chemscore.Internal_Hbond.Weighted>
0.0000

> <Gold.Chemscore.DEClash.Weighted>
0.2176

> <Gold.Chemscore.DEInternal.Weighted>
2.5176

> <Gold.Chemscore.Rot.Weighted>
4.8227

> <Gold.Chemscore.Internal.Correction.Weighted>
   9.000000E+99

> <Gold.Protein.RotatedTorsions>
[ 6907 6896 6895 6894 ] final   53.86 input  -60.11 | X-H torsion
[ 7974 7965 7964 7962 ] final   35.27 input  175.53 | X-H torsion
[ 8008 7997 7996 7995 ] final  -70.79 input   59.86 | X-H torsion
[ 10167 10162 10161 10158 ] final   24.07 input  -65.29 | X-H torsion
[ 10718 10713 10712 10709 ] final  132.94 input   66.30 | X-H torsion
[ 10763 10752 10751 10750 ] final  134.21 input  -60.55 | X-H torsion
[ 11005 11000 10999 10996 ] final   98.43 input  -57.11 | X-H torsion

> <Gold.Protein.ActiveResidues>
 VAL166  LYS551  ARG553  GLY616  TRP617  ASP618  TYR619  PRO620  LYS621  CYS622 
 ASP623  PHE694  ASN695  SER759  ASP760  ASP761  ALA762  ILE779  LEU786  VAL792 
 PHE793  MET794  SER795  GLU796  ALA797  LYS798  CYS799  TRP800  GLU811  SER814 

> <Gold.Protein.RotatedAtoms>
  152.3380  134.7172  160.0271 H   0  0  0  0  0  0  0  0  0  0  0  0  # atno 6907 bound_to 6896
  151.7567  133.3325  159.3414 H   0  0  0  0  0  0  0  0  0  0  0  0  # atno 6908 bound_to 6896
  150.7462  134.6075  159.6113 H   0  0  0  0  0  0  0  0  0  0  0  0  # atno 6909 bound_to 6896
  146.1295  139.6163  142.9236 H   0  0  0  0  0  0  0  0  0  0  0  0  # atno 7974 bound_to 7965
  154.5038  140.0828  156.7853 H   0  0  0  0  0  0  0  0  0  0  0  0  # atno 8008 bound_to 7997
  155.3941  140.3434  155.4235 H   0  0  0  0  0  0  0  0  0  0  0  0  # atno 8009 bound_to 7997
  156.1490  140.1552  156.8788 H   0  0  0  0  0  0  0  0  0  0  0  0  # atno 8010 bound_to 7997
  140.5218  143.9990  150.6420 H   0  0  0  0  0  0  0  0  0  0  0  0  # atno 10167 bound_to 10162
  157.4822  131.1086  150.9666 H   0  0  0  0  0  0  0  0  0  0  0  0  # atno 10718 bound_to 10713
  153.8197  135.3118  155.3409 H   0  0  0  0  0  0  0  0  0  0  0  0  # atno 10763 bound_to 10752
  154.8017  135.4722  154.0296 H   0  0  0  0  0  0  0  0  0  0  0  0  # atno 10764 bound_to 10752
  153.1701  135.6876  153.8709 H   0  0  0  0  0  0  0  0  0  0  0  0  # atno 10765 bound_to 10752
  139.8772  134.9049  156.4455 H   0  0  0  0  0  0  0  0  0  0  0  0  # atno 11005 bound_to 11000
  145.5293  141.0428  143.2392 LP  0  0  0  0  0  0  0  0  0  0  0  0  # atno 17320 bound_to 7965
  144.7676  139.6810  143.7208 LP  0  0  0  0  0  0  0  0  0  0  0  0  # atno 17321 bound_to 7965
  140.3341  143.3059  152.0657 LP  0  0  0  0  0  0  0  0  0  0  0  0  # atno 17342 bound_to 10162
  139.4926  144.6489  151.6719 LP  0  0  0  0  0  0  0  0  0  0  0  0  # atno 17343 bound_to 10162
  157.0396  130.5743  149.5354 LP  0  0  0  0  0  0  0  0  0  0  0  0  # atno 17370 bound_to 10713
  156.0128  130.5220  150.8041 LP  0  0  0  0  0  0  0  0  0  0  0  0  # atno 17371 bound_to 10713
  140.8969  133.7808  155.9635 LP  0  0  0  0  0  0  0  0  0  0  0  0  # atno 17394 bound_to 11000
  140.8693  134.2745  157.5198 LP  0  0  0  0  0  0  0  0  0  0  0  0  # atno 17395 bound_to 11000

$$$$
