#       Name:                AV-unprocessed.smi:1017
#       Creating user name   scv26
#       Creation time:       Fri Mar 27 02:39:48 2020


#       File generated by GOLD software.
#

@<TRIPOS>MOLECULE
AV-unprocessed.smi:1017
    51    52     1
SMALL
NO_CHARGES


@<TRIPOS>ATOM
      1 ****        -6.8366   1.7069  -1.9119 C.3            1 S1                 0.0000
      2 ****        -6.0055   0.5597  -1.8985 O.3            1 S1                 0.0000
      3 ****        -4.6270   0.8872  -1.9378 C.3            1 S1                 0.0000
      4 ****        -3.8078  -0.4124  -1.9222 C.3            1 S1                 0.0000
      5 ****        -2.3661  -0.1432  -1.9392 N.am           1 S1                 0.0000
      6 ****        -1.7671  -0.1943  -0.6915 N.2            1 S1                 0.0000
      7 ****        -0.4998   0.0275  -0.5664 C.2            1 S1                 0.0000
      8 ****         0.1330  -0.0371   0.7820 C.2            1 S1                 0.0000
      9 ****        -0.5356  -0.3192   1.7767 O.2            1 S1                 0.0000
     10 ****         1.4544   0.2217   0.8250 N.am           1 S1                 0.0000
     11 ****         2.3799   0.2281   1.9703 C.3            1 S1                 0.0000
     12 ****         2.0770   1.4412   2.8971 C.3            1 S1                 0.0000
     13 ****         2.9992   1.5371   3.8559 F              1 S1                 0.0000
     14 ****         2.0891   2.5752   2.1942 F              1 S1                 0.0000
     15 ****         0.8895   1.3305   3.4918 F              1 S1                 0.0000
     16 ****         2.3302  -1.1068   2.7678 C.3            1 S1                 0.0000
     17 ****         2.7433  -2.3278   1.9257 C.3            1 S1                 0.0000
     18 ****         4.1490  -2.1418   1.3377 C.3            1 S1                 0.0000
     19 ****         4.2448  -0.8372   0.5337 C.3            1 S1                 0.0000
     20 ****         3.8079   0.3763   1.3783 C.3            1 S1                 0.0000
     21 ****         0.3188   0.3366  -1.7328 C.2            1 S1                 0.0000
     22 ****        -0.2815   0.3841  -2.9420 C.2            1 S1                 0.0000
     23 ****        -1.7140   0.1370  -3.1074 C.2            1 S1                 0.0000
     24 ****        -2.2823   0.1802  -4.1981 O.2            1 S1                 0.0000
     25 ****        -7.8825   1.4008  -1.8861 H              1 S1                 0.0000
     26 ****        -6.6809   2.2967  -2.8162 H              1 S1                 0.0000
     27 ****        -6.6494   2.3403  -1.0436 H              1 S1                 0.0000
     28 ****        -4.4093   1.4648  -2.8378 H              1 S1                 0.0000
     29 ****        -4.3657   1.5053  -1.0772 H              1 S1                 0.0000
     30 ****        -4.0682  -0.9917  -1.0344 H              1 S1                 0.0000
     31 ****        -4.0863  -1.0404  -2.7702 H              1 S1                 0.0000
     32 ****         1.8842   0.4431  -0.0613 H              1 S1                 0.0000
     33 ****         3.0036  -1.0372   3.6228 H              1 S1                 0.0000
     34 ****         1.3434  -1.2757   3.1972 H              1 S1                 0.0000
     35 ****         2.7182  -3.2263   2.5426 H              1 S1                 0.0000
     36 ****         2.0244  -2.4899   1.1218 H              1 S1                 0.0000
     37 ****         4.8822  -2.1272   2.1452 H              1 S1                 0.0000
     38 ****         4.4037  -2.9913   0.7033 H              1 S1                 0.0000
     39 ****         5.2685  -0.6946   0.1866 H              1 S1                 0.0000
     40 ****         3.6282  -0.9128  -0.3626 H              1 S1                 0.0000
     41 ****         3.8716   1.2799   0.7707 H              1 S1                 0.0000
     42 ****         4.5303   0.5085   2.1844 H              1 S1                 0.0000
     43 ****         1.3795   0.5251  -1.6575 H              1 S1                 0.0000
     44 ****         0.3127   0.6113  -3.8149 H              1 S1                 0.0000
     45 ****        -6.2240  -0.0038  -2.6952 LP             1 S1                 0.0000
     46 ****        -6.1882   0.0412  -1.0632 LP             1 S1                 0.0000
     47 ****        -2.3177  -0.4038   0.1165 LP             1 S1                 0.0000
     48 ****        -1.5134  -0.5078   1.6849 LP             1 S1                 0.0000
     49 ****        -0.1009  -0.3597   2.6763 LP             1 S1                 0.0000
     50 ****        -3.2652   0.0059  -4.2570 LP             1 S1                 0.0000
     51 ****        -1.7612   0.3897  -5.0255 LP             1 S1                 0.0000
@<TRIPOS>BOND
    1    1    2 1     
    2    1   25 1     
    3    1   26 1     
    4    1   27 1     
    5    2    3 1     
    6    3    4 1     
    7    3   28 1     
    8    3   29 1     
    9    4    5 1     
   10    4   30 1     
   11    4   31 1     
   12    5   23 am    
   13    5    6 1     
   14    6    7 2     
   15    7    8 1     
   16    7   21 1     
   17    8    9 2     
   18    8   10 am    
   19   10   11 1     
   20   10   32 1     
   21   11   20 1     
   22   11   12 1     
   23   11   16 1     
   24   12   13 1     
   25   12   14 1     
   26   12   15 1     
   27   16   17 1     
   28   16   33 1     
   29   16   34 1     
   30   17   18 1     
   31   17   35 1     
   32   17   36 1     
   33   18   19 1     
   34   18   37 1     
   35   18   38 1     
   36   19   20 1     
   37   19   39 1     
   38   19   40 1     
   39   20   41 1     
   40   20   42 1     
   41   21   22 2     
   42   21   43 1     
   43   22   23 1     
   44   22   44 1     
   45   23   24 2     
   46    2   45 1     
   47    2   46 1     
   48    6   47 1     
   49    9   48 1     
   50    9   49 1     
   51   24   50 1     
   52   24   51 1     
@<TRIPOS>SUBSTRUCTURE
      1 S1             1
@<TRIPOS>SET
LONE_PAIRS      STATIC     ATOMS    <user>   **** ""
7 45 46 47 48 49 50 51
DONOR_HYDROGENS      STATIC     ATOMS    <user>   **** ""
1 32
ATOM$BLUE        STATIC     ATOMS    COLORGROUP SYSTEM
7 45 46 47 48 49 50 51
ATOM$RED        STATIC     ATOMS    COLORGROUP SYSTEM
1 32
