AV-unprocessed.smi:2980|AV-procd|sdf|11373|dock10
  -GOLD-   2272016293D 1   1.00000     0.00000
 Structure written by MMmdl.
 39 40  0  0  0  0  0  0  0  0  2 V2000
  151.8543  137.9464  154.6785 C   0  0  0  0  0  0  0  0  0  0  0  0
  152.5089  139.2892  155.0100 C   0  0  0  0  0  0  0  0  0  0  0  0
  152.7961  139.3233  156.3968 O   0  0  0  0  0  0  0  0  0  0  0  0
  151.6667  139.0306  157.2029 C   0  0  0  0  0  0  0  0  0  0  0  0
  151.6494  139.9571  158.4270 C   0  0  0  0  0  0  0  0  0  0  0  0
  151.2982  141.3436  158.0772 N   0  0  0  0  0  0  0  0  0  0  0  0
  150.6362  141.8430  156.9923 C   0  0  0  0  0  0  0  0  0  0  0  0
  150.0907  141.0770  155.8301 C   0  0  0  0  0  0  0  0  0  0  0  0
  148.6233  141.4417  155.5527 C   0  0  0  0  0  0  0  0  0  0  0  0
  148.1489  141.0137  154.1567 C   0  0  0  0  0  0  0  0  0  0  0  0
  149.1955  141.1475  153.2182 O   0  0  0  0  0  0  0  0  0  0  0  0
  150.5781  143.1964  157.1435 N   0  3  0  0  0  0  0  0  0  0  0  0
  151.2081  143.5682  158.3310 C   0  0  0  0  0  0  0  0  0  0  0  0
  151.4019  144.8210  158.9046 C   0  0  0  0  0  0  0  0  0  0  0  0
  152.0976  144.8549  160.1308 C   0  0  0  0  0  0  0  0  0  0  0  0
  152.5715  143.6742  160.7383 C   0  0  0  0  0  0  0  0  0  0  0  0
  152.3679  142.4100  160.1472 C   0  0  0  0  0  0  0  0  0  0  0  0
  151.6763  142.3839  158.9359 C   0  0  0  0  0  0  0  0  0  0  0  0
  151.6178  137.8798  153.6165 H   0  0  0  0  0  0  0  0  0  0  0  0
  150.9274  137.8151  155.2370 H   0  0  0  0  0  0  0  0  0  0  0  0
  152.5164  137.1165  154.9273 H   0  0  0  0  0  0  0  0  0  0  0  0
  153.4258  139.4088  154.4312 H   0  0  0  0  0  0  0  0  0  0  0  0
  151.8385  140.1077  154.7439 H   0  0  0  0  0  0  0  0  0  0  0  0
  150.7514  139.1619  156.6244 H   0  0  0  0  0  0  0  0  0  0  0  0
  151.6985  137.9898  157.5282 H   0  0  0  0  0  0  0  0  0  0  0  0
  150.9258  139.5983  159.1583 H   0  0  0  0  0  0  0  0  0  0  0  0
  152.6146  139.9486  158.9332 H   0  0  0  0  0  0  0  0  0  0  0  0
  150.7030  141.2662  154.9491 H   0  0  0  0  0  0  0  0  0  0  0  0
  150.1772  140.0107  156.0415 H   0  0  0  0  0  0  0  0  0  0  0  0
  147.9913  140.9594  156.2995 H   0  0  0  0  0  0  0  0  0  0  0  0
  148.4726  142.5150  155.6761 H   0  0  0  0  0  0  0  0  0  0  0  0
  147.7952  139.9822  154.1644 H   0  0  0  0  0  0  0  0  0  0  0  0
  147.3151  141.6388  153.8356 H   0  0  0  0  0  0  0  0  0  0  0  0
  149.0817  140.4941  152.5446 H   0  0  0  0  0  0  0  0  0  0  0  0
  151.0424  145.7268  158.4390 H   0  0  0  0  0  0  0  0  0  0  0  0
  152.2734  145.8052  160.6136 H   0  0  0  0  0  0  0  0  0  0  0  0
  153.1035  143.7387  161.6763 H   0  0  0  0  0  0  0  0  0  0  0  0
  152.7418  141.5135  160.6192 H   0  0  0  0  0  0  0  0  0  0  0  0
  150.1418  143.8199  156.4768 H   0  0  0  0  0  0  0  0  0  0  0  0
  1  2  1  0  0  0  0
  1 19  1  0  0  0  0
  1 20  1  0  0  0  0
  1 21  1  0  0  0  0
  2  3  1  0  0  0  0
  2 22  1  0  0  0  0
  2 23  1  0  0  0  0
  3  4  1  0  0  0  0
  4  5  1  0  0  0  0
  4 24  1  0  0  0  0
  4 25  1  0  0  0  0
  5  6  1  0  0  0  0
  5 26  1  0  0  0  0
  5 27  1  0  0  0  0
  6 18  1  0  0  0  0
  6  7  1  0  0  0  0
  7  8  1  0  0  0  0
  7 12  2  0  0  0  0
  8  9  1  0  0  0  0
  8 28  1  0  0  0  0
  8 29  1  0  0  0  0
  9 10  1  0  0  0  0
  9 30  1  0  0  0  0
  9 31  1  0  0  0  0
 10 11  1  0  0  0  0
 10 32  1  0  0  0  0
 10 33  1  0  0  0  0
 11 34  1  0  0  0  0
 12 13  1  0  0  0  0
 12 39  1  0  0  0  0
 13 18  2  0  0  0  0
 13 14  1  0  0  0  0
 14 15  2  0  0  0  0
 14 35  1  0  0  0  0
 15 16  1  0  0  0  0
 15 36  1  0  0  0  0
 16 17  2  0  0  0  0
 16 37  1  0  0  0  0
 17 18  1  0  0  0  0
 17 38  1  0  0  0  0
M  CHG  1  12   1
M  END
> <s_m_source_file>
AV-unprocessed.smi

> <i_m_source_file_index>
2980

> <i_lp_mmshare_version>
43012

> <i_f3d_flags>
0

> <s_epik_input>
W0NIM11bQ0gyXU9bQ0gyXVtDSDJdbihjKG4xKVtDSDJdW0NIMl1bQ0gyXVtPSF0pYyhjMTIpW2NIXVtjSF1bY0hdW2NIXTI=

> <s_epik_cmdline>
J2VwaWtfcHl0aG9uJywgJy1waCcsICc3LjAnLCAnLXRuJywgJzgnLCAnLW1hJywgJzIwMCcsICctbWV0YWxfYmluZGluZycsICctaW1hZScsICc8aW5maWxlLm1hZT4nLCAnLW9tYWUnLCAnPG91dGZpbGUubWFlPic=

> <r_epik_Ionization_Penalty>
0.813193

> <r_epik_Ionization_Penalty_Charging>
0.813193

> <r_epik_Ionization_Penalty_Neutral>
1.64912e-07

> <r_epik_State_Penalty>
0.845533

> <r_epik_Charging_Adjusted_Penalty>
1.65873

> <i_epik_Tot_Q>
1

> <i_epik_Tot_abs_Q>
1

> <r_epik_Metal_State_Penalty>
4.77586

> <b_epik_Metal_Only>
0

> <s_lp_Force_Field>
OPLS_2005

> <r_lp_Energy>
11.2721

> <b_lp_Chiralities_Consistent>
1

> <s_lp_Variant>
AV-unprocessed.smi:2980-2

> <Gold.Version>
5.8.1

> <Gold.Id.Protein>
6NUR|6NUR_protein|mol2

> <Gold.PLP.Fitness>
55.8662

> <Gold.PLP.PLP>
-45.4541

> <Gold.PLP.part.hbond>
-4.4394

> <Gold.PLP.part.metal>
0.0000

> <Gold.PLP.part.buried>
-5.6909

> <Gold.PLP.part.nonpolar>
-36.4951

> <Gold.PLP.part.repulsive>
0.0074

> <Gold.PLP.ligand.clash>
2.4663

> <Gold.PLP.ligand.torsion>
0.9207

> <Gold.PLP.Chemscore.Hbond>
4.8844

> <Gold.PLP.Chemscore.CHOScore>
0.0000

> <Gold.PLP.Chemscore.Metal>
0.0000

> <Gold.Chemscore.Hbonds>
donor molecule, donor type, donor heavy atom, donor atom, acceptor molecule, acceptor atom, score
      L1  H    11    34       P1  7957  0.85
      L1  H    12    39       P1  8028  2.00
      P1  H  7997  8009       L1     3  1.00
      P1  H  8011  8017       L1    11  1.00

> <Gold.PLP.Chemscore.Internal.Correction>
0.0667

> <Gold.Rescore>
     Score         DG    S(hbond)    S(metal)    S(lipo)     H(rot)  DE(clash)    DE(int)     intcor
     21.09     -23.19       3.31        0.00     113.21       2.58       0.01       2.09       ----

> <Gold.Chemscore.Fitness>
21.0948

> <Gold.Chemscore.DG>
-23.1912

> <Gold.Chemscore.ZeroCoef>
-5.4800

> <Gold.Chemscore.Hbond>
3.3132

> <Gold.Chemscore.Metal>
0.0000

> <Gold.Chemscore.Lipo>
113.2114

> <Gold.Chemscore.Internal_Hbond>
0.0000

> <Gold.Chemscore.DEClash>
0.0098

> <Gold.Chemscore.DEInternal>
2.0867

> <Gold.Chemscore.Rot>
2.5784

> <Gold.Chemscore.Internal.Correction>
   9.000000E+99

> <Gold.Chemscore.Hbonds>
donor molecule, donor type, donor heavy atom, donor atom, acceptor molecule, acceptor atom, score
      L1  H    11    34       P1  7957  0.80
      L1  H    12    39       P1  8028  1.00
      P1  H  7997  8009       L1     3  0.70
      P1  H  8011  8017       L1    11  0.30

> <Gold.Chemscore.Hbond.Weighted>
-11.0662

> <Gold.Chemscore.Metal.Weighted>
-0.0000

> <Gold.Chemscore.Lipo.Weighted>
-13.2457

> <Gold.Chemscore.Internal_Hbond.Weighted>
0.0000

> <Gold.Chemscore.DEClash.Weighted>
0.0098

> <Gold.Chemscore.DEInternal.Weighted>
2.0867

> <Gold.Chemscore.Rot.Weighted>
6.6007

> <Gold.Chemscore.Internal.Correction.Weighted>
   9.000000E+99

> <Gold.Protein.RotatedTorsions>
[ 6907 6896 6895 6894 ] final  168.58 input  -60.11 | X-H torsion
[ 7974 7965 7964 7962 ] final    7.16 input  175.53 | X-H torsion
[ 8008 7997 7996 7995 ] final  178.46 input   59.86 | X-H torsion
[ 10167 10162 10161 10158 ] final -161.78 input  -65.29 | X-H torsion
[ 10718 10713 10712 10709 ] final -135.75 input   66.30 | X-H torsion
[ 10763 10752 10751 10750 ] final   31.25 input  -60.55 | X-H torsion
[ 11005 11000 10999 10996 ] final   10.93 input  -57.11 | X-H torsion

> <Gold.Protein.ActiveResidues>
 VAL166  LYS551  ARG553  GLY616  TRP617  ASP618  TYR619  PRO620  LYS621  CYS622 
 ASP623  PHE694  ASN695  SER759  ASP760  ASP761  ALA762  ILE779  LEU786  VAL792 
 PHE793  MET794  SER795  GLU796  ALA797  LYS798  CYS799  TRP800  GLU811  SER814 

> <Gold.Protein.RotatedAtoms>
  151.8453  133.3430  159.3655 H   0  0  0  0  0  0  0  0  0  0  0  0  # atno 6907 bound_to 6896
  150.7222  134.5351  159.5729 H   0  0  0  0  0  0  0  0  0  0  0  0  # atno 6908 bound_to 6896
  152.2834  134.7804  160.0443 H   0  0  0  0  0  0  0  0  0  0  0  0  # atno 6909 bound_to 6896
  146.2429  140.0125  142.8405 H   0  0  0  0  0  0  0  0  0  0  0  0  # atno 7974 bound_to 7965
  156.0544  140.1333  157.0014 H   0  0  0  0  0  0  0  0  0  0  0  0  # atno 8008 bound_to 7997
  154.4450  140.1004  156.6494 H   0  0  0  0  0  0  0  0  0  0  0  0  # atno 8009 bound_to 7997
  155.5475  140.3462  155.4463 H   0  0  0  0  0  0  0  0  0  0  0  0  # atno 8010 bound_to 7997
  139.6440  144.0207  152.2113 H   0  0  0  0  0  0  0  0  0  0  0  0  # atno 10167 bound_to 10162
  156.2696  130.7257  151.1220 H   0  0  0  0  0  0  0  0  0  0  0  0  # atno 10718 bound_to 10713
  153.0326  135.6444  154.1170 H   0  0  0  0  0  0  0  0  0  0  0  0  # atno 10763 bound_to 10752
  154.0889  135.2868  155.3277 H   0  0  0  0  0  0  0  0  0  0  0  0  # atno 10764 bound_to 10752
  154.6478  135.5437  153.7929 H   0  0  0  0  0  0  0  0  0  0  0  0  # atno 10765 bound_to 10752
  140.5089  134.0672  155.7813 H   0  0  0  0  0  0  0  0  0  0  0  0  # atno 11005 bound_to 11000
  145.1314  140.9520  143.4542 LP  0  0  0  0  0  0  0  0  0  0  0  0  # atno 17320 bound_to 7965
  145.0384  139.3281  143.5989 LP  0  0  0  0  0  0  0  0  0  0  0  0  # atno 17321 bound_to 7965
  139.9904  144.6365  150.7819 LP  0  0  0  0  0  0  0  0  0  0  0  0  # atno 17342 bound_to 10162
  140.7505  143.2956  151.3213 LP  0  0  0  0  0  0  0  0  0  0  0  0  # atno 17343 bound_to 10162
  157.7279  131.0635  150.5844 LP  0  0  0  0  0  0  0  0  0  0  0  0  # atno 17370 bound_to 10713
  156.5939  130.4336  149.5925 LP  0  0  0  0  0  0  0  0  0  0  0  0  # atno 17371 bound_to 10713
  141.1396  133.9161  157.2356 LP  0  0  0  0  0  0  0  0  0  0  0  0  # atno 17394 bound_to 11000
  139.9670  135.0139  156.9413 LP  0  0  0  0  0  0  0  0  0  0  0  0  # atno 17395 bound_to 11000

$$$$
