AV-unprocessed.smi:15|AV-procd|sdf|82|dock1
  -GOLD-   2262015213D 1   1.00000     0.00000
 Structure written by MMmdl.
 53 56  0  0  0  0  0  0  0  0  1 V2000
  151.6305  139.4312  155.7401 C   0  0  0  0  0  0  0  0  0  0  0  0
  151.5161  140.2421  157.0375 C   0  0  0  0  0  0  0  0  0  0  0  0
  150.5341  141.3220  156.9437 N   0  0  0  0  0  0  0  0  0  0  0  0
  150.3863  142.2773  158.0434 C   0  0  0  0  0  0  0  0  0  0  0  0
  151.7304  142.7008  158.6676 C   0  0  1  0  0  0  0  0  0  0  0  0
  151.5896  143.7606  159.7580 C   0  0  0  0  0  0  0  0  0  0  0  0
  152.8280  143.5569  160.6180 C   0  0  0  0  0  0  0  0  0  0  0  0
  153.3495  142.1795  160.2001 C   0  0  0  0  0  0  0  0  0  0  0  0
  152.3234  141.6303  159.3872 O   0  0  0  0  0  0  0  0  0  0  0  0
  149.3785  141.0495  156.2912 C   0  0  0  0  0  0  0  0  0  0  0  0
  149.4220  141.0020  154.9353 N   0  0  0  0  0  0  0  0  0  0  0  0
  148.3077  140.7727  154.2350 C   0  0  0  0  0  0  0  0  0  0  0  0
  147.0653  140.5820  154.6821 N   0  0  0  0  0  0  0  0  0  0  0  0
  147.0132  140.6434  156.0436 C   0  0  0  0  0  0  0  0  0  0  0  0
  148.1136  140.8607  156.9204 C   0  0  0  0  0  0  0  0  0  0  0  0
  147.6705  140.8680  158.2382 N   0  0  0  0  0  0  0  0  0  0  0  0
  146.3850  140.6675  158.1455 C   0  0  0  0  0  0  0  0  0  0  0  0
  145.9024  140.5389  156.8630 N   0  0  0  0  0  0  0  0  0  0  0  0
  144.5152  140.3435  156.4712 C   0  0  0  0  0  0  0  0  0  0  0  0
  143.6906  141.6547  156.4590 C   0  0  2  0  0  0  0  0  0  0  0  0
  142.4548  141.3975  155.8124 O   0  0  0  0  0  0  0  0  0  0  0  0
  144.4017  142.7778  155.6967 C   0  0  0  0  0  0  0  0  0  0  0  0
  144.7599  143.7917  156.7773 C   0  0  0  0  0  0  0  0  0  0  0  0
  143.6996  143.6531  157.7061 O   0  0  0  0  0  0  0  0  0  0  0  0
  143.4749  142.2608  157.8708 C   0  0  1  0  0  0  0  0  0  0  0  0
  142.1177  142.0036  158.5468 C   0  0  0  0  0  0  0  0  0  0  0  0
  152.3147  138.5930  155.8724 H   0  0  0  0  0  0  0  0  0  0  0  0
  152.0122  140.0341  154.9165 H   0  0  0  0  0  0  0  0  0  0  0  0
  150.6631  139.0251  155.4432 H   0  0  0  0  0  0  0  0  0  0  0  0
  151.2319  139.5618  157.8417 H   0  0  0  0  0  0  0  0  0  0  0  0
  152.4911  140.6501  157.3037 H   0  0  0  0  0  0  0  0  0  0  0  0
  149.8763  143.1613  157.6630 H   0  0  0  0  0  0  0  0  0  0  0  0
  149.7284  141.8709  158.8127 H   0  0  0  0  0  0  0  0  0  0  0  0
  152.4258  143.0559  157.9056 H   0  0  0  0  0  0  0  0  0  0  0  0
  151.5140  144.7706  159.3542 H   0  0  0  0  0  0  0  0  0  0  0  0
  150.6969  143.5695  160.3550 H   0  0  0  0  0  0  0  0  0  0  0  0
  153.5785  144.3248  160.4279 H   0  0  0  0  0  0  0  0  0  0  0  0
  152.5749  143.5887  161.6781 H   0  0  0  0  0  0  0  0  0  0  0  0
  154.2618  142.2753  159.6093 H   0  0  0  0  0  0  0  0  0  0  0  0
  153.5621  141.5340  161.0526 H   0  0  0  0  0  0  0  0  0  0  0  0
  148.4278  140.7452  153.1620 H   0  0  0  0  0  0  0  0  0  0  0  0
  145.7458  140.6250  159.0152 H   0  0  0  0  0  0  0  0  0  0  0  0
  144.5003  139.8833  155.4822 H   0  0  0  0  0  0  0  0  0  0  0  0
  144.0668  139.6177  157.1512 H   0  0  0  0  0  0  0  0  0  0  0  0
  142.6092  140.7876  155.1070 H   0  0  0  0  0  0  0  0  0  0  0  0
  145.2804  142.4407  155.1458 H   0  0  0  0  0  0  0  0  0  0  0  0
  143.7320  143.2514  154.9768 H   0  0  0  0  0  0  0  0  0  0  0  0
  145.7062  143.5356  157.2567 H   0  0  0  0  0  0  0  0  0  0  0  0
  144.8311  144.8095  156.3936 H   0  0  0  0  0  0  0  0  0  0  0  0
  144.2634  141.9092  158.5369 H   0  0  0  0  0  0  0  0  0  0  0  0
  141.9213  140.9359  158.6445 H   0  0  0  0  0  0  0  0  0  0  0  0
  141.2967  142.4479  157.9839 H   0  0  0  0  0  0  0  0  0  0  0  0
  142.0985  142.4331  159.5484 H   0  0  0  0  0  0  0  0  0  0  0  0
  1  2  1  0  0  0  0
  1 27  1  0  0  0  0
  1 28  1  0  0  0  0
  1 29  1  0  0  0  0
  2  3  1  0  0  0  0
  2 30  1  0  0  0  0
  2 31  1  0  0  0  0
  3  4  1  0  0  0  0
  3 10  1  0  0  0  0
  4  5  1  0  0  0  0
  4 32  1  0  0  0  0
  4 33  1  0  0  0  0
  5  9  1  0  0  0  0
  5  6  1  0  0  0  0
  5 34  1  0  0  0  0
  6  7  1  0  0  0  0
  6 35  1  0  0  0  0
  6 36  1  0  0  0  0
  7  8  1  0  0  0  0
  7 37  1  0  0  0  0
  7 38  1  0  0  0  0
  8  9  1  0  0  0  0
  8 39  1  0  0  0  0
  8 40  1  0  0  0  0
 10 15  1  0  0  0  0
 10 11  2  0  0  0  0
 11 12  1  0  0  0  0
 12 13  2  0  0  0  0
 12 41  1  0  0  0  0
 13 14  1  0  0  0  0
 14 18  1  0  0  0  0
 14 15  2  0  0  0  0
 15 16  1  0  0  0  0
 16 17  2  0  0  0  0
 17 18  1  0  0  0  0
 17 42  1  0  0  0  0
 18 19  1  0  0  0  0
 19 20  1  0  0  0  0
 19 43  1  0  0  0  0
 19 44  1  0  0  0  0
 20 25  1  0  0  0  0
 20 21  1  0  0  0  0
 20 22  1  0  0  0  0
 21 45  1  0  0  0  0
 22 23  1  0  0  0  0
 22 46  1  0  0  0  0
 22 47  1  0  0  0  0
 23 24  1  0  0  0  0
 23 48  1  0  0  0  0
 23 49  1  0  0  0  0
 24 25  1  0  0  0  0
 25 26  1  0  0  0  0
 25 50  1  0  0  0  0
 26 51  1  0  0  0  0
 26 52  1  0  0  0  0
 26 53  1  0  0  0  0
M  END
> <s_m_source_file>
AV-unprocessed.smi

> <i_m_source_file_index>
15

> <i_lp_mmshare_version>
43012

> <i_f3d_flags>
0

> <s_epik_input>
TzFbQ0gyXVtDSDJdW0NIMl1bQ0BIXTFbQ0gyXU4oW0NIMl1bQ0gzXSljKG5bY0hdbjIpYyhjMjMpbltjSF1uM1tDSDJdW0NAQF00KFtPSF0pW0NIMl1bQ0gyXU9bQ0BIXTRbQ0gzXQ==

> <s_epik_cmdline>
J2VwaWtfcHl0aG9uJywgJy1waCcsICc3LjAnLCAnLXRuJywgJzgnLCAnLW1hJywgJzIwMCcsICctbWV0YWxfYmluZGluZycsICctaW1hZScsICc8aW5maWxlLm1hZT4nLCAnLW9tYWUnLCAnPG91dGZpbGUubWFlPic=

> <r_lp_tautomer_probability>
1

> <r_epik_Ionization_Penalty>
0.00360814

> <r_epik_Ionization_Penalty_Charging>
0

> <r_epik_Ionization_Penalty_Neutral>
0.00360814

> <r_epik_State_Penalty>
0.00237482

> <r_epik_Charging_Adjusted_Penalty>
0.00237482

> <i_epik_Tot_Q>
0

> <i_epik_Tot_abs_Q>
0

> <r_epik_Metal_State_Penalty>
-0

> <b_epik_Metal_Only>
0

> <s_lp_Force_Field>
OPLS_2005

> <r_lp_Energy>
44.887

> <b_lp_Chiralities_Consistent>
1

> <s_lp_Variant>
AV-unprocessed.smi:15-4

> <Gold.Version>
5.8.1

> <Gold.Id.Protein>
6NUR|6NUR_protein|mol2

> <Gold.PLP.Fitness>
40.3071

> <Gold.PLP.PLP>
-35.8764

> <Gold.PLP.part.hbond>
-3.0344

> <Gold.PLP.part.metal>
0.0000

> <Gold.PLP.part.buried>
-3.2223

> <Gold.PLP.part.nonpolar>
-29.2784

> <Gold.PLP.part.repulsive>
0.3314

> <Gold.PLP.ligand.clash>
0.0000

> <Gold.PLP.ligand.torsion>
1.7471

> <Gold.PLP.Chemscore.Hbond>
1.3078

> <Gold.PLP.Chemscore.CHOScore>
1.0000

> <Gold.PLP.Chemscore.Metal>
0.0000

> <Gold.Chemscore.Hbonds>
donor molecule, donor type, donor heavy atom, donor atom, acceptor molecule, acceptor atom, score
      L1  C    12    41       P1  7957  1.00

> <Gold.PLP.Chemscore.Internal.Correction>
1.0013

> <Gold.Rescore>
     Score         DG    S(hbond)    S(metal)    S(lipo)     H(rot)  DE(clash)    DE(int)     intcor
      6.71     -11.91       1.11        0.00      76.76       2.44       0.85       4.36       ----

> <Gold.Chemscore.Fitness>
6.7059

> <Gold.Chemscore.DG>
-11.9109

> <Gold.Chemscore.ZeroCoef>
-5.4800

> <Gold.Chemscore.Hbond>
1.1093

> <Gold.Chemscore.Metal>
0.0000

> <Gold.Chemscore.Lipo>
76.7551

> <Gold.Chemscore.Internal_Hbond>
0.0000

> <Gold.Chemscore.DEClash>
0.8472

> <Gold.Chemscore.DEInternal>
4.3577

> <Gold.Chemscore.Rot>
2.4431

> <Gold.Chemscore.Internal.Correction>
   9.000000E+99

> <Gold.Chemscore.Hbond.Weighted>
-3.7050

> <Gold.Chemscore.Metal.Weighted>
-0.0000

> <Gold.Chemscore.Lipo.Weighted>
-8.9803

> <Gold.Chemscore.Internal_Hbond.Weighted>
0.0000

> <Gold.Chemscore.DEClash.Weighted>
0.8472

> <Gold.Chemscore.DEInternal.Weighted>
4.3577

> <Gold.Chemscore.Rot.Weighted>
6.2544

> <Gold.Chemscore.Internal.Correction.Weighted>
   9.000000E+99

> <Gold.Protein.RotatedTorsions>
[ 6907 6896 6895 6894 ] final -119.01 input  -60.11 | X-H torsion
[ 7974 7965 7964 7962 ] final  149.47 input  175.53 | X-H torsion
[ 8008 7997 7996 7995 ] final -124.79 input   59.86 | X-H torsion
[ 10167 10162 10161 10158 ] final  115.37 input  -65.29 | X-H torsion
[ 10718 10713 10712 10709 ] final    5.09 input   66.30 | X-H torsion
[ 10763 10752 10751 10750 ] final -102.81 input  -60.55 | X-H torsion
[ 11005 11000 10999 10996 ] final -161.04 input  -57.11 | X-H torsion

> <Gold.Protein.ActiveResidues>
 VAL166  LYS551  ARG553  GLY616  TRP617  ASP618  TYR619  PRO620  LYS621  CYS622 
 ASP623  PHE694  ASN695  SER759  ASP760  ASP761  ALA762  ILE779  LEU786  VAL792 
 PHE793  MET794  SER795  GLU796  ALA797  LYS798  CYS799  TRP800  GLU811  SER814 

> <Gold.Protein.RotatedAtoms>
  150.8268  133.8158  159.3114 H   0  0  0  0  0  0  0  0  0  0  0  0  # atno 6907 bound_to 6896
  151.5900  135.1052  160.0046 H   0  0  0  0  0  0  0  0  0  0  0  0  # atno 6908 bound_to 6896
  152.4352  133.7307  159.6642 H   0  0  0  0  0  0  0  0  0  0  0  0  # atno 6909 bound_to 6896
  144.8435  139.6285  143.6006 H   0  0  0  0  0  0  0  0  0  0  0  0  # atno 7974 bound_to 7965
  155.2026  140.0416  157.2920 H   0  0  0  0  0  0  0  0  0  0  0  0  # atno 8008 bound_to 7997
  154.6064  140.2465  155.7697 H   0  0  0  0  0  0  0  0  0  0  0  0  # atno 8009 bound_to 7997
  156.2353  140.2924  156.0305 H   0  0  0  0  0  0  0  0  0  0  0  0  # atno 8010 bound_to 7997
  139.6322  144.7116  151.2409 H   0  0  0  0  0  0  0  0  0  0  0  0  # atno 10167 bound_to 10162
  156.9022  130.5726  149.5648 H   0  0  0  0  0  0  0  0  0  0  0  0  # atno 10718 bound_to 10713
  154.7761  135.4846  153.9748 H   0  0  0  0  0  0  0  0  0  0  0  0  # atno 10763 bound_to 10752
  153.1431  135.6776  153.9003 H   0  0  0  0  0  0  0  0  0  0  0  0  # atno 10764 bound_to 10752
  153.8671  135.3148  155.3419 H   0  0  0  0  0  0  0  0  0  0  0  0  # atno 10765 bound_to 10752
  140.6249  134.4712  157.5226 H   0  0  0  0  0  0  0  0  0  0  0  0  # atno 11005 bound_to 11000
  146.2724  139.6668  142.9287 LP  0  0  0  0  0  0  0  0  0  0  0  0  # atno 17320 bound_to 7965
  145.4644  141.0434  143.2733 LP  0  0  0  0  0  0  0  0  0  0  0  0  # atno 17321 bound_to 7965
  140.7445  143.6460  150.8291 LP  0  0  0  0  0  0  0  0  0  0  0  0  # atno 17342 bound_to 10162
  140.0086  143.5666  152.2848 LP  0  0  0  0  0  0  0  0  0  0  0  0  # atno 17343 bound_to 10162
  156.0576  130.5635  150.9125 LP  0  0  0  0  0  0  0  0  0  0  0  0  # atno 17370 bound_to 10713
  157.6019  131.0941  150.8945 LP  0  0  0  0  0  0  0  0  0  0  0  0  # atno 17371 bound_to 10713
  139.9139  134.8287  156.1434 LP  0  0  0  0  0  0  0  0  0  0  0  0  # atno 17394 bound_to 11000
  141.0716  133.6794  156.2153 LP  0  0  0  0  0  0  0  0  0  0  0  0  # atno 17395 bound_to 11000

$$$$
