AV-unprocessed.smi:1422|AV-procd|sdf|5792|dock4
  -GOLD-   22720 5443D 1   1.00000     0.00000
 Structure written by MMmdl.
 31 32  0  0  0  0  0  0  0  0  1 V2000
  150.7451  142.2472  156.4784 C   0  0  0  0  0  0  0  0  0  0  0  0
  150.4778  141.0868  155.5825 C   0  0  0  0  0  0  0  0  0  0  0  0
  149.3370  140.5945  155.0135 C   0  0  0  0  0  0  0  0  0  0  0  0
  149.8039  139.4692  154.2835 C   0  0  0  0  0  0  0  0  0  0  0  0
  148.9067  138.6640  153.5367 N   0  0  0  0  0  0  0  0  0  0  0  0
  147.5788  138.8234  153.4038 C   0  0  0  0  0  0  0  0  0  0  0  0
  146.9155  139.7159  153.9326 O   0  0  0  0  0  0  0  0  0  0  0  0
  147.0519  137.8751  152.6155 N   0  0  0  0  0  0  0  0  0  0  0  0
  145.6396  137.7498  152.2682 C   0  0  0  0  0  0  0  0  0  0  0  0
  145.2210  136.2774  152.0991 C   0  0  2  0  0  0  0  0  0  0  0  0
  145.6014  135.6821  150.7592 C   0  0  0  0  0  0  0  0  0  0  0  0
  144.7043  134.4495  150.6975 C   0  0  0  0  0  0  0  0  0  0  0  0
  143.5212  134.7945  151.4124 O   0  0  0  0  0  0  0  0  0  0  0  0
  143.7119  136.0225  152.1090 C   0  0  0  0  0  0  0  0  0  0  0  0
  151.1114  139.2917  154.3952 N   0  0  0  0  0  0  0  0  0  0  0  0
  151.5499  140.3271  155.2290 O   0  0  0  0  0  0  0  0  0  0  0  0
  149.8910  142.9241  156.5041 H   0  0  0  0  0  0  0  0  0  0  0  0
  151.6123  142.8112  156.1348 H   0  0  0  0  0  0  0  0  0  0  0  0
  150.9413  141.9109  157.4966 H   0  0  0  0  0  0  0  0  0  0  0  0
  148.3324  140.9790  155.1075 H   0  0  0  0  0  0  0  0  0  0  0  0
  149.3215  137.8842  153.0487 H   0  0  0  0  0  0  0  0  0  0  0  0
  147.6753  137.1831  152.2258 H   0  0  0  0  0  0  0  0  0  0  0  0
  145.0093  138.2487  153.0066 H   0  0  0  0  0  0  0  0  0  0  0  0
  145.4838  138.2808  151.3289 H   0  0  0  0  0  0  0  0  0  0  0  0
  145.6831  135.6769  152.8847 H   0  0  0  0  0  0  0  0  0  0  0  0
  145.3479  136.3693  149.9504 H   0  0  0  0  0  0  0  0  0  0  0  0
  146.6617  135.4397  150.6817 H   0  0  0  0  0  0  0  0  0  0  0  0
  144.4793  134.1480  149.6744 H   0  0  0  0  0  0  0  0  0  0  0  0
  145.1798  133.6077  151.2022 H   0  0  0  0  0  0  0  0  0  0  0  0
  143.3025  135.9739  153.1183 H   0  0  0  0  0  0  0  0  0  0  0  0
  143.1834  136.8082  151.5676 H   0  0  0  0  0  0  0  0  0  0  0  0
  1  2  1  0  0  0  0
  1 17  1  0  0  0  0
  1 18  1  0  0  0  0
  1 19  1  0  0  0  0
  2 16  1  0  0  0  0
  2  3  2  0  0  0  0
  3  4  1  0  0  0  0
  3 20  1  0  0  0  0
  4  5  1  0  0  0  0
  4 15  2  0  0  0  0
  5  6  1  0  0  0  0
  5 21  1  0  0  0  0
  6  7  2  0  0  0  0
  6  8  1  0  0  0  0
  8  9  1  0  0  0  0
  8 22  1  0  0  0  0
  9 10  1  0  0  0  0
  9 23  1  0  0  0  0
  9 24  1  0  0  0  0
 10 14  1  0  0  0  0
 10 11  1  0  0  0  0
 10 25  1  0  0  0  0
 11 12  1  0  0  0  0
 11 26  1  0  0  0  0
 11 27  1  0  0  0  0
 12 13  1  0  0  0  0
 12 28  1  0  0  0  0
 12 29  1  0  0  0  0
 13 14  1  0  0  0  0
 14 30  1  0  0  0  0
 14 31  1  0  0  0  0
 15 16  1  0  0  0  0
M  END
> <s_m_source_file>
AV-unprocessed.smi

> <i_m_source_file_index>
1422

> <i_lp_mmshare_version>
43012

> <i_f3d_flags>
0

> <s_epik_input>
W0NIM11jMVtjSF1jKG5vMSlbTkhdQyg9TylbTkhdW0NIMl1bQ0BASF0yW0NIMl1bQ0gyXU9bQ0gyXTI=

> <s_epik_cmdline>
J2VwaWtfcHl0aG9uJywgJy1waCcsICc3LjAnLCAnLXRuJywgJzgnLCAnLW1hJywgJzIwMCcsICctbWV0YWxfYmluZGluZycsICctaW1hZScsICc8aW5maWxlLm1hZT4nLCAnLW9tYWUnLCAnPG91dGZpbGUubWFlPic=

> <r_lp_tautomer_probability>
1

> <r_epik_Ionization_Penalty>
2.27275e-05

> <r_epik_Ionization_Penalty_Charging>
0

> <r_epik_Ionization_Penalty_Neutral>
2.27275e-05

> <r_epik_State_Penalty>
-0

> <r_epik_Charging_Adjusted_Penalty>
0

> <i_epik_Tot_Q>
0

> <i_epik_Tot_abs_Q>
0

> <r_epik_Metal_State_Penalty>
-0

> <b_epik_Metal_Only>
0

> <s_lp_Force_Field>
OPLS_2005

> <r_lp_Energy>
16.1313

> <b_lp_Chiralities_Consistent>
1

> <s_lp_Variant>
AV-unprocessed.smi:1422-1

> <Gold.Version>
5.8.1

> <Gold.Id.Protein>
6NUR|6NUR_protein|mol2

> <Gold.PLP.Fitness>
33.7361

> <Gold.PLP.PLP>
-28.5947

> <Gold.PLP.part.hbond>
-5.0000

> <Gold.PLP.part.metal>
0.0000

> <Gold.PLP.part.buried>
-2.6548

> <Gold.PLP.part.nonpolar>
-21.6999

> <Gold.PLP.part.repulsive>
0.6369

> <Gold.PLP.ligand.clash>
0.0000

> <Gold.PLP.ligand.torsion>
0.3357

> <Gold.PLP.Chemscore.Hbond>
1.9357

> <Gold.PLP.Chemscore.CHOScore>
0.0000

> <Gold.PLP.Chemscore.Metal>
0.0000

> <Gold.Chemscore.Hbonds>
donor molecule, donor type, donor heavy atom, donor atom, acceptor molecule, acceptor atom, score
      L1  H     5    21       P1  7948  0.92
      L1  H     8    22       P1  7948  1.00

> <Gold.PLP.Chemscore.Internal.Correction>
0.0055

> <Gold.Rescore>
     Score         DG    S(hbond)    S(metal)    S(lipo)     H(rot)  DE(clash)    DE(int)     intcor
     12.55     -14.25       1.87        0.00      50.00       1.30       0.01       1.69       ----

> <Gold.Chemscore.Fitness>
12.5503

> <Gold.Chemscore.DG>
-14.2487

> <Gold.Chemscore.ZeroCoef>
-5.4800

> <Gold.Chemscore.Hbond>
1.8676

> <Gold.Chemscore.Metal>
0.0000

> <Gold.Chemscore.Lipo>
50.0002

> <Gold.Chemscore.Internal_Hbond>
0.0000

> <Gold.Chemscore.DEClash>
0.0118

> <Gold.Chemscore.DEInternal>
1.6867

> <Gold.Chemscore.Rot>
1.2965

> <Gold.Chemscore.Internal.Correction>
   9.000000E+99

> <Gold.Chemscore.Hbonds>
donor molecule, donor type, donor heavy atom, donor atom, acceptor molecule, acceptor atom, score
      L1  H     5    21       P1  7948  0.80
      L1  H     8    22       P1  7948  0.99

> <Gold.Chemscore.Hbond.Weighted>
-6.2379

> <Gold.Chemscore.Metal.Weighted>
-0.0000

> <Gold.Chemscore.Lipo.Weighted>
-5.8500

> <Gold.Chemscore.Internal_Hbond.Weighted>
0.0000

> <Gold.Chemscore.DEClash.Weighted>
0.0118

> <Gold.Chemscore.DEInternal.Weighted>
1.6867

> <Gold.Chemscore.Rot.Weighted>
3.3192

> <Gold.Chemscore.Internal.Correction.Weighted>
   9.000000E+99

> <Gold.Protein.RotatedTorsions>
[ 6907 6896 6895 6894 ] final -168.89 input  -60.11 | X-H torsion
[ 7974 7965 7964 7962 ] final   95.75 input  175.53 | X-H torsion
[ 8008 7997 7996 7995 ] final -166.99 input   59.86 | X-H torsion
[ 10167 10162 10161 10158 ] final   65.09 input  -65.29 | X-H torsion
[ 10718 10713 10712 10709 ] final -166.70 input   66.30 | X-H torsion
[ 10763 10752 10751 10750 ] final  -52.16 input  -60.55 | X-H torsion
[ 11005 11000 10999 10996 ] final -117.44 input  -57.11 | X-H torsion

> <Gold.Protein.ActiveResidues>
 VAL166  LYS551  ARG553  GLY616  TRP617  ASP618  TYR619  PRO620  LYS621  CYS622 
 ASP623  PHE694  ASN695  SER759  ASP760  ASP761  ALA762  ILE779  LEU786  VAL792 
 PHE793  MET794  SER795  GLU796  ALA797  LYS798  CYS799  TRP800  GLU811  SER814 

> <Gold.Protein.RotatedAtoms>
  151.4828  133.3542  159.2840 H   0  0  0  0  0  0  0  0  0  0  0  0  # atno 6907 bound_to 6896
  150.8886  134.8288  159.7288 H   0  0  0  0  0  0  0  0  0  0  0  0  # atno 6908 bound_to 6896
  152.4808  134.4735  159.9695 H   0  0  0  0  0  0  0  0  0  0  0  0  # atno 6909 bound_to 6896
  145.4480  139.2295  143.3055 H   0  0  0  0  0  0  0  0  0  0  0  0  # atno 7974 bound_to 7965
  155.8715  140.0994  157.1547 H   0  0  0  0  0  0  0  0  0  0  0  0  # atno 8008 bound_to 7997
  154.3997  140.1346  156.4147 H   0  0  0  0  0  0  0  0  0  0  0  0  # atno 8009 bound_to 7997
  155.7745  140.3460  155.5267 H   0  0  0  0  0  0  0  0  0  0  0  0  # atno 8010 bound_to 7997
  140.1151  144.4783  150.6954 H   0  0  0  0  0  0  0  0  0  0  0  0  # atno 10167 bound_to 10162
  156.6717  130.9087  151.3044 H   0  0  0  0  0  0  0  0  0  0  0  0  # atno 10718 bound_to 10713
  154.1382  135.6509  153.4936 H   0  0  0  0  0  0  0  0  0  0  0  0  # atno 10763 bound_to 10752
  153.0174  135.5309  154.6932 H   0  0  0  0  0  0  0  0  0  0  0  0  # atno 10764 bound_to 10752
  154.6186  135.2962  155.0323 H   0  0  0  0  0  0  0  0  0  0  0  0  # atno 10765 bound_to 10752
  141.0355  133.9917  157.3078 H   0  0  0  0  0  0  0  0  0  0  0  0  # atno 11005 bound_to 11000
  146.2520  140.5236  142.8889 LP  0  0  0  0  0  0  0  0  0  0  0  0  # atno 17320 bound_to 7965
  144.8079  140.6333  143.6434 LP  0  0  0  0  0  0  0  0  0  0  0  0  # atno 17321 bound_to 7965
  140.6904  143.2373  151.5147 LP  0  0  0  0  0  0  0  0  0  0  0  0  # atno 17342 bound_to 10162
  139.5598  144.2184  152.1673 LP  0  0  0  0  0  0  0  0  0  0  0  0  # atno 17343 bound_to 10162
  157.7075  130.9401  150.0977 LP  0  0  0  0  0  0  0  0  0  0  0  0  # atno 17370 bound_to 10713
  156.1933  130.3656  149.8881 LP  0  0  0  0  0  0  0  0  0  0  0  0  # atno 17371 bound_to 10713
  139.9237  135.0201  156.8158 LP  0  0  0  0  0  0  0  0  0  0  0  0  # atno 17394 bound_to 11000
  140.6331  133.9888  155.7671 LP  0  0  0  0  0  0  0  0  0  0  0  0  # atno 17395 bound_to 11000

$$$$
