AV-unprocessed.smi:1655|AV-procd|sdf|6644|dock10
  -GOLD-   22720 7343D 1   1.00000     0.00000
 Structure written by MMmdl.
 34 35  0  0  0  0  0  0  0  0  1 V2000
  149.9664  141.9988  157.8131 C   0  0  0  0  0  0  0  0  0  0  0  0
  149.9602  141.2413  156.5297 C   0  0  0  0  0  0  0  0  0  0  0  0
  148.9642  140.8835  155.6650 C   0  0  0  0  0  0  0  0  0  0  0  0
  149.6606  140.1732  154.6509 C   0  0  0  0  0  0  0  0  0  0  0  0
  148.9686  139.6200  153.5433 N   0  0  0  0  0  0  0  0  0  0  0  0
  147.7304  139.0973  153.5281 C   0  0  0  0  0  0  0  0  0  0  0  0
  146.9838  139.0125  154.5037 O   0  0  0  0  0  0  0  0  0  0  0  0
  147.3964  138.6726  152.3007 N   0  0  0  0  0  0  0  0  0  0  0  0
  146.1222  138.0593  151.9432 C   0  0  0  0  0  0  0  0  0  0  0  0
  145.9231  136.7100  152.6538 C   0  0  0  0  0  0  0  0  0  0  0  0
  145.6876  135.5533  151.6712 C   0  0  2  0  0  0  0  0  0  0  0  0
  144.2250  135.3600  151.2769 C   0  0  0  0  0  0  0  0  0  0  0  0
  144.1589  133.8962  150.8696 C   0  0  0  0  0  0  0  0  0  0  0  0
  145.4424  133.2887  151.4443 C   0  0  0  0  0  0  0  0  0  0  0  0
  146.0042  134.3043  152.2643 O   0  0  0  0  0  0  0  0  0  0  0  0
  150.9641  140.1057  154.8754 N   0  0  0  0  0  0  0  0  0  0  0  0
  151.1627  140.7903  156.0801 O   0  0  0  0  0  0  0  0  0  0  0  0
  148.9502  142.1835  158.1619 H   0  0  0  0  0  0  0  0  0  0  0  0
  150.4624  142.9617  157.6909 H   0  0  0  0  0  0  0  0  0  0  0  0
  150.4935  141.4422  158.5880 H   0  0  0  0  0  0  0  0  0  0  0  0
  147.9088  141.0960  155.7490 H   0  0  0  0  0  0  0  0  0  0  0  0
  149.4683  139.6276  152.6667 H   0  0  0  0  0  0  0  0  0  0  0  0
  148.0723  138.7809  151.5587 H   0  0  0  0  0  0  0  0  0  0  0  0
  145.3265  138.7489  152.2258 H   0  0  0  0  0  0  0  0  0  0  0  0
  146.0554  137.9367  150.8607 H   0  0  0  0  0  0  0  0  0  0  0  0
  146.7896  136.4874  153.2781 H   0  0  0  0  0  0  0  0  0  0  0  0
  145.0687  136.7832  153.3277 H   0  0  0  0  0  0  0  0  0  0  0  0
  146.2967  135.6863  150.7750 H   0  0  0  0  0  0  0  0  0  0  0  0
  143.5773  135.5263  152.1389 H   0  0  0  0  0  0  0  0  0  0  0  0
  143.9091  136.0372  150.4831 H   0  0  0  0  0  0  0  0  0  0  0  0
  143.2669  133.4177  151.2749 H   0  0  0  0  0  0  0  0  0  0  0  0
  144.1363  133.7853  149.7851 H   0  0  0  0  0  0  0  0  0  0  0  0
  145.2560  132.3809  152.0184 H   0  0  0  0  0  0  0  0  0  0  0  0
  146.1425  133.0466  150.6435 H   0  0  0  0  0  0  0  0  0  0  0  0
  1  2  1  0  0  0  0
  1 18  1  0  0  0  0
  1 19  1  0  0  0  0
  1 20  1  0  0  0  0
  2 17  1  0  0  0  0
  2  3  2  0  0  0  0
  3  4  1  0  0  0  0
  3 21  1  0  0  0  0
  4  5  1  0  0  0  0
  4 16  2  0  0  0  0
  5  6  1  0  0  0  0
  5 22  1  0  0  0  0
  6  7  2  0  0  0  0
  6  8  1  0  0  0  0
  8  9  1  0  0  0  0
  8 23  1  0  0  0  0
  9 10  1  0  0  0  0
  9 24  1  0  0  0  0
  9 25  1  0  0  0  0
 10 11  1  0  0  0  0
 10 26  1  0  0  0  0
 10 27  1  0  0  0  0
 11 15  1  0  0  0  0
 11 12  1  0  0  0  0
 11 28  1  0  0  0  0
 12 13  1  0  0  0  0
 12 29  1  0  0  0  0
 12 30  1  0  0  0  0
 13 14  1  0  0  0  0
 13 31  1  0  0  0  0
 13 32  1  0  0  0  0
 14 15  1  0  0  0  0
 14 33  1  0  0  0  0
 14 34  1  0  0  0  0
 16 17  1  0  0  0  0
M  END
> <s_m_source_file>
AV-unprocessed.smi

> <i_m_source_file_index>
1655

> <i_lp_mmshare_version>
43012

> <i_f3d_flags>
0

> <s_epik_input>
W0NIM11jMVtjSF1jKG5vMSlbTkhdQyg9TylbTkhdW0NIMl1bQ0gyXVtDQEBIXTJbQ0gyXVtDSDJdW0NIMl1PMg==

> <s_epik_cmdline>
J2VwaWtfcHl0aG9uJywgJy1waCcsICc3LjAnLCAnLXRuJywgJzgnLCAnLW1hJywgJzIwMCcsICctbWV0YWxfYmluZGluZycsICctaW1hZScsICc8aW5maWxlLm1hZT4nLCAnLW9tYWUnLCAnPG91dGZpbGUubWFlPic=

> <r_lp_tautomer_probability>
1

> <r_epik_Ionization_Penalty>
2.23964e-05

> <r_epik_Ionization_Penalty_Charging>
0

> <r_epik_Ionization_Penalty_Neutral>
2.23964e-05

> <r_epik_State_Penalty>
-0

> <r_epik_Charging_Adjusted_Penalty>
0

> <i_epik_Tot_Q>
0

> <i_epik_Tot_abs_Q>
0

> <r_epik_Metal_State_Penalty>
-0

> <b_epik_Metal_Only>
0

> <s_lp_Force_Field>
OPLS_2005

> <r_lp_Energy>
15.5425

> <b_lp_Chiralities_Consistent>
1

> <s_lp_Variant>
AV-unprocessed.smi:1655-1

> <Gold.Version>
5.8.1

> <Gold.Id.Protein>
6NUR|6NUR_protein|mol2

> <Gold.PLP.Fitness>
34.1065

> <Gold.PLP.PLP>
-27.6260

> <Gold.PLP.part.hbond>
-3.8558

> <Gold.PLP.part.metal>
0.0000

> <Gold.PLP.part.buried>
-4.3056

> <Gold.PLP.part.nonpolar>
-20.6318

> <Gold.PLP.part.repulsive>
0.4933

> <Gold.PLP.ligand.clash>
0.0000

> <Gold.PLP.ligand.torsion>
0.8943

> <Gold.PLP.Chemscore.Hbond>
2.7520

> <Gold.PLP.Chemscore.CHOScore>
0.0000

> <Gold.PLP.Chemscore.Metal>
0.0000

> <Gold.Chemscore.Hbonds>
donor molecule, donor type, donor heavy atom, donor atom, acceptor molecule, acceptor atom, score
      L1  H     5    22       P1  7957  1.00
      L1  H     8    23       P1  7957  0.75
      P1  H  7989  7998       L1    16  1.00

> <Gold.PLP.Chemscore.Internal.Correction>
0.0131

> <Gold.Rescore>
     Score         DG    S(hbond)    S(metal)    S(lipo)     H(rot)  DE(clash)    DE(int)     intcor
     14.40     -16.65       2.78        0.00      50.00       1.55       0.29       1.97       ----

> <Gold.Chemscore.Fitness>
14.3995

> <Gold.Chemscore.DG>
-16.6529

> <Gold.Chemscore.ZeroCoef>
-5.4800

> <Gold.Chemscore.Hbond>
2.7819

> <Gold.Chemscore.Metal>
0.0000

> <Gold.Chemscore.Lipo>
49.9992

> <Gold.Chemscore.Internal_Hbond>
0.0000

> <Gold.Chemscore.DEClash>
0.2860

> <Gold.Chemscore.DEInternal>
1.9673

> <Gold.Chemscore.Rot>
1.5503

> <Gold.Chemscore.Internal.Correction>
   9.000000E+99

> <Gold.Chemscore.Hbonds>
donor molecule, donor type, donor heavy atom, donor atom, acceptor molecule, acceptor atom, score
      L1  H     5    22       P1  7957  0.93
      L1  H     8    23       P1  7957  0.48
      P1  H  7989  7998       L1    16  0.36

> <Gold.Chemscore.Hbond.Weighted>
-9.2917

> <Gold.Chemscore.Metal.Weighted>
-0.0000

> <Gold.Chemscore.Lipo.Weighted>
-5.8499

> <Gold.Chemscore.Internal_Hbond.Weighted>
0.0000

> <Gold.Chemscore.DEClash.Weighted>
0.2860

> <Gold.Chemscore.DEInternal.Weighted>
1.9673

> <Gold.Chemscore.Rot.Weighted>
3.9687

> <Gold.Chemscore.Internal.Correction.Weighted>
   9.000000E+99

> <Gold.Protein.RotatedTorsions>
[ 6907 6896 6895 6894 ] final  -32.20 input  -60.11 | X-H torsion
[ 7974 7965 7964 7962 ] final   79.83 input  175.53 | X-H torsion
[ 8008 7997 7996 7995 ] final  -39.83 input   59.86 | X-H torsion
[ 10167 10162 10161 10158 ] final  -51.43 input  -65.29 | X-H torsion
[ 10718 10713 10712 10709 ] final  -32.78 input   66.30 | X-H torsion
[ 10763 10752 10751 10750 ] final   84.17 input  -60.55 | X-H torsion
[ 11005 11000 10999 10996 ] final -175.24 input  -57.11 | X-H torsion

> <Gold.Protein.ActiveResidues>
 VAL166  LYS551  ARG553  GLY616  TRP617  ASP618  TYR619  PRO620  LYS621  CYS622 
 ASP623  PHE694  ASN695  SER759  ASP760  ASP761  ALA762  ILE779  LEU786  VAL792 
 PHE793  MET794  SER795  GLU796  ALA797  LYS798  CYS799  TRP800  GLU811  SER814 

> <Gold.Protein.RotatedAtoms>
  151.0819  134.9863  159.8359 H   0  0  0  0  0  0  0  0  0  0  0  0  # atno 6907 bound_to 6896
  152.5420  134.2171  159.8783 H   0  0  0  0  0  0  0  0  0  0  0  0  # atno 6908 bound_to 6896
  151.2202  133.4463  159.2634 H   0  0  0  0  0  0  0  0  0  0  0  0  # atno 6909 bound_to 6896
  145.6591  139.2467  143.1933 H   0  0  0  0  0  0  0  0  0  0  0  0  # atno 7974 bound_to 7965
  154.4018  140.1541  156.2927 H   0  0  0  0  0  0  0  0  0  0  0  0  # atno 8008 bound_to 7997
  155.8771  140.3446  155.5840 H   0  0  0  0  0  0  0  0  0  0  0  0  # atno 8009 bound_to 7997
  155.7709  140.0830  157.2099 H   0  0  0  0  0  0  0  0  0  0  0  0  # atno 8010 bound_to 7997
  140.6588  143.2620  151.4503 H   0  0  0  0  0  0  0  0  0  0  0  0  # atno 10167 bound_to 10162
  156.3706  130.4339  149.7548 H   0  0  0  0  0  0  0  0  0  0  0  0  # atno 10718 bound_to 10713
  153.1357  135.4664  154.9418 H   0  0  0  0  0  0  0  0  0  0  0  0  # atno 10763 bound_to 10752
  154.7704  135.3157  154.8204 H   0  0  0  0  0  0  0  0  0  0  0  0  # atno 10764 bound_to 10752
  153.8737  135.6901  153.4826 H   0  0  0  0  0  0  0  0  0  0  0  0  # atno 10765 bound_to 10752
  140.4655  134.6215  157.4860 H   0  0  0  0  0  0  0  0  0  0  0  0  # atno 11005 bound_to 11000
  146.1140  140.7392  142.9489 LP  0  0  0  0  0  0  0  0  0  0  0  0  # atno 17320 bound_to 7965
  144.7095  140.3985  143.7091 LP  0  0  0  0  0  0  0  0  0  0  0  0  # atno 17321 bound_to 7965
  139.5817  144.1694  152.1977 LP  0  0  0  0  0  0  0  0  0  0  0  0  # atno 17342 bound_to 10162
  140.1022  144.5530  150.6981 LP  0  0  0  0  0  0  0  0  0  0  0  0  # atno 17343 bound_to 10162
  156.4677  130.7981  151.3000 LP  0  0  0  0  0  0  0  0  0  0  0  0  # atno 17370 bound_to 10713
  157.7483  131.0046  150.3081 LP  0  0  0  0  0  0  0  0  0  0  0  0  # atno 17371 bound_to 10713
  139.9918  134.6973  155.9676 LP  0  0  0  0  0  0  0  0  0  0  0  0  # atno 17394 bound_to 11000
  141.1601  133.6539  156.4292 LP  0  0  0  0  0  0  0  0  0  0  0  0  # atno 17395 bound_to 11000

$$$$
