AV-unprocessed.smi:1609|AV-procd|sdf|6469|dock2
  -GOLD-   22720 7123D 1   1.00000     0.00000
 Structure written by MMmdl.
 40 41  0  0  0  0  0  0  0  0  3 V2000
  151.2489  140.3767  156.7966 O   0  0  0  0  0  0  0  0  0  0  0  0
  150.6568  141.2874  156.2156 C   0  0  0  0  0  0  0  0  0  0  0  0
  149.6807  140.9898  155.0681 C   0  0  0  0  0  0  0  0  0  0  0  0
  148.3114  141.4727  155.3188 N   0  0  0  0  0  0  0  0  0  0  0  0
  147.6879  142.1829  154.2761 C   0  0  0  0  0  0  0  0  0  0  0  0
  146.4441  142.6686  154.3941 C   0  0  0  0  0  0  0  0  0  0  0  0
  145.7369  142.4405  155.6304 C   0  0  0  0  0  0  0  0  0  0  0  0
  146.3167  141.7645  156.6491 C   0  0  0  0  0  0  0  0  0  0  0  0
  145.5475  141.5639  157.8563 N   0  3  0  0  0  0  0  0  0  0  0  0
  144.3288  141.7023  157.8130 O   0  0  0  0  0  0  0  0  0  0  0  0
  146.1438  141.2767  158.8903 O   0  5  0  0  0  0  0  0  0  0  0  0
  147.6953  141.2466  156.5209 C   0  0  0  0  0  0  0  0  0  0  0  0
  148.2740  140.6514  157.4320 O   0  0  0  0  0  0  0  0  0  0  0  0
  150.8029  142.5824  156.5358 N   0  0  0  0  0  0  0  0  0  0  0  0
  151.6737  143.1091  157.5844 C   0  0  0  0  0  0  0  0  0  0  0  0
  151.4892  142.2531  158.8549 C   0  0  0  0  0  0  0  0  0  0  0  0
  152.5745  142.4974  159.9167 C   0  0  0  0  0  0  0  0  0  0  0  0
  152.2940  143.6468  160.9006 C   0  0  0  0  0  0  0  0  0  0  0  0
  151.6803  144.9261  160.3055 C   0  0  0  0  0  0  0  0  0  0  0  0
  152.1750  145.3016  158.8995 C   0  0  0  0  0  0  0  0  0  0  0  0
  151.3742  144.6100  157.7825 C   0  0  0  0  0  0  0  0  0  0  0  0
  150.0815  141.4364  154.1569 H   0  0  0  0  0  0  0  0  0  0  0  0
  149.6706  139.9153  154.8756 H   0  0  0  0  0  0  0  0  0  0  0  0
  148.2860  142.3151  153.3859 H   0  0  0  0  0  0  0  0  0  0  0  0
  145.9838  143.2168  153.5853 H   0  0  0  0  0  0  0  0  0  0  0  0
  144.7265  142.8112  155.7259 H   0  0  0  0  0  0  0  0  0  0  0  0
  150.2739  143.2604  156.0065 H   0  0  0  0  0  0  0  0  0  0  0  0
  152.7095  143.0009  157.2567 H   0  0  0  0  0  0  0  0  0  0  0  0
  150.4932  142.3867  159.2794 H   0  0  0  0  0  0  0  0  0  0  0  0
  151.5501  141.2028  158.5652 H   0  0  0  0  0  0  0  0  0  0  0  0
  152.7073  141.5861  160.5009 H   0  0  0  0  0  0  0  0  0  0  0  0
  153.5342  142.6616  159.4249 H   0  0  0  0  0  0  0  0  0  0  0  0
  151.6339  143.2893  161.6918 H   0  0  0  0  0  0  0  0  0  0  0  0
  153.2316  143.9006  161.3965 H   0  0  0  0  0  0  0  0  0  0  0  0
  150.5933  144.8380  160.2945 H   0  0  0  0  0  0  0  0  0  0  0  0
  151.8925  145.7491  160.9889 H   0  0  0  0  0  0  0  0  0  0  0  0
  152.0460  146.3776  158.7771 H   0  0  0  0  0  0  0  0  0  0  0  0
  153.2447  145.1172  158.7933 H   0  0  0  0  0  0  0  0  0  0  0  0
  151.5871  145.1292  156.8471 H   0  0  0  0  0  0  0  0  0  0  0  0
  150.3074  144.7544  157.9592 H   0  0  0  0  0  0  0  0  0  0  0  0
  1  2  2  0  0  0  0
  2  3  1  0  0  0  0
  2 14  1  0  0  0  0
  3  4  1  0  0  0  0
  3 22  1  0  0  0  0
  3 23  1  0  0  0  0
  4 12  1  0  0  0  0
  4  5  1  0  0  0  0
  5  6  2  0  0  0  0
  5 24  1  0  0  0  0
  6  7  1  0  0  0  0
  6 25  1  0  0  0  0
  7  8  2  0  0  0  0
  7 26  1  0  0  0  0
  8  9  1  0  0  0  0
  8 12  1  0  0  0  0
  9 10  2  0  0  0  0
  9 11  1  0  0  0  0
 12 13  2  0  0  0  0
 14 15  1  0  0  0  0
 14 27  1  0  0  0  0
 15 21  1  0  0  0  0
 15 16  1  0  0  0  0
 15 28  1  0  0  0  0
 16 17  1  0  0  0  0
 16 29  1  0  0  0  0
 16 30  1  0  0  0  0
 17 18  1  0  0  0  0
 17 31  1  0  0  0  0
 17 32  1  0  0  0  0
 18 19  1  0  0  0  0
 18 33  1  0  0  0  0
 18 34  1  0  0  0  0
 19 20  1  0  0  0  0
 19 35  1  0  0  0  0
 19 36  1  0  0  0  0
 20 21  1  0  0  0  0
 20 37  1  0  0  0  0
 20 38  1  0  0  0  0
 21 39  1  0  0  0  0
 21 40  1  0  0  0  0
M  CHG  1   9   1
M  CHG  1  11  -1
M  END
> <s_m_source_file>
AV-unprocessed.smi

> <i_m_source_file_index>
1609

> <i_lp_mmshare_version>
43012

> <i_f3d_flags>
0

> <s_epik_input>
W0NIMl0xW0NIMl1bQ0gyXVtDSDJdW0NIMl1bQ0gyXVtDSF0xW05IXUMoPU8pW0NIMl1uMltjSF1bY0hdW2NIXWMoW04rXSg9TylbTy1dKWMyPU8=

> <s_epik_cmdline>
J2VwaWtfcHl0aG9uJywgJy1waCcsICc3LjAnLCAnLXRuJywgJzgnLCAnLW1hJywgJzIwMCcsICctbWV0YWxfYmluZGluZycsICctaW1hZScsICc8aW5maWxlLm1hZT4nLCAnLW9tYWUnLCAnPG91dGZpbGUubWFlPic=

> <r_lp_tautomer_probability>
1

> <r_epik_Ionization_Penalty>
2.03564e-08

> <r_epik_Ionization_Penalty_Charging>
1.41597e-10

> <r_epik_Ionization_Penalty_Neutral>
2.02148e-08

> <r_epik_State_Penalty>
-0

> <r_epik_Charging_Adjusted_Penalty>
1.41597e-10

> <i_epik_Tot_Q>
0

> <i_epik_Tot_abs_Q>
2

> <r_epik_Metal_State_Penalty>
-0

> <b_epik_Metal_Only>
0

> <s_lp_Force_Field>
OPLS_2005

> <r_lp_Energy>
27.8729

> <b_lp_Chiralities_Consistent>
1

> <s_lp_Variant>
AV-unprocessed.smi:1609-1

> <Gold.Version>
5.8.1

> <Gold.Id.Protein>
6NUR|6NUR_protein|mol2

> <Gold.PLP.Fitness>
47.7803

> <Gold.PLP.PLP>
-43.6555

> <Gold.PLP.part.hbond>
-2.0000

> <Gold.PLP.part.metal>
0.0000

> <Gold.PLP.part.buried>
-4.5620

> <Gold.PLP.part.nonpolar>
-37.3723

> <Gold.PLP.part.repulsive>
0.1022

> <Gold.PLP.ligand.clash>
0.0035

> <Gold.PLP.ligand.torsion>
0.4329

> <Gold.PLP.Chemscore.Hbond>
1.6503

> <Gold.PLP.Chemscore.CHOScore>
0.0000

> <Gold.PLP.Chemscore.Metal>
0.0000

> <Gold.Chemscore.Hbonds>
donor molecule, donor type, donor heavy atom, donor atom, acceptor molecule, acceptor atom, score
      L1  H    14    27       P1  8028  0.98
      P1  H  6934  6946       L1    11  0.66

> <Gold.PLP.Chemscore.Internal.Correction>
0.0434

> <Gold.Rescore>
     Score         DG    S(hbond)    S(metal)    S(lipo)     H(rot)  DE(clash)    DE(int)     intcor
     14.33     -20.09       1.77        0.00     108.18       1.55       0.09       5.66       ----

> <Gold.Chemscore.Fitness>
14.3285

> <Gold.Chemscore.DG>
-20.0863

> <Gold.Chemscore.ZeroCoef>
-5.4800

> <Gold.Chemscore.Hbond>
1.7721

> <Gold.Chemscore.Metal>
0.0000

> <Gold.Chemscore.Lipo>
108.1754

> <Gold.Chemscore.Internal_Hbond>
0.0000

> <Gold.Chemscore.DEClash>
0.0941

> <Gold.Chemscore.DEInternal>
5.6637

> <Gold.Chemscore.Rot>
1.5505

> <Gold.Chemscore.Internal.Correction>
   9.000000E+99

> <Gold.Chemscore.Hbonds>
donor molecule, donor type, donor heavy atom, donor atom, acceptor molecule, acceptor atom, score
      L1  H    14    27       P1  8028  0.92
      P1  H  6934  6946       L1    11  0.63

> <Gold.Chemscore.Hbond.Weighted>
-5.9189

> <Gold.Chemscore.Metal.Weighted>
-0.0000

> <Gold.Chemscore.Lipo.Weighted>
-12.6565

> <Gold.Chemscore.Internal_Hbond.Weighted>
0.0000

> <Gold.Chemscore.DEClash.Weighted>
0.0941

> <Gold.Chemscore.DEInternal.Weighted>
5.6637

> <Gold.Chemscore.Rot.Weighted>
3.9692

> <Gold.Chemscore.Internal.Correction.Weighted>
   9.000000E+99

> <Gold.Protein.RotatedTorsions>
[ 6907 6896 6895 6894 ] final   30.97 input  -60.11 | X-H torsion
[ 7974 7965 7964 7962 ] final   -1.41 input  175.53 | X-H torsion
[ 8008 7997 7996 7995 ] final    9.40 input   59.86 | X-H torsion
[ 10167 10162 10161 10158 ] final -118.63 input  -65.29 | X-H torsion
[ 10718 10713 10712 10709 ] final  -91.97 input   66.30 | X-H torsion
[ 10763 10752 10751 10750 ] final  -56.27 input  -60.55 | X-H torsion
[ 11005 11000 10999 10996 ] final  -50.17 input  -57.11 | X-H torsion

> <Gold.Protein.ActiveResidues>
 VAL166  LYS551  ARG553  GLY616  TRP617  ASP618  TYR619  PRO620  LYS621  CYS622 
 ASP623  PHE694  ASN695  SER759  ASP760  ASP761  ALA762  ILE779  LEU786  VAL792 
 PHE793  MET794  SER795  GLU796  ALA797  LYS798  CYS799  TRP800  GLU811  SER814 

> <Gold.Protein.RotatedAtoms>
  152.0536  134.9638  160.0574 H   0  0  0  0  0  0  0  0  0  0  0  0  # atno 6907 bound_to 6896
  152.1030  133.4255  159.4604 H   0  0  0  0  0  0  0  0  0  0  0  0  # atno 6908 bound_to 6896
  150.6840  134.2657  159.4611 H   0  0  0  0  0  0  0  0  0  0  0  0  # atno 6909 bound_to 6896
  146.2417  140.1416  142.8335 H   0  0  0  0  0  0  0  0  0  0  0  0  # atno 7974 bound_to 7965
  154.7795  140.2816  155.6074 H   0  0  0  0  0  0  0  0  0  0  0  0  # atno 8008 bound_to 7997
  156.2947  140.2626  156.2545 H   0  0  0  0  0  0  0  0  0  0  0  0  # atno 8009 bound_to 7997
  154.9801  140.0375  157.2263 H   0  0  0  0  0  0  0  0  0  0  0  0  # atno 8010 bound_to 7997
  140.0554  143.5020  152.2060 H   0  0  0  0  0  0  0  0  0  0  0  0  # atno 10167 bound_to 10162
  155.9998  130.4969  150.5555 H   0  0  0  0  0  0  0  0  0  0  0  0  # atno 10718 bound_to 10713
  154.2039  135.6406  153.5095 H   0  0  0  0  0  0  0  0  0  0  0  0  # atno 10763 bound_to 10752
  153.0005  135.5458  154.6286 H   0  0  0  0  0  0  0  0  0  0  0  0  # atno 10764 bound_to 10752
  154.5706  135.2916  155.0804 H   0  0  0  0  0  0  0  0  0  0  0  0  # atno 10765 bound_to 10752
  141.0801  133.6655  156.3692 H   0  0  0  0  0  0  0  0  0  0  0  0  # atno 11005 bound_to 11000
  145.0242  140.8818  143.5149 LP  0  0  0  0  0  0  0  0  0  0  0  0  # atno 17320 bound_to 7965
  145.1470  139.2537  143.5461 LP  0  0  0  0  0  0  0  0  0  0  0  0  # atno 17321 bound_to 7965
  139.5927  144.7556  151.3361 LP  0  0  0  0  0  0  0  0  0  0  0  0  # atno 17342 bound_to 10162
  140.7197  143.7169  150.7726 LP  0  0  0  0  0  0  0  0  0  0  0  0  # atno 17343 bound_to 10162
  157.3472  131.0727  151.1742 LP  0  0  0  0  0  0  0  0  0  0  0  0  # atno 17370 bound_to 10713
  157.2571  130.6641  149.5957 LP  0  0  0  0  0  0  0  0  0  0  0  0  # atno 17371 bound_to 10713
  140.5488  134.6048  157.5401 LP  0  0  0  0  0  0  0  0  0  0  0  0  # atno 17394 bound_to 11000
  139.9614  134.7446  156.0229 LP  0  0  0  0  0  0  0  0  0  0  0  0  # atno 17395 bound_to 11000

$$$$
