AV-unprocessed.smi:113|AV-procd|sdf|1098|dock8
  -GOLD-   2262018203D 1   1.00000     0.00000
 Structure written by MMmdl.
 52 55  0  0  0  0  0  0  0  0  1 V2000
  152.7626  139.0261  159.7750 C   0  0  0  0  0  0  0  0  0  0  0  0
  152.3499  140.4008  159.2919 C   0  0  0  0  0  0  0  0  0  0  0  0
  151.7898  140.5750  158.0139 C   0  0  0  0  0  0  0  0  0  0  0  0
  151.4176  141.8744  157.5998 C   0  0  0  0  0  0  0  0  0  0  0  0
  150.7960  142.1188  156.2203 C   0  0  0  0  0  0  0  0  0  0  0  0
  150.3485  140.9465  155.4814 N   0  0  0  0  0  0  0  0  0  0  0  0
  151.3240  139.9905  155.1083 C   0  0  0  0  0  0  0  0  0  0  0  0
  152.5142  140.1388  155.3938 O   0  0  0  0  0  0  0  0  0  0  0  0
  150.8145  138.8432  154.3536 C   0  0  0  0  0  0  0  0  0  0  0  0
  151.8054  137.7747  153.9188 C   0  0  0  0  0  0  0  0  0  0  0  0
  149.4944  138.7625  154.0604 C   0  0  0  0  0  0  0  0  0  0  0  0
  148.5609  139.7179  154.4307 N   0  0  0  0  0  0  0  0  0  0  0  0
  147.0940  139.5920  154.0670 C   0  0  1  0  0  0  0  0  0  0  0  0
  146.8461  140.1030  152.6476 C   0  0  0  0  0  0  0  0  0  0  0  0
  147.0240  138.8382  151.8339 C   0  0  2  0  0  0  0  0  0  0  0  0
  146.3707  138.9295  150.5836 O   0  0  0  0  0  0  0  0  0  0  0  0
  146.4801  137.7471  152.7745 C   0  0  2  0  0  0  0  0  0  0  0  0
  144.9697  137.4558  152.6636 C   0  0  0  0  0  0  0  0  0  0  0  0
  144.6606  136.8848  151.4092 O   0  0  0  0  0  0  0  0  0  0  0  0
  146.7120  138.2471  154.0946 O   0  0  0  0  0  0  0  0  0  0  0  0
  148.9785  140.8587  155.1475 C   0  0  0  0  0  0  0  0  0  0  0  0
  148.1755  141.7450  155.4501 O   0  0  0  0  0  0  0  0  0  0  0  0
  151.6372  142.9493  158.5034 C   0  0  0  0  0  0  0  0  0  0  0  0
  151.2966  144.2815  158.1646 C   0  0  0  0  0  0  0  0  0  0  0  0
  151.5207  145.3311  159.0735 C   0  0  0  0  0  0  0  0  0  0  0  0
  152.0878  145.0608  160.3297 C   0  0  0  0  0  0  0  0  0  0  0  0
  152.4301  143.7406  160.6735 C   0  0  0  0  0  0  0  0  0  0  0  0
  152.2140  142.6714  159.7779 C   0  0  0  0  0  0  0  0  0  0  0  0
  152.5579  141.4188  160.1499 N   0  0  0  0  0  0  0  0  0  0  0  0
  152.2282  138.2454  159.2331 H   0  0  0  0  0  0  0  0  0  0  0  0
  152.5475  138.9058  160.8374 H   0  0  0  0  0  0  0  0  0  0  0  0
  153.8319  138.8793  159.6213 H   0  0  0  0  0  0  0  0  0  0  0  0
  151.6526  139.7160  157.3742 H   0  0  0  0  0  0  0  0  0  0  0  0
  149.9389  142.7883  156.3068 H   0  0  0  0  0  0  0  0  0  0  0  0
  151.4974  142.6606  155.5841 H   0  0  0  0  0  0  0  0  0  0  0  0
  151.3189  136.9658  153.3729 H   0  0  0  0  0  0  0  0  0  0  0  0
  152.3017  137.3390  154.7868 H   0  0  0  0  0  0  0  0  0  0  0  0
  152.5674  138.2048  153.2676 H   0  0  0  0  0  0  0  0  0  0  0  0
  149.1661  137.9020  153.4978 H   0  0  0  0  0  0  0  0  0  0  0  0
  146.5460  140.1379  154.8366 H   0  0  0  0  0  0  0  0  0  0  0  0
  145.8191  140.4669  152.5890 H   0  0  0  0  0  0  0  0  0  0  0  0
  147.5232  140.9119  152.3702 H   0  0  0  0  0  0  0  0  0  0  0  0
  148.0874  138.6690  151.6600 H   0  0  0  0  0  0  0  0  0  0  0  0
  145.9960  138.0861  150.3784 H   0  0  0  0  0  0  0  0  0  0  0  0
  147.0385  136.8180  152.6511 H   0  0  0  0  0  0  0  0  0  0  0  0
  144.6754  136.7357  153.4276 H   0  0  0  0  0  0  0  0  0  0  0  0
  144.3741  138.3545  152.8264 H   0  0  0  0  0  0  0  0  0  0  0  0
  144.1894  137.5241  150.8967 H   0  0  0  0  0  0  0  0  0  0  0  0
  150.8602  144.5237  157.2079 H   0  0  0  0  0  0  0  0  0  0  0  0
  151.2572  146.3438  158.8059 H   0  0  0  0  0  0  0  0  0  0  0  0
  152.2609  145.8648  161.0299 H   0  0  0  0  0  0  0  0  0  0  0  0
  152.8662  143.5458  161.6426 H   0  0  0  0  0  0  0  0  0  0  0  0
  1  2  1  0  0  0  0
  1 30  1  0  0  0  0
  1 31  1  0  0  0  0
  1 32  1  0  0  0  0
  2 29  1  0  0  0  0
  2  3  2  0  0  0  0
  3  4  1  0  0  0  0
  3 33  1  0  0  0  0
  4  5  1  0  0  0  0
  4 23  2  0  0  0  0
  5  6  1  0  0  0  0
  5 34  1  0  0  0  0
  5 35  1  0  0  0  0
  6 21  1  0  0  0  0
  6  7  1  0  0  0  0
  7  8  2  0  0  0  0
  7  9  1  0  0  0  0
  9 10  1  0  0  0  0
  9 11  2  0  0  0  0
 10 36  1  0  0  0  0
 10 37  1  0  0  0  0
 10 38  1  0  0  0  0
 11 12  1  0  0  0  0
 11 39  1  0  0  0  0
 12 13  1  0  0  0  0
 12 21  1  0  0  0  0
 13 20  1  0  0  0  0
 13 14  1  0  0  0  0
 13 40  1  0  0  0  0
 14 15  1  0  0  0  0
 14 41  1  0  0  0  0
 14 42  1  0  0  0  0
 15 16  1  0  0  0  0
 15 17  1  0  0  0  0
 15 43  1  0  0  0  0
 16 44  1  0  0  0  0
 17 18  1  0  0  0  0
 17 20  1  0  0  0  0
 17 45  1  0  0  0  0
 18 19  1  0  0  0  0
 18 46  1  0  0  0  0
 18 47  1  0  0  0  0
 19 48  1  0  0  0  0
 21 22  2  0  0  0  0
 23 28  1  0  0  0  0
 23 24  1  0  0  0  0
 24 25  2  0  0  0  0
 24 49  1  0  0  0  0
 25 26  1  0  0  0  0
 25 50  1  0  0  0  0
 26 27  2  0  0  0  0
 26 51  1  0  0  0  0
 27 28  1  0  0  0  0
 27 52  1  0  0  0  0
 28 29  2  0  0  0  0
M  END
> <s_m_source_file>
AV-unprocessed.smi

> <i_m_source_file_index>
113

> <i_lp_mmshare_version>
43012

> <i_f3d_flags>
0

> <s_epik_input>
W2NIXTFbY0hdW2NIXVtjSF1jKGMxMiluYyhbQ0gzXSlbY0hdYzJbQ0gyXW4zYyg9TyljKFtDSDNdKVtjSF1uKGMzPU8pW0NAQEhdNFtDSDJdW0NAQEhdKFtPSF0pW0NASF0oTzQpW0NIMl1bT0hd

> <s_epik_cmdline>
J2VwaWtfcHl0aG9uJywgJy1waCcsICc3LjAnLCAnLXRuJywgJzgnLCAnLW1hJywgJzIwMCcsICctbWV0YWxfYmluZGluZycsICctaW1hZScsICc8aW5maWxlLm1hZT4nLCAnLW9tYWUnLCAnPG91dGZpbGUubWFlPic=

> <r_lp_tautomer_probability>
1

> <r_epik_Ionization_Penalty>
0.214728

> <r_epik_Ionization_Penalty_Charging>
3.04883e-08

> <r_epik_Ionization_Penalty_Neutral>
0.214728

> <r_epik_State_Penalty>
0.204913

> <r_epik_Charging_Adjusted_Penalty>
0.204913

> <i_epik_Tot_Q>
0

> <i_epik_Tot_abs_Q>
0

> <r_epik_Metal_State_Penalty>
0.000244761

> <b_epik_Metal_Only>
0

> <s_epik_Chemistry_Notes>
This compound contains an acetal/aminal-like group ( X-CH(R)-Y where X, Y are N, S, or O) that may be acid/base labile, releasing an aldehyde.

> <s_lp_Force_Field>
OPLS_2005

> <r_lp_Energy>
41.6677

> <b_lp_Chiralities_Consistent>
1

> <s_lp_Variant>
AV-unprocessed.smi:113-8

> <Gold.Version>
5.8.1

> <Gold.Id.Protein>
6NUR|6NUR_protein|mol2

> <Gold.PLP.Fitness>
63.9864

> <Gold.PLP.PLP>
-56.6199

> <Gold.PLP.part.hbond>
-4.6611

> <Gold.PLP.part.metal>
0.0000

> <Gold.PLP.part.buried>
0.6218

> <Gold.PLP.part.nonpolar>
-53.0014

> <Gold.PLP.part.repulsive>
0.2378

> <Gold.PLP.ligand.clash>
0.0000

> <Gold.PLP.ligand.torsion>
0.8532

> <Gold.PLP.Chemscore.Hbond>
2.0191

> <Gold.PLP.Chemscore.CHOScore>
1.0000

> <Gold.PLP.Chemscore.Metal>
0.0000

> <Gold.Chemscore.Hbonds>
donor molecule, donor type, donor heavy atom, donor atom, acceptor molecule, acceptor atom, score
      L1  H    16    44       P1 10171  0.02
      L1  H    19    48       P1 10171  1.00
      P1  H  7997  8008       L1     8  1.00
      L1  C    11    39       P1  7948  1.00

> <Gold.PLP.Chemscore.Internal.Correction>
0.0158

> <Gold.Rescore>
     Score         DG    S(hbond)    S(metal)    S(lipo)     H(rot)  DE(clash)    DE(int)     intcor
     16.87     -21.58       1.95        0.00     146.54       2.95       0.62       4.09       ----

> <Gold.Chemscore.Fitness>
16.8673

> <Gold.Chemscore.DG>
-21.5830

> <Gold.Chemscore.ZeroCoef>
-5.4800

> <Gold.Chemscore.Hbond>
1.9468

> <Gold.Chemscore.Metal>
0.0000

> <Gold.Chemscore.Lipo>
146.5361

> <Gold.Chemscore.Internal_Hbond>
0.0000

> <Gold.Chemscore.DEClash>
0.6221

> <Gold.Chemscore.DEInternal>
4.0936

> <Gold.Chemscore.Rot>
2.9469

> <Gold.Chemscore.Internal.Correction>
   9.000000E+99

> <Gold.Chemscore.Hbonds>
donor molecule, donor type, donor heavy atom, donor atom, acceptor molecule, acceptor atom, score
      L1  H    16    44       P1 10171  0.04
      L1  H    19    48       P1 10171  0.95
      P1  H  7997  8008       L1     8  0.92

> <Gold.Chemscore.Hbond.Weighted>
-6.5022

> <Gold.Chemscore.Metal.Weighted>
-0.0000

> <Gold.Chemscore.Lipo.Weighted>
-17.1447

> <Gold.Chemscore.Internal_Hbond.Weighted>
0.0000

> <Gold.Chemscore.DEClash.Weighted>
0.6221

> <Gold.Chemscore.DEInternal.Weighted>
4.0936

> <Gold.Chemscore.Rot.Weighted>
7.5439

> <Gold.Chemscore.Internal.Correction.Weighted>
   9.000000E+99

> <Gold.Protein.RotatedTorsions>
[ 6907 6896 6895 6894 ] final  -26.81 input  -60.11 | X-H torsion
[ 7974 7965 7964 7962 ] final  -31.71 input  175.53 | X-H torsion
[ 8008 7997 7996 7995 ] final  -39.26 input   59.86 | X-H torsion
[ 10167 10162 10161 10158 ] final   52.42 input  -65.29 | X-H torsion
[ 10718 10713 10712 10709 ] final  158.89 input   66.30 | X-H torsion
[ 10763 10752 10751 10750 ] final  -10.95 input  -60.55 | X-H torsion
[ 11005 11000 10999 10996 ] final   67.76 input  -57.11 | X-H torsion

> <Gold.Protein.ActiveResidues>
 VAL166  LYS551  ARG553  GLY616  TRP617  ASP618  TYR619  PRO620  LYS621  CYS622 
 ASP623  PHE694  ASN695  SER759  ASP760  ASP761  ALA762  ILE779  LEU786  VAL792 
 PHE793  MET794  SER795  GLU796  ALA797  LYS798  CYS799  TRP800  GLU811  SER814 

> <Gold.Protein.RotatedAtoms>
  151.1557  135.0249  159.8687 H   0  0  0  0  0  0  0  0  0  0  0  0  # atno 6907 bound_to 6896
  152.5452  134.1337  159.8460 H   0  0  0  0  0  0  0  0  0  0  0  0  # atno 6908 bound_to 6896
  151.1427  133.4914  159.2629 H   0  0  0  0  0  0  0  0  0  0  0  0  # atno 6909 bound_to 6896
  146.1047  140.5701  142.8805 H   0  0  0  0  0  0  0  0  0  0  0  0  # atno 7974 bound_to 7965
  154.4025  140.1556  156.2834 H   0  0  0  0  0  0  0  0  0  0  0  0  # atno 8008 bound_to 7997
  155.8849  140.3442  155.5892 H   0  0  0  0  0  0  0  0  0  0  0  0  # atno 8009 bound_to 7997
  155.7625  140.0819  157.2139 H   0  0  0  0  0  0  0  0  0  0  0  0  # atno 8010 bound_to 7997
  140.2516  144.3473  150.6346 H   0  0  0  0  0  0  0  0  0  0  0  0  # atno 10167 bound_to 10162
  157.1717  131.0611  151.2179 H   0  0  0  0  0  0  0  0  0  0  0  0  # atno 10718 bound_to 10713
  153.4767  135.7017  153.5962 H   0  0  0  0  0  0  0  0  0  0  0  0  # atno 10763 bound_to 10752
  153.4192  135.3829  155.2101 H   0  0  0  0  0  0  0  0  0  0  0  0  # atno 10764 bound_to 10752
  154.8723  135.3923  154.4212 H   0  0  0  0  0  0  0  0  0  0  0  0  # atno 10765 bound_to 10752
  139.9751  134.6835  156.0369 H   0  0  0  0  0  0  0  0  0  0  0  0  # atno 11005 bound_to 11000
  144.7461  140.5070  143.6835 LP  0  0  0  0  0  0  0  0  0  0  0  0  # atno 17320 bound_to 7965
  145.5785  139.1487  143.3248 LP  0  0  0  0  0  0  0  0  0  0  0  0  # atno 17321 bound_to 7965
  140.6036  143.2167  151.7024 LP  0  0  0  0  0  0  0  0  0  0  0  0  # atno 17342 bound_to 10162
  139.5044  144.3754  152.0429 LP  0  0  0  0  0  0  0  0  0  0  0  0  # atno 17343 bound_to 10162
  157.4037  130.7347  149.6786 LP  0  0  0  0  0  0  0  0  0  0  0  0  # atno 17370 bound_to 10713
  155.9737  130.4114  150.3979 LP  0  0  0  0  0  0  0  0  0  0  0  0  # atno 17371 bound_to 10713
  141.1429  133.6561  156.3781 LP  0  0  0  0  0  0  0  0  0  0  0  0  # atno 17394 bound_to 11000
  140.5211  134.6303  157.5318 LP  0  0  0  0  0  0  0  0  0  0  0  0  # atno 17395 bound_to 11000

$$$$
