AV-unprocessed.smi:2797|AV-procd|sdf|10783|dock5
  -GOLD-   2272015213D 1   1.00000     0.00000
 Structure written by MMmdl.
 37 38  0  0  0  0  0  0  0  0  1 V2000
  147.0773  139.6744  152.6972 C   0  0  0  0  0  0  0  0  0  0  0  0
  146.6993  141.0440  152.7756 O   0  0  0  0  0  0  0  0  0  0  0  0
  147.1883  141.7957  153.8921 C   0  0  0  0  0  0  0  0  0  0  0  0
  148.7202  141.8853  153.8875 C   0  0  0  0  0  0  0  0  0  0  0  0
  149.2178  142.4459  155.1400 N   0  0  0  0  0  0  0  0  0  0  0  0
  150.2228  141.9493  155.8747 C   0  0  0  0  0  0  0  0  0  0  0  0
  150.8261  140.9143  155.5937 O   0  0  0  0  0  0  0  0  0  0  0  0
  150.4591  142.7194  156.9505 N   0  0  0  0  0  0  0  0  0  0  0  0
  151.4368  142.5523  157.9712 C   0  0  0  0  0  0  0  0  0  0  0  0
  152.4758  141.5926  157.9074 C   0  0  0  0  0  0  0  0  0  0  0  0
  153.4023  141.5268  158.9653 C   0  0  0  0  0  0  0  0  0  0  0  0
  153.3600  142.3395  160.0407 N   0  0  0  0  0  0  0  0  0  0  0  0
  152.3792  143.2667  160.0980 C   0  0  0  0  0  0  0  0  0  0  0  0
  152.3892  144.1575  161.3261 C   0  0  0  0  0  0  0  0  0  0  0  0
  151.3982  143.4180  159.0898 C   0  0  0  0  0  0  0  0  0  0  0  0
  150.1728  144.6349  159.2261 Cl  0  0  0  0  0  0  0  0  0  0  0  0
  146.3909  143.1141  153.9153 C   0  0  0  0  0  0  0  0  0  0  0  0
  145.3608  142.4427  154.8254 C   0  0  0  0  0  0  0  0  0  0  0  0
  146.4514  141.4388  155.2023 C   0  0  0  0  0  0  0  0  0  0  0  0
  146.6501  139.2441  151.7919 H   0  0  0  0  0  0  0  0  0  0  0  0
  146.7025  139.0923  153.5375 H   0  0  0  0  0  0  0  0  0  0  0  0
  148.1558  139.5410  152.6369 H   0  0  0  0  0  0  0  0  0  0  0  0
  149.1471  140.8864  153.7959 H   0  0  0  0  0  0  0  0  0  0  0  0
  149.0927  142.4325  153.0214 H   0  0  0  0  0  0  0  0  0  0  0  0
  148.7777  143.2972  155.4565 H   0  0  0  0  0  0  0  0  0  0  0  0
  149.8222  143.4899  157.0906 H   0  0  0  0  0  0  0  0  0  0  0  0
  152.5893  140.9207  157.0709 H   0  0  0  0  0  0  0  0  0  0  0  0
  154.2050  140.8046  158.9432 H   0  0  0  0  0  0  0  0  0  0  0  0
  151.4497  144.0634  161.8710 H   0  0  0  0  0  0  0  0  0  0  0  0
  152.5171  145.2005  161.0356 H   0  0  0  0  0  0  0  0  0  0  0  0
  153.2006  143.8947  162.0065 H   0  0  0  0  0  0  0  0  0  0  0  0
  146.9246  143.9226  154.4178 H   0  0  0  0  0  0  0  0  0  0  0  0
  146.0043  143.4368  152.9479 H   0  0  0  0  0  0  0  0  0  0  0  0
  145.0034  143.0619  155.6486 H   0  0  0  0  0  0  0  0  0  0  0  0
  144.5389  141.9867  154.2711 H   0  0  0  0  0  0  0  0  0  0  0  0
  146.0996  140.4135  155.3050 H   0  0  0  0  0  0  0  0  0  0  0  0
  147.0054  141.7482  156.0899 H   0  0  0  0  0  0  0  0  0  0  0  0
  1  2  1  0  0  0  0
  1 20  1  0  0  0  0
  1 21  1  0  0  0  0
  1 22  1  0  0  0  0
  2  3  1  0  0  0  0
  3 19  1  0  0  0  0
  3  4  1  0  0  0  0
  3 17  1  0  0  0  0
  4  5  1  0  0  0  0
  4 23  1  0  0  0  0
  4 24  1  0  0  0  0
  5  6  1  0  0  0  0
  5 25  1  0  0  0  0
  6  7  2  0  0  0  0
  6  8  1  0  0  0  0
  8  9  1  0  0  0  0
  8 26  1  0  0  0  0
  9 15  1  0  0  0  0
  9 10  2  0  0  0  0
 10 11  1  0  0  0  0
 10 27  1  0  0  0  0
 11 12  2  0  0  0  0
 11 28  1  0  0  0  0
 12 13  1  0  0  0  0
 13 14  1  0  0  0  0
 13 15  2  0  0  0  0
 14 29  1  0  0  0  0
 14 30  1  0  0  0  0
 14 31  1  0  0  0  0
 15 16  1  0  0  0  0
 17 18  1  0  0  0  0
 17 32  1  0  0  0  0
 17 33  1  0  0  0  0
 18 19  1  0  0  0  0
 18 34  1  0  0  0  0
 18 35  1  0  0  0  0
 19 36  1  0  0  0  0
 19 37  1  0  0  0  0
M  END
> <s_m_source_file>
AV-unprocessed.smi

> <i_m_source_file_index>
2797

> <i_lp_mmshare_version>
43012

> <i_f3d_flags>
0

> <s_epik_input>
W0NIMl0xW0NIMl1bQ0gyXUMxKE9bQ0gzXSlbQ0gyXVtOSF1DKD1PKVtOSF1jMltjSF1bY0hdbmMoW0NIM10pYzJDbA==

> <s_epik_cmdline>
J2VwaWtfcHl0aG9uJywgJy1waCcsICc3LjAnLCAnLXRuJywgJzgnLCAnLW1hJywgJzIwMCcsICctbWV0YWxfYmluZGluZycsICctaW1hZScsICc8aW5maWxlLm1hZT4nLCAnLW9tYWUnLCAnPG91dGZpbGUubWFlPic=

> <r_epik_Ionization_Penalty>
0.0099818

> <r_epik_Ionization_Penalty_Charging>
0

> <r_epik_Ionization_Penalty_Neutral>
0.0099818

> <r_epik_State_Penalty>
0.00758124

> <r_epik_Charging_Adjusted_Penalty>
0.00758124

> <i_epik_Tot_Q>
0

> <i_epik_Tot_abs_Q>
0

> <r_epik_Metal_State_Penalty>
0.00745574

> <b_epik_Metal_Only>
0

> <s_lp_Force_Field>
OPLS_2005

> <r_lp_Energy>
22.2651

> <b_lp_Chiralities_Consistent>
1

> <s_lp_Variant>
AV-unprocessed.smi:2797-1

> <Gold.Version>
5.8.1

> <Gold.Id.Protein>
6NUR|6NUR_protein|mol2

> <Gold.PLP.Fitness>
42.5982

> <Gold.PLP.PLP>
-39.4006

> <Gold.PLP.part.hbond>
-1.7672

> <Gold.PLP.part.metal>
0.0000

> <Gold.PLP.part.buried>
-5.2361

> <Gold.PLP.part.nonpolar>
-32.4919

> <Gold.PLP.part.repulsive>
0.4445

> <Gold.PLP.ligand.clash>
0.0000

> <Gold.PLP.ligand.torsion>
0.3418

> <Gold.PLP.Chemscore.Hbond>
1.2012

> <Gold.PLP.Chemscore.CHOScore>
0.0000

> <Gold.PLP.Chemscore.Metal>
0.0000

> <Gold.Chemscore.Hbonds>
donor molecule, donor type, donor heavy atom, donor atom, acceptor molecule, acceptor atom, score
      L1  H     5    25       P1  8028  0.72
      L1  H     8    26       P1  8028  0.50
      P1  H  7989  7998       L1     7  0.37

> <Gold.PLP.Chemscore.Internal.Correction>
0.2776

> <Gold.Rescore>
     Score         DG    S(hbond)    S(metal)    S(lipo)     H(rot)  DE(clash)    DE(int)     intcor
     17.26     -19.32       1.49        0.00     106.71       1.41       0.54       1.53       ----

> <Gold.Chemscore.Fitness>
17.2576

> <Gold.Chemscore.DG>
-19.3194

> <Gold.Chemscore.ZeroCoef>
-5.4800

> <Gold.Chemscore.Hbond>
1.4855

> <Gold.Chemscore.Metal>
0.0000

> <Gold.Chemscore.Lipo>
106.7109

> <Gold.Chemscore.Internal_Hbond>
0.0000

> <Gold.Chemscore.DEClash>
0.5367

> <Gold.Chemscore.DEInternal>
1.5251

> <Gold.Chemscore.Rot>
1.4092

> <Gold.Chemscore.Internal.Correction>
   9.000000E+99

> <Gold.Chemscore.Hbonds>
donor molecule, donor type, donor heavy atom, donor atom, acceptor molecule, acceptor atom, score
      L1  H     5    25       P1  8028  0.69
      L1  H     8    26       P1  8028  0.48
      P1  H  7989  7998       L1     7  0.31

> <Gold.Chemscore.Hbond.Weighted>
-4.9617

> <Gold.Chemscore.Metal.Weighted>
-0.0000

> <Gold.Chemscore.Lipo.Weighted>
-12.4852

> <Gold.Chemscore.Internal_Hbond.Weighted>
0.0000

> <Gold.Chemscore.DEClash.Weighted>
0.5367

> <Gold.Chemscore.DEInternal.Weighted>
1.5251

> <Gold.Chemscore.Rot.Weighted>
3.6075

> <Gold.Chemscore.Internal.Correction.Weighted>
   9.000000E+99

> <Gold.Protein.RotatedTorsions>
[ 6907 6896 6895 6894 ] final  -27.30 input  -60.11 | X-H torsion
[ 7974 7965 7964 7962 ] final   82.20 input  175.53 | X-H torsion
[ 8008 7997 7996 7995 ] final   49.24 input   59.86 | X-H torsion
[ 10167 10162 10161 10158 ] final  114.37 input  -65.29 | X-H torsion
[ 10718 10713 10712 10709 ] final -172.89 input   66.30 | X-H torsion
[ 10763 10752 10751 10750 ] final  178.40 input  -60.55 | X-H torsion
[ 11005 11000 10999 10996 ] final -127.39 input  -57.11 | X-H torsion

> <Gold.Protein.ActiveResidues>
 VAL166  LYS551  ARG553  GLY616  TRP617  ASP618  TYR619  PRO620  LYS621  CYS622 
 ASP623  PHE694  ASN695  SER759  ASP760  ASP761  ALA762  ILE779  LEU786  VAL792 
 PHE793  MET794  SER795  GLU796  ALA797  LYS798  CYS799  TRP800  GLU811  SER814 

> <Gold.Protein.RotatedAtoms>
  151.1488  135.0217  159.8658 H   0  0  0  0  0  0  0  0  0  0  0  0  # atno 6907 bound_to 6896
  152.5453  134.1412  159.8490 H   0  0  0  0  0  0  0  0  0  0  0  0  # atno 6908 bound_to 6896
  151.1496  133.4871  159.2628 H   0  0  0  0  0  0  0  0  0  0  0  0  # atno 6909 bound_to 6896
  145.6282  139.2399  143.2099 H   0  0  0  0  0  0  0  0  0  0  0  0  # atno 7974 bound_to 7965
  155.3989  140.3437  155.4256 H   0  0  0  0  0  0  0  0  0  0  0  0  # atno 8008 bound_to 7997
  156.1515  140.1572  156.8794 H   0  0  0  0  0  0  0  0  0  0  0  0  # atno 8009 bound_to 7997
  154.5057  140.0803  156.7870 H   0  0  0  0  0  0  0  0  0  0  0  0  # atno 8010 bound_to 7997
  139.6393  144.7122  151.2269 H   0  0  0  0  0  0  0  0  0  0  0  0  # atno 10167 bound_to 10162
  156.7622  130.9418  151.3118 H   0  0  0  0  0  0  0  0  0  0  0  0  # atno 10718 bound_to 10713
  154.5072  135.2786  155.1372 H   0  0  0  0  0  0  0  0  0  0  0  0  # atno 10763 bound_to 10752
  154.2982  135.6253  153.5417 H   0  0  0  0  0  0  0  0  0  0  0  0  # atno 10764 bound_to 10752
  152.9912  135.5690  154.5529 H   0  0  0  0  0  0  0  0  0  0  0  0  # atno 10765 bound_to 10752
  140.9603  134.0945  157.3975 H   0  0  0  0  0  0  0  0  0  0  0  0  # atno 11005 bound_to 11000
  146.1377  140.7100  142.9382 LP  0  0  0  0  0  0  0  0  0  0  0  0  # atno 17320 bound_to 7965
  144.7204  140.4353  143.7012 LP  0  0  0  0  0  0  0  0  0  0  0  0  # atno 17321 bound_to 7965
  140.7482  143.6340  150.8396 LP  0  0  0  0  0  0  0  0  0  0  0  0  # atno 17342 bound_to 10162
  139.9975  143.5780  152.2888 LP  0  0  0  0  0  0  0  0  0  0  0  0  # atno 17343 bound_to 10162
  157.6729  130.9068  150.0082 LP  0  0  0  0  0  0  0  0  0  0  0  0  # atno 17370 bound_to 10713
  156.1331  130.3643  149.9699 LP  0  0  0  0  0  0  0  0  0  0  0  0  # atno 17371 bound_to 10713
  139.8876  135.0091  156.6569 LP  0  0  0  0  0  0  0  0  0  0  0  0  # atno 17394 bound_to 11000
  140.7477  133.8924  155.8324 LP  0  0  0  0  0  0  0  0  0  0  0  0  # atno 17395 bound_to 11000

$$$$
