AV-unprocessed.smi:1101|AV-procd|sdf|4765|dock2
  -GOLD-   22720 3303D 1   1.00000     0.00000
 Structure written by MMmdl.
 41 42  0  0  0  0  0  0  0  0  1 V2000
  145.2992  143.0567  154.1635 C   0  0  0  0  0  0  0  0  0  0  0  0
  145.5619  142.1149  155.3452 C   0  0  0  0  0  0  0  0  0  0  0  0
  146.8217  141.2549  155.1578 C   0  0  2  0  0  0  0  0  0  0  0  0
  148.0647  142.1100  154.8352 C   0  0  0  0  0  0  0  0  0  0  0  0
  149.2072  141.2064  154.6349 N   0  0  0  0  0  0  0  0  0  0  0  0
  150.2674  141.0424  155.4646 C   0  0  0  0  0  0  0  0  0  0  0  0
  151.2643  140.3827  155.1674 O   0  0  0  0  0  0  0  0  0  0  0  0
  150.1653  141.6903  156.6349 N   0  0  0  0  0  0  0  0  0  0  0  0
  151.1893  141.7141  157.6716 C   0  0  0  0  0  0  0  0  0  0  0  0
  151.6579  143.1501  157.9576 C   0  0  0  0  0  0  0  0  0  0  0  0
  151.9767  143.3732  159.4127 C   0  0  0  0  0  0  0  0  0  0  0  0
  151.5955  144.4742  160.2317 C   0  0  0  0  0  0  0  0  0  0  0  0
  152.0255  144.3619  161.4778 N   0  0  0  0  0  0  0  0  0  0  0  0
  152.6948  143.1911  161.4979 N   0  0  0  0  0  0  0  0  0  0  0  0
  153.3099  142.7427  162.7288 C   0  0  0  0  0  0  0  0  0  0  0  0
  152.6842  142.5735  160.2658 C   0  0  0  0  0  0  0  0  0  0  0  0
  148.9497  140.3152  153.5018 C   0  0  0  0  0  0  0  0  0  0  0  0
  147.6981  139.4799  153.8217 C   0  0  0  0  0  0  0  0  0  0  0  0
  146.5969  140.3493  154.0764 O   0  0  0  0  0  0  0  0  0  0  0  0
  144.3941  143.6416  154.3280 H   0  0  0  0  0  0  0  0  0  0  0  0
  145.1709  142.4988  153.2358 H   0  0  0  0  0  0  0  0  0  0  0  0
  146.1240  143.7558  154.0233 H   0  0  0  0  0  0  0  0  0  0  0  0
  145.6467  142.6968  156.2636 H   0  0  0  0  0  0  0  0  0  0  0  0
  144.6956  141.4649  155.4727 H   0  0  0  0  0  0  0  0  0  0  0  0
  147.0011  140.6856  156.0721 H   0  0  0  0  0  0  0  0  0  0  0  0
  147.8994  142.6844  153.9223 H   0  0  0  0  0  0  0  0  0  0  0  0
  148.2192  142.8497  155.6208 H   0  0  0  0  0  0  0  0  0  0  0  0
  149.3263  142.2238  156.8101 H   0  0  0  0  0  0  0  0  0  0  0  0
  150.8017  141.2573  158.5834 H   0  0  0  0  0  0  0  0  0  0  0  0
  152.0370  141.1090  157.3456 H   0  0  0  0  0  0  0  0  0  0  0  0
  152.5317  143.3641  157.3409 H   0  0  0  0  0  0  0  0  0  0  0  0
  150.8882  143.8465  157.6237 H   0  0  0  0  0  0  0  0  0  0  0  0
  151.0171  145.3445  159.9585 H   0  0  0  0  0  0  0  0  0  0  0  0
  153.7457  141.7526  162.5905 H   0  0  0  0  0  0  0  0  0  0  0  0
  152.5608  142.6925  163.5196 H   0  0  0  0  0  0  0  0  0  0  0  0
  154.0962  143.4390  163.0226 H   0  0  0  0  0  0  0  0  0  0  0  0
  153.1712  141.6238  160.0998 H   0  0  0  0  0  0  0  0  0  0  0  0
  148.7860  140.9097  152.6019 H   0  0  0  0  0  0  0  0  0  0  0  0
  149.7910  139.6576  153.2787 H   0  0  0  0  0  0  0  0  0  0  0  0
  147.4500  138.8326  152.9803 H   0  0  0  0  0  0  0  0  0  0  0  0
  147.8703  138.8336  154.6838 H   0  0  0  0  0  0  0  0  0  0  0  0
  1  2  1  0  0  0  0
  1 20  1  0  0  0  0
  1 21  1  0  0  0  0
  1 22  1  0  0  0  0
  2  3  1  0  0  0  0
  2 23  1  0  0  0  0
  2 24  1  0  0  0  0
  3 19  1  0  0  0  0
  3  4  1  0  0  0  0
  3 25  1  0  0  0  0
  4  5  1  0  0  0  0
  4 26  1  0  0  0  0
  4 27  1  0  0  0  0
  5  6  1  0  0  0  0
  5 17  1  0  0  0  0
  6  7  2  0  0  0  0
  6  8  1  0  0  0  0
  8  9  1  0  0  0  0
  8 28  1  0  0  0  0
  9 10  1  0  0  0  0
  9 29  1  0  0  0  0
  9 30  1  0  0  0  0
 10 11  1  0  0  0  0
 10 31  1  0  0  0  0
 10 32  1  0  0  0  0
 11 16  2  0  0  0  0
 11 12  1  0  0  0  0
 12 13  2  0  0  0  0
 12 33  1  0  0  0  0
 13 14  1  0  0  0  0
 14 15  1  0  0  0  0
 14 16  1  0  0  0  0
 15 34  1  0  0  0  0
 15 35  1  0  0  0  0
 15 36  1  0  0  0  0
 16 37  1  0  0  0  0
 17 18  1  0  0  0  0
 17 38  1  0  0  0  0
 17 39  1  0  0  0  0
 18 19  1  0  0  0  0
 18 40  1  0  0  0  0
 18 41  1  0  0  0  0
M  END
> <s_m_source_file>
AV-unprocessed.smi

> <i_m_source_file_index>
1101

> <i_lp_mmshare_version>
43012

> <i_f3d_flags>
0

> <s_epik_input>
W0NIM11bQ0gyXVtDQEBIXTFbQ0gyXU4oW0NIMl1bQ0gyXU8xKUMoPU8pW05IXVtDSDJdW0NIMl1jMltjSF1ubihbQ0gzXSlbY0hdMg==

> <s_epik_cmdline>
J2VwaWtfcHl0aG9uJywgJy1waCcsICc3LjAnLCAnLXRuJywgJzgnLCAnLW1hJywgJzIwMCcsICctbWV0YWxfYmluZGluZycsICctaW1hZScsICc8aW5maWxlLm1hZT4nLCAnLW9tYWUnLCAnPG91dGZpbGUubWFlPic=

> <r_lp_tautomer_probability>
1

> <r_epik_Ionization_Penalty>
0.000536373

> <r_epik_Ionization_Penalty_Charging>
0

> <r_epik_Ionization_Penalty_Neutral>
0.000536373

> <r_epik_State_Penalty>
-0

> <r_epik_Charging_Adjusted_Penalty>
0

> <i_epik_Tot_Q>
0

> <i_epik_Tot_abs_Q>
0

> <r_epik_Metal_State_Penalty>
-0

> <b_epik_Metal_Only>
0

> <s_lp_Force_Field>
OPLS_2005

> <r_lp_Energy>
25.5817

> <b_lp_Chiralities_Consistent>
1

> <s_lp_Variant>
AV-unprocessed.smi:1101-1

> <Gold.Version>
5.8.1

> <Gold.Id.Protein>
6NUR|6NUR_protein|mol2

> <Gold.PLP.Fitness>
43.8293

> <Gold.PLP.PLP>
-41.8366

> <Gold.PLP.part.hbond>
-1.0000

> <Gold.PLP.part.metal>
0.0000

> <Gold.PLP.part.buried>
0.9081

> <Gold.PLP.part.nonpolar>
-42.1736

> <Gold.PLP.part.repulsive>
0.4020

> <Gold.PLP.ligand.clash>
0.0000

> <Gold.PLP.ligand.torsion>
0.5401

> <Gold.PLP.Chemscore.Hbond>
1.0000

> <Gold.PLP.Chemscore.CHOScore>
0.0000

> <Gold.PLP.Chemscore.Metal>
0.0000

> <Gold.Chemscore.Hbonds>
donor molecule, donor type, donor heavy atom, donor atom, acceptor molecule, acceptor atom, score
      P1  H  7989  7998       L1     7  0.99

> <Gold.PLP.Chemscore.Internal.Correction>
0.0728

> <Gold.Rescore>
     Score         DG    S(hbond)    S(metal)    S(lipo)     H(rot)  DE(clash)    DE(int)     intcor
     12.30     -15.71       0.86        0.00      95.80       1.51       3.01       0.40       ----

> <Gold.Chemscore.Fitness>
12.3039

> <Gold.Chemscore.DG>
-15.7143

> <Gold.Chemscore.ZeroCoef>
-5.4800

> <Gold.Chemscore.Hbond>
0.8628

> <Gold.Chemscore.Metal>
0.0000

> <Gold.Chemscore.Lipo>
95.7980

> <Gold.Chemscore.Internal_Hbond>
0.0000

> <Gold.Chemscore.DEClash>
3.0057

> <Gold.Chemscore.DEInternal>
0.4046

> <Gold.Chemscore.Rot>
1.5062

> <Gold.Chemscore.Internal.Correction>
   9.000000E+99

> <Gold.Chemscore.Hbonds>
donor molecule, donor type, donor heavy atom, donor atom, acceptor molecule, acceptor atom, score
      P1  H  7989  7998       L1     7  0.42

> <Gold.Chemscore.Hbond.Weighted>
-2.8817

> <Gold.Chemscore.Metal.Weighted>
-0.0000

> <Gold.Chemscore.Lipo.Weighted>
-11.2084

> <Gold.Chemscore.Internal_Hbond.Weighted>
0.0000

> <Gold.Chemscore.DEClash.Weighted>
3.0057

> <Gold.Chemscore.DEInternal.Weighted>
0.4046

> <Gold.Chemscore.Rot.Weighted>
3.8558

> <Gold.Chemscore.Internal.Correction.Weighted>
   9.000000E+99

> <Gold.Protein.RotatedTorsions>
[ 6907 6896 6895 6894 ] final   65.50 input  -60.11 | X-H torsion
[ 7974 7965 7964 7962 ] final    6.97 input  175.53 | X-H torsion
[ 8008 7997 7996 7995 ] final  -40.65 input   59.86 | X-H torsion
[ 10167 10162 10161 10158 ] final   99.36 input  -65.29 | X-H torsion
[ 10718 10713 10712 10709 ] final  -95.80 input   66.30 | X-H torsion
[ 10763 10752 10751 10750 ] final  -82.07 input  -60.55 | X-H torsion
[ 11005 11000 10999 10996 ] final -154.88 input  -57.11 | X-H torsion

> <Gold.Protein.ActiveResidues>
 VAL166  LYS551  ARG553  GLY616  TRP617  ASP618  TYR619  PRO620  LYS621  CYS622 
 ASP623  PHE694  ASN695  SER759  ASP760  ASP761  ALA762  ILE779  LEU786  VAL792 
 PHE793  MET794  SER795  GLU796  ALA797  LYS798  CYS799  TRP800  GLU811  SER814 

> <Gold.Protein.RotatedAtoms>
  152.4412  134.5586  159.9887 H   0  0  0  0  0  0  0  0  0  0  0  0  # atno 6907 bound_to 6896
  151.5683  133.3387  159.2992 H   0  0  0  0  0  0  0  0  0  0  0  0  # atno 6908 bound_to 6896
  150.8319  134.7609  159.6924 H   0  0  0  0  0  0  0  0  0  0  0  0  # atno 6909 bound_to 6896
  146.2430  140.0153  142.8403 H   0  0  0  0  0  0  0  0  0  0  0  0  # atno 7974 bound_to 7965
  154.4010  140.1520  156.3062 H   0  0  0  0  0  0  0  0  0  0  0  0  # atno 8008 bound_to 7997
  155.8656  140.3451  155.5764 H   0  0  0  0  0  0  0  0  0  0  0  0  # atno 8009 bound_to 7997
  155.7831  140.0846  157.2039 H   0  0  0  0  0  0  0  0  0  0  0  0  # atno 8010 bound_to 7997
  139.7624  144.6950  151.0273 H   0  0  0  0  0  0  0  0  0  0  0  0  # atno 10167 bound_to 10162
  156.0050  130.5124  150.6131 H   0  0  0  0  0  0  0  0  0  0  0  0  # atno 10718 bound_to 10713
  154.5713  135.5604  153.7097 H   0  0  0  0  0  0  0  0  0  0  0  0  # atno 10763 bound_to 10752
  153.0049  135.6297  154.2111 H   0  0  0  0  0  0  0  0  0  0  0  0  # atno 10764 bound_to 10752
  154.2050  135.2876  155.2957 H   0  0  0  0  0  0  0  0  0  0  0  0  # atno 10765 bound_to 10752
  140.6926  134.4025  157.5218 H   0  0  0  0  0  0  0  0  0  0  0  0  # atno 11005 bound_to 11000
  145.1290  140.9507  143.4555 LP  0  0  0  0  0  0  0  0  0  0  0  0  # atno 17320 bound_to 7965
  145.0406  139.3263  143.5978 LP  0  0  0  0  0  0  0  0  0  0  0  0  # atno 17321 bound_to 7965
  140.7808  143.4681  151.0184 LP  0  0  0  0  0  0  0  0  0  0  0  0  # atno 17342 bound_to 10162
  139.8367  143.7618  152.3180 LP  0  0  0  0  0  0  0  0  0  0  0  0  # atno 17343 bound_to 10162
  157.3960  131.0803  151.1351 LP  0  0  0  0  0  0  0  0  0  0  0  0  # atno 17370 bound_to 10713
  157.2028  130.6402  149.5745 LP  0  0  0  0  0  0  0  0  0  0  0  0  # atno 17371 bound_to 10713
  139.8919  134.8768  156.2296 LP  0  0  0  0  0  0  0  0  0  0  0  0  # atno 17394 bound_to 11000
  141.0229  133.7031  156.1299 LP  0  0  0  0  0  0  0  0  0  0  0  0  # atno 17395 bound_to 11000

$$$$
