AV-unprocessed.smi:2510|AV-procd|sdf|9884|dock4
  -GOLD-   2272013523D 1   1.00000     0.00000
 Structure written by MMmdl.
 48 49  0  0  0  0  0  0  0  0  1 V2000
  146.3081  142.9957  154.0343 C   0  0  0  0  0  0  0  0  0  0  0  0
  147.1656  141.7933  153.5962 C   0  0  0  0  0  0  0  0  0  0  0  0
  147.5983  140.7922  154.7058 C   0  0  0  0  0  0  0  0  0  0  0  0
  146.5416  140.7920  155.8319 C   0  0  0  0  0  0  0  0  0  0  0  0
  145.2251  140.0806  155.4795 C   0  0  0  0  0  0  0  0  0  0  0  0
  148.0924  139.3845  154.2678 C   0  0  1  0  0  0  0  0  0  0  0  0
  147.5680  138.8990  152.9969 N   0  0  0  0  0  0  0  0  0  0  0  0
  146.4365  138.1912  152.8632 C   0  0  0  0  0  0  0  0  0  0  0  0
  145.7008  137.9016  153.8065 O   0  0  0  0  0  0  0  0  0  0  0  0
  146.0776  137.7431  151.4469 C   0  0  0  0  0  0  0  0  0  0  0  0
  145.6706  136.3050  151.4339 C   0  0  0  0  0  0  0  0  0  0  0  0
  144.4850  135.7061  151.1112 C   0  0  0  0  0  0  0  0  0  0  0  0
  144.7281  134.3148  151.3047 C   0  0  0  0  0  0  0  0  0  0  0  0
  143.7762  133.1720  151.1067 C   0  0  0  0  0  0  0  0  0  0  0  0
  145.9655  134.0686  151.7088 N   0  0  0  0  0  0  0  0  0  0  0  0
  146.5309  135.2877  151.7819 N   0  0  0  0  0  0  0  0  0  0  0  0
  149.5145  139.9381  154.1386 C   0  0  2  0  0  0  0  0  0  0  0  0
  150.7046  139.0262  154.4116 C   0  0  0  0  0  0  0  0  0  0  0  0
  149.0709  140.9953  155.1664 C   0  0  2  0  0  0  0  0  0  0  0  0
  149.2794  140.5691  156.5092 O   0  0  0  0  0  0  0  0  0  0  0  0
  150.5179  141.0029  157.0454 C   0  0  0  0  0  0  0  0  0  0  0  0
  147.4914  135.4085  152.0696 H   0  0  0  0  0  0  0  0  0  0  0  0
  145.9693  143.5550  153.1622 H   0  0  0  0  0  0  0  0  0  0  0  0
  146.8706  143.6926  154.6549 H   0  0  0  0  0  0  0  0  0  0  0  0
  145.4220  142.6938  154.5883 H   0  0  0  0  0  0  0  0  0  0  0  0
  146.6116  141.2697  152.8175 H   0  0  0  0  0  0  0  0  0  0  0  0
  148.0482  142.1774  153.0846 H   0  0  0  0  0  0  0  0  0  0  0  0
  146.9514  140.3699  156.7488 H   0  0  0  0  0  0  0  0  0  0  0  0
  146.2970  141.8189  156.1050 H   0  0  0  0  0  0  0  0  0  0  0  0
  144.5042  140.1864  156.2903 H   0  0  0  0  0  0  0  0  0  0  0  0
  145.3714  139.0137  155.3141 H   0  0  0  0  0  0  0  0  0  0  0  0
  144.7729  140.5012  154.5814 H   0  0  0  0  0  0  0  0  0  0  0  0
  148.0320  138.6515  155.0764 H   0  0  0  0  0  0  0  0  0  0  0  0
  148.1103  139.0983  152.1689 H   0  0  0  0  0  0  0  0  0  0  0  0
  145.2638  138.3644  151.0712 H   0  0  0  0  0  0  0  0  0  0  0  0
  146.9247  137.9047  150.7784 H   0  0  0  0  0  0  0  0  0  0  0  0
  143.5757  136.1911  150.7881 H   0  0  0  0  0  0  0  0  0  0  0  0
  142.7935  133.5265  150.7955 H   0  0  0  0  0  0  0  0  0  0  0  0
  143.6465  132.6044  152.0285 H   0  0  0  0  0  0  0  0  0  0  0  0
  144.1395  132.4873  150.3402 H   0  0  0  0  0  0  0  0  0  0  0  0
  149.6404  140.4243  153.1695 H   0  0  0  0  0  0  0  0  0  0  0  0
  150.6098  138.5179  155.3714 H   0  0  0  0  0  0  0  0  0  0  0  0
  151.6387  139.5878  154.4234 H   0  0  0  0  0  0  0  0  0  0  0  0
  150.7926  138.2580  153.6434 H   0  0  0  0  0  0  0  0  0  0  0  0
  149.4457  142.0012  154.9673 H   0  0  0  0  0  0  0  0  0  0  0  0
  150.6356  140.6135  158.0564 H   0  0  0  0  0  0  0  0  0  0  0  0
  150.5585  142.0915  157.0989 H   0  0  0  0  0  0  0  0  0  0  0  0
  151.3604  140.6528  156.4492 H   0  0  0  0  0  0  0  0  0  0  0  0
  1  2  1  0  0  0  0
  1 23  1  0  0  0  0
  1 24  1  0  0  0  0
  1 25  1  0  0  0  0
  2  3  1  0  0  0  0
  2 26  1  0  0  0  0
  2 27  1  0  0  0  0
  3 19  1  0  0  0  0
  3  4  1  0  0  0  0
  3  6  1  0  0  0  0
  4  5  1  0  0  0  0
  4 28  1  0  0  0  0
  4 29  1  0  0  0  0
  5 30  1  0  0  0  0
  5 31  1  0  0  0  0
  5 32  1  0  0  0  0
  6  7  1  0  0  0  0
  6 17  1  0  0  0  0
  6 33  1  0  0  0  0
  7  8  1  0  0  0  0
  7 34  1  0  0  0  0
  8  9  2  0  0  0  0
  8 10  1  0  0  0  0
 10 35  1  0  0  0  0
 10 36  1  0  0  0  0
 10 11  1  0  0  0  0
 11 16  1  0  0  0  0
 11 12  2  0  0  0  0
 12 13  1  0  0  0  0
 12 37  1  0  0  0  0
 13 14  1  0  0  0  0
 13 15  2  0  0  0  0
 14 38  1  0  0  0  0
 14 39  1  0  0  0  0
 14 40  1  0  0  0  0
 15 16  1  0  0  0  0
 16 22  1  0  0  0  0
 17 18  1  0  0  0  0
 17 19  1  0  0  0  0
 17 41  1  0  0  0  0
 18 42  1  0  0  0  0
 18 43  1  0  0  0  0
 18 44  1  0  0  0  0
 19 20  1  0  0  0  0
 19 45  1  0  0  0  0
 20 21  1  0  0  0  0
 21 46  1  0  0  0  0
 21 47  1  0  0  0  0
 21 48  1  0  0  0  0
M  END
> <s_m_source_file>
AV-unprocessed.smi

> <i_m_source_file_index>
2510

> <i_lp_mmshare_version>
43012

> <i_f3d_flags>
0

> <s_epik_input>
W0NIM11PW0NAQEhdMVtDQEhdKFtDSDNdKVtDQEBIXShDMShbQ0gyXVtDSDNdKVtDSDJdW0NIM10pW05IXUMoPU8pW0NIMl1jMltjSF1jKFtDSDNdKVtuSF1uMg==

> <s_epik_cmdline>
J2VwaWtfcHl0aG9uJywgJy1waCcsICc3LjAnLCAnLXRuJywgJzgnLCAnLW1hJywgJzIwMCcsICctbWV0YWxfYmluZGluZycsICctaW1hZScsICc8aW5maWxlLm1hZT4nLCAnLW9tYWUnLCAnPG91dGZpbGUubWFlPic=

> <r_lp_tautomer_probability>
0.5

> <r_epik_Ionization_Penalty>
0.000134763

> <r_epik_Ionization_Penalty_Charging>
0

> <r_epik_Ionization_Penalty_Neutral>
0.000134763

> <r_epik_State_Penalty>
0.41068

> <r_epik_Charging_Adjusted_Penalty>
0.41068

> <i_epik_Tot_Q>
0

> <i_epik_Tot_abs_Q>
0

> <r_epik_Metal_State_Penalty>
0.410661

> <b_epik_Metal_Only>
0

> <s_lp_Force_Field>
OPLS_2005

> <r_lp_Energy>
27.4462

> <b_lp_Chiralities_Consistent>
1

> <s_lp_Variant>
AV-unprocessed.smi:2510-15

> <Gold.Version>
5.8.1

> <Gold.Id.Protein>
6NUR|6NUR_protein|mol2

> <Gold.PLP.Fitness>
38.0576

> <Gold.PLP.PLP>
-34.2097

> <Gold.PLP.part.hbond>
-2.5098

> <Gold.PLP.part.metal>
0.0000

> <Gold.PLP.part.buried>
-0.4797

> <Gold.PLP.part.nonpolar>
-32.0154

> <Gold.PLP.part.repulsive>
0.4299

> <Gold.PLP.ligand.clash>
0.0000

> <Gold.PLP.ligand.torsion>
1.4056

> <Gold.PLP.Chemscore.Hbond>
1.9600

> <Gold.PLP.Chemscore.CHOScore>
0.0000

> <Gold.PLP.Chemscore.Metal>
0.0000

> <Gold.Chemscore.Hbonds>
donor molecule, donor type, donor heavy atom, donor atom, acceptor molecule, acceptor atom, score
      L1  H     7    34       P1  7957  1.00
      L1  H    16    22       P1  7948  0.94

> <Gold.PLP.Chemscore.Internal.Correction>
0.7791

> <Gold.Rescore>
     Score         DG    S(hbond)    S(metal)    S(lipo)     H(rot)  DE(clash)    DE(int)     intcor
     15.26     -17.15       1.87        0.00      86.05       1.81       0.56       1.34       ----

> <Gold.Chemscore.Fitness>
15.2578

> <Gold.Chemscore.DG>
-17.1547

> <Gold.Chemscore.ZeroCoef>
-5.4800

> <Gold.Chemscore.Hbond>
1.8684

> <Gold.Chemscore.Metal>
0.0000

> <Gold.Chemscore.Lipo>
86.0546

> <Gold.Chemscore.Internal_Hbond>
0.0000

> <Gold.Chemscore.DEClash>
0.5550

> <Gold.Chemscore.DEInternal>
1.3419

> <Gold.Chemscore.Rot>
1.8102

> <Gold.Chemscore.Internal.Correction>
   9.000000E+99

> <Gold.Chemscore.Hbonds>
donor molecule, donor type, donor heavy atom, donor atom, acceptor molecule, acceptor atom, score
      L1  H     7    34       P1  7957  0.93
      L1  H    16    22       P1  7948  0.91

> <Gold.Chemscore.Hbond.Weighted>
-6.2404

> <Gold.Chemscore.Metal.Weighted>
-0.0000

> <Gold.Chemscore.Lipo.Weighted>
-10.0684

> <Gold.Chemscore.Internal_Hbond.Weighted>
0.0000

> <Gold.Chemscore.DEClash.Weighted>
0.5550

> <Gold.Chemscore.DEInternal.Weighted>
1.3419

> <Gold.Chemscore.Rot.Weighted>
4.6341

> <Gold.Chemscore.Internal.Correction.Weighted>
   9.000000E+99

> <Gold.Protein.RotatedTorsions>
[ 6907 6896 6895 6894 ] final  159.87 input  -60.11 | X-H torsion
[ 7974 7965 7964 7962 ] final -100.47 input  175.53 | X-H torsion
[ 8008 7997 7996 7995 ] final -175.88 input   59.86 | X-H torsion
[ 10167 10162 10161 10158 ] final   57.58 input  -65.29 | X-H torsion
[ 10718 10713 10712 10709 ] final  -72.37 input   66.30 | X-H torsion
[ 10763 10752 10751 10750 ] final  -88.51 input  -60.55 | X-H torsion
[ 11005 11000 10999 10996 ] final   22.15 input  -57.11 | X-H torsion

> <Gold.Protein.ActiveResidues>
 VAL166  LYS551  ARG553  GLY616  TRP617  ASP618  TYR619  PRO620  LYS621  CYS622 
 ASP623  PHE694  ASN695  SER759  ASP760  ASP761  ALA762  ILE779  LEU786  VAL792 
 PHE793  MET794  SER795  GLU796  ALA797  LYS798  CYS799  TRP800  GLU811  SER814 

> <Gold.Protein.RotatedAtoms>
  151.9791  133.3751  159.4100 H   0  0  0  0  0  0  0  0  0  0  0  0  # atno 6907 bound_to 6896
  150.6937  134.4058  159.5149 H   0  0  0  0  0  0  0  0  0  0  0  0  # atno 6908 bound_to 6896
  152.1774  134.8783  160.0580 H   0  0  0  0  0  0  0  0  0  0  0  0  # atno 6909 bound_to 6896
  145.2941  140.9360  143.2861 H   0  0  0  0  0  0  0  0  0  0  0  0  # atno 7974 bound_to 7965
  155.9881  140.1195  157.0664 H   0  0  0  0  0  0  0  0  0  0  0  0  # atno 8008 bound_to 7997
  154.4203  140.1131  156.5595 H   0  0  0  0  0  0  0  0  0  0  0  0  # atno 8009 bound_to 7997
  155.6380  140.3473  155.4707 H   0  0  0  0  0  0  0  0  0  0  0  0  # atno 8010 bound_to 7997
  140.1964  144.4032  150.6548 H   0  0  0  0  0  0  0  0  0  0  0  0  # atno 10167 bound_to 10162
  156.0323  130.4371  150.2582 H   0  0  0  0  0  0  0  0  0  0  0  0  # atno 10718 bound_to 10713
  154.6453  135.5374  153.7837 H   0  0  0  0  0  0  0  0  0  0  0  0  # atno 10763 bound_to 10752
  153.0356  135.6469  154.1099 H   0  0  0  0  0  0  0  0  0  0  0  0  # atno 10764 bound_to 10752
  154.1020  135.2932  155.3229 H   0  0  0  0  0  0  0  0  0  0  0  0  # atno 10765 bound_to 10752
  140.3837  134.1893  155.7663 H   0  0  0  0  0  0  0  0  0  0  0  0  # atno 11005 bound_to 11000
  144.9148  139.4484  143.6569 LP  0  0  0  0  0  0  0  0  0  0  0  0  # atno 17320 bound_to 7965
  146.3175  139.7976  142.8972 LP  0  0  0  0  0  0  0  0  0  0  0  0  # atno 17321 bound_to 7965
  140.6420  143.2205  151.6269 LP  0  0  0  0  0  0  0  0  0  0  0  0  # atno 17342 bound_to 10162
  139.5235  144.3132  152.0974 LP  0  0  0  0  0  0  0  0  0  0  0  0  # atno 17343 bound_to 10162
  157.0684  131.0109  151.3199 LP  0  0  0  0  0  0  0  0  0  0  0  0  # atno 17370 bound_to 10713
  157.5018  130.7884  149.7613 LP  0  0  0  0  0  0  0  0  0  0  0  0  # atno 17371 bound_to 10713
  141.1915  133.8194  157.0878 LP  0  0  0  0  0  0  0  0  0  0  0  0  # atno 17394 bound_to 11000
  140.0459  134.9831  157.1048 LP  0  0  0  0  0  0  0  0  0  0  0  0  # atno 17395 bound_to 11000

$$$$
