AV-unprocessed.smi:1929|AV-procd|sdf|7806|dock9
  -GOLD-   22720 9543D 1   1.00000     0.00000
 Structure written by MMmdl.
 42 43  0  0  0  0  0  0  0  0  3 V2000
  148.3700  134.0342  157.3392 C   0  0  0  0  0  0  0  0  0  0  0  0
  149.6781  134.6304  157.5845 N   0  5  0  0  0  0  0  0  0  0  0  0
  150.5680  134.9205  156.5976 C   0  0  0  0  0  0  0  0  0  0  0  0
  151.7767  135.1707  156.6493 O   0  0  0  0  0  0  0  0  0  0  0  0
  149.8822  134.9468  155.2267 C   0  0  0  0  0  0  0  0  0  0  0  0
  149.8195  136.3354  154.7054 N   0  3  2  0  0  0  0  0  0  0  0  0
  151.1587  136.9667  154.5534 C   0  0  0  0  0  0  0  0  0  0  0  0
  151.0490  138.3553  153.9000 C   0  0  0  0  0  0  0  0  0  0  0  0
  150.1014  139.2857  154.6819 C   0  0  2  0  0  0  0  0  0  0  0  0
  150.6679  139.6758  155.9730 N   0  0  0  0  0  0  0  0  0  0  0  0
  150.9017  140.9357  156.3690 C   0  0  0  0  0  0  0  0  0  0  0  0
  150.6468  141.9202  155.6761 O   0  0  0  0  0  0  0  0  0  0  0  0
  151.4619  140.9632  157.5908 N   0  0  0  0  0  0  0  0  0  0  0  0
  151.8911  142.0864  158.3492 C   0  0  0  0  0  0  0  0  0  0  0  0
  151.7059  143.3658  157.7855 C   0  0  0  0  0  0  0  0  0  0  0  0
  152.1347  144.4961  158.5096 C   0  0  0  0  0  0  0  0  0  0  0  0
  152.7260  144.4208  159.7203 N   0  0  0  0  0  0  0  0  0  0  0  0
  152.9153  143.1948  160.2524 C   0  0  0  0  0  0  0  0  0  0  0  0
  152.5239  142.0014  159.6130 C   0  0  0  0  0  0  0  0  0  0  0  0
  148.7448  138.5873  154.8775 C   0  0  0  0  0  0  0  0  0  0  0  0
  148.8988  137.1875  155.5006 C   0  0  0  0  0  0  0  0  0  0  0  0
  147.8602  133.7809  158.2687 H   0  0  0  0  0  0  0  0  0  0  0  0
  148.4333  133.1111  156.7618 H   0  0  0  0  0  0  0  0  0  0  0  0
  147.7047  134.7038  156.7930 H   0  0  0  0  0  0  0  0  0  0  0  0
  150.4856  134.3278  154.5613 H   0  0  0  0  0  0  0  0  0  0  0  0
  148.8857  134.4992  155.2421 H   0  0  0  0  0  0  0  0  0  0  0  0
  151.6403  137.0432  155.5293 H   0  0  0  0  0  0  0  0  0  0  0  0
  151.8042  136.3420  153.9359 H   0  0  0  0  0  0  0  0  0  0  0  0
  152.0390  138.8026  153.8063 H   0  0  0  0  0  0  0  0  0  0  0  0
  150.6759  138.2392  152.8815 H   0  0  0  0  0  0  0  0  0  0  0  0
  149.9353  140.1933  154.0984 H   0  0  0  0  0  0  0  0  0  0  0  0
  150.9074  138.9291  156.6086 H   0  0  0  0  0  0  0  0  0  0  0  0
  151.6694  140.0649  158.0014 H   0  0  0  0  0  0  0  0  0  0  0  0
  151.2395  143.4852  156.8186 H   0  0  0  0  0  0  0  0  0  0  0  0
  151.9998  145.4879  158.1037 H   0  0  0  0  0  0  0  0  0  0  0  0
  153.4001  143.1622  161.2169 H   0  0  0  0  0  0  0  0  0  0  0  0
  152.7268  141.0584  160.0961 H   0  0  0  0  0  0  0  0  0  0  0  0
  148.0875  139.2022  155.4938 H   0  0  0  0  0  0  0  0  0  0  0  0
  148.2497  138.4919  153.9100 H   0  0  0  0  0  0  0  0  0  0  0  0
  147.9175  136.7144  155.5561 H   0  0  0  0  0  0  0  0  0  0  0  0
  149.2690  137.2654  156.5240 H   0  0  0  0  0  0  0  0  0  0  0  0
  149.4200  136.2660  153.7803 H   0  0  0  0  0  0  0  0  0  0  0  0
  1  2  1  0  0  0  0
  1 22  1  0  0  0  0
  1 23  1  0  0  0  0
  1 24  1  0  0  0  0
  2  3  1  0  0  0  0
  3  4  2  0  0  0  0
  3  5  1  0  0  0  0
  5  6  1  0  0  0  0
  5 25  1  0  0  0  0
  5 26  1  0  0  0  0
  6 21  1  0  0  0  0
  6  7  1  0  0  0  0
  6 42  1  0  0  0  0
  7  8  1  0  0  0  0
  7 27  1  0  0  0  0
  7 28  1  0  0  0  0
  8  9  1  0  0  0  0
  8 29  1  0  0  0  0
  8 30  1  0  0  0  0
  9 10  1  0  0  0  0
  9 20  1  0  0  0  0
  9 31  1  0  0  0  0
 10 11  1  0  0  0  0
 10 32  1  0  0  0  0
 11 12  2  0  0  0  0
 11 13  1  0  0  0  0
 13 14  1  0  0  0  0
 13 33  1  0  0  0  0
 14 19  1  0  0  0  0
 14 15  2  0  0  0  0
 15 16  1  0  0  0  0
 15 34  1  0  0  0  0
 16 17  2  0  0  0  0
 16 35  1  0  0  0  0
 17 18  1  0  0  0  0
 18 19  2  0  0  0  0
 18 36  1  0  0  0  0
 19 37  1  0  0  0  0
 20 21  1  0  0  0  0
 20 38  1  0  0  0  0
 20 39  1  0  0  0  0
 21 40  1  0  0  0  0
 21 41  1  0  0  0  0
M  CHG  1   2  -1
M  CHG  1   6   1
M  END
> <s_m_source_file>
AV-unprocessed.smi

> <i_m_source_file_index>
1929

> <i_lp_mmshare_version>
43012

> <i_f3d_flags>
0

> <s_epik_input>
W0NIM11bTkhdQyg9TylbQ0gyXU4xW0NIMl1bQ0gyXVtDSF0oW0NIMl1bQ0gyXTEpW05IXUMoPU8pW05IXWMyW2NIXVtjSF1uW2NIXVtjSF0y

> <s_epik_cmdline>
J2VwaWtfcHl0aG9uJywgJy1waCcsICc3LjAnLCAnLXRuJywgJzgnLCAnLW1hJywgJzIwMCcsICctbWV0YWxfYmluZGluZycsICctaW1hZScsICc8aW5maWxlLm1hZT4nLCAnLW9tYWUnLCAnPG91dGZpbGUubWFlPic=

> <r_epik_Ionization_Penalty>
6.23856

> <r_epik_Ionization_Penalty_Charging>
6.13946

> <r_epik_Ionization_Penalty_Neutral>
0.0990993

> <r_epik_State_Penalty>
7.04382

> <r_epik_Charging_Adjusted_Penalty>
13.1833

> <i_epik_Tot_Q>
0

> <i_epik_Tot_abs_Q>
2

> <r_epik_Metal_State_Penalty>
3.07449

> <b_epik_Metal_Only>
1

> <s_lp_Force_Field>
OPLS_2005

> <r_lp_Energy>
14.5033

> <b_lp_Chiralities_Consistent>
1

> <s_lp_Variant>
AV-unprocessed.smi:1929-8

> <Gold.Version>
5.8.1

> <Gold.Id.Protein>
6NUR|6NUR_protein|mol2

> <Gold.PLP.Fitness>
48.3248

> <Gold.PLP.PLP>
-33.9529

> <Gold.PLP.part.hbond>
-3.0312

> <Gold.PLP.part.metal>
0.0000

> <Gold.PLP.part.buried>
-3.9808

> <Gold.PLP.part.nonpolar>
-27.1677

> <Gold.PLP.part.repulsive>
0.2997

> <Gold.PLP.ligand.clash>
0.0000

> <Gold.PLP.ligand.torsion>
0.1689

> <Gold.PLP.Chemscore.Hbond>
4.8880

> <Gold.PLP.Chemscore.CHOScore>
0.0000

> <Gold.PLP.Chemscore.Metal>
0.0000

> <Gold.Chemscore.Hbonds>
donor molecule, donor type, donor heavy atom, donor atom, acceptor molecule, acceptor atom, score
      L1  H     6    42       P1  7948  2.00
      P1  H  6896  6909       L1     2  1.76
      P1  H 10752 10763       L1     4  0.83

> <Gold.PLP.Chemscore.Internal.Correction>
0.0457

> <Gold.Rescore>
     Score         DG    S(hbond)    S(metal)    S(lipo)     H(rot)  DE(clash)    DE(int)     intcor
     17.14     -20.03       2.61        0.00      85.60       1.63       0.05       2.84       ----

> <Gold.Chemscore.Fitness>
17.1380

> <Gold.Chemscore.DG>
-20.0310

> <Gold.Chemscore.ZeroCoef>
-5.4800

> <Gold.Chemscore.Hbond>
2.6090

> <Gold.Chemscore.Metal>
0.0000

> <Gold.Chemscore.Lipo>
85.6021

> <Gold.Chemscore.Internal_Hbond>
0.0000

> <Gold.Chemscore.DEClash>
0.0496

> <Gold.Chemscore.DEInternal>
2.8434

> <Gold.Chemscore.Rot>
1.6323

> <Gold.Chemscore.Internal.Correction>
   9.000000E+99

> <Gold.Chemscore.Hbonds>
donor molecule, donor type, donor heavy atom, donor atom, acceptor molecule, acceptor atom, score
      L1  H     6    42       P1  7948  0.78
      P1  H  6896  6909       L1     2  0.61
      P1  H 10752 10763       L1     4  0.82

> <Gold.Chemscore.Hbond.Weighted>
-8.7141

> <Gold.Chemscore.Metal.Weighted>
-0.0000

> <Gold.Chemscore.Lipo.Weighted>
-10.0154

> <Gold.Chemscore.Internal_Hbond.Weighted>
0.0000

> <Gold.Chemscore.DEClash.Weighted>
0.0496

> <Gold.Chemscore.DEInternal.Weighted>
2.8434

> <Gold.Chemscore.Rot.Weighted>
4.1786

> <Gold.Chemscore.Internal.Correction.Weighted>
   9.000000E+99

> <Gold.Protein.RotatedTorsions>
[ 6907 6896 6895 6894 ] final   21.79 input  -60.11 | X-H torsion
[ 7974 7965 7964 7962 ] final  -43.77 input  175.53 | X-H torsion
[ 8008 7997 7996 7995 ] final  -56.18 input   59.86 | X-H torsion
[ 10167 10162 10161 10158 ] final  115.15 input  -65.29 | X-H torsion
[ 10718 10713 10712 10709 ] final   83.68 input   66.30 | X-H torsion
[ 10763 10752 10751 10750 ] final   96.96 input  -60.55 | X-H torsion
[ 11005 11000 10999 10996 ] final  -17.87 input  -57.11 | X-H torsion

> <Gold.Protein.ActiveResidues>
 VAL166  LYS551  ARG553  GLY616  TRP617  ASP618  TYR619  PRO620  LYS621  CYS622 
 ASP623  PHE694  ASN695  SER759  ASP760  ASP761  ALA762  ILE779  LEU786  VAL792 
 PHE793  MET794  SER795  GLU796  ALA797  LYS798  CYS799  TRP800  GLU811  SER814 

> <Gold.Protein.RotatedAtoms>
  151.9172  135.0314  160.0518 H   0  0  0  0  0  0  0  0  0  0  0  0  # atno 6907 bound_to 6896
  152.2230  133.4994  159.5181 H   0  0  0  0  0  0  0  0  0  0  0  0  # atno 6908 bound_to 6896
  150.7005  134.1234  159.4086 H   0  0  0  0  0  0  0  0  0  0  0  0  # atno 6909 bound_to 6896
  145.9986  140.7100  142.9281 H   0  0  0  0  0  0  0  0  0  0  0  0  # atno 7974 bound_to 7965
  154.4221  140.1135  156.5596 H   0  0  0  0  0  0  0  0  0  0  0  0  # atno 8008 bound_to 7997
  155.6325  140.3496  155.4668 H   0  0  0  0  0  0  0  0  0  0  0  0  # atno 8009 bound_to 7997
  155.9937  140.1184  157.0604 H   0  0  0  0  0  0  0  0  0  0  0  0  # atno 8010 bound_to 7997
  139.6338  144.7117  151.2378 H   0  0  0  0  0  0  0  0  0  0  0  0  # atno 10167 bound_to 10162
  157.6883  131.0101  150.2559 H   0  0  0  0  0  0  0  0  0  0  0  0  # atno 10718 bound_to 10713
  153.2711  135.4200  155.0989 H   0  0  0  0  0  0  0  0  0  0  0  0  # atno 10763 bound_to 10752
  154.8456  135.3472  154.6242 H   0  0  0  0  0  0  0  0  0  0  0  0  # atno 10764 bound_to 10752
  153.6662  135.7046  153.5219 H   0  0  0  0  0  0  0  0  0  0  0  0  # atno 10765 bound_to 10752
  140.8211  133.8067  155.9661 H   0  0  0  0  0  0  0  0  0  0  0  0  # atno 11005 bound_to 11000
  144.6912  140.3194  143.7235 LP  0  0  0  0  0  0  0  0  0  0  0  0  # atno 17320 bound_to 7965
  145.7522  139.1797  143.2315 LP  0  0  0  0  0  0  0  0  0  0  0  0  # atno 17321 bound_to 7965
  140.7454  143.6433  150.8315 LP  0  0  0  0  0  0  0  0  0  0  0  0  # atno 17342 bound_to 10162
  140.0062  143.5691  152.2857 LP  0  0  0  0  0  0  0  0  0  0  0  0  # atno 17343 bound_to 10162
  156.3147  130.3777  149.7629 LP  0  0  0  0  0  0  0  0  0  0  0  0  # atno 17370 bound_to 10713
  156.5218  130.8218  151.3206 LP  0  0  0  0  0  0  0  0  0  0  0  0  # atno 17371 bound_to 10713
  140.9097  134.2275  157.4993 LP  0  0  0  0  0  0  0  0  0  0  0  0  # atno 17394 bound_to 11000
  139.8708  134.9744  156.4847 LP  0  0  0  0  0  0  0  0  0  0  0  0  # atno 17395 bound_to 11000

$$$$
