AV-unprocessed.smi:235|AV-procd|sdf|1806|dock8
  -GOLD-   2262020383D 1   1.00000     0.00000
 Structure written by MMmdl.
 54 58  0  0  0  0  0  0  0  0  1 V2000
  149.5398  142.2218  158.5910 O   0  0  0  0  0  0  0  0  0  0  0  0
  150.5855  142.3048  157.9451 C   0  0  0  0  0  0  0  0  0  0  0  0
  150.8169  141.6121  156.8205 N   0  0  0  0  0  0  0  0  0  0  0  0
  149.9160  140.6837  156.2191 C   0  0  0  0  0  0  0  0  0  0  0  0
  150.3854  139.9521  154.9805 C   0  0  0  0  0  0  0  0  0  0  0  0
  149.3486  141.0348  154.8609 C   0  0  0  0  0  0  0  0  0  0  0  0
  151.7155  143.2380  158.4089 C   0  0  1  0  0  0  0  0  0  0  0  0
  151.2133  144.6768  158.6115 C   0  0  0  0  0  0  0  0  0  0  0  0
  152.1584  145.2434  159.6659 C   0  0  0  0  0  0  0  0  0  0  0  0
  152.4426  144.0414  160.5656 C   0  0  0  0  0  0  0  0  0  0  0  0
  152.2389  142.8667  159.7267 N   0  0  0  0  0  0  0  0  0  0  0  0
  153.0077  141.7617  159.9239 C   0  0  0  0  0  0  0  0  0  0  0  0
  153.0006  140.7686  158.9944 N   0  0  0  0  0  0  0  0  0  0  0  0
  153.7449  139.6727  159.1647 C   0  0  0  0  0  0  0  0  0  0  0  0
  154.5563  139.3650  160.1772 N   0  0  0  0  0  0  0  0  0  0  0  0
  154.5658  140.3522  161.1174 C   0  0  0  0  0  0  0  0  0  0  0  0
  153.8306  141.5713  161.0722 C   0  0  0  0  0  0  0  0  0  0  0  0
  154.0910  142.3172  162.2172 N   0  0  0  0  0  0  0  0  0  0  0  0
  154.9355  141.5871  162.8928 C   0  0  0  0  0  0  0  0  0  0  0  0
  155.2788  140.3928  162.3017 N   0  0  0  0  0  0  0  0  0  0  0  0
  156.1926  139.3931  162.8231 C   0  0  0  0  0  0  0  0  0  0  0  0
  155.8555  138.9578  164.2649 C   0  0  2  0  0  0  0  0  0  0  0  0
  156.9956  139.2206  165.0579 O   0  0  0  0  0  0  0  0  0  0  0  0
  155.4744  137.4674  164.4066 C   0  0  1  0  0  0  0  0  0  0  0  0
  154.4764  136.9651  163.3616 C   0  0  0  0  0  0  0  0  0  0  0  0
  154.7131  135.4640  163.3359 C   0  0  0  0  0  0  0  0  0  0  0  0
  156.0979  135.2990  163.9669 C   0  0  0  0  0  0  0  0  0  0  0  0
  156.5849  136.6213  164.1460 O   0  0  0  0  0  0  0  0  0  0  0  0
  151.7059  141.7450  156.3608 H   0  0  0  0  0  0  0  0  0  0  0  0
  149.2524  140.1303  156.8821 H   0  0  0  0  0  0  0  0  0  0  0  0
  151.3852  140.1696  154.6091 H   0  0  0  0  0  0  0  0  0  0  0  0
  150.0554  138.9232  154.8521 H   0  0  0  0  0  0  0  0  0  0  0  0
  148.3261  140.7282  154.6496 H   0  0  0  0  0  0  0  0  0  0  0  0
  149.6553  141.9757  154.4076 H   0  0  0  0  0  0  0  0  0  0  0  0
  152.5328  143.2443  157.6851 H   0  0  0  0  0  0  0  0  0  0  0  0
  151.2257  145.2574  157.6887 H   0  0  0  0  0  0  0  0  0  0  0  0
  150.1927  144.6895  158.9992 H   0  0  0  0  0  0  0  0  0  0  0  0
  153.0819  145.5736  159.1883 H   0  0  0  0  0  0  0  0  0  0  0  0
  151.7372  146.0906  160.2079 H   0  0  0  0  0  0  0  0  0  0  0  0
  153.4509  144.0956  160.9790 H   0  0  0  0  0  0  0  0  0  0  0  0
  151.7346  144.0062  161.3945 H   0  0  0  0  0  0  0  0  0  0  0  0
  153.6811  138.9374  158.3763 H   0  0  0  0  0  0  0  0  0  0  0  0
  155.3382  141.9048  163.8436 H   0  0  0  0  0  0  0  0  0  0  0  0
  156.1789  138.5306  162.1550 H   0  0  0  0  0  0  0  0  0  0  0  0
  157.2017  139.8052  162.7785 H   0  0  0  0  0  0  0  0  0  0  0  0
  155.0423  139.5736  164.6508 H   0  0  0  0  0  0  0  0  0  0  0  0
  157.4748  139.9344  164.6656 H   0  0  0  0  0  0  0  0  0  0  0  0
  155.0959  137.2635  165.4104 H   0  0  0  0  0  0  0  0  0  0  0  0
  153.4452  137.2264  163.6012 H   0  0  0  0  0  0  0  0  0  0  0  0
  154.7122  137.3881  162.3840 H   0  0  0  0  0  0  0  0  0  0  0  0
  153.9618  134.9369  163.9251 H   0  0  0  0  0  0  0  0  0  0  0  0
  154.6769  135.0749  162.3179 H   0  0  0  0  0  0  0  0  0  0  0  0
  156.0228  134.8083  164.9381 H   0  0  0  0  0  0  0  0  0  0  0  0
  156.7763  134.7172  163.3426 H   0  0  0  0  0  0  0  0  0  0  0  0
  1  2  2  0  0  0  0
  2  3  1  0  0  0  0
  2  7  1  0  0  0  0
  3  4  1  0  0  0  0
  3 29  1  0  0  0  0
  4  6  1  0  0  0  0
  4  5  1  0  0  0  0
  4 30  1  0  0  0  0
  5  6  1  0  0  0  0
  5 31  1  0  0  0  0
  5 32  1  0  0  0  0
  6 33  1  0  0  0  0
  6 34  1  0  0  0  0
  7 11  1  0  0  0  0
  7  8  1  0  0  0  0
  7 35  1  0  0  0  0
  8  9  1  0  0  0  0
  8 36  1  0  0  0  0
  8 37  1  0  0  0  0
  9 10  1  0  0  0  0
  9 38  1  0  0  0  0
  9 39  1  0  0  0  0
 10 11  1  0  0  0  0
 10 40  1  0  0  0  0
 10 41  1  0  0  0  0
 11 12  1  0  0  0  0
 12 17  1  0  0  0  0
 12 13  2  0  0  0  0
 13 14  1  0  0  0  0
 14 15  2  0  0  0  0
 14 42  1  0  0  0  0
 15 16  1  0  0  0  0
 16 20  1  0  0  0  0
 16 17  2  0  0  0  0
 17 18  1  0  0  0  0
 18 19  2  0  0  0  0
 19 20  1  0  0  0  0
 19 43  1  0  0  0  0
 20 21  1  0  0  0  0
 21 22  1  0  0  0  0
 21 44  1  0  0  0  0
 21 45  1  0  0  0  0
 22 23  1  0  0  0  0
 22 24  1  0  0  0  0
 22 46  1  0  0  0  0
 23 47  1  0  0  0  0
 24 28  1  0  0  0  0
 24 25  1  0  0  0  0
 24 48  1  0  0  0  0
 25 26  1  0  0  0  0
 25 49  1  0  0  0  0
 25 50  1  0  0  0  0
 26 27  1  0  0  0  0
 26 51  1  0  0  0  0
 26 52  1  0  0  0  0
 27 28  1  0  0  0  0
 27 53  1  0  0  0  0
 27 54  1  0  0  0  0
M  END
> <s_m_source_file>
AV-unprocessed.smi

> <i_m_source_file_index>
235

> <i_lp_mmshare_version>
43012

> <i_f3d_flags>
0

> <s_epik_input>
W0NIMl0xW0NIMl1bQ0hdMVtOSF1DKD1PKVtDQEBIXTJbQ0gyXVtDSDJdW0NIMl1OMmMobltjSF1uMyljKGMzNCluW2NIXW40W0NIMl1bQ0BIXShbT0hdKVtDQEBIXTVbQ0gyXVtDSDJdW0NIMl1PNQ==

> <s_epik_cmdline>
J2VwaWtfcHl0aG9uJywgJy1waCcsICc3LjAnLCAnLXRuJywgJzgnLCAnLW1hJywgJzIwMCcsICctbWV0YWxfYmluZGluZycsICctaW1hZScsICc8aW5maWxlLm1hZT4nLCAnLW9tYWUnLCAnPG91dGZpbGUubWFlPic=

> <r_lp_tautomer_probability>
1

> <r_epik_Ionization_Penalty>
0.000526714

> <r_epik_Ionization_Penalty_Charging>
0

> <r_epik_Ionization_Penalty_Neutral>
0.000526714

> <r_epik_State_Penalty>
0.000272704

> <r_epik_Charging_Adjusted_Penalty>
0.000272704

> <i_epik_Tot_Q>
0

> <i_epik_Tot_abs_Q>
0

> <r_epik_Metal_State_Penalty>
-0

> <b_epik_Metal_Only>
0

> <s_lp_Force_Field>
OPLS_2005

> <r_lp_Energy>
59.6109

> <b_lp_Chiralities_Consistent>
1

> <s_lp_Variant>
AV-unprocessed.smi:235-6

> <Gold.Version>
5.8.1

> <Gold.Id.Protein>
6NUR|6NUR_protein|mol2

> <Gold.PLP.Fitness>
53.1332

> <Gold.PLP.PLP>
-54.9608

> <Gold.PLP.part.hbond>
-1.0674

> <Gold.PLP.part.metal>
0.0000

> <Gold.PLP.part.buried>
-0.9249

> <Gold.PLP.part.nonpolar>
-51.4116

> <Gold.PLP.part.repulsive>
0.2644

> <Gold.PLP.ligand.clash>
0.0000

> <Gold.PLP.ligand.torsion>
1.0891

> <Gold.PLP.Chemscore.Hbond>
0.0000

> <Gold.PLP.Chemscore.CHOScore>
0.0000

> <Gold.PLP.Chemscore.Metal>
0.0000

> <Gold.PLP.Chemscore.Internal.Correction>
0.3506

> <Gold.Rescore>
     Score         DG    S(hbond)    S(metal)    S(lipo)     H(rot)  DE(clash)    DE(int)     intcor
      8.86     -12.63       0.00        0.00     119.65       2.68       0.11       3.65       ----

> <Gold.Chemscore.Fitness>
8.8631

> <Gold.Chemscore.DG>
-12.6280

> <Gold.Chemscore.ZeroCoef>
-5.4800

> <Gold.Chemscore.Hbond>
0.0000

> <Gold.Chemscore.Metal>
0.0000

> <Gold.Chemscore.Lipo>
119.6468

> <Gold.Chemscore.Internal_Hbond>
0.0000

> <Gold.Chemscore.DEClash>
0.1127

> <Gold.Chemscore.DEInternal>
3.6522

> <Gold.Chemscore.Rot>
2.6760

> <Gold.Chemscore.Internal.Correction>
   9.000000E+99

> <Gold.Chemscore.Hbond.Weighted>
-0.0000

> <Gold.Chemscore.Metal.Weighted>
-0.0000

> <Gold.Chemscore.Lipo.Weighted>
-13.9987

> <Gold.Chemscore.Internal_Hbond.Weighted>
0.0000

> <Gold.Chemscore.DEClash.Weighted>
0.1127

> <Gold.Chemscore.DEInternal.Weighted>
3.6522

> <Gold.Chemscore.Rot.Weighted>
6.8506

> <Gold.Chemscore.Internal.Correction.Weighted>
   9.000000E+99

> <Gold.Protein.RotatedTorsions>
[ 6907 6896 6895 6894 ] final -128.35 input  -60.11 | X-H torsion
[ 7974 7965 7964 7962 ] final  129.89 input  175.53 | X-H torsion
[ 8008 7997 7996 7995 ] final  -35.99 input   59.86 | X-H torsion
[ 10167 10162 10161 10158 ] final -150.99 input  -65.29 | X-H torsion
[ 10718 10713 10712 10709 ] final  -90.40 input   66.30 | X-H torsion
[ 10763 10752 10751 10750 ] final   61.81 input  -60.55 | X-H torsion
[ 11005 11000 10999 10996 ] final  -66.02 input  -57.11 | X-H torsion

> <Gold.Protein.ActiveResidues>
 VAL166  LYS551  ARG553  GLY616  TRP617  ASP618  TYR619  PRO620  LYS621  CYS622 
 ASP623  PHE694  ASN695  SER759  ASP760  ASP761  ALA762  ILE779  LEU786  VAL792 
 PHE793  MET794  SER795  GLU796  ALA797  LYS798  CYS799  TRP800  GLU811  SER814 

> <Gold.Protein.RotatedAtoms>
  150.9169  133.6928  159.2840 H   0  0  0  0  0  0  0  0  0  0  0  0  # atno 6907 bound_to 6896
  151.4395  135.1017  159.9675 H   0  0  0  0  0  0  0  0  0  0  0  0  # atno 6908 bound_to 6896
  152.4959  133.8581  159.7291 H   0  0  0  0  0  0  0  0  0  0  0  0  # atno 6909 bound_to 6896
  145.0238  139.4107  143.5184 H   0  0  0  0  0  0  0  0  0  0  0  0  # atno 7974 bound_to 7965
  154.4083  140.1642  156.2301 H   0  0  0  0  0  0  0  0  0  0  0  0  # atno 8008 bound_to 7997
  155.9290  140.3416  155.6211 H   0  0  0  0  0  0  0  0  0  0  0  0  # atno 8009 bound_to 7997
  155.7130  140.0759  157.2354 H   0  0  0  0  0  0  0  0  0  0  0  0  # atno 8010 bound_to 7997
  139.7306  143.8814  152.2533 H   0  0  0  0  0  0  0  0  0  0  0  0  # atno 10167 bound_to 10162
  155.9987  130.4908  150.5317 H   0  0  0  0  0  0  0  0  0  0  0  0  # atno 10718 bound_to 10713
  152.9962  135.5487  154.6092 H   0  0  0  0  0  0  0  0  0  0  0  0  # atno 10763 bound_to 10752
  154.5417  135.2820  155.1092 H   0  0  0  0  0  0  0  0  0  0  0  0  # atno 10764 bound_to 10752
  154.2367  135.6424  153.5246 H   0  0  0  0  0  0  0  0  0  0  0  0  # atno 10765 bound_to 10752
  141.1470  133.6692  156.6075 H   0  0  0  0  0  0  0  0  0  0  0  0  # atno 11005 bound_to 11000
  146.3489  139.9751  142.8702 LP  0  0  0  0  0  0  0  0  0  0  0  0  # atno 17320 bound_to 7965
  145.1860  140.9789  143.4238 LP  0  0  0  0  0  0  0  0  0  0  0  0  # atno 17321 bound_to 7965
  139.8736  144.7055  150.8959 LP  0  0  0  0  0  0  0  0  0  0  0  0  # atno 17342 bound_to 10162
  140.7770  143.3718  151.1636 LP  0  0  0  0  0  0  0  0  0  0  0  0  # atno 17343 bound_to 10162
  157.3265  131.0691  151.1893 LP  0  0  0  0  0  0  0  0  0  0  0  0  # atno 17370 bound_to 10713
  157.2788  130.6740  149.6056 LP  0  0  0  0  0  0  0  0  0  0  0  0  # atno 17371 bound_to 10713
  140.3640  134.7663  157.4554 LP  0  0  0  0  0  0  0  0  0  0  0  0  # atno 17394 bound_to 11000
  140.0762  134.5794  155.8588 LP  0  0  0  0  0  0  0  0  0  0  0  0  # atno 17395 bound_to 11000

$$$$
