AV-unprocessed.smi:1824|AV-procd|sdf|7402|dock3
  -GOLD-   22720 9 73D 1   1.00000     0.00000
 Structure written by MMmdl.
 45 47  0  0  0  0  0  0  0  0  2 V2000
  143.4013  142.9035  155.2986 C   0  0  0  0  0  0  0  0  0  0  0  0
  144.7246  142.1405  155.4205 C   0  0  1  0  0  0  0  0  0  0  0  0
  145.9416  143.0906  155.4201 C   0  0  0  0  0  0  0  0  0  0  0  0
  147.2103  142.3599  155.6713 N   0  3  2  0  0  0  0  0  0  0  0  0
  147.7586  141.6318  154.4946 C   0  0  0  0  0  0  0  0  0  0  0  0
  149.1756  141.0821  154.7523 C   0  0  1  0  0  0  0  0  0  0  0  0
  149.7906  140.8026  153.5087 O   0  0  0  0  0  0  0  0  0  0  0  0
  150.0479  142.0805  155.5376 C   0  0  0  0  0  0  0  0  0  0  0  0
  151.0156  141.4153  156.3915 N   0  0  0  0  0  0  0  0  0  0  0  0
  151.6315  140.2390  156.1641 C   0  0  0  0  0  0  0  0  0  0  0  0
  152.4836  139.8083  157.0898 N   0  0  0  0  0  0  0  0  0  0  0  0
  152.4167  140.8251  158.0267 C   0  0  0  0  0  0  0  0  0  0  0  0
  153.0861  140.9810  159.2614 C   0  0  0  0  0  0  0  0  0  0  0  0
  152.8575  142.1210  160.0599 C   0  0  0  0  0  0  0  0  0  0  0  0
  153.5094  142.2558  161.2390 F   0  0  0  0  0  0  0  0  0  0  0  0
  151.9555  143.1202  159.6369 C   0  0  0  0  0  0  0  0  0  0  0  0
  151.7419  144.2118  160.4091 F   0  0  0  0  0  0  0  0  0  0  0  0
  151.2747  142.9856  158.4118 C   0  0  0  0  0  0  0  0  0  0  0  0
  151.5075  141.8473  157.6183 C   0  0  0  0  0  0  0  0  0  0  0  0
  147.0962  141.5249  156.8919 C   0  0  0  0  0  0  0  0  0  0  0  0
  145.8601  140.6052  156.8285 C   0  0  1  0  0  0  0  0  0  0  0  0
  145.6754  139.7971  158.1178 C   0  0  0  0  0  0  0  0  0  0  0  0
  144.6999  141.4080  156.6409 O   0  0  0  0  0  0  0  0  0  0  0  0
  143.3625  143.4780  154.3728 H   0  0  0  0  0  0  0  0  0  0  0  0
  143.2668  143.5969  156.1294 H   0  0  0  0  0  0  0  0  0  0  0  0
  142.5546  142.2166  155.2990 H   0  0  0  0  0  0  0  0  0  0  0  0
  144.7900  141.4415  154.5859 H   0  0  0  0  0  0  0  0  0  0  0  0
  145.9891  143.6532  154.4886 H   0  0  0  0  0  0  0  0  0  0  0  0
  145.8211  143.8301  156.2133 H   0  0  0  0  0  0  0  0  0  0  0  0
  147.1063  140.7938  154.2443 H   0  0  0  0  0  0  0  0  0  0  0  0
  147.7585  142.2818  153.6195 H   0  0  0  0  0  0  0  0  0  0  0  0
  149.1216  140.1526  155.3183 H   0  0  0  0  0  0  0  0  0  0  0  0
  149.2317  140.2202  153.0167 H   0  0  0  0  0  0  0  0  0  0  0  0
  150.5807  142.7459  154.8565 H   0  0  0  0  0  0  0  0  0  0  0  0
  149.4220  142.7151  156.1664 H   0  0  0  0  0  0  0  0  0  0  0  0
  151.4397  139.6635  155.2702 H   0  0  0  0  0  0  0  0  0  0  0  0
  153.7783  140.2224  159.5955 H   0  0  0  0  0  0  0  0  0  0  0  0
  150.5839  143.7490  158.0866 H   0  0  0  0  0  0  0  0  0  0  0  0
  148.0075  140.9463  157.0469 H   0  0  0  0  0  0  0  0  0  0  0  0
  147.0100  142.1910  157.7515 H   0  0  0  0  0  0  0  0  0  0  0  0
  145.9549  139.9067  155.9954 H   0  0  0  0  0  0  0  0  0  0  0  0
  146.5367  139.1554  158.3055 H   0  0  0  0  0  0  0  0  0  0  0  0
  144.7939  139.1587  158.0548 H   0  0  0  0  0  0  0  0  0  0  0  0
  145.5505  140.4513  158.9811 H   0  0  0  0  0  0  0  0  0  0  0  0
  147.9074  143.0599  155.8842 H   0  0  0  0  0  0  0  0  0  0  0  0
  1  2  1  0  0  0  0
  1 24  1  0  0  0  0
  1 25  1  0  0  0  0
  1 26  1  0  0  0  0
  2 23  1  0  0  0  0
  2  3  1  0  0  0  0
  2 27  1  0  0  0  0
  3  4  1  0  0  0  0
  3 28  1  0  0  0  0
  3 29  1  0  0  0  0
  4  5  1  0  0  0  0
  4 20  1  0  0  0  0
  4 45  1  0  0  0  0
  5  6  1  0  0  0  0
  5 30  1  0  0  0  0
  5 31  1  0  0  0  0
  6  7  1  0  0  0  0
  6  8  1  0  0  0  0
  6 32  1  0  0  0  0
  7 33  1  0  0  0  0
  8  9  1  0  0  0  0
  8 34  1  0  0  0  0
  8 35  1  0  0  0  0
  9 19  1  0  0  0  0
  9 10  1  0  0  0  0
 10 11  2  0  0  0  0
 10 36  1  0  0  0  0
 11 12  1  0  0  0  0
 12 19  2  0  0  0  0
 12 13  1  0  0  0  0
 13 14  2  0  0  0  0
 13 37  1  0  0  0  0
 14 15  1  0  0  0  0
 14 16  1  0  0  0  0
 16 17  1  0  0  0  0
 16 18  2  0  0  0  0
 18 19  1  0  0  0  0
 18 38  1  0  0  0  0
 20 21  1  0  0  0  0
 20 39  1  0  0  0  0
 20 40  1  0  0  0  0
 21 22  1  0  0  0  0
 21 23  1  0  0  0  0
 21 41  1  0  0  0  0
 22 42  1  0  0  0  0
 22 43  1  0  0  0  0
 22 44  1  0  0  0  0
M  CHG  1   4   1
M  END
> <s_m_source_file>
AV-unprocessed.smi

> <i_m_source_file_index>
1824

> <i_lp_mmshare_version>
43012

> <i_f3d_flags>
0

> <s_epik_input>
W0NIM11bQ0BASF0xW0NIMl1OKFtDSDJdW0NASF0oTzEpW0NIM10pW0NIMl1bQ0BIXShbT0hdKVtDSDJdbihbY0hdbjIpYyhjMjMpW2NIXWMoRiljKEYpW2NIXTM=

> <s_epik_cmdline>
J2VwaWtfcHl0aG9uJywgJy1waCcsICc3LjAnLCAnLXRuJywgJzgnLCAnLW1hJywgJzIwMCcsICctbWV0YWxfYmluZGluZycsICctaW1hZScsICc8aW5maWxlLm1hZT4nLCAnLW9tYWUnLCAnPG91dGZpbGUubWFlPic=

> <r_epik_Ionization_Penalty>
0.61967

> <r_epik_Ionization_Penalty_Charging>
0.608065

> <r_epik_Ionization_Penalty_Neutral>
0.0116057

> <r_epik_State_Penalty>
0.664205

> <r_epik_Charging_Adjusted_Penalty>
1.27227

> <i_epik_Tot_Q>
1

> <i_epik_Tot_abs_Q>
1

> <r_epik_Metal_State_Penalty>
0.654947

> <b_epik_Metal_Only>
0

> <s_lp_Force_Field>
OPLS_2005

> <r_lp_Energy>
21.9473

> <b_lp_Chiralities_Consistent>
1

> <s_lp_Variant>
AV-unprocessed.smi:1824-10

> <Gold.Version>
5.8.1

> <Gold.Id.Protein>
6NUR|6NUR_protein|mol2

> <Gold.PLP.Fitness>
55.6981

> <Gold.PLP.PLP>
-43.3824

> <Gold.PLP.part.hbond>
-4.4972

> <Gold.PLP.part.metal>
0.0000

> <Gold.PLP.part.buried>
-2.4007

> <Gold.PLP.part.nonpolar>
-34.9353

> <Gold.PLP.part.repulsive>
0.0797

> <Gold.PLP.ligand.clash>
0.0000

> <Gold.PLP.ligand.torsion>
0.9600

> <Gold.PLP.Chemscore.Hbond>
4.7040

> <Gold.PLP.Chemscore.CHOScore>
0.0000

> <Gold.PLP.Chemscore.Metal>
0.0000

> <Gold.Chemscore.Hbonds>
donor molecule, donor type, donor heavy atom, donor atom, acceptor molecule, acceptor atom, score
      L1  H     4    45       P1  8028  2.00
      L1  H     7    33       P1  7957  0.34
      P1  H  7989  7998       L1     7  0.35
      P1  H  7997  8008       L1    11  1.00
      P1  H  8011  8017       L1     7  1.00

> <Gold.PLP.Chemscore.Internal.Correction>
0.1237

> <Gold.Rescore>
     Score         DG    S(hbond)    S(metal)    S(lipo)     H(rot)  DE(clash)    DE(int)     intcor
     15.41     -17.45       2.30        0.00      87.44       2.33       1.13       0.91       ----

> <Gold.Chemscore.Fitness>
15.4115

> <Gold.Chemscore.DG>
-17.4524

> <Gold.Chemscore.ZeroCoef>
-5.4800

> <Gold.Chemscore.Hbond>
2.3038

> <Gold.Chemscore.Metal>
0.0000

> <Gold.Chemscore.Lipo>
87.4373

> <Gold.Chemscore.Internal_Hbond>
0.0000

> <Gold.Chemscore.DEClash>
1.1263

> <Gold.Chemscore.DEInternal>
0.9147

> <Gold.Chemscore.Rot>
2.3251

> <Gold.Chemscore.Internal.Correction>
   9.000000E+99

> <Gold.Chemscore.Hbonds>
donor molecule, donor type, donor heavy atom, donor atom, acceptor molecule, acceptor atom, score
      L1  H     4    45       P1  8028  0.49
      L1  H     7    33       P1  7957  0.34
      P1  H  7989  7998       L1     7  0.34
      P1  H  7997  8008       L1    11  0.14
      P1  H  8011  8017       L1     7  0.23

> <Gold.Chemscore.Hbond.Weighted>
-7.6946

> <Gold.Chemscore.Metal.Weighted>
-0.0000

> <Gold.Chemscore.Lipo.Weighted>
-10.2302

> <Gold.Chemscore.Internal_Hbond.Weighted>
0.0000

> <Gold.Chemscore.DEClash.Weighted>
1.1263

> <Gold.Chemscore.DEInternal.Weighted>
0.9147

> <Gold.Chemscore.Rot.Weighted>
5.9523

> <Gold.Chemscore.Internal.Correction.Weighted>
   9.000000E+99

> <Gold.Protein.RotatedTorsions>
[ 6907 6896 6895 6894 ] final  120.53 input  -60.11 | X-H torsion
[ 7974 7965 7964 7962 ] final  -36.64 input  175.53 | X-H torsion
[ 8008 7997 7996 7995 ] final  -43.54 input   59.86 | X-H torsion
[ 10167 10162 10161 10158 ] final   87.74 input  -65.29 | X-H torsion
[ 10718 10713 10712 10709 ] final  100.18 input   66.30 | X-H torsion
[ 10763 10752 10751 10750 ] final   84.79 input  -60.55 | X-H torsion
[ 11005 11000 10999 10996 ] final   34.92 input  -57.11 | X-H torsion

> <Gold.Protein.ActiveResidues>
 VAL166  LYS551  ARG553  GLY616  TRP617  ASP618  TYR619  PRO620  LYS621  CYS622 
 ASP623  PHE694  ASN695  SER759  ASP760  ASP761  ALA762  ILE779  LEU786  VAL792 
 PHE793  MET794  SER795  GLU796  ALA797  LYS798  CYS799  TRP800  GLU811  SER814 

> <Gold.Protein.RotatedAtoms>
  152.4391  133.7414  159.6642 H   0  0  0  0  0  0  0  0  0  0  0  0  # atno 6907 bound_to 6896
  150.8278  133.8131  159.3117 H   0  0  0  0  0  0  0  0  0  0  0  0  # atno 6908 bound_to 6896
  151.5794  135.1061  160.0065 H   0  0  0  0  0  0  0  0  0  0  0  0  # atno 6909 bound_to 6896
  146.0644  140.6302  142.8982 H   0  0  0  0  0  0  0  0  0  0  0  0  # atno 7974 bound_to 7965
  154.3997  140.1445  156.3536 H   0  0  0  0  0  0  0  0  0  0  0  0  # atno 8008 bound_to 7997
  155.8246  140.3468  155.5514 H   0  0  0  0  0  0  0  0  0  0  0  0  # atno 8009 bound_to 7997
  155.8252  140.0904  157.1816 H   0  0  0  0  0  0  0  0  0  0  0  0  # atno 8010 bound_to 7997
  139.8743  144.6475  150.8914 H   0  0  0  0  0  0  0  0  0  0  0  0  # atno 10167 bound_to 10162
  157.6860  131.0691  150.5062 H   0  0  0  0  0  0  0  0  0  0  0  0  # atno 10718 bound_to 10713
  153.1415  135.4641  154.9502 H   0  0  0  0  0  0  0  0  0  0  0  0  # atno 10763 bound_to 10752
  154.7750  135.3170  154.8112 H   0  0  0  0  0  0  0  0  0  0  0  0  # atno 10764 bound_to 10752
  153.8634  135.6910  153.4835 H   0  0  0  0  0  0  0  0  0  0  0  0  # atno 10765 bound_to 10752
  140.2479  134.3338  155.7901 H   0  0  0  0  0  0  0  0  0  0  0  0  # atno 11005 bound_to 11000
  144.7193  140.4320  143.7020 LP  0  0  0  0  0  0  0  0  0  0  0  0  # atno 17320 bound_to 7965
  145.6504  139.1564  143.2865 LP  0  0  0  0  0  0  0  0  0  0  0  0  # atno 17321 bound_to 7965
  140.7755  143.3638  151.1778 LP  0  0  0  0  0  0  0  0  0  0  0  0  # atno 17342 bound_to 10162
  139.7255  143.9155  152.3001 LP  0  0  0  0  0  0  0  0  0  0  0  0  # atno 17343 bound_to 10162
  156.5381  130.4201  149.6167 LP  0  0  0  0  0  0  0  0  0  0  0  0  # atno 17370 bound_to 10713
  156.3009  130.7176  151.2048 LP  0  0  0  0  0  0  0  0  0  0  0  0  # atno 17371 bound_to 10713
  141.2204  133.7336  156.8990 LP  0  0  0  0  0  0  0  0  0  0  0  0  # atno 17394 bound_to 11000
  140.1587  134.9180  157.2687 LP  0  0  0  0  0  0  0  0  0  0  0  0  # atno 17395 bound_to 11000

$$$$
