AV-unprocessed.smi:266|AV-procd|sdf|2032|dock10
  -GOLD-   2262021243D 1   1.00000     0.00000
 Structure written by MMmdl.
 52 55  0  0  0  0  0  0  0  0  1 V2000
  150.7610  144.9130  158.7119 C   0  0  0  0  0  0  0  0  0  0  0  0
  151.8573  143.8385  158.6295 C   0  0  1  0  0  0  0  0  0  0  0  0
  152.6295  143.8780  159.8257 O   0  0  0  0  0  0  0  0  0  0  0  0
  153.1444  142.5819  160.0692 C   0  0  0  0  0  0  0  0  0  0  0  0
  151.9583  141.6966  159.7242 C   0  0  0  0  0  0  0  0  0  0  0  0
  151.3835  142.3660  158.4743 C   0  0  1  0  0  0  0  0  0  0  0  0
  149.9720  142.2430  158.5138 O   0  0  0  0  0  0  0  0  0  0  0  0
  151.8977  141.7564  157.1429 C   0  0  0  0  0  0  0  0  0  0  0  0
  151.6979  140.3196  157.0169 N   0  0  0  0  0  0  0  0  0  0  0  0
  152.1708  139.3472  157.8662 C   0  0  0  0  0  0  0  0  0  0  0  0
  151.8661  138.1246  157.5319 N   0  0  0  0  0  0  0  0  0  0  0  0
  151.1394  138.2506  156.3509 C   0  0  0  0  0  0  0  0  0  0  0  0
  150.5142  137.3325  155.4478 C   0  0  0  0  0  0  0  0  0  0  0  0
  150.4997  135.9740  155.5950 N   0  0  0  0  0  0  0  0  0  0  0  0
  151.2792  135.3431  156.6536 C   0  0  0  0  0  0  0  0  0  0  0  0
  149.5761  135.1269  154.8339 C   0  0  0  0  0  0  0  0  0  0  0  0
  149.7790  133.6227  155.1052 C   0  0  2  0  0  0  0  0  0  0  0  0
  149.1295  132.7447  154.0186 C   0  0  0  0  0  0  0  0  0  0  0  0
  149.1601  131.2848  154.4835 C   0  0  0  0  0  0  0  0  0  0  0  0
  148.9836  131.3423  156.3058 S   0  0  0  0  0  0  0  0  0  0  0  0
  147.6006  131.0076  156.6778 O   0  0  0  0  0  0  0  0  0  0  0  0
  150.1235  130.6422  156.9169 O   0  0  0  0  0  0  0  0  0  0  0  0
  149.2233  133.1525  156.4590 C   0  0  0  0  0  0  0  0  0  0  0  0
  149.8994  137.8752  154.3623 N   0  0  0  0  0  0  0  0  0  0  0  0
  149.8793  139.1954  154.1665 C   0  0  0  0  0  0  0  0  0  0  0  0
  150.4099  140.1556  154.9218 N   0  0  0  0  0  0  0  0  0  0  0  0
  151.0353  139.6332  156.0135 C   0  0  0  0  0  0  0  0  0  0  0  0
  150.1544  144.9262  157.8061 H   0  0  0  0  0  0  0  0  0  0  0  0
  151.1996  145.9044  158.8290 H   0  0  0  0  0  0  0  0  0  0  0  0
  150.0992  144.7436  159.5616 H   0  0  0  0  0  0  0  0  0  0  0  0
  152.5301  144.0973  157.8104 H   0  0  0  0  0  0  0  0  0  0  0  0
  153.9900  142.3852  159.4084 H   0  0  0  0  0  0  0  0  0  0  0  0
  153.4735  142.4660  161.1019 H   0  0  0  0  0  0  0  0  0  0  0  0
  152.2335  140.6510  159.5986 H   0  0  0  0  0  0  0  0  0  0  0  0
  151.2434  141.7449  160.5476 H   0  0  0  0  0  0  0  0  0  0  0  0
  149.5983  142.8693  157.9130 H   0  0  0  0  0  0  0  0  0  0  0  0
  151.4079  142.2418  156.2976 H   0  0  0  0  0  0  0  0  0  0  0  0
  152.9641  141.9556  157.0278 H   0  0  0  0  0  0  0  0  0  0  0  0
  152.7491  139.5746  158.7500 H   0  0  0  0  0  0  0  0  0  0  0  0
  151.0340  135.7749  157.6244 H   0  0  0  0  0  0  0  0  0  0  0  0
  152.3471  135.4629  156.4689 H   0  0  0  0  0  0  0  0  0  0  0  0
  151.0744  134.2735  156.7084 H   0  0  0  0  0  0  0  0  0  0  0  0
  148.5341  135.4078  154.9873 H   0  0  0  0  0  0  0  0  0  0  0  0
  149.7630  135.3193  153.7767 H   0  0  0  0  0  0  0  0  0  0  0  0
  150.8472  133.4016  155.0910 H   0  0  0  0  0  0  0  0  0  0  0  0
  148.0911  133.0508  153.8840 H   0  0  0  0  0  0  0  0  0  0  0  0
  149.6240  132.8639  153.0541 H   0  0  0  0  0  0  0  0  0  0  0  0
  148.3668  130.6795  154.0448 H   0  0  0  0  0  0  0  0  0  0  0  0
  150.1210  130.8246  154.2521 H   0  0  0  0  0  0  0  0  0  0  0  0
  149.8848  133.3774  157.2956 H   0  0  0  0  0  0  0  0  0  0  0  0
  148.2475  133.5963  156.6567 H   0  0  0  0  0  0  0  0  0  0  0  0
  149.3638  139.5297  153.2782 H   0  0  0  0  0  0  0  0  0  0  0  0
  1  2  1  0  0  0  0
  1 28  1  0  0  0  0
  1 29  1  0  0  0  0
  1 30  1  0  0  0  0
  2  6  1  0  0  0  0
  2  3  1  0  0  0  0
  2 31  1  0  0  0  0
  3  4  1  0  0  0  0
  4  5  1  0  0  0  0
  4 32  1  0  0  0  0
  4 33  1  0  0  0  0
  5  6  1  0  0  0  0
  5 34  1  0  0  0  0
  5 35  1  0  0  0  0
  6  7  1  0  0  0  0
  6  8  1  0  0  0  0
  7 36  1  0  0  0  0
  8  9  1  0  0  0  0
  8 37  1  0  0  0  0
  8 38  1  0  0  0  0
  9 27  1  0  0  0  0
  9 10  1  0  0  0  0
 10 11  2  0  0  0  0
 10 39  1  0  0  0  0
 11 12  1  0  0  0  0
 12 27  2  0  0  0  0
 12 13  1  0  0  0  0
 13 14  1  0  0  0  0
 13 24  2  0  0  0  0
 14 15  1  0  0  0  0
 14 16  1  0  0  0  0
 15 40  1  0  0  0  0
 15 41  1  0  0  0  0
 15 42  1  0  0  0  0
 16 17  1  0  0  0  0
 16 43  1  0  0  0  0
 16 44  1  0  0  0  0
 17 23  1  0  0  0  0
 17 18  1  0  0  0  0
 17 45  1  0  0  0  0
 18 19  1  0  0  0  0
 18 46  1  0  0  0  0
 18 47  1  0  0  0  0
 19 20  1  0  0  0  0
 19 48  1  0  0  0  0
 19 49  1  0  0  0  0
 20 21  2  0  0  0  0
 20 22  2  0  0  0  0
 20 23  1  0  0  0  0
 23 50  1  0  0  0  0
 23 51  1  0  0  0  0
 24 25  1  0  0  0  0
 25 26  2  0  0  0  0
 25 52  1  0  0  0  0
 26 27  1  0  0  0  0
M  END
> <s_m_source_file>
AV-unprocessed.smi

> <i_m_source_file_index>
266

> <i_lp_mmshare_version>
43012

> <i_f3d_flags>
0

> <s_epik_input>
W0NIMl0xW0NIMl1PW0NAQEhdKFtDSDNdKVtDQEBdMShbT0hdKVtDSDJdbihbY0hdbjIpYyhjMjMpbltjSF1uYzNOKFtDSDNdKVtDSDJdW0NAQEhdKFtDSDJdNClbQ0gyXVtDSDJdUzQoPU8pPU8=

> <s_epik_cmdline>
J2VwaWtfcHl0aG9uJywgJy1waCcsICc3LjAnLCAnLXRuJywgJzgnLCAnLW1hJywgJzIwMCcsICctbWV0YWxfYmluZGluZycsICctaW1hZScsICc8aW5maWxlLm1hZT4nLCAnLW9tYWUnLCAnPG91dGZpbGUubWFlPic=

> <r_lp_tautomer_probability>
1

> <r_epik_Ionization_Penalty>
0.00155497

> <r_epik_Ionization_Penalty_Charging>
0

> <r_epik_Ionization_Penalty_Neutral>
0.00155497

> <r_epik_State_Penalty>
-0

> <r_epik_Charging_Adjusted_Penalty>
0

> <i_epik_Tot_Q>
0

> <i_epik_Tot_abs_Q>
0

> <r_epik_Metal_State_Penalty>
-0

> <b_epik_Metal_Only>
0

> <s_lp_Force_Field>
OPLS_2005

> <r_lp_Energy>
32.0182

> <b_lp_Chiralities_Consistent>
1

> <s_lp_Variant>
AV-unprocessed.smi:266-2

> <Gold.Version>
5.8.1

> <Gold.Id.Protein>
6NUR|6NUR_protein|mol2

> <Gold.PLP.Fitness>
43.0680

> <Gold.PLP.PLP>
-38.1961

> <Gold.PLP.part.hbond>
-1.0805

> <Gold.PLP.part.metal>
0.0000

> <Gold.PLP.part.buried>
-5.2249

> <Gold.PLP.part.nonpolar>
-32.2066

> <Gold.PLP.part.repulsive>
0.2924

> <Gold.PLP.ligand.clash>
0.0000

> <Gold.PLP.ligand.torsion>
0.3079

> <Gold.PLP.Chemscore.Hbond>
0.7930

> <Gold.PLP.Chemscore.CHOScore>
1.0000

> <Gold.PLP.Chemscore.Metal>
0.0000

> <Gold.Chemscore.Hbonds>
donor molecule, donor type, donor heavy atom, donor atom, acceptor molecule, acceptor atom, score
      P1  H  7989  7998       L1    26  0.80
      L1  C    25    52       P1  7957  1.00

> <Gold.PLP.Chemscore.Internal.Correction>
0.1086

> <Gold.Rescore>
     Score         DG    S(hbond)    S(metal)    S(lipo)     H(rot)  DE(clash)    DE(int)     intcor
      7.62     -11.39       0.30        0.00      95.34       2.45       1.71       2.06       ----

> <Gold.Chemscore.Fitness>
7.6166

> <Gold.Chemscore.DG>
-11.3867

> <Gold.Chemscore.ZeroCoef>
-5.4800

> <Gold.Chemscore.Hbond>
0.3044

> <Gold.Chemscore.Metal>
0.0000

> <Gold.Chemscore.Lipo>
95.3393

> <Gold.Chemscore.Internal_Hbond>
0.0000

> <Gold.Chemscore.DEClash>
1.7104

> <Gold.Chemscore.DEInternal>
2.0597

> <Gold.Chemscore.Rot>
2.4471

> <Gold.Chemscore.Internal.Correction>
   9.000000E+99

> <Gold.Chemscore.Hbonds>
donor molecule, donor type, donor heavy atom, donor atom, acceptor molecule, acceptor atom, score
      P1  H  7989  7998       L1    26  0.10

> <Gold.Chemscore.Hbond.Weighted>
-1.0166

> <Gold.Chemscore.Metal.Weighted>
-0.0000

> <Gold.Chemscore.Lipo.Weighted>
-11.1547

> <Gold.Chemscore.Internal_Hbond.Weighted>
0.0000

> <Gold.Chemscore.DEClash.Weighted>
1.7104

> <Gold.Chemscore.DEInternal.Weighted>
2.0597

> <Gold.Chemscore.Rot.Weighted>
6.2645

> <Gold.Chemscore.Internal.Correction.Weighted>
   9.000000E+99

> <Gold.Protein.RotatedTorsions>
[ 6907 6896 6895 6894 ] final  174.12 input  -60.11 | X-H torsion
[ 7974 7965 7964 7962 ] final   -3.35 input  175.53 | X-H torsion
[ 8008 7997 7996 7995 ] final -108.68 input   59.86 | X-H torsion
[ 10167 10162 10161 10158 ] final  100.78 input  -65.29 | X-H torsion
[ 10718 10713 10712 10709 ] final  -81.27 input   66.30 | X-H torsion
[ 10763 10752 10751 10750 ] final  169.99 input  -60.55 | X-H torsion
[ 11005 11000 10999 10996 ] final  -76.64 input  -57.11 | X-H torsion

> <Gold.Protein.ActiveResidues>
 VAL166  LYS551  ARG553  GLY616  TRP617  ASP618  TYR619  PRO620  LYS621  CYS622 
 ASP623  PHE694  ASN695  SER759  ASP760  ASP761  ALA762  ILE779  LEU786  VAL792 
 PHE793  MET794  SER795  GLU796  ALA797  LYS798  CYS799  TRP800  GLU811  SER814 

> <Gold.Protein.RotatedAtoms>
  151.7573  133.3331  159.3407 H   0  0  0  0  0  0  0  0  0  0  0  0  # atno 6907 bound_to 6896
  150.7511  134.6137  159.6109 H   0  0  0  0  0  0  0  0  0  0  0  0  # atno 6908 bound_to 6896
  152.3428  134.7113  160.0310 H   0  0  0  0  0  0  0  0  0  0  0  0  # atno 6909 bound_to 6896
  146.2391  140.1708  142.8332 H   0  0  0  0  0  0  0  0  0  0  0  0  # atno 7974 bound_to 7965
  154.9479  140.0401  157.2129 H   0  0  0  0  0  0  0  0  0  0  0  0  # atno 8008 bound_to 7997
  154.8006  140.2851  155.5902 H   0  0  0  0  0  0  0  0  0  0  0  0  # atno 8009 bound_to 7997
  156.2961  140.2556  156.2873 H   0  0  0  0  0  0  0  0  0  0  0  0  # atno 8010 bound_to 7997
  139.7497  144.6987  151.0451 H   0  0  0  0  0  0  0  0  0  0  0  0  # atno 10167 bound_to 10162
  156.0053  130.4599  150.3927 H   0  0  0  0  0  0  0  0  0  0  0  0  # atno 10718 bound_to 10713
  154.3911  135.2754  155.2154 H   0  0  0  0  0  0  0  0  0  0  0  0  # atno 10763 bound_to 10752
  154.4220  135.5998  153.6019 H   0  0  0  0  0  0  0  0  0  0  0  0  # atno 10764 bound_to 10752
  152.9832  135.5975  154.4166 H   0  0  0  0  0  0  0  0  0  0  0  0  # atno 10765 bound_to 10752
  141.1655  133.6991  156.7700 H   0  0  0  0  0  0  0  0  0  0  0  0  # atno 11005 bound_to 11000
  145.0013  140.8634  143.5280 LP  0  0  0  0  0  0  0  0  0  0  0  0  # atno 17320 bound_to 7965
  145.1728  139.2395  143.5333 LP  0  0  0  0  0  0  0  0  0  0  0  0  # atno 17321 bound_to 7965
  140.7796  143.4824  151.0000 LP  0  0  0  0  0  0  0  0  0  0  0  0  # atno 17342 bound_to 10162
  139.8512  143.7436  152.3178 LP  0  0  0  0  0  0  0  0  0  0  0  0  # atno 17343 bound_to 10162
  157.2000  131.0436  151.2655 LP  0  0  0  0  0  0  0  0  0  0  0  0  # atno 17370 bound_to 10713
  157.3984  130.7320  149.6748 LP  0  0  0  0  0  0  0  0  0  0  0  0  # atno 17371 bound_to 10713
  140.2471  134.8569  157.3631 LP  0  0  0  0  0  0  0  0  0  0  0  0  # atno 17394 bound_to 11000
  140.1739  134.4574  155.7814 LP  0  0  0  0  0  0  0  0  0  0  0  0  # atno 17395 bound_to 11000

$$$$
