AV-unprocessed.smi:69|AV-procd|sdf|646|dock4
  -GOLD-   2262016543D 1   1.00000     0.00000
 Structure written by MMmdl.
 32 34  0  0  0  0  0  0  0  0  1 V2000
  153.6324  137.1196  162.6286 N   0  0  0  0  0  0  0  0  0  0  0  0
  153.5964  138.1227  161.7409 C   0  0  0  0  0  0  0  0  0  0  0  0
  154.3140  139.2399  162.0039 N   0  0  0  0  0  0  0  0  0  0  0  0
  154.2950  140.2541  161.1329 C   0  0  0  0  0  0  0  0  0  0  0  0
  153.6410  140.3460  159.9723 N   0  0  0  0  0  0  0  0  0  0  0  0
  152.9188  139.2180  159.7074 C   0  0  0  0  0  0  0  0  0  0  0  0
  152.8442  138.0672  160.5402 C   0  0  0  0  0  0  0  0  0  0  0  0
  152.0171  137.1151  159.9598 N   0  0  0  0  0  0  0  0  0  0  0  0
  151.6272  137.6758  158.8465 C   0  0  0  0  0  0  0  0  0  0  0  0
  152.1269  138.9383  158.6114 N   0  0  0  0  0  0  0  0  0  0  0  0
  151.8703  139.8156  157.4246 C   0  0  1  0  0  0  0  0  0  0  0  0
  152.2431  139.1258  156.2738 O   0  0  0  0  0  0  0  0  0  0  0  0
  151.3632  139.4804  155.2142 C   0  0  1  0  0  0  0  0  0  0  0  0
  151.4266  138.4478  154.0751 C   0  0  0  0  0  0  0  0  0  0  0  0
  150.2386  138.4922  153.3138 O   0  0  0  0  0  0  0  0  0  0  0  0
  150.0041  139.6124  155.9180 C   0  0  1  0  0  0  0  0  0  0  0  0
  149.3647  138.3527  156.0368 O   0  0  0  0  0  0  0  0  0  0  0  0
  150.3854  140.2108  157.2712 C   0  0  1  0  0  0  0  0  0  0  0  0
  149.5264  139.8164  158.3296 O   0  0  0  0  0  0  0  0  0  0  0  0
  152.5226  140.6780  157.5707 H   0  0  0  0  0  0  0  0  0  0  0  0
  151.6496  140.4668  154.8436 H   0  0  0  0  0  0  0  0  0  0  0  0
  149.3323  140.2724  155.3684 H   0  0  0  0  0  0  0  0  0  0  0  0
  150.3539  141.2988  157.1998 H   0  0  0  0  0  0  0  0  0  0  0  0
  153.1065  136.2751  162.4544 H   0  0  0  0  0  0  0  0  0  0  0  0
  154.1884  137.2084  163.4665 H   0  0  0  0  0  0  0  0  0  0  0  0
  154.8891  141.1145  161.4027 H   0  0  0  0  0  0  0  0  0  0  0  0
  150.9622  137.1765  158.1568 H   0  0  0  0  0  0  0  0  0  0  0  0
  152.2933  138.6152  153.4349 H   0  0  0  0  0  0  0  0  0  0  0  0
  151.5122  137.4407  154.4844 H   0  0  0  0  0  0  0  0  0  0  0  0
  150.0937  137.6386  152.9350 H   0  0  0  0  0  0  0  0  0  0  0  0
  148.5613  138.4720  156.5204 H   0  0  0  0  0  0  0  0  0  0  0  0
  148.6793  140.2117  158.1915 H   0  0  0  0  0  0  0  0  0  0  0  0
  1  2  1  0  0  0  0
  1 24  1  0  0  0  0
  1 25  1  0  0  0  0
  2  7  1  0  0  0  0
  2  3  2  0  0  0  0
  3  4  1  0  0  0  0
  4  5  2  0  0  0  0
  4 26  1  0  0  0  0
  5  6  1  0  0  0  0
  6 10  1  0  0  0  0
  6  7  2  0  0  0  0
  7  8  1  0  0  0  0
  8  9  2  0  0  0  0
  9 10  1  0  0  0  0
  9 27  1  0  0  0  0
 10 11  1  0  0  0  0
 11 20  1  0  0  0  0
 11 18  1  0  0  0  0
 11 12  1  0  0  0  0
 12 13  1  0  0  0  0
 13 21  1  0  0  0  0
 13 14  1  0  0  0  0
 13 16  1  0  0  0  0
 14 15  1  0  0  0  0
 14 28  1  0  0  0  0
 14 29  1  0  0  0  0
 15 30  1  0  0  0  0
 16 22  1  0  0  0  0
 16 17  1  0  0  0  0
 16 18  1  0  0  0  0
 17 31  1  0  0  0  0
 18 23  1  0  0  0  0
 18 19  1  0  0  0  0
 19 32  1  0  0  0  0
M  END
> <s_m_source_file>
AV-unprocessed.smi

> <i_m_source_file_index>
69

> <i_lp_mmshare_version>
43012

> <i_f3d_flags>
0

> <s_epik_input>
bjFbY0hdbmMoW05IMl0pYyhjMTIpbltjSF1uMltDQEBIXTNPW0NASF0oW0NIMl1bT0hdKVtDQEBIXShbT0hdKVtDQEhdM1tPSF0=

> <s_epik_cmdline>
J2VwaWtfcHl0aG9uJywgJy1waCcsICc3LjAnLCAnLXRuJywgJzgnLCAnLW1hJywgJzIwMCcsICctbWV0YWxfYmluZGluZycsICctaW1hZScsICc8aW5maWxlLm1hZT4nLCAnLW9tYWUnLCAnPG91dGZpbGUubWFlPic=

> <r_lp_tautomer_probability>
1

> <r_epik_Ionization_Penalty>
0.000428445

> <r_epik_Ionization_Penalty_Charging>
0

> <r_epik_Ionization_Penalty_Neutral>
0.000428445

> <r_epik_State_Penalty>
-0

> <r_epik_Charging_Adjusted_Penalty>
0

> <i_epik_Tot_Q>
0

> <i_epik_Tot_abs_Q>
0

> <r_epik_Metal_State_Penalty>
-0

> <b_epik_Metal_Only>
0

> <s_epik_Chemistry_Notes>
This compound contains an acetal/aminal-like group ( X-CH(R)-Y where X, Y are N, S, or O) that may be acid/base labile, releasing an aldehyde.

> <s_lp_Force_Field>
OPLS_2005

> <r_lp_Energy>
45.7014

> <b_lp_Chiralities_Consistent>
1

> <s_lp_Variant>
AV-unprocessed.smi:69-4

> <Gold.Version>
5.8.1

> <Gold.Id.Protein>
6NUR|6NUR_protein|mol2

> <Gold.PLP.Fitness>
30.2509

> <Gold.PLP.PLP>
-24.0929

> <Gold.PLP.part.hbond>
-3.3727

> <Gold.PLP.part.metal>
0.0000

> <Gold.PLP.part.buried>
-4.3964

> <Gold.PLP.part.nonpolar>
-16.0683

> <Gold.PLP.part.repulsive>
0.0122

> <Gold.PLP.ligand.clash>
0.0000

> <Gold.PLP.ligand.torsion>
0.2307

> <Gold.PLP.Chemscore.Hbond>
2.2056

> <Gold.PLP.Chemscore.CHOScore>
0.0000

> <Gold.PLP.Chemscore.Metal>
0.0000

> <Gold.Chemscore.Hbonds>
donor molecule, donor type, donor heavy atom, donor atom, acceptor molecule, acceptor atom, score
      L1  H    15    30       P1  7948  0.80
      P1  H  6896  6909       L1     8  1.00
      P1  H  7997  8008       L1    12  0.15

> <Gold.PLP.Chemscore.Internal.Correction>
0.0026

> <Gold.Rescore>
     Score         DG    S(hbond)    S(metal)    S(lipo)     H(rot)  DE(clash)    DE(int)     intcor
      5.02      -5.32       1.96        0.00      30.86       4.03       0.02       0.28       ----

> <Gold.Chemscore.Fitness>
5.0201

> <Gold.Chemscore.DG>
-5.3177

> <Gold.Chemscore.ZeroCoef>
-5.4800

> <Gold.Chemscore.Hbond>
1.9577

> <Gold.Chemscore.Metal>
0.0000

> <Gold.Chemscore.Lipo>
30.8551

> <Gold.Chemscore.Internal_Hbond>
0.0000

> <Gold.Chemscore.DEClash>
0.0202

> <Gold.Chemscore.DEInternal>
0.2774

> <Gold.Chemscore.Rot>
4.0277

> <Gold.Chemscore.Internal.Correction>
   9.000000E+99

> <Gold.Chemscore.Hbonds>
donor molecule, donor type, donor heavy atom, donor atom, acceptor molecule, acceptor atom, score
      L1  H    15    30       P1  7948  0.13
      P1  H  6896  6909       L1     8  0.90
      P1  H  7997  8008       L1    12  0.01

> <Gold.Chemscore.Hbond.Weighted>
-6.5387

> <Gold.Chemscore.Metal.Weighted>
-0.0000

> <Gold.Chemscore.Lipo.Weighted>
-3.6100

> <Gold.Chemscore.Internal_Hbond.Weighted>
0.0000

> <Gold.Chemscore.DEClash.Weighted>
0.0202

> <Gold.Chemscore.DEInternal.Weighted>
0.2774

> <Gold.Chemscore.Rot.Weighted>
10.3110

> <Gold.Chemscore.Internal.Correction.Weighted>
   9.000000E+99

> <Gold.Protein.RotatedTorsions>
[ 6907 6896 6895 6894 ] final  134.30 input  -60.11 | X-H torsion
[ 7974 7965 7964 7962 ] final  141.57 input  175.53 | X-H torsion
[ 8008 7997 7996 7995 ] final  -39.27 input   59.86 | X-H torsion
[ 10167 10162 10161 10158 ] final  -81.98 input  -65.29 | X-H torsion
[ 10718 10713 10712 10709 ] final  -91.56 input   66.30 | X-H torsion
[ 10763 10752 10751 10750 ] final  127.38 input  -60.55 | X-H torsion
[ 11005 11000 10999 10996 ] final   12.79 input  -57.11 | X-H torsion

> <Gold.Protein.ActiveResidues>
 VAL166  LYS551  ARG553  GLY616  TRP617  ASP618  TYR619  PRO620  LYS621  CYS622 
 ASP623  PHE694  ASN695  SER759  ASP760  ASP761  ALA762  ILE779  LEU786  VAL792 
 PHE793  MET794  SER795  GLU796  ALA797  LYS798  CYS799  TRP800  GLU811  SER814 

> <Gold.Protein.RotatedAtoms>
  152.3128  133.5770  159.5691 H   0  0  0  0  0  0  0  0  0  0  0  0  # atno 6907 bound_to 6896
  150.7331  134.0127  159.3684 H   0  0  0  0  0  0  0  0  0  0  0  0  # atno 6908 bound_to 6896
  151.8018  135.0707  160.0452 H   0  0  0  0  0  0  0  0  0  0  0  0  # atno 6909 bound_to 6896
  144.9084  139.5326  143.5720 H   0  0  0  0  0  0  0  0  0  0  0  0  # atno 7974 bound_to 7965
  154.4025  140.1556  156.2837 H   0  0  0  0  0  0  0  0  0  0  0  0  # atno 8008 bound_to 7997
  155.8847  140.3442  155.5891 H   0  0  0  0  0  0  0  0  0  0  0  0  # atno 8009 bound_to 7997
  155.7627  140.0819  157.2138 H   0  0  0  0  0  0  0  0  0  0  0  0  # atno 8010 bound_to 7997
  140.4362  143.2530  151.8690 H   0  0  0  0  0  0  0  0  0  0  0  0  # atno 10167 bound_to 10162
  155.9994  130.4952  150.5492 H   0  0  0  0  0  0  0  0  0  0  0  0  # atno 10718 bound_to 10713
  153.7085  135.3272  155.3241 H   0  0  0  0  0  0  0  0  0  0  0  0  # atno 10763 bound_to 10752
  154.8392  135.4471  154.1338 H   0  0  0  0  0  0  0  0  0  0  0  0  # atno 10764 bound_to 10752
  153.2425  135.6972  153.7846 H   0  0  0  0  0  0  0  0  0  0  0  0  # atno 10765 bound_to 10752
  140.4881  134.0868  155.7765 H   0  0  0  0  0  0  0  0  0  0  0  0  # atno 11005 bound_to 11000
  146.3146  139.7871  142.8993 LP  0  0  0  0  0  0  0  0  0  0  0  0  # atno 17320 bound_to 7965
  145.3495  141.0304  143.3346 LP  0  0  0  0  0  0  0  0  0  0  0  0  # atno 17321 bound_to 7965
  139.4787  144.5280  151.8708 LP  0  0  0  0  0  0  0  0  0  0  0  0  # atno 17342 bound_to 10162
  140.4370  144.2038  150.5890 LP  0  0  0  0  0  0  0  0  0  0  0  0  # atno 17343 bound_to 10162
  157.3418  131.0718  151.1782 LP  0  0  0  0  0  0  0  0  0  0  0  0  # atno 17370 bound_to 10713
  157.2628  130.6667  149.5983 LP  0  0  0  0  0  0  0  0  0  0  0  0  # atno 17371 bound_to 10713
  141.1498  133.8989  157.2126 LP  0  0  0  0  0  0  0  0  0  0  0  0  # atno 17394 bound_to 11000
  139.9786  135.0106  156.9693 LP  0  0  0  0  0  0  0  0  0  0  0  0  # atno 17395 bound_to 11000

$$$$
