AV-unprocessed.smi:1033|AV-procd|sdf|4513|dock3
  -GOLD-   22720 2523D 1   1.00000     0.00000
 Structure written by MMmdl.
 57 59  0  0  0  0  0  0  0  0  3 V2000
  152.4566  143.4848  162.9907 C   0  0  0  0  0  0  0  0  0  0  0  0
  152.2407  142.9586  161.5825 C   0  0  0  0  0  0  0  0  0  0  0  0
  151.4124  143.6848  160.6976 C   0  0  0  0  0  0  0  0  0  0  0  0
  151.1849  143.2295  159.3806 C   0  0  0  0  0  0  0  0  0  0  0  0
  150.4241  143.7739  158.3601 N   0  0  0  0  0  0  0  0  0  0  0  0
  150.6108  142.8896  157.3851 C   0  0  0  0  0  0  0  0  0  0  0  0
  151.4083  141.8373  157.6509 N   0  0  0  0  0  0  0  0  0  0  0  0
  151.7567  140.7552  156.7472 C   0  0  0  0  0  0  0  0  0  0  0  0
  150.6856  140.5242  155.6639 C   0  0  1  0  0  0  0  0  0  0  0  0
  151.0742  139.4394  154.8426 O   0  0  0  0  0  0  0  0  0  0  0  0
  149.3103  140.2014  156.2808 C   0  0  0  0  0  0  0  0  0  0  0  0
  148.2243  140.1661  155.2673 N   0  3  2  0  0  0  0  0  0  0  0  0
  148.4473  141.0900  154.1256 C   0  0  0  0  0  0  0  0  0  0  0  0
  147.3405  140.9334  153.0653 C   0  0  0  0  0  0  0  0  0  0  0  0
  145.9876  141.1350  153.6430 N   0  3  2  0  0  0  0  0  0  0  0  0
  145.6508  142.5645  153.8840 C   0  0  0  0  0  0  0  0  0  0  0  0
  144.3264  142.7448  154.6534 C   0  0  1  0  0  0  0  0  0  0  0  0
  143.9304  144.2228  154.7642 C   0  0  0  0  0  0  0  0  0  0  0  0
  143.2896  142.0704  153.9693 O   0  0  0  0  0  0  0  0  0  0  0  0
  145.7664  140.2393  154.8093 C   0  0  0  0  0  0  0  0  0  0  0  0
  146.8820  140.3677  155.8675 C   0  0  0  0  0  0  0  0  0  0  0  0
  151.8137  142.0178  158.9693 C   0  0  0  0  0  0  0  0  0  0  0  0
  152.6412  141.2871  159.8402 C   0  0  0  0  0  0  0  0  0  0  0  0
  152.8570  141.7559  161.1531 C   0  0  0  0  0  0  0  0  0  0  0  0
  153.7516  140.9592  162.0863 C   0  0  0  0  0  0  0  0  0  0  0  0
  151.9586  144.4434  163.1383 H   0  0  0  0  0  0  0  0  0  0  0  0
  153.5192  143.6273  163.1880 H   0  0  0  0  0  0  0  0  0  0  0  0
  152.0584  142.7836  163.7244 H   0  0  0  0  0  0  0  0  0  0  0  0
  150.9429  144.6011  161.0246 H   0  0  0  0  0  0  0  0  0  0  0  0
  150.1423  143.0152  156.4197 H   0  0  0  0  0  0  0  0  0  0  0  0
  152.7228  140.9776  156.2920 H   0  0  0  0  0  0  0  0  0  0  0  0
  151.8943  139.8496  157.3396 H   0  0  0  0  0  0  0  0  0  0  0  0
  150.6259  141.4173  155.0424 H   0  0  0  0  0  0  0  0  0  0  0  0
  151.3181  138.7134  155.3982 H   0  0  0  0  0  0  0  0  0  0  0  0
  149.3781  139.2335  156.7807 H   0  0  0  0  0  0  0  0  0  0  0  0
  149.0572  140.9249  157.0572 H   0  0  0  0  0  0  0  0  0  0  0  0
  148.4823  142.1189  154.4872 H   0  0  0  0  0  0  0  0  0  0  0  0
  149.4117  140.8900  153.6600 H   0  0  0  0  0  0  0  0  0  0  0  0
  147.5055  141.6170  152.2315 H   0  0  0  0  0  0  0  0  0  0  0  0
  147.3858  139.9287  152.6430 H   0  0  0  0  0  0  0  0  0  0  0  0
  146.4665  143.0508  154.4189 H   0  0  0  0  0  0  0  0  0  0  0  0
  145.5666  143.0898  152.9310 H   0  0  0  0  0  0  0  0  0  0  0  0
  144.3976  142.3352  155.6602 H   0  0  0  0  0  0  0  0  0  0  0  0
  144.6874  144.7910  155.3054 H   0  0  0  0  0  0  0  0  0  0  0  0
  142.9881  144.3384  155.3011 H   0  0  0  0  0  0  0  0  0  0  0  0
  143.8111  144.6799  153.7810 H   0  0  0  0  0  0  0  0  0  0  0  0
  143.4316  142.1453  153.0382 H   0  0  0  0  0  0  0  0  0  0  0  0
  144.7924  140.4185  155.2631 H   0  0  0  0  0  0  0  0  0  0  0  0
  145.7406  139.2121  154.4425 H   0  0  0  0  0  0  0  0  0  0  0  0
  146.7169  139.6241  156.6483 H   0  0  0  0  0  0  0  0  0  0  0  0
  146.8426  141.3431  156.3544 H   0  0  0  0  0  0  0  0  0  0  0  0
  153.1065  140.3736  159.5011 H   0  0  0  0  0  0  0  0  0  0  0  0
  154.0936  140.0359  161.6176 H   0  0  0  0  0  0  0  0  0  0  0  0
  153.2157  140.6917  162.9971 H   0  0  0  0  0  0  0  0  0  0  0  0
  154.6312  141.5421  162.3600 H   0  0  0  0  0  0  0  0  0  0  0  0
  145.3419  140.8372  152.9252 H   0  0  0  0  0  0  0  0  0  0  0  0
  148.2264  139.2267  154.8944 H   0  0  0  0  0  0  0  0  0  0  0  0
  1  2  1  0  0  0  0
  1 26  1  0  0  0  0
  1 27  1  0  0  0  0
  1 28  1  0  0  0  0
  2 24  1  0  0  0  0
  2  3  2  0  0  0  0
  3  4  1  0  0  0  0
  3 29  1  0  0  0  0
  4 22  2  0  0  0  0
  4  5  1  0  0  0  0
  5  6  2  0  0  0  0
  6  7  1  0  0  0  0
  6 30  1  0  0  0  0
  7  8  1  0  0  0  0
  7 22  1  0  0  0  0
  8  9  1  0  0  0  0
  8 31  1  0  0  0  0
  8 32  1  0  0  0  0
  9 10  1  0  0  0  0
  9 11  1  0  0  0  0
  9 33  1  0  0  0  0
 10 34  1  0  0  0  0
 11 12  1  0  0  0  0
 11 35  1  0  0  0  0
 11 36  1  0  0  0  0
 12 21  1  0  0  0  0
 12 13  1  0  0  0  0
 12 57  1  0  0  0  0
 13 14  1  0  0  0  0
 13 37  1  0  0  0  0
 13 38  1  0  0  0  0
 14 15  1  0  0  0  0
 14 39  1  0  0  0  0
 14 40  1  0  0  0  0
 15 16  1  0  0  0  0
 15 20  1  0  0  0  0
 15 56  1  0  0  0  0
 16 17  1  0  0  0  0
 16 41  1  0  0  0  0
 16 42  1  0  0  0  0
 17 18  1  0  0  0  0
 17 19  1  0  0  0  0
 17 43  1  0  0  0  0
 18 44  1  0  0  0  0
 18 45  1  0  0  0  0
 18 46  1  0  0  0  0
 19 47  1  0  0  0  0
 20 21  1  0  0  0  0
 20 48  1  0  0  0  0
 20 49  1  0  0  0  0
 21 50  1  0  0  0  0
 21 51  1  0  0  0  0
 22 23  1  0  0  0  0
 23 24  2  0  0  0  0
 23 52  1  0  0  0  0
 24 25  1  0  0  0  0
 25 53  1  0  0  0  0
 25 54  1  0  0  0  0
 25 55  1  0  0  0  0
M  CHG  1  12   1
M  CHG  1  15   1
M  END
> <s_m_source_file>
AV-unprocessed.smi

> <i_m_source_file_index>
1033

> <i_lp_mmshare_version>
43012

> <i_f3d_flags>
0

> <s_epik_input>
W0NIM11jKFtjSF0xKWMoW0NIM10pW2NIXWMoYzEyKW4oW2NIXW4yKVtDSDJdW0NASF0oW09IXSlbQ0gyXU4zW0NIMl1bQ0gyXU4oW0NIMl1bQ0gyXTMpW0NIMl1bQ0BIXShbQ0gzXSlbT0hd

> <s_epik_cmdline>
J2VwaWtfcHl0aG9uJywgJy1waCcsICc3LjAnLCAnLXRuJywgJzgnLCAnLW1hJywgJzIwMCcsICctbWV0YWxfYmluZGluZycsICctaW1hZScsICc8aW5maWxlLm1hZT4nLCAnLW9tYWUnLCAnPG91dGZpbGUubWFlPic=

> <r_epik_Ionization_Penalty>
3.16016

> <r_epik_Ionization_Penalty_Charging>
3.07679

> <r_epik_Ionization_Penalty_Neutral>
0.083365

> <r_epik_State_Penalty>
2.09701

> <r_epik_Charging_Adjusted_Penalty>
5.1738

> <i_epik_Tot_Q>
2

> <i_epik_Tot_abs_Q>
2

> <r_epik_Metal_State_Penalty>
2.02534

> <b_epik_Metal_Only>
0

> <s_lp_Force_Field>
OPLS_2005

> <r_lp_Energy>
29.7728

> <b_lp_Chiralities_Consistent>
1

> <s_lp_Variant>
AV-unprocessed.smi:1033-24

> <Gold.Version>
5.8.1

> <Gold.Id.Protein>
6NUR|6NUR_protein|mol2

> <Gold.PLP.Fitness>
62.6649

> <Gold.PLP.PLP>
-50.6087

> <Gold.PLP.part.hbond>
-3.5526

> <Gold.PLP.part.metal>
0.0000

> <Gold.PLP.part.buried>
-7.7061

> <Gold.PLP.part.nonpolar>
-38.9721

> <Gold.PLP.part.repulsive>
0.1343

> <Gold.PLP.ligand.clash>
0.0000

> <Gold.PLP.ligand.torsion>
0.7722

> <Gold.PLP.Chemscore.Hbond>
3.4500

> <Gold.PLP.Chemscore.CHOScore>
1.0000

> <Gold.PLP.Chemscore.Metal>
0.0000

> <Gold.Chemscore.Hbonds>
donor molecule, donor type, donor heavy atom, donor atom, acceptor molecule, acceptor atom, score
      L1  H    15    56       P1 10175  1.92
      P1  H  7989  7998       L1    10  0.29
      L1  C     6    30       P1  8028  0.98

> <Gold.PLP.Chemscore.Internal.Correction>
0.2507

> <Gold.Rescore>
     Score         DG    S(hbond)    S(metal)    S(lipo)     H(rot)  DE(clash)    DE(int)     intcor
     13.60     -14.72       1.00        0.00     119.14       3.14       0.21       0.92       ----

> <Gold.Chemscore.Fitness>
13.5992

> <Gold.Chemscore.DG>
-14.7247

> <Gold.Chemscore.ZeroCoef>
-5.4800

> <Gold.Chemscore.Hbond>
0.9996

> <Gold.Chemscore.Metal>
0.0000

> <Gold.Chemscore.Lipo>
119.1397

> <Gold.Chemscore.Internal_Hbond>
0.0000

> <Gold.Chemscore.DEClash>
0.2098

> <Gold.Chemscore.DEInternal>
0.9156

> <Gold.Chemscore.Rot>
3.1380

> <Gold.Chemscore.Internal.Correction>
   9.000000E+99

> <Gold.Chemscore.Hbonds>
donor molecule, donor type, donor heavy atom, donor atom, acceptor molecule, acceptor atom, score
      L1  H    15    56       P1 10175  0.41

> <Gold.Chemscore.Hbond.Weighted>
-3.3386

> <Gold.Chemscore.Metal.Weighted>
-0.0000

> <Gold.Chemscore.Lipo.Weighted>
-13.9393

> <Gold.Chemscore.Internal_Hbond.Weighted>
0.0000

> <Gold.Chemscore.DEClash.Weighted>
0.2098

> <Gold.Chemscore.DEInternal.Weighted>
0.9156

> <Gold.Chemscore.Rot.Weighted>
8.0332

> <Gold.Chemscore.Internal.Correction.Weighted>
   9.000000E+99

> <Gold.Protein.RotatedTorsions>
[ 6907 6896 6895 6894 ] final -124.54 input  -60.11 | X-H torsion
[ 7974 7965 7964 7962 ] final   61.25 input  175.53 | X-H torsion
[ 8008 7997 7996 7995 ] final  133.59 input   59.86 | X-H torsion
[ 10167 10162 10161 10158 ] final -179.36 input  -65.29 | X-H torsion
[ 10718 10713 10712 10709 ] final  -77.01 input   66.30 | X-H torsion
[ 10763 10752 10751 10750 ] final -101.18 input  -60.55 | X-H torsion
[ 11005 11000 10999 10996 ] final -173.79 input  -57.11 | X-H torsion

> <Gold.Protein.ActiveResidues>
 VAL166  LYS551  ARG553  GLY616  TRP617  ASP618  TYR619  PRO620  LYS621  CYS622 
 ASP623  PHE694  ASN695  SER759  ASP760  ASP761  ALA762  ILE779  LEU786  VAL792 
 PHE793  MET794  SER795  GLU796  ALA797  LYS798  CYS799  TRP800  GLU811  SER814 

> <Gold.Protein.RotatedAtoms>
  150.8778  133.7414  159.2940 H   0  0  0  0  0  0  0  0  0  0  0  0  # atno 6907 bound_to 6896
  151.5005  135.1060  159.9837 H   0  0  0  0  0  0  0  0  0  0  0  0  # atno 6908 bound_to 6896
  152.4740  133.8048  159.7028 H   0  0  0  0  0  0  0  0  0  0  0  0  # atno 6909 bound_to 6896
  145.8869  139.3483  143.0673 H   0  0  0  0  0  0  0  0  0  0  0  0  # atno 7974 bound_to 7965
  156.2993  140.2517  156.3278 H   0  0  0  0  0  0  0  0  0  0  0  0  # atno 8008 bound_to 7997
  154.9174  140.0401  157.1998 H   0  0  0  0  0  0  0  0  0  0  0  0  # atno 8009 bound_to 7997
  154.8345  140.2881  155.5704 H   0  0  0  0  0  0  0  0  0  0  0  0  # atno 8010 bound_to 7997
  139.5390  144.2417  152.0855 H   0  0  0  0  0  0  0  0  0  0  0  0  # atno 10167 bound_to 10162
  156.0157  130.4480  150.3280 H   0  0  0  0  0  0  0  0  0  0  0  0  # atno 10718 bound_to 10713
  154.7638  135.4907  153.9514 H   0  0  0  0  0  0  0  0  0  0  0  0  # atno 10763 bound_to 10752
  153.1282  135.6747  153.9229 H   0  0  0  0  0  0  0  0  0  0  0  0  # atno 10764 bound_to 10752
  153.8940  135.3117  155.3426 H   0  0  0  0  0  0  0  0  0  0  0  0  # atno 10765 bound_to 10752
  140.4818  134.6068  157.4922 H   0  0  0  0  0  0  0  0  0  0  0  0  # atno 11005 bound_to 11000
  145.8956  140.9276  143.0529 LP  0  0  0  0  0  0  0  0  0  0  0  0  # atno 17320 bound_to 7965
  144.6729  140.0964  143.7462 LP  0  0  0  0  0  0  0  0  0  0  0  0  # atno 17321 bound_to 7965
  140.1892  144.4768  150.6487 LP  0  0  0  0  0  0  0  0  0  0  0  0  # atno 17342 bound_to 10162
  140.6610  143.2252  151.5855 LP  0  0  0  0  0  0  0  0  0  0  0  0  # atno 17343 bound_to 10162
  157.1379  131.0289  151.2940 LP  0  0  0  0  0  0  0  0  0  0  0  0  # atno 17370 bound_to 10713
  157.4496  130.7591  149.7140 LP  0  0  0  0  0  0  0  0  0  0  0  0  # atno 17371 bound_to 10713
  139.9822  134.7119  155.9839 LP  0  0  0  0  0  0  0  0  0  0  0  0  # atno 17394 bound_to 11000
  141.1527  133.6546  156.4064 LP  0  0  0  0  0  0  0  0  0  0  0  0  # atno 17395 bound_to 11000

$$$$
