AV-unprocessed.smi:2979|AV-procd|sdf|11370|dock7
  -GOLD-   2272016293D 1   1.00000     0.00000
 Structure written by MMmdl.
 35 36  0  0  0  0  0  0  0  0  1 V2000
  153.1008  138.1135  157.2250 C   0  0  0  0  0  0  0  0  0  0  0  0
  153.7676  139.0546  158.0469 O   0  0  0  0  0  0  0  0  0  0  0  0
  153.1985  139.1440  159.3432 C   0  0  0  0  0  0  0  0  0  0  0  0
  151.7050  139.4826  159.2328 C   0  0  0  0  0  0  0  0  0  0  0  0
  151.4555  140.6683  158.4224 N   0  0  0  0  0  0  0  0  0  0  0  0
  150.8767  140.7540  157.1962 C   0  0  0  0  0  0  0  0  0  0  0  0
  150.3442  139.5621  156.4572 C   0  0  0  0  0  0  0  0  0  0  0  0
  150.1301  139.8432  154.9618 C   0  0  0  0  0  0  0  0  0  0  0  0
  149.1136  140.9656  154.7177 C   0  0  0  0  0  0  0  0  0  0  0  0
  149.0484  141.2618  153.3396 O   0  0  0  0  0  0  0  0  0  0  0  0
  150.7948  141.9806  156.6791 N   0  0  0  0  0  0  0  0  0  0  0  0
  151.3588  142.7662  157.6642 C   0  0  0  0  0  0  0  0  0  0  0  0
  151.5608  144.1639  157.7191 C   0  0  0  0  0  0  0  0  0  0  0  0
  152.1646  144.7541  158.8485 C   0  0  0  0  0  0  0  0  0  0  0  0
  152.5734  143.9568  159.9370 C   0  0  0  0  0  0  0  0  0  0  0  0
  152.3823  142.5622  159.9018 C   0  0  0  0  0  0  0  0  0  0  0  0
  151.7804  141.9768  158.7711 C   0  0  0  0  0  0  0  0  0  0  0  0
  153.5707  138.0886  156.2419 H   0  0  0  0  0  0  0  0  0  0  0  0
  152.0515  138.3796  157.0912 H   0  0  0  0  0  0  0  0  0  0  0  0
  153.1569  137.1105  157.6501 H   0  0  0  0  0  0  0  0  0  0  0  0
  153.3238  138.1978  159.8714 H   0  0  0  0  0  0  0  0  0  0  0  0
  153.7143  139.9056  159.9276 H   0  0  0  0  0  0  0  0  0  0  0  0
  151.1765  138.6406  158.7854 H   0  0  0  0  0  0  0  0  0  0  0  0
  151.2623  139.6181  160.2192 H   0  0  0  0  0  0  0  0  0  0  0  0
  151.0531  138.7417  156.5767 H   0  0  0  0  0  0  0  0  0  0  0  0
  149.4147  139.2182  156.9073 H   0  0  0  0  0  0  0  0  0  0  0  0
  151.0804  140.1088  154.4977 H   0  0  0  0  0  0  0  0  0  0  0  0
  149.7936  138.9316  154.4661 H   0  0  0  0  0  0  0  0  0  0  0  0
  148.1232  140.6707  155.0655 H   0  0  0  0  0  0  0  0  0  0  0  0
  149.3975  141.8674  155.2609 H   0  0  0  0  0  0  0  0  0  0  0  0
  149.2837  140.4863  152.8535 H   0  0  0  0  0  0  0  0  0  0  0  0
  151.2492  144.7830  156.8908 H   0  0  0  0  0  0  0  0  0  0  0  0
  152.3134  145.8234  158.8804 H   0  0  0  0  0  0  0  0  0  0  0  0
  153.0330  144.4167  160.7997 H   0  0  0  0  0  0  0  0  0  0  0  0
  152.6924  141.9512  160.7363 H   0  0  0  0  0  0  0  0  0  0  0  0
  1  2  1  0  0  0  0
  1 18  1  0  0  0  0
  1 19  1  0  0  0  0
  1 20  1  0  0  0  0
  2  3  1  0  0  0  0
  3  4  1  0  0  0  0
  3 21  1  0  0  0  0
  3 22  1  0  0  0  0
  4  5  1  0  0  0  0
  4 23  1  0  0  0  0
  4 24  1  0  0  0  0
  5 17  1  0  0  0  0
  5  6  1  0  0  0  0
  6  7  1  0  0  0  0
  6 11  2  0  0  0  0
  7  8  1  0  0  0  0
  7 25  1  0  0  0  0
  7 26  1  0  0  0  0
  8  9  1  0  0  0  0
  8 27  1  0  0  0  0
  8 28  1  0  0  0  0
  9 10  1  0  0  0  0
  9 29  1  0  0  0  0
  9 30  1  0  0  0  0
 10 31  1  0  0  0  0
 11 12  1  0  0  0  0
 12 17  2  0  0  0  0
 12 13  1  0  0  0  0
 13 14  2  0  0  0  0
 13 32  1  0  0  0  0
 14 15  1  0  0  0  0
 14 33  1  0  0  0  0
 15 16  2  0  0  0  0
 15 34  1  0  0  0  0
 16 17  1  0  0  0  0
 16 35  1  0  0  0  0
M  END
> <s_m_source_file>
AV-unprocessed.smi

> <i_m_source_file_index>
2979

> <i_lp_mmshare_version>
43012

> <i_f3d_flags>
0

> <s_epik_input>
W2NIXTFbY0hdW2NIXVtjSF1jKGMxMiluKFtDSDJdW0NIMl1PW0NIM10pYyhuMilbQ0gyXVtDSDJdW0NIMl1bT0hd

> <s_epik_cmdline>
J2VwaWtfcHl0aG9uJywgJy1waCcsICc3LjAnLCAnLXRuJywgJzgnLCAnLW1hJywgJzIwMCcsICctbWV0YWxfYmluZGluZycsICctaW1hZScsICc8aW5maWxlLm1hZT4nLCAnLW9tYWUnLCAnPG91dGZpbGUubWFlPic=

> <r_epik_Ionization_Penalty>
0.183246

> <r_epik_Ionization_Penalty_Charging>
0

> <r_epik_Ionization_Penalty_Neutral>
0.183246

> <r_epik_State_Penalty>
0.172781

> <r_epik_Charging_Adjusted_Penalty>
0.172781

> <i_epik_Tot_Q>
0

> <i_epik_Tot_abs_Q>
0

> <r_epik_Metal_State_Penalty>
0.000200578

> <b_epik_Metal_Only>
0

> <s_lp_Force_Field>
OPLS_2005

> <r_lp_Energy>
6.05289

> <b_lp_Chiralities_Consistent>
1

> <s_lp_Variant>
AV-unprocessed.smi:2979-1

> <Gold.Version>
5.8.1

> <Gold.Id.Protein>
6NUR|6NUR_protein|mol2

> <Gold.PLP.Fitness>
46.7260

> <Gold.PLP.PLP>
-38.9520

> <Gold.PLP.part.hbond>
-3.6059

> <Gold.PLP.part.metal>
0.0000

> <Gold.PLP.part.buried>
-3.7322

> <Gold.PLP.part.nonpolar>
-32.1594

> <Gold.PLP.part.repulsive>
0.0802

> <Gold.PLP.ligand.clash>
0.0000

> <Gold.PLP.ligand.torsion>
0.3383

> <Gold.PLP.Chemscore.Hbond>
2.8000

> <Gold.PLP.Chemscore.CHOScore>
0.0000

> <Gold.PLP.Chemscore.Metal>
0.0000

> <Gold.Chemscore.Hbonds>
donor molecule, donor type, donor heavy atom, donor atom, acceptor molecule, acceptor atom, score
      L1  H    10    31       P1  7957  0.74
      P1  H  7997  8010       L1     2  1.00
      P1  H  8011  8017       L1    10  0.90

> <Gold.PLP.Chemscore.Internal.Correction>
0.0507

> <Gold.Rescore>
     Score         DG    S(hbond)    S(metal)    S(lipo)     H(rot)  DE(clash)    DE(int)     intcor
     17.51     -19.30       2.34        0.00     104.70       2.45       0.07       1.72       ----

> <Gold.Chemscore.Fitness>
17.5131

> <Gold.Chemscore.DG>
-19.2966

> <Gold.Chemscore.ZeroCoef>
-5.4800

> <Gold.Chemscore.Hbond>
2.3448

> <Gold.Chemscore.Metal>
0.0000

> <Gold.Chemscore.Lipo>
104.7029

> <Gold.Chemscore.Internal_Hbond>
0.0000

> <Gold.Chemscore.DEClash>
0.0664

> <Gold.Chemscore.DEInternal>
1.7172

> <Gold.Chemscore.Rot>
2.4474

> <Gold.Chemscore.Internal.Correction>
   9.000000E+99

> <Gold.Chemscore.Hbonds>
donor molecule, donor type, donor heavy atom, donor atom, acceptor molecule, acceptor atom, score
      L1  H    10    31       P1  7957  0.74
      P1  H  7997  8010       L1     2  0.60
      P1  H  8011  8017       L1    10  0.17

> <Gold.Chemscore.Hbond.Weighted>
-7.8317

> <Gold.Chemscore.Metal.Weighted>
-0.0000

> <Gold.Chemscore.Lipo.Weighted>
-12.2502

> <Gold.Chemscore.Internal_Hbond.Weighted>
0.0000

> <Gold.Chemscore.DEClash.Weighted>
0.0664

> <Gold.Chemscore.DEInternal.Weighted>
1.7172

> <Gold.Chemscore.Rot.Weighted>
6.2654

> <Gold.Chemscore.Internal.Correction.Weighted>
   9.000000E+99

> <Gold.Protein.RotatedTorsions>
[ 6907 6896 6895 6894 ] final  -92.81 input  -60.11 | X-H torsion
[ 7974 7965 7964 7962 ] final   57.34 input  175.53 | X-H torsion
[ 8008 7997 7996 7995 ] final   31.58 input   59.86 | X-H torsion
[ 10167 10162 10161 10158 ] final  -68.91 input  -65.29 | X-H torsion
[ 10718 10713 10712 10709 ] final  -16.46 input   66.30 | X-H torsion
[ 10763 10752 10751 10750 ] final -143.68 input  -60.55 | X-H torsion
[ 11005 11000 10999 10996 ] final  -69.39 input  -57.11 | X-H torsion

> <Gold.Protein.ActiveResidues>
 VAL166  LYS551  ARG553  GLY616  TRP617  ASP618  TYR619  PRO620  LYS621  CYS622 
 ASP623  PHE694  ASN695  SER759  ASP760  ASP761  ALA762  ILE779  LEU786  VAL792 
 PHE793  MET794  SER795  GLU796  ALA797  LYS798  CYS799  TRP800  GLU811  SER814 

> <Gold.Protein.RotatedAtoms>
  150.6912  134.2065  159.4342 H   0  0  0  0  0  0  0  0  0  0  0  0  # atno 6907 bound_to 6896
  152.0029  134.9916  160.0575 H   0  0  0  0  0  0  0  0  0  0  0  0  # atno 6908 bound_to 6896
  152.1562  133.4518  159.4875 H   0  0  0  0  0  0  0  0  0  0  0  0  # atno 6909 bound_to 6896
  145.9301  139.3800  143.0426 H   0  0  0  0  0  0  0  0  0  0  0  0  # atno 7974 bound_to 7965
  155.1087  140.3237  155.4527 H   0  0  0  0  0  0  0  0  0  0  0  0  # atno 8008 bound_to 7997
  156.2696  140.2048  156.6159 H   0  0  0  0  0  0  0  0  0  0  0  0  # atno 8009 bound_to 7997
  154.6773  140.0530  157.0215 H   0  0  0  0  0  0  0  0  0  0  0  0  # atno 8010 bound_to 7997
  140.5471  143.2313  151.6981 H   0  0  0  0  0  0  0  0  0  0  0  0  # atno 10167 bound_to 10162
  156.5872  130.4789  149.6295 H   0  0  0  0  0  0  0  0  0  0  0  0  # atno 10718 bound_to 10713
  154.8460  135.3461  154.6226 H   0  0  0  0  0  0  0  0  0  0  0  0  # atno 10763 bound_to 10752
  153.6835  135.6979  153.5115 H   0  0  0  0  0  0  0  0  0  0  0  0  # atno 10764 bound_to 10752
  153.2650  135.4311  155.0887 H   0  0  0  0  0  0  0  0  0  0  0  0  # atno 10765 bound_to 10752
  141.1553  133.6763  156.6591 H   0  0  0  0  0  0  0  0  0  0  0  0  # atno 11005 bound_to 11000
  145.8438  140.9566  143.0785 LP  0  0  0  0  0  0  0  0  0  0  0  0  # atno 17320 bound_to 7965
  144.6763  140.0318  143.7482 LP  0  0  0  0  0  0  0  0  0  0  0  0  # atno 17321 bound_to 7965
  139.5012  144.3877  152.0311 LP  0  0  0  0  0  0  0  0  0  0  0  0  # atno 17342 bound_to 10162
  140.2991  144.3667  150.6065 LP  0  0  0  0  0  0  0  0  0  0  0  0  # atno 17343 bound_to 10162
  156.2580  130.6946  151.1705 LP  0  0  0  0  0  0  0  0  0  0  0  0  # atno 17370 bound_to 10713
  157.7312  131.0610  150.5688 LP  0  0  0  0  0  0  0  0  0  0  0  0  # atno 17371 bound_to 10713
  140.3261  134.7967  157.4290 LP  0  0  0  0  0  0  0  0  0  0  0  0  # atno 17394 bound_to 11000
  140.1056  134.5414  155.8313 LP  0  0  0  0  0  0  0  0  0  0  0  0  # atno 17395 bound_to 11000

$$$$
