#       Name:                AV-unprocessed.smi:561
#       Creating user name   scv26
#       Creation time:       Thu Mar 26 23:43:35 2020


#       File generated by GOLD software.
#

@<TRIPOS>MOLECULE
AV-unprocessed.smi:561
    42    43     1
SMALL
NO_CHARGES


@<TRIPOS>ATOM
      1 ****        -3.0321  -0.7960   1.9721 C.3            1 S1                 0.0000
      2 ****        -2.4729  -0.0701   0.7414 C.3            1 S1                 0.0000
      3 ****        -2.9870  -0.7029  -0.5683 C.3            1 S1                 0.0000
      4 ****        -2.5568   0.0254  -1.7480 N.pl3          1 S1                 0.0000
      5 ****        -1.5674  -0.3481  -2.6486 C.2            1 S1                 0.0000
      6 ****        -1.5008   0.6493  -3.5948 C.2            1 S1                 0.0000
      7 ****        -2.4382   1.6371  -3.3017 N.2            1 S1                 0.0000
      8 ****        -3.0259   1.1979  -2.1962 C.2            1 S1                 0.0000
      9 ****        -1.0119  -0.1052   0.7907 N.am           1 S1                 0.0000
     10 ****        -0.1892   0.9310   0.5410 C.2            1 S1                 0.0000
     11 ****        -0.5943   2.0626   0.2737 O.2            1 S1                 0.0000
     12 ****         1.2660   0.6301   0.5860 C.2            1 S1                 0.0000
     13 ****         1.6716  -0.5925   0.7328 N.2            1 S1                 0.0000
     14 ****         3.0115  -0.9212   0.7599 N.am           1 S1                 0.0000
     15 ****         3.2948  -2.3510   0.6517 C.3            1 S1                 0.0000
     16 ****         4.0222  -0.0275   0.8992 C.2            1 S1                 0.0000
     17 ****         5.2137  -0.3369   0.9039 O.2            1 S1                 0.0000
     18 ****         3.6165   1.4369   1.0895 C.3            1 S1                 0.0000
     19 ****         2.2644   1.7588   0.4228 C.3            1 S1                 0.0000
     20 ****        -4.1222  -0.7706   1.9803 H              1 S1                 0.0000
     21 ****        -2.6860  -0.3288   2.8947 H              1 S1                 0.0000
     22 ****        -2.7237  -1.8419   1.9915 H              1 S1                 0.0000
     23 ****        -2.8242   0.9622   0.7900 H              1 S1                 0.0000
     24 ****        -2.6502  -1.7371  -0.6527 H              1 S1                 0.0000
     25 ****        -4.0775  -0.7287  -0.5699 H              1 S1                 0.0000
     26 ****        -1.0040  -1.2632  -2.5406 H              1 S1                 0.0000
     27 ****        -0.8558   0.7310  -4.4572 H              1 S1                 0.0000
     28 ****        -3.8122   1.7450  -1.6969 H              1 S1                 0.0000
     29 ****        -0.5874  -0.9969   1.0022 H              1 S1                 0.0000
     30 ****         3.8492  -2.7017   1.5236 H              1 S1                 0.0000
     31 ****         3.8923  -2.5559  -0.2378 H              1 S1                 0.0000
     32 ****         2.3825  -2.9458   0.5804 H              1 S1                 0.0000
     33 ****         3.5496   1.6211   2.1624 H              1 S1                 0.0000
     34 ****         4.3955   2.0962   0.7053 H              1 S1                 0.0000
     35 ****         2.4111   1.9573  -0.6395 H              1 S1                 0.0000
     36 ****         1.8771   2.6813   0.8573 H              1 S1                 0.0000
     37 ****        -2.6245   2.4800  -3.8064 LP             1 S1                 0.0000
     38 ****        -1.5766   2.2456   0.2342 LP             1 S1                 0.0000
     39 ****         0.0590   2.7985   0.0961 LP             1 S1                 0.0000
     40 ****         0.9923  -1.3200   0.8294 LP             1 S1                 0.0000
     41 ****         5.4820  -1.2948   0.8010 LP             1 S1                 0.0000
     42 ****         5.9134   0.3696   1.0106 LP             1 S1                 0.0000
@<TRIPOS>BOND
    1    1    2 1     
    2    1   20 1     
    3    1   21 1     
    4    1   22 1     
    5    2    3 1     
    6    2    9 1     
    7    2   23 1     
    8    3    4 1     
    9    3   24 1     
   10    3   25 1     
   11    4    8 1     
   12    4    5 1     
   13    5    6 2     
   14    5   26 1     
   15    6    7 1     
   16    6   27 1     
   17    7    8 2     
   18    8   28 1     
   19    9   10 am    
   20    9   29 1     
   21   10   11 2     
   22   10   12 1     
   23   12   19 1     
   24   12   13 2     
   25   13   14 1     
   26   14   15 1     
   27   14   16 am    
   28   15   30 1     
   29   15   31 1     
   30   15   32 1     
   31   16   17 2     
   32   16   18 1     
   33   18   19 1     
   34   18   33 1     
   35   18   34 1     
   36   19   35 1     
   37   19   36 1     
   38    7   37 1     
   39   11   38 1     
   40   11   39 1     
   41   13   40 1     
   42   17   41 1     
   43   17   42 1     
@<TRIPOS>SUBSTRUCTURE
      1 S1             1
@<TRIPOS>SET
LONE_PAIRS      STATIC     ATOMS    <user>   **** ""
6 37 38 39 40 41 42
DONOR_HYDROGENS      STATIC     ATOMS    <user>   **** ""
1 29
ATOM$BLUE        STATIC     ATOMS    COLORGROUP SYSTEM
6 37 38 39 40 41 42
ATOM$RED        STATIC     ATOMS    COLORGROUP SYSTEM
1 29
