AV-unprocessed.smi:3112|AV-procd|sdf|11851|dock3
  -GOLD-   2272017233D 1   1.00000     0.00000
 Structure written by MMmdl.
 36 36  0  0  0  0  0  0  0  0  1 V2000
  146.5587  142.2768  155.0378 C   0  0  0  0  0  0  0  0  0  0  0  0
  147.7044  141.9731  154.0624 C   0  0  0  0  0  0  0  0  0  0  0  0
  148.7771  141.0361  154.6525 C   0  0  1  0  0  0  0  0  0  0  0  0
  149.8080  140.8757  153.6997 O   0  0  0  0  0  0  0  0  0  0  0  0
  149.4177  141.5876  155.9375 C   0  0  0  0  0  0  0  0  0  0  0  0
  150.5295  140.7456  156.3828 N   0  0  0  0  0  0  0  0  0  0  0  0
  150.9460  140.9553  157.7729 C   0  0  1  0  0  0  0  0  0  0  0  0
  151.6205  139.6628  158.2706 C   0  0  0  0  0  0  0  0  0  0  0  0
  151.8729  142.1996  157.9191 C   0  0  1  0  0  0  0  0  0  0  0  0
  151.3061  143.4927  157.3040 C   0  0  0  0  0  0  0  0  0  0  0  0
  152.2379  142.4414  159.3100 N   0  0  0  0  0  0  0  0  0  0  0  0
  152.9280  141.6100  160.1681 C   0  0  0  0  0  0  0  0  0  0  0  0
  153.0311  142.2543  161.3675 C   0  0  0  0  0  0  0  0  0  0  0  0
  152.3664  143.4920  161.1440 C   0  0  0  0  0  0  0  0  0  0  0  0
  151.8927  143.6018  159.9138 N   0  0  0  0  0  0  0  0  0  0  0  0
  145.8406  142.9634  154.5891 H   0  0  0  0  0  0  0  0  0  0  0  0
  146.9325  142.7387  155.9521 H   0  0  0  0  0  0  0  0  0  0  0  0
  146.0189  141.3712  155.3152 H   0  0  0  0  0  0  0  0  0  0  0  0
  147.3009  141.5465  153.1432 H   0  0  0  0  0  0  0  0  0  0  0  0
  148.1642  142.9201  153.7785 H   0  0  0  0  0  0  0  0  0  0  0  0
  148.3477  140.0536  154.8537 H   0  0  0  0  0  0  0  0  0  0  0  0
  149.5735  140.1662  153.1212 H   0  0  0  0  0  0  0  0  0  0  0  0
  149.7584  142.6055  155.7581 H   0  0  0  0  0  0  0  0  0  0  0  0
  148.6633  141.6560  156.7225 H   0  0  0  0  0  0  0  0  0  0  0  0
  150.2726  139.7721  156.2544 H   0  0  0  0  0  0  0  0  0  0  0  0
  150.0624  141.1034  158.3958 H   0  0  0  0  0  0  0  0  0  0  0  0
  151.8421  139.7036  159.3371 H   0  0  0  0  0  0  0  0  0  0  0  0
  152.5555  139.4737  157.7422 H   0  0  0  0  0  0  0  0  0  0  0  0
  150.9720  138.7994  158.1174 H   0  0  0  0  0  0  0  0  0  0  0  0
  152.8041  141.9792  157.3943 H   0  0  0  0  0  0  0  0  0  0  0  0
  151.2678  143.4318  156.2169 H   0  0  0  0  0  0  0  0  0  0  0  0
  151.9355  144.3497  157.5460 H   0  0  0  0  0  0  0  0  0  0  0  0
  150.3013  143.7054  157.6707 H   0  0  0  0  0  0  0  0  0  0  0  0
  153.2832  140.6384  159.8576 H   0  0  0  0  0  0  0  0  0  0  0  0
  153.5086  141.8963  162.2674 H   0  0  0  0  0  0  0  0  0  0  0  0
  152.2148  144.3086  161.8346 H   0  0  0  0  0  0  0  0  0  0  0  0
  1  2  1  0  0  0  0
  1 16  1  0  0  0  0
  1 17  1  0  0  0  0
  1 18  1  0  0  0  0
  2  3  1  0  0  0  0
  2 19  1  0  0  0  0
  2 20  1  0  0  0  0
  3  4  1  0  0  0  0
  3  5  1  0  0  0  0
  3 21  1  0  0  0  0
  4 22  1  0  0  0  0
  5  6  1  0  0  0  0
  5 23  1  0  0  0  0
  5 24  1  0  0  0  0
  6  7  1  0  0  0  0
  6 25  1  0  0  0  0
  7  8  1  0  0  0  0
  7  9  1  0  0  0  0
  7 26  1  0  0  0  0
  8 27  1  0  0  0  0
  8 28  1  0  0  0  0
  8 29  1  0  0  0  0
  9 10  1  0  0  0  0
  9 11  1  0  0  0  0
  9 30  1  0  0  0  0
 10 31  1  0  0  0  0
 10 32  1  0  0  0  0
 10 33  1  0  0  0  0
 11 15  1  0  0  0  0
 11 12  1  0  0  0  0
 12 13  2  0  0  0  0
 12 34  1  0  0  0  0
 13 14  1  0  0  0  0
 13 35  1  0  0  0  0
 14 15  2  0  0  0  0
 14 36  1  0  0  0  0
M  END
> <s_m_source_file>
AV-unprocessed.smi

> <i_m_source_file_index>
3112

> <i_lp_mmshare_version>
43012

> <i_f3d_flags>
0

> <s_epik_input>
W0NIM11bQ0gyXVtDQEhdKFtPSF0pW0NIMl1bTkhdW0NASF0oW0NIM10pW0NASF0oW0NIM10pbjFbY0hdW2NIXVtjSF1uMQ==

> <s_epik_cmdline>
J2VwaWtfcHl0aG9uJywgJy1waCcsICc3LjAnLCAnLXRuJywgJzgnLCAnLW1hJywgJzIwMCcsICctbWV0YWxfYmluZGluZycsICctaW1hZScsICc8aW5maWxlLm1hZT4nLCAnLW9tYWUnLCAnPG91dGZpbGUubWFlPic=

> <r_lp_tautomer_probability>
1

> <r_epik_Ionization_Penalty>
2.16876

> <r_epik_Ionization_Penalty_Charging>
0

> <r_epik_Ionization_Penalty_Neutral>
2.16876

> <r_epik_State_Penalty>
2.30854

> <r_epik_Charging_Adjusted_Penalty>
2.30854

> <i_epik_Tot_Q>
0

> <i_epik_Tot_abs_Q>
0

> <r_epik_Metal_State_Penalty>
2.3073

> <b_epik_Metal_Only>
0

> <s_lp_Force_Field>
OPLS_2005

> <r_lp_Energy>
16.1769

> <b_lp_Chiralities_Consistent>
1

> <s_lp_Variant>
AV-unprocessed.smi:3112-16

> <Gold.Version>
5.8.1

> <Gold.Id.Protein>
6NUR|6NUR_protein|mol2

> <Gold.PLP.Fitness>
40.6048

> <Gold.PLP.PLP>
-35.5442

> <Gold.PLP.part.hbond>
-2.8033

> <Gold.PLP.part.metal>
0.0000

> <Gold.PLP.part.buried>
-3.5125

> <Gold.PLP.part.nonpolar>
-28.6994

> <Gold.PLP.part.repulsive>
0.0210

> <Gold.PLP.ligand.clash>
0.0000

> <Gold.PLP.ligand.torsion>
0.4296

> <Gold.PLP.Chemscore.Hbond>
1.9275

> <Gold.PLP.Chemscore.CHOScore>
0.0000

> <Gold.PLP.Chemscore.Metal>
0.0000

> <Gold.Chemscore.Hbonds>
donor molecule, donor type, donor heavy atom, donor atom, acceptor molecule, acceptor atom, score
      L1  H     4    22       P1  7957  0.61
      P1  H  7989  7998       L1     4  0.40
      P1  H  8011  8017       L1     4  0.89

> <Gold.PLP.Chemscore.Internal.Correction>
0.1372

> <Gold.Rescore>
     Score         DG    S(hbond)    S(metal)    S(lipo)     H(rot)  DE(clash)    DE(int)     intcor
     12.06     -13.78       1.23        0.00      86.39       2.31       0.14       1.58       ----

> <Gold.Chemscore.Fitness>
12.0597

> <Gold.Chemscore.DG>
-13.7766

> <Gold.Chemscore.ZeroCoef>
-5.4800

> <Gold.Chemscore.Hbond>
1.2289

> <Gold.Chemscore.Metal>
0.0000

> <Gold.Chemscore.Lipo>
86.3919

> <Gold.Chemscore.Internal_Hbond>
0.0000

> <Gold.Chemscore.DEClash>
0.1362

> <Gold.Chemscore.DEInternal>
1.5807

> <Gold.Chemscore.Rot>
2.3108

> <Gold.Chemscore.Internal.Correction>
   9.000000E+99

> <Gold.Chemscore.Hbonds>
donor molecule, donor type, donor heavy atom, donor atom, acceptor molecule, acceptor atom, score
      L1  H     4    22       P1  7957  0.61
      P1  H  7989  7998       L1     4  0.10
      P1  H  8011  8017       L1     4  0.15

> <Gold.Chemscore.Hbond.Weighted>
-4.1044

> <Gold.Chemscore.Metal.Weighted>
-0.0000

> <Gold.Chemscore.Lipo.Weighted>
-10.1079

> <Gold.Chemscore.Internal_Hbond.Weighted>
0.0000

> <Gold.Chemscore.DEClash.Weighted>
0.1362

> <Gold.Chemscore.DEInternal.Weighted>
1.5807

> <Gold.Chemscore.Rot.Weighted>
5.9157

> <Gold.Chemscore.Internal.Correction.Weighted>
   9.000000E+99

> <Gold.Protein.RotatedTorsions>
[ 6907 6896 6895 6894 ] final  137.30 input  -60.11 | X-H torsion
[ 7974 7965 7964 7962 ] final   81.58 input  175.53 | X-H torsion
[ 8008 7997 7996 7995 ] final   12.83 input   59.86 | X-H torsion
[ 10167 10162 10161 10158 ] final  169.04 input  -65.29 | X-H torsion
[ 10718 10713 10712 10709 ] final -125.30 input   66.30 | X-H torsion
[ 10763 10752 10751 10750 ] final  116.20 input  -60.55 | X-H torsion
[ 11005 11000 10999 10996 ] final -140.44 input  -57.11 | X-H torsion

> <Gold.Protein.ActiveResidues>
 VAL166  LYS551  ARG553  GLY616  TRP617  ASP618  TYR619  PRO620  LYS621  CYS622 
 ASP623  PHE694  ASN695  SER759  ASP760  ASP761  ALA762  ILE779  LEU786  VAL792 
 PHE793  MET794  SER795  GLU796  ALA797  LYS798  CYS799  TRP800  GLU811  SER814 

> <Gold.Protein.RotatedAtoms>
  152.2796  133.5458  159.5489 H   0  0  0  0  0  0  0  0  0  0  0  0  # atno 6907 bound_to 6896
  150.7191  134.0582  159.3831 H   0  0  0  0  0  0  0  0  0  0  0  0  # atno 6908 bound_to 6896
  151.8493  135.0563  160.0508 H   0  0  0  0  0  0  0  0  0  0  0  0  # atno 6909 bound_to 6896
  145.6362  139.2415  143.2056 H   0  0  0  0  0  0  0  0  0  0  0  0  # atno 7974 bound_to 7965
  154.8260  140.2892  155.5754 H   0  0  0  0  0  0  0  0  0  0  0  0  # atno 8008 bound_to 7997
  156.3002  140.2541  156.3107 H   0  0  0  0  0  0  0  0  0  0  0  0  # atno 8009 bound_to 7997
  154.9284  140.0384  157.2024 H   0  0  0  0  0  0  0  0  0  0  0  0  # atno 8010 bound_to 7997
  139.4982  144.3749  151.9684 H   0  0  0  0  0  0  0  0  0  0  0  0  # atno 10167 bound_to 10162
  156.1664  130.6637  151.0120 H   0  0  0  0  0  0  0  0  0  0  0  0  # atno 10718 bound_to 10713
  153.5336  135.3573  155.2687 H   0  0  0  0  0  0  0  0  0  0  0  0  # atno 10763 bound_to 10752
  154.8724  135.4074  154.3123 H   0  0  0  0  0  0  0  0  0  0  0  0  # atno 10764 bound_to 10752
  153.3817  135.7068  153.6628 H   0  0  0  0  0  0  0  0  0  0  0  0  # atno 10765 bound_to 10752
  140.8422  134.2388  157.4804 H   0  0  0  0  0  0  0  0  0  0  0  0  # atno 11005 bound_to 11000
  146.1317  140.7176  142.9409 LP  0  0  0  0  0  0  0  0  0  0  0  0  # atno 17320 bound_to 7965
  144.7174  140.4258  143.7033 LP  0  0  0  0  0  0  0  0  0  0  0  0  # atno 17321 bound_to 7965
  140.3185  144.3455  150.6015 LP  0  0  0  0  0  0  0  0  0  0  0  0  # atno 17342 bound_to 10162
  140.5741  143.2178  151.7546 LP  0  0  0  0  0  0  0  0  0  0  0  0  # atno 17343 bound_to 10162
  157.6771  131.0848  150.7467 LP  0  0  0  0  0  0  0  0  0  0  0  0  # atno 17370 bound_to 10713
  156.7528  130.4774  149.5453 LP  0  0  0  0  0  0  0  0  0  0  0  0  # atno 17371 bound_to 10713
  139.8703  134.9641  156.4484 LP  0  0  0  0  0  0  0  0  0  0  0  0  # atno 17394 bound_to 11000
  140.8882  133.7867  155.9542 LP  0  0  0  0  0  0  0  0  0  0  0  0  # atno 17395 bound_to 11000

$$$$
