AV-unprocessed.smi:2717|AV-procd|sdf|10484|dock7
  -GOLD-   2272014523D 1   1.00000     0.00000
 Structure written by MMmdl.
 43 44  0  0  0  0  0  0  0  0  1 V2000
  150.9956  141.0802  156.0234 C   0  0  0  0  0  0  0  0  0  0  0  0
  150.3317  139.9532  156.8214 C   0  0  0  0  0  0  0  0  0  0  0  0
  150.4111  138.6353  156.1262 C   0  0  0  0  0  0  0  0  0  0  0  0
  149.9023  137.5072  156.6281 N   0  0  0  0  0  0  0  0  0  0  0  0
  150.1351  136.3985  155.8085 C   0  0  0  0  0  0  0  0  0  0  0  0
  149.6210  135.0499  156.2131 C   0  0  0  0  0  0  0  0  0  0  0  0
  149.7387  134.0189  155.0785 C   0  0  0  0  0  0  0  0  0  0  0  0
  148.8415  134.3332  153.9723 N   0  0  0  0  0  0  0  0  0  0  0  0
  147.7014  133.6828  153.7010 C   0  0  0  0  0  0  0  0  0  0  0  0
  147.2725  132.7368  154.3621 O   0  0  0  0  0  0  0  0  0  0  0  0
  147.0867  134.1845  152.6203 N   0  0  0  0  0  0  0  0  0  0  0  0
  145.8242  133.7006  152.0690 C   0  0  2  0  0  0  0  0  0  0  0  0
  145.9265  132.2064  151.6958 C   0  0  0  0  0  0  0  0  0  0  0  0
  144.6302  131.7001  151.0426 C   0  0  0  0  0  0  0  0  0  0  0  0
  144.2585  132.5490  149.8148 C   0  0  1  0  0  0  0  0  0  0  0  0
  143.0285  132.1011  149.2852 O   0  0  0  0  0  0  0  0  0  0  0  0
  144.1439  134.0369  150.1879 C   0  0  0  0  0  0  0  0  0  0  0  0
  145.4400  134.5459  150.8394 C   0  0  0  0  0  0  0  0  0  0  0  0
  150.8423  136.7051  154.6725 C   0  0  0  0  0  0  0  0  0  0  0  0
  151.2458  138.3984  154.5951 S   0  0  0  0  0  0  0  0  0  0  0  0
  150.9250  142.0278  156.5576 H   0  0  0  0  0  0  0  0  0  0  0  0
  150.5179  141.2084  155.0517 H   0  0  0  0  0  0  0  0  0  0  0  0
  152.0521  140.8717  155.8526 H   0  0  0  0  0  0  0  0  0  0  0  0
  150.8027  139.8637  157.8010 H   0  0  0  0  0  0  0  0  0  0  0  0
  149.2829  140.1918  156.9998 H   0  0  0  0  0  0  0  0  0  0  0  0
  150.1670  134.6916  157.0866 H   0  0  0  0  0  0  0  0  0  0  0  0
  148.5795  135.1336  156.5268 H   0  0  0  0  0  0  0  0  0  0  0  0
  150.7680  133.9574  154.7205 H   0  0  0  0  0  0  0  0  0  0  0  0
  149.4807  133.0272  155.4511 H   0  0  0  0  0  0  0  0  0  0  0  0
  149.1099  135.0980  153.3705 H   0  0  0  0  0  0  0  0  0  0  0  0
  147.5208  134.9623  152.1454 H   0  0  0  0  0  0  0  0  0  0  0  0
  145.0419  133.8227  152.8208 H   0  0  0  0  0  0  0  0  0  0  0  0
  146.7611  132.0526  151.0101 H   0  0  0  0  0  0  0  0  0  0  0  0
  146.1427  131.6092  152.5824 H   0  0  0  0  0  0  0  0  0  0  0  0
  144.7462  130.6544  150.7560 H   0  0  0  0  0  0  0  0  0  0  0  0
  143.8217  131.7333  151.7748 H   0  0  0  0  0  0  0  0  0  0  0  0
  145.0210  132.4267  149.0446 H   0  0  0  0  0  0  0  0  0  0  0  0
  142.3857  132.7848  149.3972 H   0  0  0  0  0  0  0  0  0  0  0  0
  143.9197  134.6302  149.3007 H   0  0  0  0  0  0  0  0  0  0  0  0
  143.3115  134.1835  150.8778 H   0  0  0  0  0  0  0  0  0  0  0  0
  145.3188  135.5910  151.1272 H   0  0  0  0  0  0  0  0  0  0  0  0
  146.2460  134.5188  150.1046 H   0  0  0  0  0  0  0  0  0  0  0  0
  151.1521  136.0397  153.8806 H   0  0  0  0  0  0  0  0  0  0  0  0
  1  2  1  0  0  0  0
  1 21  1  0  0  0  0
  1 22  1  0  0  0  0
  1 23  1  0  0  0  0
  2  3  1  0  0  0  0
  2 24  1  0  0  0  0
  2 25  1  0  0  0  0
  3 20  1  0  0  0  0
  3  4  2  0  0  0  0
  4  5  1  0  0  0  0
  5  6  1  0  0  0  0
  5 19  2  0  0  0  0
  6  7  1  0  0  0  0
  6 26  1  0  0  0  0
  6 27  1  0  0  0  0
  7  8  1  0  0  0  0
  7 28  1  0  0  0  0
  7 29  1  0  0  0  0
  8  9  1  0  0  0  0
  8 30  1  0  0  0  0
  9 10  2  0  0  0  0
  9 11  1  0  0  0  0
 11 12  1  0  0  0  0
 11 31  1  0  0  0  0
 12 18  1  0  0  0  0
 12 13  1  0  0  0  0
 12 32  1  0  0  0  0
 13 14  1  0  0  0  0
 13 33  1  0  0  0  0
 13 34  1  0  0  0  0
 14 15  1  0  0  0  0
 14 35  1  0  0  0  0
 14 36  1  0  0  0  0
 15 16  1  0  0  0  0
 15 17  1  0  0  0  0
 15 37  1  0  0  0  0
 16 38  1  0  0  0  0
 17 18  1  0  0  0  0
 17 39  1  0  0  0  0
 17 40  1  0  0  0  0
 18 41  1  0  0  0  0
 18 42  1  0  0  0  0
 19 20  1  0  0  0  0
 19 43  1  0  0  0  0
M  END
> <s_m_source_file>
AV-unprocessed.smi

> <i_m_source_file_index>
2717

> <i_lp_mmshare_version>
43012

> <i_f3d_flags>
0

> <s_epik_input>
W0NIM11bQ0gyXWMxbmMoW2NIXXMxKVtDSDJdW0NIMl1bTkhdQyg9TylbTkhdW0NAQEhdMltDSDJdW0NIMl1bQ0BASF0oW09IXSlbQ0gyXVtDSDJdMg==

> <s_epik_cmdline>
J2VwaWtfcHl0aG9uJywgJy1waCcsICc3LjAnLCAnLXRuJywgJzgnLCAnLW1hJywgJzIwMCcsICctbWV0YWxfYmluZGluZycsICctaW1hZScsICc8aW5maWxlLm1hZT4nLCAnLW9tYWUnLCAnPG91dGZpbGUubWFlPic=

> <r_epik_Ionization_Penalty>
0.00202099

> <r_epik_Ionization_Penalty_Charging>
0

> <r_epik_Ionization_Penalty_Neutral>
0.00202099

> <r_epik_State_Penalty>
0.00133629

> <r_epik_Charging_Adjusted_Penalty>
0.00133629

> <i_epik_Tot_Q>
0

> <i_epik_Tot_abs_Q>
0

> <r_epik_Metal_State_Penalty>
-0

> <b_epik_Metal_Only>
0

> <s_lp_Force_Field>
OPLS_2005

> <r_lp_Energy>
-3.71108

> <b_lp_Chiralities_Consistent>
1

> <s_lp_Variant>
AV-unprocessed.smi:2717-1

> <Gold.Version>
5.8.1

> <Gold.Id.Protein>
6NUR|6NUR_protein|mol2

> <Gold.PLP.Fitness>
48.9993

> <Gold.PLP.PLP>
-35.2365

> <Gold.PLP.part.hbond>
-4.8410

> <Gold.PLP.part.metal>
0.0000

> <Gold.PLP.part.buried>
-6.0965

> <Gold.PLP.part.nonpolar>
-26.1155

> <Gold.PLP.part.repulsive>
0.0432

> <Gold.PLP.ligand.clash>
0.0000

> <Gold.PLP.ligand.torsion>
0.2191

> <Gold.PLP.Chemscore.Hbond>
3.7225

> <Gold.PLP.Chemscore.CHOScore>
1.0000

> <Gold.PLP.Chemscore.Metal>
0.0000

> <Gold.Chemscore.Hbonds>
donor molecule, donor type, donor heavy atom, donor atom, acceptor molecule, acceptor atom, score
      L1  H     8    30       P1  7948  0.95
      L1  H    11    31       P1  7948  1.00
      L1  H    16    38       P1 10186  0.73
      P1  H 10785 10796       L1    16  0.98
      L1  C    19    43       P1  7949  1.00

> <Gold.PLP.Chemscore.Internal.Correction>
0.0335

> <Gold.Rescore>
     Score         DG    S(hbond)    S(metal)    S(lipo)     H(rot)  DE(clash)    DE(int)     intcor
     18.37     -18.51       2.61        0.00      85.25       2.21       0.00       0.14       ----

> <Gold.Chemscore.Fitness>
18.3654

> <Gold.Chemscore.DG>
-18.5073

> <Gold.Chemscore.ZeroCoef>
-5.4800

> <Gold.Chemscore.Hbond>
2.6069

> <Gold.Chemscore.Metal>
0.0000

> <Gold.Chemscore.Lipo>
85.2459

> <Gold.Chemscore.Internal_Hbond>
0.0000

> <Gold.Chemscore.DEClash>
0.0048

> <Gold.Chemscore.DEInternal>
0.1372

> <Gold.Chemscore.Rot>
2.2084

> <Gold.Chemscore.Internal.Correction>
   9.000000E+99

> <Gold.Chemscore.Hbonds>
donor molecule, donor type, donor heavy atom, donor atom, acceptor molecule, acceptor atom, score
      L1  H     8    30       P1  7948  0.21
      L1  H    11    31       P1  7948  0.90
      L1  H    16    38       P1 10186  0.73
      P1  H 10785 10796       L1    16  0.68

> <Gold.Chemscore.Hbond.Weighted>
-8.7071

> <Gold.Chemscore.Metal.Weighted>
-0.0000

> <Gold.Chemscore.Lipo.Weighted>
-9.9738

> <Gold.Chemscore.Internal_Hbond.Weighted>
0.0000

> <Gold.Chemscore.DEClash.Weighted>
0.0048

> <Gold.Chemscore.DEInternal.Weighted>
0.1372

> <Gold.Chemscore.Rot.Weighted>
5.6535

> <Gold.Chemscore.Internal.Correction.Weighted>
   9.000000E+99

> <Gold.Protein.RotatedTorsions>
[ 6907 6896 6895 6894 ] final   35.62 input  -60.11 | X-H torsion
[ 7974 7965 7964 7962 ] final  -71.21 input  175.53 | X-H torsion
[ 8008 7997 7996 7995 ] final   98.75 input   59.86 | X-H torsion
[ 10167 10162 10161 10158 ] final    6.93 input  -65.29 | X-H torsion
[ 10718 10713 10712 10709 ] final -145.15 input   66.30 | X-H torsion
[ 10763 10752 10751 10750 ] final   -3.23 input  -60.55 | X-H torsion
[ 11005 11000 10999 10996 ] final   36.69 input  -57.11 | X-H torsion

> <Gold.Protein.ActiveResidues>
 VAL166  LYS551  ARG553  GLY616  TRP617  ASP618  TYR619  PRO620  LYS621  CYS622 
 ASP623  PHE694  ASN695  SER759  ASP760  ASP761  ALA762  ILE779  LEU786  VAL792 
 PHE793  MET794  SER795  GLU796  ALA797  LYS798  CYS799  TRP800  GLU811  SER814 

> <Gold.Protein.RotatedAtoms>
  152.1187  134.9222  160.0563 H   0  0  0  0  0  0  0  0  0  0  0  0  # atno 6907 bound_to 6896
  152.0371  133.3957  159.4329 H   0  0  0  0  0  0  0  0  0  0  0  0  # atno 6908 bound_to 6896
  150.6847  134.3377  159.4898 H   0  0  0  0  0  0  0  0  0  0  0  0  # atno 6909 bound_to 6896
  145.6810  140.9188  143.0832 H   0  0  0  0  0  0  0  0  0  0  0  0  # atno 7974 bound_to 7965
  156.1036  140.3239  155.7975 H   0  0  0  0  0  0  0  0  0  0  0  0  # atno 8008 bound_to 7997
  155.4795  140.0553  157.2986 H   0  0  0  0  0  0  0  0  0  0  0  0  # atno 8009 bound_to 7997
  154.4712  140.2012  156.0004 H   0  0  0  0  0  0  0  0  0  0  0  0  # atno 8010 bound_to 7997
  140.6400  143.7796  150.7414 H   0  0  0  0  0  0  0  0  0  0  0  0  # atno 10167 bound_to 10162
  156.3789  130.7827  151.2017 H   0  0  0  0  0  0  0  0  0  0  0  0  # atno 10718 bound_to 10713
  153.3686  135.6993  153.6655 H   0  0  0  0  0  0  0  0  0  0  0  0  # atno 10763 bound_to 10752
  153.5314  135.3591  155.2678 H   0  0  0  0  0  0  0  0  0  0  0  0  # atno 10764 bound_to 10752
  154.8678  135.4181  154.2960 H   0  0  0  0  0  0  0  0  0  0  0  0  # atno 10765 bound_to 10752
  140.2300  134.3538  155.7968 H   0  0  0  0  0  0  0  0  0  0  0  0  # atno 11005 bound_to 11000
  144.7026  139.8696  143.7439 LP  0  0  0  0  0  0  0  0  0  0  0  0  # atno 17320 bound_to 7965
  146.0964  139.3957  143.0374 LP  0  0  0  0  0  0  0  0  0  0  0  0  # atno 17321 bound_to 7965
  140.1426  143.4428  152.2184 LP  0  0  0  0  0  0  0  0  0  0  0  0  # atno 17342 bound_to 10162
  139.5609  144.7405  151.4157 LP  0  0  0  0  0  0  0  0  0  0  0  0  # atno 17343 bound_to 10162
  157.7490  131.0350  150.4342 LP  0  0  0  0  0  0  0  0  0  0  0  0  # atno 17370 bound_to 10713
  156.4583  130.4026  149.6592 LP  0  0  0  0  0  0  0  0  0  0  0  0  # atno 17371 bound_to 10713
  141.2218  133.7240  156.8716 LP  0  0  0  0  0  0  0  0  0  0  0  0  # atno 17394 bound_to 11000
  140.1760  134.9066  157.2891 LP  0  0  0  0  0  0  0  0  0  0  0  0  # atno 17395 bound_to 11000

$$$$
