AV-unprocessed.smi:2603|AV-procd|sdf|10185|dock2
  -GOLD-   2272014203D 1   1.00000     0.00000
 Structure written by MMmdl.
 35 36  0  0  0  0  0  0  0  0  1 V2000
  153.0928  142.5797  162.8169 C   0  0  0  0  0  0  0  0  0  0  0  0
  152.4818  143.7186  161.9971 C   0  0  0  0  0  0  0  0  0  0  0  0
  151.4927  143.1858  161.1341 O   0  0  0  0  0  0  0  0  0  0  0  0
  151.6192  143.6777  159.8126 C   0  0  2  0  0  0  0  0  0  0  0  0
  150.9164  144.9848  159.5753 C   0  0  0  0  0  0  0  0  0  0  0  0
  150.3000  143.6897  159.0765 C   0  0  1  0  0  0  0  0  0  0  0  0
  150.3298  143.4404  157.6726 N   0  0  0  0  0  0  0  0  0  0  0  0
  150.6629  142.2780  157.0924 C   0  0  0  0  0  0  0  0  0  0  0  0
  150.9928  141.2708  157.7186 O   0  0  0  0  0  0  0  0  0  0  0  0
  150.6084  142.2433  155.5654 C   0  0  0  0  0  0  0  0  0  0  0  0
  149.9169  140.9834  155.1122 C   0  0  0  0  0  0  0  0  0  0  0  0
  148.6491  140.8515  154.4748 C   0  0  0  0  0  0  0  0  0  0  0  0
  147.6726  141.9278  154.0959 C   0  0  0  0  0  0  0  0  0  0  0  0
  148.3520  139.5877  154.2230 N   0  0  0  0  0  0  0  0  0  0  0  0
  149.4342  138.8381  154.6939 O   0  0  0  0  0  0  0  0  0  0  0  0
  150.3506  139.6907  155.2192 C   0  0  0  0  0  0  0  0  0  0  0  0
  151.5872  139.0815  155.7878 C   0  0  0  0  0  0  0  0  0  0  0  0
  153.8643  142.9543  163.4897 H   0  0  0  0  0  0  0  0  0  0  0  0
  153.5489  141.8312  162.1684 H   0  0  0  0  0  0  0  0  0  0  0  0
  152.3338  142.0829  163.4217 H   0  0  0  0  0  0  0  0  0  0  0  0
  152.0399  144.4620  162.6625 H   0  0  0  0  0  0  0  0  0  0  0  0
  153.2582  144.2164  161.4142 H   0  0  0  0  0  0  0  0  0  0  0  0
  152.5350  143.4213  159.2817 H   0  0  0  0  0  0  0  0  0  0  0  0
  150.4463  145.4687  160.4293 H   0  0  0  0  0  0  0  0  0  0  0  0
  151.3476  145.6594  158.8382 H   0  0  0  0  0  0  0  0  0  0  0  0
  149.4343  143.3279  159.6299 H   0  0  0  0  0  0  0  0  0  0  0  0
  150.0731  144.2092  157.0707 H   0  0  0  0  0  0  0  0  0  0  0  0
  150.0979  143.1343  155.1975 H   0  0  0  0  0  0  0  0  0  0  0  0
  151.6257  142.2998  155.1767 H   0  0  0  0  0  0  0  0  0  0  0  0
  147.0035  142.1545  154.9262 H   0  0  0  0  0  0  0  0  0  0  0  0
  147.0590  141.6309  153.2447 H   0  0  0  0  0  0  0  0  0  0  0  0
  148.1872  142.8490  153.8232 H   0  0  0  0  0  0  0  0  0  0  0  0
  151.6179  139.2138  156.8693 H   0  0  0  0  0  0  0  0  0  0  0  0
  152.4771  139.5480  155.3650 H   0  0  0  0  0  0  0  0  0  0  0  0
  151.6335  138.0128  155.5764 H   0  0  0  0  0  0  0  0  0  0  0  0
  1  2  1  0  0  0  0
  1 18  1  0  0  0  0
  1 19  1  0  0  0  0
  1 20  1  0  0  0  0
  2  3  1  0  0  0  0
  2 21  1  0  0  0  0
  2 22  1  0  0  0  0
  3  4  1  0  0  0  0
  4  6  1  0  0  0  0
  4  5  1  0  0  0  0
  4 23  1  0  0  0  0
  5  6  1  0  0  0  0
  5 24  1  0  0  0  0
  5 25  1  0  0  0  0
  6  7  1  0  0  0  0
  6 26  1  0  0  0  0
  7  8  1  0  0  0  0
  7 27  1  0  0  0  0
  8  9  2  0  0  0  0
  8 10  1  0  0  0  0
 10 11  1  0  0  0  0
 10 28  1  0  0  0  0
 10 29  1  0  0  0  0
 11 16  2  0  0  0  0
 11 12  1  0  0  0  0
 12 13  1  0  0  0  0
 12 14  2  0  0  0  0
 13 30  1  0  0  0  0
 13 31  1  0  0  0  0
 13 32  1  0  0  0  0
 14 15  1  0  0  0  0
 15 16  1  0  0  0  0
 16 17  1  0  0  0  0
 17 33  1  0  0  0  0
 17 34  1  0  0  0  0
 17 35  1  0  0  0  0
M  END
> <s_m_source_file>
AV-unprocessed.smi

> <i_m_source_file_index>
2603

> <i_lp_mmshare_version>
43012

> <i_f3d_flags>
0

> <s_epik_input>
W0NIM11bQ0gyXU9bQ0BASF0xW0NIMl1bQ0BIXTFbTkhdQyg9TylbQ0gyXWMyYyhbQ0gzXSlub2MyW0NIM10=

> <s_epik_cmdline>
J2VwaWtfcHl0aG9uJywgJy1waCcsICc3LjAnLCAnLXRuJywgJzgnLCAnLW1hJywgJzIwMCcsICctbWV0YWxfYmluZGluZycsICctaW1hZScsICc8aW5maWxlLm1hZT4nLCAnLW9tYWUnLCAnPG91dGZpbGUubWFlPic=

> <r_lp_tautomer_probability>
1

> <r_epik_Ionization_Penalty>
2.37325e-08

> <r_epik_Ionization_Penalty_Charging>
0

> <r_epik_Ionization_Penalty_Neutral>
2.37325e-08

> <r_epik_State_Penalty>
-0

> <r_epik_Charging_Adjusted_Penalty>
0

> <i_epik_Tot_Q>
0

> <i_epik_Tot_abs_Q>
0

> <r_epik_Metal_State_Penalty>
-0

> <b_epik_Metal_Only>
0

> <s_lp_Force_Field>
OPLS_2005

> <r_lp_Energy>
10.4269

> <b_lp_Chiralities_Consistent>
1

> <s_lp_Variant>
AV-unprocessed.smi:2603-1

> <Gold.Version>
5.8.1

> <Gold.Id.Protein>
6NUR|6NUR_protein|mol2

> <Gold.PLP.Fitness>
37.1898

> <Gold.PLP.PLP>
-35.1774

> <Gold.PLP.part.hbond>
-2.0000

> <Gold.PLP.part.metal>
0.0000

> <Gold.PLP.part.buried>
-3.3967

> <Gold.PLP.part.nonpolar>
-30.2257

> <Gold.PLP.part.repulsive>
0.4612

> <Gold.PLP.ligand.clash>
0.0000

> <Gold.PLP.ligand.torsion>
1.0120

> <Gold.PLP.Chemscore.Hbond>
1.1076

> <Gold.PLP.Chemscore.CHOScore>
0.0000

> <Gold.PLP.Chemscore.Metal>
0.0000

> <Gold.Chemscore.Hbonds>
donor molecule, donor type, donor heavy atom, donor atom, acceptor molecule, acceptor atom, score
      L1  H     7    27       P1  8028  0.90
      P1  H  6933  6945       L1     3  0.11

> <Gold.PLP.Chemscore.Internal.Correction>
0.7136

> <Gold.Rescore>
     Score         DG    S(hbond)    S(metal)    S(lipo)     H(rot)  DE(clash)    DE(int)     intcor
     13.43     -15.55       1.05        0.00      93.10       1.69       1.28       0.83       ----

> <Gold.Chemscore.Fitness>
13.4332

> <Gold.Chemscore.DG>
-15.5486

> <Gold.Chemscore.ZeroCoef>
-5.4800

> <Gold.Chemscore.Hbond>
1.0511

> <Gold.Chemscore.Metal>
0.0000

> <Gold.Chemscore.Lipo>
93.0994

> <Gold.Chemscore.Internal_Hbond>
0.0000

> <Gold.Chemscore.DEClash>
1.2821

> <Gold.Chemscore.DEInternal>
0.8333

> <Gold.Chemscore.Rot>
1.6933

> <Gold.Chemscore.Internal.Correction>
   9.000000E+99

> <Gold.Chemscore.Hbonds>
donor molecule, donor type, donor heavy atom, donor atom, acceptor molecule, acceptor atom, score
      L1  H     7    27       P1  8028  0.72
      P1  H  6933  6945       L1     3  0.10

> <Gold.Chemscore.Hbond.Weighted>
-3.5107

> <Gold.Chemscore.Metal.Weighted>
-0.0000

> <Gold.Chemscore.Lipo.Weighted>
-10.8926

> <Gold.Chemscore.Internal_Hbond.Weighted>
0.0000

> <Gold.Chemscore.DEClash.Weighted>
1.2821

> <Gold.Chemscore.DEInternal.Weighted>
0.8333

> <Gold.Chemscore.Rot.Weighted>
4.3348

> <Gold.Chemscore.Internal.Correction.Weighted>
   9.000000E+99

> <Gold.Protein.RotatedTorsions>
[ 6907 6896 6895 6894 ] final  -33.48 input  -60.11 | X-H torsion
[ 7974 7965 7964 7962 ] final -109.95 input  175.53 | X-H torsion
[ 8008 7997 7996 7995 ] final  147.38 input   59.86 | X-H torsion
[ 10167 10162 10161 10158 ] final  122.93 input  -65.29 | X-H torsion
[ 10718 10713 10712 10709 ] final  105.39 input   66.30 | X-H torsion
[ 10763 10752 10751 10750 ] final   43.69 input  -60.55 | X-H torsion
[ 11005 11000 10999 10996 ] final  146.64 input  -57.11 | X-H torsion

> <Gold.Protein.ActiveResidues>
 VAL166  LYS551  ARG553  GLY616  TRP617  ASP618  TYR619  PRO620  LYS621  CYS622 
 ASP623  PHE694  ASN695  SER759  ASP760  ASP761  ALA762  ILE779  LEU786  VAL792 
 PHE793  MET794  SER795  GLU796  ALA797  LYS798  CYS799  TRP800  GLU811  SER814 

> <Gold.Protein.RotatedAtoms>
  151.0650  134.9762  159.8279 H   0  0  0  0  0  0  0  0  0  0  0  0  # atno 6907 bound_to 6896
  152.5401  134.2370  159.8857 H   0  0  0  0  0  0  0  0  0  0  0  0  # atno 6908 bound_to 6896
  151.2391  133.4366  159.2640 H   0  0  0  0  0  0  0  0  0  0  0  0  # atno 6909 bound_to 6896
  145.1742  140.8940  143.3517 H   0  0  0  0  0  0  0  0  0  0  0  0  # atno 7974 bound_to 7965
  156.2826  140.2157  156.5528 H   0  0  0  0  0  0  0  0  0  0  0  0  # atno 8008 bound_to 7997
  154.7277  140.0498  157.0720 H   0  0  0  0  0  0  0  0  0  0  0  0  # atno 8009 bound_to 7997
  155.0394  140.3144  155.4733 H   0  0  0  0  0  0  0  0  0  0  0  0  # atno 8010 bound_to 7997
  139.5829  144.6994  151.3481 H   0  0  0  0  0  0  0  0  0  0  0  0  # atno 10167 bound_to 10162
  157.6707  131.0826  150.5849 H   0  0  0  0  0  0  0  0  0  0  0  0  # atno 10718 bound_to 10713
  152.9855  135.6093  154.3153 H   0  0  0  0  0  0  0  0  0  0  0  0  # atno 10763 bound_to 10752
  154.2866  135.2776  155.2675 H   0  0  0  0  0  0  0  0  0  0  0  0  # atno 10764 bound_to 10752
  154.4990  135.5872  153.6573 H   0  0  0  0  0  0  0  0  0  0  0  0  # atno 10765 bound_to 10752
  140.0810  134.9097  157.1500 H   0  0  0  0  0  0  0  0  0  0  0  0  # atno 11005 bound_to 11000
  145.0202  139.3431  143.6076 LP  0  0  0  0  0  0  0  0  0  0  0  0  # atno 17320 bound_to 7965
  146.3464  139.9499  142.8730 LP  0  0  0  0  0  0  0  0  0  0  0  0  # atno 17321 bound_to 7965
  140.7105  143.7402  150.7559 LP  0  0  0  0  0  0  0  0  0  0  0  0  # atno 17342 bound_to 10162
  140.0939  143.4851  152.2463 LP  0  0  0  0  0  0  0  0  0  0  0  0  # atno 17343 bound_to 10162
  156.6149  130.4390  149.5844 LP  0  0  0  0  0  0  0  0  0  0  0  0  # atno 17370 bound_to 10713
  156.2401  130.6846  151.1547 LP  0  0  0  0  0  0  0  0  0  0  0  0  # atno 17371 bound_to 10713
  140.3488  134.2622  155.7201 LP  0  0  0  0  0  0  0  0  0  0  0  0  # atno 17394 bound_to 11000
  141.2046  133.7881  157.0276 LP  0  0  0  0  0  0  0  0  0  0  0  0  # atno 17395 bound_to 11000

$$$$
