AV-unprocessed.smi:639|AV-procd|sdf|3148|dock1
  -GOLD-   22720 0 73D 1   1.00000     0.00000
 Structure written by MMmdl.
 23 24  0  0  0  0  0  0  0  0  2 V2000
  151.9326  145.2922  158.8673 C   0  0  0  0  0  0  0  0  0  0  0  0
  151.8980  143.8494  158.7628 N   0  0  0  0  0  0  0  0  0  0  0  0
  151.1661  143.0667  157.8969 C   0  0  0  0  0  0  0  0  0  0  0  0
  151.4561  141.7569  158.1701 C   0  0  0  0  0  0  0  0  0  0  0  0
  150.9216  140.4928  157.5193 C   0  0  1  0  0  0  0  0  0  0  0  0
  150.1452  139.6311  158.5341 C   0  0  0  0  0  0  0  0  0  0  0  0
  150.0826  140.7652  156.3605 N   0  5  0  0  0  0  0  0  0  0  0  0
  150.6783  140.2497  155.2589 C   0  0  0  0  0  0  0  0  0  0  0  0
  150.2777  140.2909  154.0978 O   0  0  0  0  0  0  0  0  0  0  0  0
  151.8258  139.6460  155.5825 N   0  0  0  0  0  0  0  0  0  0  0  0
  152.0655  139.7108  156.8885 C   0  0  0  0  0  0  0  0  0  0  0  0
  153.0244  139.2305  157.4927 O   0  0  0  0  0  0  0  0  0  0  0  0
  152.3917  141.8565  159.2428 C   0  0  0  0  0  0  0  0  0  0  0  0
  152.6554  143.1049  159.5925 N   0  0  0  0  0  0  0  0  0  0  0  0
  151.2760  145.7369  158.1188 H   0  0  0  0  0  0  0  0  0  0  0  0
  152.9495  145.6504  158.7046 H   0  0  0  0  0  0  0  0  0  0  0  0
  151.5976  145.5981  159.8589 H   0  0  0  0  0  0  0  0  0  0  0  0
  150.5026  143.5000  157.1629 H   0  0  0  0  0  0  0  0  0  0  0  0
  150.7713  139.3493  159.3815 H   0  0  0  0  0  0  0  0  0  0  0  0
  149.7741  138.7100  158.0819 H   0  0  0  0  0  0  0  0  0  0  0  0
  149.2844  140.1716  158.9296 H   0  0  0  0  0  0  0  0  0  0  0  0
  152.4287  139.1856  154.9173 H   0  0  0  0  0  0  0  0  0  0  0  0
  152.8858  141.0563  159.7737 H   0  0  0  0  0  0  0  0  0  0  0  0
  1  2  1  0  0  0  0
  1 15  1  0  0  0  0
  1 16  1  0  0  0  0
  1 17  1  0  0  0  0
  2 14  1  0  0  0  0
  2  3  1  0  0  0  0
  3  4  2  0  0  0  0
  3 18  1  0  0  0  0
  4  5  1  0  0  0  0
  4 13  1  0  0  0  0
  5 11  1  0  0  0  0
  5  6  1  0  0  0  0
  5  7  1  0  0  0  0
  6 19  1  0  0  0  0
  6 20  1  0  0  0  0
  6 21  1  0  0  0  0
  7  8  1  0  0  0  0
  8  9  2  0  0  0  0
  8 10  1  0  0  0  0
 10 11  1  0  0  0  0
 10 22  1  0  0  0  0
 11 12  2  0  0  0  0
 13 14  2  0  0  0  0
 13 23  1  0  0  0  0
M  CHG  1   7  -1
M  END
> <s_m_source_file>
AV-unprocessed.smi

> <i_m_source_file_index>
639

> <i_lp_mmshare_version>
43012

> <i_f3d_flags>
0

> <s_epik_input>
W0NIM11uMVtjSF1jKFtjSF1uMSlbQ0BAXTIoW0NIM10pW05IXUMoPU8pW05IXUMyPU8=

> <s_epik_cmdline>
J2VwaWtfcHl0aG9uJywgJy1waCcsICc3LjAnLCAnLXRuJywgJzgnLCAnLW1hJywgJzIwMCcsICctbWV0YWxfYmluZGluZycsICctaW1hZScsICc8aW5maWxlLm1hZT4nLCAnLW9tYWUnLCAnPG91dGZpbGUubWFlPic=

> <r_lp_tautomer_probability>
1

> <r_epik_Ionization_Penalty>
4.83415

> <r_epik_Ionization_Penalty_Charging>
4.8337

> <r_epik_Ionization_Penalty_Neutral>
0.000449923

> <r_epik_State_Penalty>
4.85653

> <r_epik_Charging_Adjusted_Penalty>
9.69023

> <i_epik_Tot_Q>
-1

> <i_epik_Tot_abs_Q>
1

> <r_epik_Metal_State_Penalty>
1.31841

> <b_epik_Metal_Only>
1

> <s_lp_Force_Field>
OPLS_2005

> <r_lp_Energy>
8.78459

> <b_lp_Chiralities_Consistent>
1

> <s_lp_Variant>
AV-unprocessed.smi:639-5

> <Gold.Version>
5.8.1

> <Gold.Id.Protein>
6NUR|6NUR_protein|mol2

> <Gold.PLP.Fitness>
34.7186

> <Gold.PLP.PLP>
-26.0182

> <Gold.PLP.part.hbond>
-1.8163

> <Gold.PLP.part.metal>
0.0000

> <Gold.PLP.part.buried>
-3.3424

> <Gold.PLP.part.nonpolar>
-20.8287

> <Gold.PLP.part.repulsive>
0.5355

> <Gold.PLP.ligand.clash>
0.0000

> <Gold.PLP.ligand.torsion>
0.0468

> <Gold.PLP.Chemscore.Hbond>
2.0000

> <Gold.PLP.Chemscore.CHOScore>
0.9120

> <Gold.PLP.Chemscore.Metal>
0.0000

> <Gold.Chemscore.Hbonds>
donor molecule, donor type, donor heavy atom, donor atom, acceptor molecule, acceptor atom, score
      P1  H  7989  7998       L1     9  0.76
      P1  H  7997  8010       L1    12  0.94
      L1  C     3    18       P1  8028  1.00

> <Gold.PLP.Chemscore.Internal.Correction>
0.0579

> <Gold.Rescore>
     Score         DG    S(hbond)    S(metal)    S(lipo)     H(rot)  DE(clash)    DE(int)     intcor
     13.39     -13.56       1.50        0.00      48.19       1.00       0.15       0.03       ----

> <Gold.Chemscore.Fitness>
13.3887

> <Gold.Chemscore.DG>
-13.5647

> <Gold.Chemscore.ZeroCoef>
-5.4800

> <Gold.Chemscore.Hbond>
1.4988

> <Gold.Chemscore.Metal>
0.0000

> <Gold.Chemscore.Lipo>
48.1945

> <Gold.Chemscore.Internal_Hbond>
0.0000

> <Gold.Chemscore.DEClash>
0.1470

> <Gold.Chemscore.DEInternal>
0.0289

> <Gold.Chemscore.Rot>
1.0000

> <Gold.Chemscore.Internal.Correction>
   9.000000E+99

> <Gold.Chemscore.Hbonds>
donor molecule, donor type, donor heavy atom, donor atom, acceptor molecule, acceptor atom, score
      P1  H  7989  7998       L1     9  0.10
      P1  H  7997  8010       L1    12  0.82

> <Gold.Chemscore.Hbond.Weighted>
-5.0059

> <Gold.Chemscore.Metal.Weighted>
-0.0000

> <Gold.Chemscore.Lipo.Weighted>
-5.6388

> <Gold.Chemscore.Internal_Hbond.Weighted>
0.0000

> <Gold.Chemscore.DEClash.Weighted>
0.1470

> <Gold.Chemscore.DEInternal.Weighted>
0.0289

> <Gold.Chemscore.Rot.Weighted>
2.5600

> <Gold.Chemscore.Internal.Correction.Weighted>
   9.000000E+99

> <Gold.Protein.RotatedTorsions>
[ 6907 6896 6895 6894 ] final  138.09 input  -60.11 | X-H torsion
[ 7974 7965 7964 7962 ] final   89.40 input  175.53 | X-H torsion
[ 8008 7997 7996 7995 ] final   24.96 input   59.86 | X-H torsion
[ 10167 10162 10161 10158 ] final   64.47 input  -65.29 | X-H torsion
[ 10718 10713 10712 10709 ] final  -65.32 input   66.30 | X-H torsion
[ 10763 10752 10751 10750 ] final -158.21 input  -60.55 | X-H torsion
[ 11005 11000 10999 10996 ] final  137.44 input  -57.11 | X-H torsion

> <Gold.Protein.ActiveResidues>
 VAL166  LYS551  ARG553  GLY616  TRP617  ASP618  TYR619  PRO620  LYS621  CYS622 
 ASP623  PHE694  ASN695  SER759  ASP760  ASP761  ALA762  ILE779  LEU786  VAL792 
 PHE793  MET794  SER795  GLU796  ALA797  LYS798  CYS799  TRP800  GLU811  SER814 

> <Gold.Protein.RotatedAtoms>
  152.2706  133.5379  159.5436 H   0  0  0  0  0  0  0  0  0  0  0  0  # atno 6907 bound_to 6896
  150.7158  134.0703  159.3871 H   0  0  0  0  0  0  0  0  0  0  0  0  # atno 6908 bound_to 6896
  151.8618  135.0521  160.0521 H   0  0  0  0  0  0  0  0  0  0  0  0  # atno 6909 bound_to 6896
  145.5328  139.2284  143.2609 H   0  0  0  0  0  0  0  0  0  0  0  0  # atno 7974 bound_to 7965
  155.0044  140.3129  155.4854 H   0  0  0  0  0  0  0  0  0  0  0  0  # atno 8008 bound_to 7997
  156.2919  140.2226  156.5096 H   0  0  0  0  0  0  0  0  0  0  0  0  # atno 8009 bound_to 7997
  154.7590  140.0460  157.0945 H   0  0  0  0  0  0  0  0  0  0  0  0  # atno 8010 bound_to 7997
  140.1219  144.4724  150.6915 H   0  0  0  0  0  0  0  0  0  0  0  0  # atno 10167 bound_to 10162
  156.0676  130.4245  150.1547 H   0  0  0  0  0  0  0  0  0  0  0  0  # atno 10718 bound_to 10713
  154.7575  135.3108  154.8442 H   0  0  0  0  0  0  0  0  0  0  0  0  # atno 10763 bound_to 10752
  153.9212  135.6795  153.4752 H   0  0  0  0  0  0  0  0  0  0  0  0  # atno 10764 bound_to 10752
  153.1173  135.4838  154.9067 H   0  0  0  0  0  0  0  0  0  0  0  0  # atno 10765 bound_to 10752
  140.0114  134.9437  157.0286 H   0  0  0  0  0  0  0  0  0  0  0  0  # atno 11005 bound_to 11000
  146.2033  140.6145  142.9092 LP  0  0  0  0  0  0  0  0  0  0  0  0  # atno 17320 bound_to 7965
  144.7617  140.5437  143.6731 LP  0  0  0  0  0  0  0  0  0  0  0  0  # atno 17321 bound_to 7965
  140.6867  143.2354  151.5241 LP  0  0  0  0  0  0  0  0  0  0  0  0  # atno 17342 bound_to 10162
  139.5564  144.2264  152.1620 LP  0  0  0  0  0  0  0  0  0  0  0  0  # atno 17343 bound_to 10162
  156.9604  130.9803  151.3480 LP  0  0  0  0  0  0  0  0  0  0  0  0  # atno 17370 bound_to 10713
  157.5728  130.8322  149.8415 LP  0  0  0  0  0  0  0  0  0  0  0  0  # atno 17371 bound_to 10713
  140.4547  134.1546  155.7185 LP  0  0  0  0  0  0  0  0  0  0  0  0  # atno 17394 bound_to 11000
  141.1714  133.8602  157.1560 LP  0  0  0  0  0  0  0  0  0  0  0  0  # atno 17395 bound_to 11000

$$$$
