#       Name:                AV-unprocessed.smi:35
#       Creating user name   scv26
#       Creation time:       Thu Mar 26 16:02:31 2020


#       File generated by GOLD software.
#

@<TRIPOS>MOLECULE
AV-unprocessed.smi:35
    41    42     1
SMALL
NO_CHARGES


@<TRIPOS>ATOM
      1 ****        -2.1272   4.6898   1.0103 O.2            1 S1                 0.0000
      2 ****        -1.7810   3.5702   0.6402 C.2            1 S1                 0.0000
      3 ****        -2.7348   2.6407   0.2148 N.am           1 S1                 0.0000
      4 ****        -2.4631   1.3450  -0.2294 C.2            1 S1                 0.0000
      5 ****        -3.3862   0.6017  -0.5602 O.2            1 S1                 0.0000
      6 ****        -1.1083   0.9462  -0.2661 N.am           1 S1                 0.0000
      7 ****        -0.7631  -0.4502  -0.7299 C.3            1 S1                 0.0000
      8 ****         0.5119  -0.4330  -1.3029 O.3            1 S1                 0.0000
      9 ****         1.3269  -1.4463  -0.7228 C.3            1 S1                 0.0000
     10 ****         2.7987  -1.0089  -0.7902 C.3            1 S1                 0.0000
     11 ****         3.6513  -2.0740  -0.4289 O.3            1 S1                 0.0000
     12 ****         0.7583  -1.5949   0.6905 C.3            1 S1                 0.0000
     13 ****         1.0774  -2.8282   1.3066 O.3            1 S1                 0.0000
     14 ****        -0.7385  -1.4160   0.4662 C.3            1 S1                 0.0000
     15 ****        -1.3946  -2.6311   0.1488 O.3            1 S1                 0.0000
     16 ****        -0.1271   1.8280   0.1685 C.2            1 S1                 0.0000
     17 ****        -0.4077   3.0794   0.6013 C.2            1 S1                 0.0000
     18 ****         1.1330   4.1818   1.1806 Br             1 S1                 0.0000
     19 ****        -3.7023   2.9291   0.2361 H              1 S1                 0.0000
     20 ****        -1.4880  -0.7118  -1.5034 H              1 S1                 0.0000
     21 ****         1.1689  -2.3620  -1.2958 H              1 S1                 0.0000
     22 ****         3.0504  -0.7057  -1.8066 H              1 S1                 0.0000
     23 ****         2.9844  -0.1508  -0.1436 H              1 S1                 0.0000
     24 ****         4.5467  -1.7779  -0.4916 H              1 S1                 0.0000
     25 ****         1.1245  -0.7823   1.3196 H              1 S1                 0.0000
     26 ****         0.7216  -3.5257   0.7769 H              1 S1                 0.0000
     27 ****        -1.2288  -0.9798   1.3378 H              1 S1                 0.0000
     28 ****        -2.3099  -2.4470   0.0010 H              1 S1                 0.0000
     29 ****         0.9064   1.5148   0.1731 H              1 S1                 0.0000
     30 ****        -1.4411   5.3490   1.3180 LP             1 S1                 0.0000
     31 ****        -3.0950   4.9415   1.0036 LP             1 S1                 0.0000
     32 ****        -4.3310   0.9254  -0.5110 LP             1 S1                 0.0000
     33 ****        -3.1916  -0.3262  -0.8783 LP             1 S1                 0.0000
     34 ****         0.9329   0.4601  -1.1446 LP             1 S1                 0.0000
     35 ****         0.4339  -0.5951  -2.2866 LP             1 S1                 0.0000
     36 ****         3.5075  -2.8458  -1.0484 LP             1 S1                 0.0000
     37 ****         3.4556  -2.3589   0.5094 LP             1 S1                 0.0000
     38 ****         0.6778  -2.8619   2.2227 LP             1 S1                 0.0000
     39 ****         2.0704  -2.9264   1.3722 LP             1 S1                 0.0000
     40 ****        -1.2981  -3.2751   0.9077 LP             1 S1                 0.0000
     41 ****        -0.9922  -3.0264  -0.6770 LP             1 S1                 0.0000
@<TRIPOS>BOND
    1    1    2 2     
    2    2   17 1     
    3    2    3 1     
    4    3   19 1     
    5    3    4 1     
    6    4    5 2     
    7    4    6 1     
    8    6    7 1     
    9    6   16 1     
   10    7   14 1     
   11    7    8 1     
   12    7   20 1     
   13    8    9 1     
   14    9   10 1     
   15    9   12 1     
   16    9   21 1     
   17   10   11 1     
   18   10   22 1     
   19   10   23 1     
   20   11   24 1     
   21   12   13 1     
   22   12   14 1     
   23   12   25 1     
   24   13   26 1     
   25   14   15 1     
   26   14   27 1     
   27   15   28 1     
   28   16   17 2     
   29   16   29 1     
   30   17   18 1     
   31    1   30 1     
   32    1   31 1     
   33    5   32 1     
   34    5   33 1     
   35    8   34 1     
   36    8   35 1     
   37   11   36 1     
   38   11   37 1     
   39   13   38 1     
   40   13   39 1     
   41   15   40 1     
   42   15   41 1     
@<TRIPOS>SUBSTRUCTURE
      1 S1             1
@<TRIPOS>SET
LONE_PAIRS      STATIC     ATOMS    <user>   **** ""
12 30 31 32 33 34 35 36 37 38 39 40 41
DONOR_HYDROGENS      STATIC     ATOMS    <user>   **** ""
4 19 24 26 28
ATOM$BLUE        STATIC     ATOMS    COLORGROUP SYSTEM
12 30 31 32 33 34 35 36 37 38 39 40 41
ATOM$RED        STATIC     ATOMS    COLORGROUP SYSTEM
4 19 24 26 28
