AV-unprocessed.smi:2976|AV-procd|sdf|11361|dock6
  -GOLD-   2272016273D 1   1.00000     0.00000
 Structure written by MMmdl.
 40 41  0  0  0  0  0  0  0  0  1 V2000
  153.7664  141.7190  161.0341 C   0  0  0  0  0  0  0  0  0  0  0  0
  153.0840  142.3776  159.8208 C   0  0  2  0  0  0  0  0  0  0  0  0
  152.4660  143.7242  160.2483 C   0  0  0  0  0  0  0  0  0  0  0  0
  151.7957  144.4454  159.0739 C   0  0  0  0  0  0  0  0  0  0  0  0
  150.7235  143.5558  158.4385 C   0  0  0  0  0  0  0  0  0  0  0  0
  151.3137  142.2108  157.9800 C   0  0  2  0  0  0  0  0  0  0  0  0
  150.2351  141.3990  157.4168 N   0  0  0  0  0  0  0  0  0  0  0  0
  150.2703  140.7436  156.2460 C   0  0  0  0  0  0  0  0  0  0  0  0
  151.2328  140.7743  155.4781 O   0  0  0  0  0  0  0  0  0  0  0  0
  149.0135  139.9389  155.8863 C   0  0  0  0  0  0  0  0  0  0  0  0
  147.8089  140.7758  155.7861 N   0  0  0  0  0  0  0  0  0  0  0  0
  146.9340  140.6378  156.8496 N   0  0  0  0  0  0  0  0  0  0  0  0
  145.8565  141.3435  156.8802 C   0  0  0  0  0  0  0  0  0  0  0  0
  145.5191  142.2806  155.8313 C   0  0  0  0  0  0  0  0  0  0  0  0
  144.0594  143.2015  155.9281 Cl  0  0  0  0  0  0  0  0  0  0  0  0
  146.3791  142.4017  154.7887 C   0  0  0  0  0  0  0  0  0  0  0  0
  146.0426  143.5008  153.4949 Cl  0  0  0  0  0  0  0  0  0  0  0  0
  147.6177  141.6135  154.7204 C   0  0  0  0  0  0  0  0  0  0  0  0
  148.4229  141.6934  153.7913 O   0  0  0  0  0  0  0  0  0  0  0  0
  152.0246  141.4628  159.1417 C   0  0  1  0  0  0  0  0  0  0  0  0
  152.6380  140.1309  158.6547 C   0  0  0  0  0  0  0  0  0  0  0  0
  153.0342  141.3947  161.7740 H   0  0  0  0  0  0  0  0  0  0  0  0
  154.4456  142.4162  161.5257 H   0  0  0  0  0  0  0  0  0  0  0  0
  154.3629  140.8536  160.7472 H   0  0  0  0  0  0  0  0  0  0  0  0
  153.8619  142.5928  159.0864 H   0  0  0  0  0  0  0  0  0  0  0  0
  151.7328  143.5599  161.0393 H   0  0  0  0  0  0  0  0  0  0  0  0
  153.2361  144.3696  160.6725 H   0  0  0  0  0  0  0  0  0  0  0  0
  151.3494  145.3795  159.4160 H   0  0  0  0  0  0  0  0  0  0  0  0
  152.5446  144.7133  158.3275 H   0  0  0  0  0  0  0  0  0  0  0  0
  149.9215  143.3849  159.1583 H   0  0  0  0  0  0  0  0  0  0  0  0
  150.2740  144.0753  157.5912 H   0  0  0  0  0  0  0  0  0  0  0  0
  152.0617  142.4242  157.2138 H   0  0  0  0  0  0  0  0  0  0  0  0
  149.3976  141.3159  157.9745 H   0  0  0  0  0  0  0  0  0  0  0  0
  149.1706  139.4012  154.9491 H   0  0  0  0  0  0  0  0  0  0  0  0
  148.8787  139.1678  156.6470 H   0  0  0  0  0  0  0  0  0  0  0  0
  145.1408  141.2718  157.6992 H   0  0  0  0  0  0  0  0  0  0  0  0
  151.2693  141.2184  159.8906 H   0  0  0  0  0  0  0  0  0  0  0  0
  153.4304  140.3053  157.9262 H   0  0  0  0  0  0  0  0  0  0  0  0
  151.8948  139.4877  158.1841 H   0  0  0  0  0  0  0  0  0  0  0  0
  153.0588  139.5520  159.4755 H   0  0  0  0  0  0  0  0  0  0  0  0
  1  2  1  0  0  0  0
  1 22  1  0  0  0  0
  1 23  1  0  0  0  0
  1 24  1  0  0  0  0
  2 20  1  0  0  0  0
  2  3  1  0  0  0  0
  2 25  1  0  0  0  0
  3  4  1  0  0  0  0
  3 26  1  0  0  0  0
  3 27  1  0  0  0  0
  4  5  1  0  0  0  0
  4 28  1  0  0  0  0
  4 29  1  0  0  0  0
  5  6  1  0  0  0  0
  5 30  1  0  0  0  0
  5 31  1  0  0  0  0
  6  7  1  0  0  0  0
  6 20  1  0  0  0  0
  6 32  1  0  0  0  0
  7  8  1  0  0  0  0
  7 33  1  0  0  0  0
  8  9  2  0  0  0  0
  8 10  1  0  0  0  0
 10 11  1  0  0  0  0
 10 34  1  0  0  0  0
 10 35  1  0  0  0  0
 11 18  1  0  0  0  0
 11 12  1  0  0  0  0
 12 13  2  0  0  0  0
 13 14  1  0  0  0  0
 13 36  1  0  0  0  0
 14 15  1  0  0  0  0
 14 16  2  0  0  0  0
 16 17  1  0  0  0  0
 16 18  1  0  0  0  0
 18 19  2  0  0  0  0
 20 21  1  0  0  0  0
 20 37  1  0  0  0  0
 21 38  1  0  0  0  0
 21 39  1  0  0  0  0
 21 40  1  0  0  0  0
M  END
> <s_m_source_file>
AV-unprocessed.smi

> <i_m_source_file_index>
2976

> <i_lp_mmshare_version>
43012

> <i_f3d_flags>
0

> <s_epik_input>
W0NIM11bQ0BASF0xW0NIMl1bQ0gyXVtDSDJdW0NASF0oW0NASF0xW0NIM10pW05IXUMoPU8pW0NIMl1uMm5bY0hdYyhDbCljKENsKWMyPU8=

> <s_epik_cmdline>
J2VwaWtfcHl0aG9uJywgJy1waCcsICc3LjAnLCAnLXRuJywgJzgnLCAnLW1hJywgJzIwMCcsICctbWV0YWxfYmluZGluZycsICctaW1hZScsICc8aW5maWxlLm1hZT4nLCAnLW9tYWUnLCAnPG91dGZpbGUubWFlPic=

> <r_lp_tautomer_probability>
1

> <r_epik_Ionization_Penalty>
1.90777e-08

> <r_epik_Ionization_Penalty_Charging>
3.07942e-11

> <r_epik_Ionization_Penalty_Neutral>
1.90469e-08

> <r_epik_State_Penalty>
-0

> <r_epik_Charging_Adjusted_Penalty>
3.07942e-11

> <i_epik_Tot_Q>
0

> <i_epik_Tot_abs_Q>
0

> <r_epik_Metal_State_Penalty>
-0

> <b_epik_Metal_Only>
0

> <s_lp_Force_Field>
OPLS_2005

> <r_lp_Energy>
26.5415

> <b_lp_Chiralities_Consistent>
1

> <s_lp_Variant>
AV-unprocessed.smi:2976-3

> <Gold.Version>
5.8.1

> <Gold.Id.Protein>
6NUR|6NUR_protein|mol2

> <Gold.PLP.Fitness>
42.9916

> <Gold.PLP.PLP>
-39.9704

> <Gold.PLP.part.hbond>
-2.0000

> <Gold.PLP.part.metal>
0.0000

> <Gold.PLP.part.buried>
-5.2936

> <Gold.PLP.part.nonpolar>
-32.3596

> <Gold.PLP.part.repulsive>
0.2644

> <Gold.PLP.ligand.clash>
0.0000

> <Gold.PLP.ligand.torsion>
0.3187

> <Gold.PLP.Chemscore.Hbond>
1.2173

> <Gold.PLP.Chemscore.CHOScore>
0.0000

> <Gold.PLP.Chemscore.Metal>
0.0000

> <Gold.Chemscore.Hbonds>
donor molecule, donor type, donor heavy atom, donor atom, acceptor molecule, acceptor atom, score
      P1  H  7989  7998       L1     9  0.77
      P1  H  8011  8017       L1    19  0.45

> <Gold.PLP.Chemscore.Internal.Correction>
0.0067

> <Gold.Rescore>
     Score         DG    S(hbond)    S(metal)    S(lipo)     H(rot)  DE(clash)    DE(int)     intcor
     17.36     -18.21       1.33        0.00     103.46       1.49       0.55       0.30       ----

> <Gold.Chemscore.Fitness>
17.3602

> <Gold.Chemscore.DG>
-18.2090

> <Gold.Chemscore.ZeroCoef>
-5.4800

> <Gold.Chemscore.Hbond>
1.3264

> <Gold.Chemscore.Metal>
0.0000

> <Gold.Chemscore.Lipo>
103.4581

> <Gold.Chemscore.Internal_Hbond>
0.0000

> <Gold.Chemscore.DEClash>
0.5471

> <Gold.Chemscore.DEInternal>
0.3018

> <Gold.Chemscore.Rot>
1.4866

> <Gold.Chemscore.Internal.Correction>
   9.000000E+99

> <Gold.Chemscore.Hbonds>
donor molecule, donor type, donor heavy atom, donor atom, acceptor molecule, acceptor atom, score
      P1  H  7989  7998       L1     9  0.72
      P1  H  8011  8017       L1    19  0.44

> <Gold.Chemscore.Hbond.Weighted>
-4.4301

> <Gold.Chemscore.Metal.Weighted>
-0.0000

> <Gold.Chemscore.Lipo.Weighted>
-12.1046

> <Gold.Chemscore.Internal_Hbond.Weighted>
0.0000

> <Gold.Chemscore.DEClash.Weighted>
0.5471

> <Gold.Chemscore.DEInternal.Weighted>
0.3018

> <Gold.Chemscore.Rot.Weighted>
3.8057

> <Gold.Chemscore.Internal.Correction.Weighted>
   9.000000E+99

> <Gold.Protein.RotatedTorsions>
[ 6907 6896 6895 6894 ] final   70.64 input  -60.11 | X-H torsion
[ 7974 7965 7964 7962 ] final -138.58 input  175.53 | X-H torsion
[ 8008 7997 7996 7995 ] final   73.09 input   59.86 | X-H torsion
[ 10167 10162 10161 10158 ] final -125.98 input  -65.29 | X-H torsion
[ 10718 10713 10712 10709 ] final  -50.63 input   66.30 | X-H torsion
[ 10763 10752 10751 10750 ] final  164.02 input  -60.55 | X-H torsion
[ 11005 11000 10999 10996 ] final  -67.95 input  -57.11 | X-H torsion

> <Gold.Protein.ActiveResidues>
 VAL166  LYS551  ARG553  GLY616  TRP617  ASP618  TYR619  PRO620  LYS621  CYS622 
 ASP623  PHE694  ASN695  SER759  ASP760  ASP761  ALA762  ILE779  LEU786  VAL792 
 PHE793  MET794  SER795  GLU796  ALA797  LYS798  CYS799  TRP800  GLU811  SER814 

> <Gold.Protein.RotatedAtoms>
  152.4761  134.4839  159.9673 H   0  0  0  0  0  0  0  0  0  0  0  0  # atno 6907 bound_to 6896
  151.4855  133.3531  159.2853 H   0  0  0  0  0  0  0  0  0  0  0  0  # atno 6908 bound_to 6896
  150.8801  134.8218  159.7280 H   0  0  0  0  0  0  0  0  0  0  0  0  # atno 6909 bound_to 6896
  144.8747  140.6419  143.5244 H   0  0  0  0  0  0  0  0  0  0  0  0  # atno 7974 bound_to 7965
  155.7785  140.3482  155.5285 H   0  0  0  0  0  0  0  0  0  0  0  0  # atno 8008 bound_to 7997
  155.8752  140.0993  157.1544 H   0  0  0  0  0  0  0  0  0  0  0  0  # atno 8009 bound_to 7997
  154.4020  140.1333  156.4114 H   0  0  0  0  0  0  0  0  0  0  0  0  # atno 8010 bound_to 7997
  139.9764  143.5790  152.2394 H   0  0  0  0  0  0  0  0  0  0  0  0  # atno 10167 bound_to 10162
  156.1783  130.4150  149.9544 H   0  0  0  0  0  0  0  0  0  0  0  0  # atno 10718 bound_to 10713
  154.3025  135.2759  155.2604 H   0  0  0  0  0  0  0  0  0  0  0  0  # atno 10763 bound_to 10752
  154.5035  135.5802  153.6553 H   0  0  0  0  0  0  0  0  0  0  0  0  # atno 10764 bound_to 10752
  152.9898  135.6163  154.3197 H   0  0  0  0  0  0  0  0  0  0  0  0  # atno 10765 bound_to 10752
  141.1520  133.6730  156.6371 H   0  0  0  0  0  0  0  0  0  0  0  0  # atno 11005 bound_to 11000
  145.4065  139.1588  143.4149 LP  0  0  0  0  0  0  0  0  0  0  0  0  # atno 17320 bound_to 7965
  146.2954  140.4166  142.8723 LP  0  0  0  0  0  0  0  0  0  0  0  0  # atno 17321 bound_to 7965
  139.6443  144.7657  151.2276 LP  0  0  0  0  0  0  0  0  0  0  0  0  # atno 17342 bound_to 10162
  140.7504  143.6265  150.8463 LP  0  0  0  0  0  0  0  0  0  0  0  0  # atno 17343 bound_to 10162
  156.7322  130.9048  151.3626 LP  0  0  0  0  0  0  0  0  0  0  0  0  # atno 17370 bound_to 10713
  157.6851  130.9177  150.0365 LP  0  0  0  0  0  0  0  0  0  0  0  0  # atno 17371 bound_to 10713
  140.3422  134.7839  157.4406 LP  0  0  0  0  0  0  0  0  0  0  0  0  # atno 17394 bound_to 11000
  140.0929  134.5577  155.8427 LP  0  0  0  0  0  0  0  0  0  0  0  0  # atno 17395 bound_to 11000

$$$$
