AV-unprocessed.smi:2078|AV-procd|sdf|8467|dock2
  -GOLD-   2272011163D 1   1.00000     0.00000
 Structure written by MMmdl.
 41 42  0  0  0  0  0  0  0  0  3 V2000
  146.6907  135.7696  162.6815 C   0  0  0  0  0  0  0  0  0  0  0  0
  147.3513  135.6013  161.3561 C   0  0  0  0  0  0  0  0  0  0  0  0
  147.4852  134.5331  160.5152 C   0  0  0  0  0  0  0  0  0  0  0  0
  148.2312  135.0661  159.4289 C   0  0  0  0  0  0  0  0  0  0  0  0
  148.6108  134.3978  158.3288 N   0  5  0  0  0  0  0  0  0  0  0  0
  148.5285  134.9847  157.1134 C   0  0  0  0  0  0  0  0  0  0  0  0
  148.4862  136.1963  156.8856 O   0  0  0  0  0  0  0  0  0  0  0  0
  148.4891  134.1130  156.0956 N   0  0  0  0  0  0  0  0  0  0  0  0
  148.3889  134.4613  154.6834 C   0  0  0  0  0  0  0  0  0  0  0  0
  147.2275  135.4409  154.4309 C   0  0  0  0  0  0  0  0  0  0  0  0
  146.7282  135.3751  153.0351 N   0  3  1  0  0  0  0  0  0  0  0  0
  146.3658  133.9913  152.6347 C   0  0  0  0  0  0  0  0  0  0  0  0
  145.9807  133.9267  151.1479 C   0  0  0  0  0  0  0  0  0  0  0  0
  144.8392  134.9015  150.8330 C   0  0  0  0  0  0  0  0  0  0  0  0
  145.2153  136.3247  151.2785 C   0  0  1  0  0  0  0  0  0  0  0  0
  144.0780  137.3180  151.0010 C   0  0  0  0  0  0  0  0  0  0  0  0
  145.6183  136.3296  152.7672 C   0  0  0  0  0  0  0  0  0  0  0  0
  148.5117  136.3485  159.5888 N   0  0  0  0  0  0  0  0  0  0  0  0
  147.9550  136.6984  160.8250 O   0  0  0  0  0  0  0  0  0  0  0  0
  145.6131  135.8829  162.5628 H   0  0  0  0  0  0  0  0  0  0  0  0
  147.0690  136.6512  163.1994 H   0  0  0  0  0  0  0  0  0  0  0  0
  146.8723  134.9023  163.3165 H   0  0  0  0  0  0  0  0  0  0  0  0
  147.1126  133.5296  160.6557 H   0  0  0  0  0  0  0  0  0  0  0  0
  148.5282  133.1305  156.3255 H   0  0  0  0  0  0  0  0  0  0  0  0
  149.3428  134.8682  154.3473 H   0  0  0  0  0  0  0  0  0  0  0  0
  148.2289  133.5420  154.1197 H   0  0  0  0  0  0  0  0  0  0  0  0
  146.4196  135.1844  155.1178 H   0  0  0  0  0  0  0  0  0  0  0  0
  147.5148  136.4666  154.6675 H   0  0  0  0  0  0  0  0  0  0  0  0
  147.2087  133.3225  152.8129 H   0  0  0  0  0  0  0  0  0  0  0  0
  145.5411  133.6358  153.2547 H   0  0  0  0  0  0  0  0  0  0  0  0
  146.8492  134.1670  150.5332 H   0  0  0  0  0  0  0  0  0  0  0  0
  145.6862  132.9106  150.8834 H   0  0  0  0  0  0  0  0  0  0  0  0
  144.6202  134.8835  149.7646 H   0  0  0  0  0  0  0  0  0  0  0  0
  143.9306  134.5785  151.3434 H   0  0  0  0  0  0  0  0  0  0  0  0
  146.0799  136.6443  150.6944 H   0  0  0  0  0  0  0  0  0  0  0  0
  143.1775  137.0560  151.5575 H   0  0  0  0  0  0  0  0  0  0  0  0
  143.8211  137.3351  149.9415 H   0  0  0  0  0  0  0  0  0  0  0  0
  144.3622  138.3311  151.2870 H   0  0  0  0  0  0  0  0  0  0  0  0
  144.7606  136.0721  153.3911 H   0  0  0  0  0  0  0  0  0  0  0  0
  145.9169  137.3388  153.0488 H   0  0  0  0  0  0  0  0  0  0  0  0
  147.5013  135.6456  152.4442 H   0  0  0  0  0  0  0  0  0  0  0  0
  1  2  1  0  0  0  0
  1 20  1  0  0  0  0
  1 21  1  0  0  0  0
  1 22  1  0  0  0  0
  2 19  1  0  0  0  0
  2  3  2  0  0  0  0
  3  4  1  0  0  0  0
  3 23  1  0  0  0  0
  4  5  1  0  0  0  0
  4 18  2  0  0  0  0
  5  6  1  0  0  0  0
  6  7  2  0  0  0  0
  6  8  1  0  0  0  0
  8  9  1  0  0  0  0
  8 24  1  0  0  0  0
  9 10  1  0  0  0  0
  9 25  1  0  0  0  0
  9 26  1  0  0  0  0
 10 11  1  0  0  0  0
 10 27  1  0  0  0  0
 10 28  1  0  0  0  0
 11 17  1  0  0  0  0
 11 12  1  0  0  0  0
 11 41  1  0  0  0  0
 12 13  1  0  0  0  0
 12 29  1  0  0  0  0
 12 30  1  0  0  0  0
 13 14  1  0  0  0  0
 13 31  1  0  0  0  0
 13 32  1  0  0  0  0
 14 15  1  0  0  0  0
 14 33  1  0  0  0  0
 14 34  1  0  0  0  0
 15 16  1  0  0  0  0
 15 17  1  0  0  0  0
 15 35  1  0  0  0  0
 16 36  1  0  0  0  0
 16 37  1  0  0  0  0
 16 38  1  0  0  0  0
 17 39  1  0  0  0  0
 17 40  1  0  0  0  0
 18 19  1  0  0  0  0
M  CHG  1   5  -1
M  CHG  1  11   1
M  END
> <s_m_source_file>
AV-unprocessed.smi

> <i_m_source_file_index>
2078

> <i_lp_mmshare_version>
43012

> <i_f3d_flags>
0

> <s_epik_input>
W0NIM11jMVtjSF1jKG5vMSlbTkhdQyg9TylbTkhdW0NIMl1bQ0gyXU4yW0NIMl1bQ0gyXVtDSDJdW0NAQEhdKFtDSDNdKVtDSDJdMg==

> <s_epik_cmdline>
J2VwaWtfcHl0aG9uJywgJy1waCcsICc3LjAnLCAnLXRuJywgJzgnLCAnLW1hJywgJzIwMCcsICctbWV0YWxfYmluZGluZycsICctaW1hZScsICc8aW5maWxlLm1hZT4nLCAnLW9tYWUnLCAnPG91dGZpbGUubWFlPic=

> <r_epik_Ionization_Penalty>
6.22434

> <r_epik_Ionization_Penalty_Charging>
6.22425

> <r_epik_Ionization_Penalty_Neutral>
9.37855e-05

> <r_epik_State_Penalty>
6.22423

> <r_epik_Charging_Adjusted_Penalty>
12.4485

> <i_epik_Tot_Q>
0

> <i_epik_Tot_abs_Q>
2

> <r_epik_Metal_State_Penalty>
2.16764

> <b_epik_Metal_Only>
1

> <s_lp_Force_Field>
OPLS_2005

> <r_lp_Energy>
3.15807

> <b_lp_Chiralities_Consistent>
1

> <s_lp_Variant>
AV-unprocessed.smi:2078-5

> <Gold.Version>
5.8.1

> <Gold.Id.Protein>
6NUR|6NUR_protein|mol2

> <Gold.PLP.Fitness>
43.9916

> <Gold.PLP.PLP>
-27.7608

> <Gold.PLP.part.hbond>
-4.0841

> <Gold.PLP.part.metal>
0.0000

> <Gold.PLP.part.buried>
-2.2249

> <Gold.PLP.part.nonpolar>
-20.7508

> <Gold.PLP.part.repulsive>
0.0429

> <Gold.PLP.ligand.clash>
0.0000

> <Gold.PLP.ligand.torsion>
0.6062

> <Gold.PLP.Chemscore.Hbond>
5.7760

> <Gold.PLP.Chemscore.CHOScore>
0.0000

> <Gold.PLP.Chemscore.Metal>
0.0000

> <Gold.Chemscore.Hbonds>
donor molecule, donor type, donor heavy atom, donor atom, acceptor molecule, acceptor atom, score
      L1  H    11    41       P1  7948  2.00
      P1  H  6896  6907       L1     5  0.14
      P1  H  6931  6943       L1    19  0.63

> <Gold.PLP.Chemscore.Internal.Correction>
0.1153

> <Gold.Rescore>
     Score         DG    S(hbond)    S(metal)    S(lipo)     H(rot)  DE(clash)    DE(int)     intcor
     13.25     -16.68       2.44        0.00      59.80       1.54       0.01       3.41       ----

> <Gold.Chemscore.Fitness>
13.2534

> <Gold.Chemscore.DG>
-16.6783

> <Gold.Chemscore.ZeroCoef>
-5.4800

> <Gold.Chemscore.Hbond>
2.4391

> <Gold.Chemscore.Metal>
0.0000

> <Gold.Chemscore.Lipo>
59.7982

> <Gold.Chemscore.Internal_Hbond>
0.0000

> <Gold.Chemscore.DEClash>
0.0146

> <Gold.Chemscore.DEInternal>
3.4103

> <Gold.Chemscore.Rot>
1.5409

> <Gold.Chemscore.Internal.Correction>
   9.000000E+99

> <Gold.Chemscore.Hbonds>
donor molecule, donor type, donor heavy atom, donor atom, acceptor molecule, acceptor atom, score
      L1  H    11    41       P1  7948  1.00
      P1  H  6931  6943       L1    19  0.55
      P1  H  6934  6947       L1    19  0.04

> <Gold.Chemscore.Hbond.Weighted>
-8.1465

> <Gold.Chemscore.Metal.Weighted>
-0.0000

> <Gold.Chemscore.Lipo.Weighted>
-6.9964

> <Gold.Chemscore.Internal_Hbond.Weighted>
0.0000

> <Gold.Chemscore.DEClash.Weighted>
0.0146

> <Gold.Chemscore.DEInternal.Weighted>
3.4103

> <Gold.Chemscore.Rot.Weighted>
3.9446

> <Gold.Chemscore.Internal.Correction.Weighted>
   9.000000E+99

> <Gold.Protein.RotatedTorsions>
[ 6907 6896 6895 6894 ] final  -91.73 input  -60.11 | X-H torsion
[ 7974 7965 7964 7962 ] final   48.90 input  175.53 | X-H torsion
[ 8008 7997 7996 7995 ] final  153.29 input   59.86 | X-H torsion
[ 10167 10162 10161 10158 ] final  -14.40 input  -65.29 | X-H torsion
[ 10718 10713 10712 10709 ] final  -71.60 input   66.30 | X-H torsion
[ 10763 10752 10751 10750 ] final  -38.24 input  -60.55 | X-H torsion
[ 11005 11000 10999 10996 ] final   30.30 input  -57.11 | X-H torsion

> <Gold.Protein.ActiveResidues>
 VAL166  LYS551  ARG553  GLY616  TRP617  ASP618  TYR619  PRO620  LYS621  CYS622 
 ASP623  PHE694  ASN695  SER759  ASP760  ASP761  ALA762  ILE779  LEU786  VAL792 
 PHE793  MET794  SER795  GLU796  ALA797  LYS798  CYS799  TRP800  GLU811  SER814 

> <Gold.Protein.RotatedAtoms>
  150.6896  134.2232  159.4404 H   0  0  0  0  0  0  0  0  0  0  0  0  # atno 6907 bound_to 6896
  152.0187  134.9832  160.0579 H   0  0  0  0  0  0  0  0  0  0  0  0  # atno 6908 bound_to 6896
  152.1418  133.4433  159.4807 H   0  0  0  0  0  0  0  0  0  0  0  0  # atno 6909 bound_to 6896
  146.0160  139.4597  142.9926 H   0  0  0  0  0  0  0  0  0  0  0  0  # atno 7974 bound_to 7965
  156.2589  140.1998  156.6467 H   0  0  0  0  0  0  0  0  0  0  0  0  # atno 8008 bound_to 7997
  154.6568  140.0565  157.0042 H   0  0  0  0  0  0  0  0  0  0  0  0  # atno 8009 bound_to 7997
  155.1335  140.3236  155.4471 H   0  0  0  0  0  0  0  0  0  0  0  0  # atno 8010 bound_to 7997
  140.7200  143.5325  150.9503 H   0  0  0  0  0  0  0  0  0  0  0  0  # atno 10167 bound_to 10162
  156.0356  130.4354  150.2467 H   0  0  0  0  0  0  0  0  0  0  0  0  # atno 10718 bound_to 10713
  153.9095  135.6794  153.4751 H   0  0  0  0  0  0  0  0  0  0  0  0  # atno 10763 bound_to 10752
  153.1086  135.4794  154.8992 H   0  0  0  0  0  0  0  0  0  0  0  0  # atno 10764 bound_to 10752
  154.7534  135.3191  154.8470 H   0  0  0  0  0  0  0  0  0  0  0  0  # atno 10765 bound_to 10752
  140.2958  134.2812  155.7765 H   0  0  0  0  0  0  0  0  0  0  0  0  # atno 11005 bound_to 11000
  145.7267  141.0056  143.1373 LP  0  0  0  0  0  0  0  0  0  0  0  0  # atno 17320 bound_to 7965
  144.6971  139.8935  143.7454 LP  0  0  0  0  0  0  0  0  0  0  0  0  # atno 17321 bound_to 7965
  139.9046  143.6794  152.3126 LP  0  0  0  0  0  0  0  0  0  0  0  0  # atno 17342 bound_to 10162
  139.7156  144.7612  151.1040 LP  0  0  0  0  0  0  0  0  0  0  0  0  # atno 17343 bound_to 10162
  157.0567  131.0078  151.3236 LP  0  0  0  0  0  0  0  0  0  0  0  0  # atno 17370 bound_to 10713
  157.5101  130.7933  149.7695 LP  0  0  0  0  0  0  0  0  0  0  0  0  # atno 17371 bound_to 10713
  141.2137  133.7614  156.9693 LP  0  0  0  0  0  0  0  0  0  0  0  0  # atno 17394 bound_to 11000
  140.1154  134.9451  157.2126 LP  0  0  0  0  0  0  0  0  0  0  0  0  # atno 17395 bound_to 11000

$$$$
