AV-unprocessed.smi:634|AV-procd|sdf|3134|dock3
  -GOLD-   22720 0 63D 1   1.00000     0.00000
 Structure written by MMmdl.
 33 34  0  0  0  0  0  0  0  0  1 V2000
  153.2756  141.4462  160.0190 C   0  0  0  0  0  0  0  0  0  0  0  0
  152.4026  141.3583  158.8143 C   0  0  0  0  0  0  0  0  0  0  0  0
  151.3658  142.1230  158.3581 C   0  0  0  0  0  0  0  0  0  0  0  0
  150.9920  141.4694  157.1536 C   0  0  0  0  0  0  0  0  0  0  0  0
  149.9279  141.9638  156.3564 N   0  0  0  0  0  0  0  0  0  0  0  0
  148.9148  141.2646  155.8168 C   0  0  0  0  0  0  0  0  0  0  0  0
  148.7438  140.0530  155.9509 O   0  0  0  0  0  0  0  0  0  0  0  0
  148.1022  142.0636  155.1048 N   0  0  0  0  0  0  0  0  0  0  0  0
  146.8902  141.6970  154.3582 C   0  0  2  0  0  0  0  0  0  0  0  0
  147.2432  140.7626  153.1809 C   0  0  0  0  0  0  0  0  0  0  0  0
  146.2721  143.0094  153.8179 C   0  0  0  0  0  0  0  0  0  0  0  0
  145.5622  143.7531  154.9553 C   0  0  0  0  0  0  0  0  0  0  0  0
  144.8924  142.4507  156.0503 S   0  0  0  0  0  0  0  0  0  0  0  0
  145.3801  142.6814  157.4185 O   0  0  0  0  0  0  0  0  0  0  0  0
  143.4589  142.2676  155.7773 O   0  0  0  0  0  0  0  0  0  0  0  0
  145.8267  141.0674  155.2902 C   0  0  0  0  0  0  0  0  0  0  0  0
  151.7334  140.4025  156.8979 N   0  0  0  0  0  0  0  0  0  0  0  0
  152.6406  140.3255  157.9611 O   0  0  0  0  0  0  0  0  0  0  0  0
  153.2031  142.4304  160.4820 H   0  0  0  0  0  0  0  0  0  0  0  0
  154.3192  141.2739  159.7555 H   0  0  0  0  0  0  0  0  0  0  0  0
  152.9862  140.7012  160.7601 H   0  0  0  0  0  0  0  0  0  0  0  0
  150.9457  143.0067  158.8151 H   0  0  0  0  0  0  0  0  0  0  0  0
  149.9447  142.9556  156.1712 H   0  0  0  0  0  0  0  0  0  0  0  0
  148.3479  143.0422  155.0726 H   0  0  0  0  0  0  0  0  0  0  0  0
  146.3711  140.5666  152.5563 H   0  0  0  0  0  0  0  0  0  0  0  0
  147.6110  139.7950  153.5222 H   0  0  0  0  0  0  0  0  0  0  0  0
  148.0097  141.2026  152.5422 H   0  0  0  0  0  0  0  0  0  0  0  0
  147.0121  143.6437  153.3282 H   0  0  0  0  0  0  0  0  0  0  0  0
  145.5262  142.7666  153.0598 H   0  0  0  0  0  0  0  0  0  0  0  0
  146.2690  144.3493  155.5325 H   0  0  0  0  0  0  0  0  0  0  0  0
  144.7600  144.4033  154.6062 H   0  0  0  0  0  0  0  0  0  0  0  0
  145.1128  140.4795  154.7126 H   0  0  0  0  0  0  0  0  0  0  0  0
  146.2295  140.4192  156.0679 H   0  0  0  0  0  0  0  0  0  0  0  0
  1  2  1  0  0  0  0
  1 19  1  0  0  0  0
  1 20  1  0  0  0  0
  1 21  1  0  0  0  0
  2 18  1  0  0  0  0
  2  3  2  0  0  0  0
  3  4  1  0  0  0  0
  3 22  1  0  0  0  0
  4  5  1  0  0  0  0
  4 17  2  0  0  0  0
  5  6  1  0  0  0  0
  5 23  1  0  0  0  0
  6  7  2  0  0  0  0
  6  8  1  0  0  0  0
  8  9  1  0  0  0  0
  8 24  1  0  0  0  0
  9 16  1  0  0  0  0
  9 10  1  0  0  0  0
  9 11  1  0  0  0  0
 10 25  1  0  0  0  0
 10 26  1  0  0  0  0
 10 27  1  0  0  0  0
 11 12  1  0  0  0  0
 11 28  1  0  0  0  0
 11 29  1  0  0  0  0
 12 13  1  0  0  0  0
 12 30  1  0  0  0  0
 12 31  1  0  0  0  0
 13 14  2  0  0  0  0
 13 15  2  0  0  0  0
 13 16  1  0  0  0  0
 16 32  1  0  0  0  0
 16 33  1  0  0  0  0
 17 18  1  0  0  0  0
M  END
> <s_m_source_file>
AV-unprocessed.smi

> <i_m_source_file_index>
634

> <i_lp_mmshare_version>
43012

> <i_f3d_flags>
0

> <s_epik_input>
W0NIM11jMVtjSF1jKG5vMSlbTkhdQyg9TylbTkhdW0NAQF0yKFtDSDNdKVtDSDJdW0NIMl1TKD1PKSg9TylbQ0gyXTI=

> <s_epik_cmdline>
J2VwaWtfcHl0aG9uJywgJy1waCcsICc3LjAnLCAnLXRuJywgJzgnLCAnLW1hJywgJzIwMCcsICctbWV0YWxfYmluZGluZycsICctaW1hZScsICc8aW5maWxlLm1hZT4nLCAnLW9tYWUnLCAnPG91dGZpbGUubWFlPic=

> <r_lp_tautomer_probability>
1

> <r_epik_Ionization_Penalty>
3.87281e-05

> <r_epik_Ionization_Penalty_Charging>
0

> <r_epik_Ionization_Penalty_Neutral>
3.87281e-05

> <r_epik_State_Penalty>
-0

> <r_epik_Charging_Adjusted_Penalty>
0

> <i_epik_Tot_Q>
0

> <i_epik_Tot_abs_Q>
0

> <r_epik_Metal_State_Penalty>
0.0249287

> <b_epik_Metal_Only>
0

> <s_lp_Force_Field>
OPLS_2005

> <r_lp_Energy>
3.31823

> <b_lp_Chiralities_Consistent>
1

> <s_lp_Variant>
AV-unprocessed.smi:634-2

> <Gold.Version>
5.8.1

> <Gold.Id.Protein>
6NUR|6NUR_protein|mol2

> <Gold.PLP.Fitness>
35.6206

> <Gold.PLP.PLP>
-27.7193

> <Gold.PLP.part.hbond>
-3.0000

> <Gold.PLP.part.metal>
0.0000

> <Gold.PLP.part.buried>
-4.7656

> <Gold.PLP.part.nonpolar>
-19.6218

> <Gold.PLP.part.repulsive>
0.4460

> <Gold.PLP.ligand.clash>
0.0000

> <Gold.PLP.ligand.torsion>
0.4243

> <Gold.PLP.Chemscore.Hbond>
2.9120

> <Gold.PLP.Chemscore.CHOScore>
0.0000

> <Gold.PLP.Chemscore.Metal>
0.0000

> <Gold.Chemscore.Hbonds>
donor molecule, donor type, donor heavy atom, donor atom, acceptor molecule, acceptor atom, score
      L1  H     5    23       P1  8028  0.76
      L1  H     8    24       P1  8028  1.00
      P1  H  7997  8009       L1    18  0.58

> <Gold.PLP.Chemscore.Internal.Correction>
0.0139

> <Gold.Rescore>
     Score         DG    S(hbond)    S(metal)    S(lipo)     H(rot)  DE(clash)    DE(int)     intcor
     15.88     -16.26       1.93        0.00      59.04       1.00       0.02       0.36       ----

> <Gold.Chemscore.Fitness>
15.8775

> <Gold.Chemscore.DG>
-16.2586

> <Gold.Chemscore.ZeroCoef>
-5.4800

> <Gold.Chemscore.Hbond>
1.9254

> <Gold.Chemscore.Metal>
0.0000

> <Gold.Chemscore.Lipo>
59.0410

> <Gold.Chemscore.Internal_Hbond>
0.0000

> <Gold.Chemscore.DEClash>
0.0195

> <Gold.Chemscore.DEInternal>
0.3616

> <Gold.Chemscore.Rot>
1.0000

> <Gold.Chemscore.Internal.Correction>
   9.000000E+99

> <Gold.Chemscore.Hbonds>
donor molecule, donor type, donor heavy atom, donor atom, acceptor molecule, acceptor atom, score
      L1  H     5    23       P1  8028  0.72
      L1  H     8    24       P1  8028  0.99
      P1  H  7997  8009       L1    18  0.11

> <Gold.Chemscore.Hbond.Weighted>
-6.4308

> <Gold.Chemscore.Metal.Weighted>
-0.0000

> <Gold.Chemscore.Lipo.Weighted>
-6.9078

> <Gold.Chemscore.Internal_Hbond.Weighted>
0.0000

> <Gold.Chemscore.DEClash.Weighted>
0.0195

> <Gold.Chemscore.DEInternal.Weighted>
0.3616

> <Gold.Chemscore.Rot.Weighted>
2.5600

> <Gold.Chemscore.Internal.Correction.Weighted>
   9.000000E+99

> <Gold.Protein.RotatedTorsions>
[ 6907 6896 6895 6894 ] final   46.70 input  -60.11 | X-H torsion
[ 7974 7965 7964 7962 ] final  -70.38 input  175.53 | X-H torsion
[ 8008 7997 7996 7995 ] final  171.51 input   59.86 | X-H torsion
[ 10167 10162 10161 10158 ] final   63.05 input  -65.29 | X-H torsion
[ 10718 10713 10712 10709 ] final -121.18 input   66.30 | X-H torsion
[ 10763 10752 10751 10750 ] final -103.33 input  -60.55 | X-H torsion
[ 11005 11000 10999 10996 ] final  -61.11 input  -57.11 | X-H torsion

> <Gold.Protein.ActiveResidues>
 VAL166  LYS551  ARG553  GLY616  TRP617  ASP618  TYR619  PRO620  LYS621  CYS622 
 ASP623  PHE694  ASN695  SER759  ASP760  ASP761  ALA762  ILE779  LEU786  VAL792 
 PHE793  MET794  SER795  GLU796  ALA797  LYS798  CYS799  TRP800  GLU811  SER814 

> <Gold.Protein.RotatedAtoms>
  152.2594  134.8050  160.0432 H   0  0  0  0  0  0  0  0  0  0  0  0  # atno 6907 bound_to 6896
  151.8701  133.3469  159.3740 H   0  0  0  0  0  0  0  0  0  0  0  0  # atno 6908 bound_to 6896
  150.7111  134.5048  159.5623 H   0  0  0  0  0  0  0  0  0  0  0  0  # atno 6909 bound_to 6896
  145.6917  140.9150  143.0778 H   0  0  0  0  0  0  0  0  0  0  0  0  # atno 7974 bound_to 7965
  156.1264  140.1510  156.9130 H   0  0  0  0  0  0  0  0  0  0  0  0  # atno 8008 bound_to 7997
  154.4875  140.0861  156.7560 H   0  0  0  0  0  0  0  0  0  0  0  0  # atno 8009 bound_to 7997
  155.4335  140.3428  155.4285 H   0  0  0  0  0  0  0  0  0  0  0  0  # atno 8010 bound_to 7997
  140.1372  144.4588  150.6831 H   0  0  0  0  0  0  0  0  0  0  0  0  # atno 10167 bound_to 10162
  156.1317  130.6400  150.9631 H   0  0  0  0  0  0  0  0  0  0  0  0  # atno 10718 bound_to 10713
  154.7799  135.4827  153.9822 H   0  0  0  0  0  0  0  0  0  0  0  0  # atno 10763 bound_to 10752
  153.1479  135.6785  153.8933 H   0  0  0  0  0  0  0  0  0  0  0  0  # atno 10764 bound_to 10752
  153.8587  135.3158  155.3415 H   0  0  0  0  0  0  0  0  0  0  0  0  # atno 10765 bound_to 10752
  141.1312  133.6627  156.5325 H   0  0  0  0  0  0  0  0  0  0  0  0  # atno 11005 bound_to 11000
  144.6994  139.8831  143.7448 LP  0  0  0  0  0  0  0  0  0  0  0  0  # atno 17320 bound_to 7965
  146.0876  139.3864  143.0426 LP  0  0  0  0  0  0  0  0  0  0  0  0  # atno 17321 bound_to 7965
  140.6782  143.2314  151.5453 LP  0  0  0  0  0  0  0  0  0  0  0  0  # atno 17342 bound_to 10162
  139.5490  144.2445  152.1495 LP  0  0  0  0  0  0  0  0  0  0  0  0  # atno 17343 bound_to 10162
  157.6494  131.0899  150.8084 LP  0  0  0  0  0  0  0  0  0  0  0  0  # atno 17370 bound_to 10713
  156.8168  130.4971  149.5348 LP  0  0  0  0  0  0  0  0  0  0  0  0  # atno 17371 bound_to 10713
  140.4204  134.7192  157.4886 LP  0  0  0  0  0  0  0  0  0  0  0  0  # atno 17394 bound_to 11000
  140.0364  134.6331  155.9038 LP  0  0  0  0  0  0  0  0  0  0  0  0  # atno 17395 bound_to 11000

$$$$
