AV-unprocessed.smi:1704|AV-procd|sdf|6881|dock4
  -GOLD-   22720 8 83D 1   1.00000     0.00000
 Structure written by MMmdl.
 41 43  0  0  0  0  0  0  0  0  1 V2000
  154.8957  140.0066  161.2322 C   0  0  0  0  0  0  0  0  0  0  0  0
  153.9097  140.9259  160.6332 N   0  0  0  0  0  0  0  0  0  0  0  0
  153.4344  140.6394  159.3802 C   0  0  0  0  0  0  0  0  0  0  0  0
  153.7877  139.6771  158.6979 O   0  0  0  0  0  0  0  0  0  0  0  0
  152.4381  141.5980  158.8896 C   0  0  0  0  0  0  0  0  0  0  0  0
  152.0573  142.6893  159.5971 C   0  0  0  0  0  0  0  0  0  0  0  0
  151.1164  143.4416  158.9040 N   0  0  0  0  0  0  0  0  0  0  0  0
  150.9730  142.7374  157.7811 C   0  0  0  0  0  0  0  0  0  0  0  0
  151.7158  141.6141  157.6959 N   0  0  0  0  0  0  0  0  0  0  0  0
  151.7308  140.6762  156.5790 C   0  0  0  0  0  0  0  0  0  0  0  0
  150.3390  140.4018  155.9504 C   0  0  0  0  0  0  0  0  0  0  0  0
  149.4527  140.0296  156.9903 O   0  0  0  0  0  0  0  0  0  0  0  0
  149.7507  141.6515  155.2476 C   0  0  0  0  0  0  0  0  0  0  0  0
  148.4445  141.3587  154.4869 C   0  0  0  0  0  0  0  0  0  0  0  0
  148.6178  140.2013  153.4942 C   0  0  0  0  0  0  0  0  0  0  0  0
  149.1284  138.9416  154.2063 C   0  0  0  0  0  0  0  0  0  0  0  0
  150.4418  139.2182  154.9595 C   0  0  0  0  0  0  0  0  0  0  0  0
  152.6332  142.9090  160.8730 N   0  0  0  0  0  0  0  0  0  0  0  0
  152.2042  144.1054  161.6036 C   0  0  0  0  0  0  0  0  0  0  0  0
  153.5405  142.0204  161.3973 C   0  0  0  0  0  0  0  0  0  0  0  0
  154.0153  142.1960  162.5227 O   0  0  0  0  0  0  0  0  0  0  0  0
  155.1766  139.1601  160.6045 H   0  0  0  0  0  0  0  0  0  0  0  0
  154.5067  139.5864  162.1610 H   0  0  0  0  0  0  0  0  0  0  0  0
  155.8200  140.5376  161.4653 H   0  0  0  0  0  0  0  0  0  0  0  0
  150.2976  143.0436  156.9958 H   0  0  0  0  0  0  0  0  0  0  0  0
  152.3971  141.0828  155.8169 H   0  0  0  0  0  0  0  0  0  0  0  0
  152.1986  139.7470  156.9031 H   0  0  0  0  0  0  0  0  0  0  0  0
  149.8714  139.3664  157.5173 H   0  0  0  0  0  0  0  0  0  0  0  0
  149.5672  142.4483  155.9690 H   0  0  0  0  0  0  0  0  0  0  0  0
  150.4849  142.0437  154.5427 H   0  0  0  0  0  0  0  0  0  0  0  0
  147.6507  141.1174  155.1946 H   0  0  0  0  0  0  0  0  0  0  0  0
  148.1182  142.2540  153.9569 H   0  0  0  0  0  0  0  0  0  0  0  0
  147.6694  139.9904  152.9992 H   0  0  0  0  0  0  0  0  0  0  0  0
  149.3190  140.4909  152.7107 H   0  0  0  0  0  0  0  0  0  0  0  0
  148.3702  138.5805  154.9019 H   0  0  0  0  0  0  0  0  0  0  0  0
  149.2815  138.1431  153.4797 H   0  0  0  0  0  0  0  0  0  0  0  0
  151.2216  139.4307  154.2267 H   0  0  0  0  0  0  0  0  0  0  0  0
  150.7600  138.3157  155.4832 H   0  0  0  0  0  0  0  0  0  0  0  0
  152.7224  144.2659  162.5495 H   0  0  0  0  0  0  0  0  0  0  0  0
  151.1372  144.0450  161.8209 H   0  0  0  0  0  0  0  0  0  0  0  0
  152.3706  144.9937  160.9932 H   0  0  0  0  0  0  0  0  0  0  0  0
  1  2  1  0  0  0  0
  1 22  1  0  0  0  0
  1 23  1  0  0  0  0
  1 24  1  0  0  0  0
  2 20  1  0  0  0  0
  2  3  1  0  0  0  0
  3  4  2  0  0  0  0
  3  5  1  0  0  0  0
  5  9  1  0  0  0  0
  5  6  2  0  0  0  0
  6  7  1  0  0  0  0
  6 18  1  0  0  0  0
  7  8  2  0  0  0  0
  8  9  1  0  0  0  0
  8 25  1  0  0  0  0
  9 10  1  0  0  0  0
 10 11  1  0  0  0  0
 10 26  1  0  0  0  0
 10 27  1  0  0  0  0
 11 17  1  0  0  0  0
 11 12  1  0  0  0  0
 11 13  1  0  0  0  0
 12 28  1  0  0  0  0
 13 14  1  0  0  0  0
 13 29  1  0  0  0  0
 13 30  1  0  0  0  0
 14 15  1  0  0  0  0
 14 31  1  0  0  0  0
 14 32  1  0  0  0  0
 15 16  1  0  0  0  0
 15 33  1  0  0  0  0
 15 34  1  0  0  0  0
 16 17  1  0  0  0  0
 16 35  1  0  0  0  0
 16 36  1  0  0  0  0
 17 37  1  0  0  0  0
 17 38  1  0  0  0  0
 18 19  1  0  0  0  0
 18 20  1  0  0  0  0
 19 39  1  0  0  0  0
 19 40  1  0  0  0  0
 19 41  1  0  0  0  0
 20 21  2  0  0  0  0
M  END
> <s_m_source_file>
AV-unprocessed.smi

> <i_m_source_file_index>
1704

> <i_lp_mmshare_version>
43012

> <i_f3d_flags>
0

> <s_epik_input>
Tz1jMW4oW0NIM10pYyg9TyluKFtDSDNdKWMoYzEyKW5bY0hdbjJbQ0gyXUMzKFtPSF0pW0NIMl1bQ0gyXVtDSDJdW0NIMl1bQ0gyXTM=

> <s_epik_cmdline>
J2VwaWtfcHl0aG9uJywgJy1waCcsICc3LjAnLCAnLXRuJywgJzgnLCAnLW1hJywgJzIwMCcsICctbWV0YWxfYmluZGluZycsICctaW1hZScsICc8aW5maWxlLm1hZT4nLCAnLW9tYWUnLCAnPG91dGZpbGUubWFlPic=

> <r_lp_tautomer_probability>
1

> <r_epik_Ionization_Penalty>
6.70257e-06

> <r_epik_Ionization_Penalty_Charging>
6.65152e-09

> <r_epik_Ionization_Penalty_Neutral>
6.69592e-06

> <r_epik_State_Penalty>
-0

> <r_epik_Charging_Adjusted_Penalty>
6.65152e-09

> <i_epik_Tot_Q>
0

> <i_epik_Tot_abs_Q>
0

> <r_epik_Metal_State_Penalty>
-0

> <b_epik_Metal_Only>
0

> <s_lp_Force_Field>
OPLS_2005

> <r_lp_Energy>
39.0788

> <b_lp_Chiralities_Consistent>
1

> <s_lp_Variant>
AV-unprocessed.smi:1704-1

> <Gold.Version>
5.8.1

> <Gold.Id.Protein>
6NUR|6NUR_protein|mol2

> <Gold.PLP.Fitness>
50.2164

> <Gold.PLP.PLP>
-44.8951

> <Gold.PLP.part.hbond>
-2.0000

> <Gold.PLP.part.metal>
0.0000

> <Gold.PLP.part.buried>
-0.0517

> <Gold.PLP.part.nonpolar>
-42.0770

> <Gold.PLP.part.repulsive>
0.1023

> <Gold.PLP.ligand.clash>
0.0000

> <Gold.PLP.ligand.torsion>
0.3415

> <Gold.PLP.Chemscore.Hbond>
1.0000

> <Gold.PLP.Chemscore.CHOScore>
1.0000

> <Gold.PLP.Chemscore.Metal>
0.0000

> <Gold.Chemscore.Hbonds>
donor molecule, donor type, donor heavy atom, donor atom, acceptor molecule, acceptor atom, score
      P1  H  7997  8008       L1     4  1.00
      L1  C     8    25       P1  8028  0.92

> <Gold.PLP.Chemscore.Internal.Correction>
0.0041

> <Gold.Rescore>
     Score         DG    S(hbond)    S(metal)    S(lipo)     H(rot)  DE(clash)    DE(int)     intcor
     11.15     -13.05       0.97        0.00      77.33       1.84       1.56       0.34       ----

> <Gold.Chemscore.Fitness>
11.1482

> <Gold.Chemscore.DG>
-13.0550

> <Gold.Chemscore.ZeroCoef>
-5.4800

> <Gold.Chemscore.Hbond>
0.9684

> <Gold.Chemscore.Metal>
0.0000

> <Gold.Chemscore.Lipo>
77.3326

> <Gold.Chemscore.Internal_Hbond>
0.0000

> <Gold.Chemscore.DEClash>
1.5649

> <Gold.Chemscore.DEInternal>
0.3418

> <Gold.Chemscore.Rot>
1.8389

> <Gold.Chemscore.Internal.Correction>
   9.000000E+99

> <Gold.Chemscore.Hbonds>
donor molecule, donor type, donor heavy atom, donor atom, acceptor molecule, acceptor atom, score
      P1  H  7997  8008       L1     4  0.93

> <Gold.Chemscore.Hbond.Weighted>
-3.2346

> <Gold.Chemscore.Metal.Weighted>
-0.0000

> <Gold.Chemscore.Lipo.Weighted>
-9.0479

> <Gold.Chemscore.Internal_Hbond.Weighted>
0.0000

> <Gold.Chemscore.DEClash.Weighted>
1.5649

> <Gold.Chemscore.DEInternal.Weighted>
0.3418

> <Gold.Chemscore.Rot.Weighted>
4.7076

> <Gold.Chemscore.Internal.Correction.Weighted>
   9.000000E+99

> <Gold.Protein.RotatedTorsions>
[ 6907 6896 6895 6894 ] final  170.93 input  -60.11 | X-H torsion
[ 7974 7965 7964 7962 ] final -127.91 input  175.53 | X-H torsion
[ 8008 7997 7996 7995 ] final -111.13 input   59.86 | X-H torsion
[ 10167 10162 10161 10158 ] final  176.76 input  -65.29 | X-H torsion
[ 10718 10713 10712 10709 ] final  -59.65 input   66.30 | X-H torsion
[ 10763 10752 10751 10750 ] final  -10.03 input  -60.55 | X-H torsion
[ 11005 11000 10999 10996 ] final  -95.30 input  -57.11 | X-H torsion

> <Gold.Protein.ActiveResidues>
 VAL166  LYS551  ARG553  GLY616  TRP617  ASP618  TYR619  PRO620  LYS621  CYS622 
 ASP623  PHE694  ASN695  SER759  ASP760  ASP761  ALA762  ILE779  LEU786  VAL792 
 PHE793  MET794  SER795  GLU796  ALA797  LYS798  CYS799  TRP800  GLU811  SER814 

> <Gold.Protein.RotatedAtoms>
  151.8083  133.3378  159.3547 H   0  0  0  0  0  0  0  0  0  0  0  0  # atno 6907 bound_to 6896
  150.7334  134.5688  159.5889 H   0  0  0  0  0  0  0  0  0  0  0  0  # atno 6908 bound_to 6896
  152.3093  134.7518  160.0391 H   0  0  0  0  0  0  0  0  0  0  0  0  # atno 6909 bound_to 6896
  144.9723  140.7558  143.4663 H   0  0  0  0  0  0  0  0  0  0  0  0  # atno 7974 bound_to 7965
  154.9851  140.0396  157.2295 H   0  0  0  0  0  0  0  0  0  0  0  0  # atno 8008 bound_to 7997
  154.7679  140.2796  155.6139 H   0  0  0  0  0  0  0  0  0  0  0  0  # atno 8009 bound_to 7997
  156.2916  140.2616  156.2474 H   0  0  0  0  0  0  0  0  0  0  0  0  # atno 8010 bound_to 7997
  139.5227  144.2877  152.0491 H   0  0  0  0  0  0  0  0  0  0  0  0  # atno 10167 bound_to 10162
  156.1046  130.4182  150.0745 H   0  0  0  0  0  0  0  0  0  0  0  0  # atno 10718 bound_to 10713
  153.4632  135.7016  153.6037 H   0  0  0  0  0  0  0  0  0  0  0  0  # atno 10763 bound_to 10752
  153.4323  135.3800  155.2178 H   0  0  0  0  0  0  0  0  0  0  0  0  # atno 10764 bound_to 10752
  154.8727  135.3953  154.4061 H   0  0  0  0  0  0  0  0  0  0  0  0  # atno 10765 bound_to 10752
  141.1446  133.8016  157.0416 H   0  0  0  0  0  0  0  0  0  0  0  0  # atno 11005 bound_to 11000
  145.2540  139.2019  143.4927 LP  0  0  0  0  0  0  0  0  0  0  0  0  # atno 17320 bound_to 7965
  146.3385  140.2459  142.8597 LP  0  0  0  0  0  0  0  0  0  0  0  0  # atno 17321 bound_to 7965
  140.2330  144.4349  150.6292 LP  0  0  0  0  0  0  0  0  0  0  0  0  # atno 17342 bound_to 10162
  140.6342  143.2192  151.6430 LP  0  0  0  0  0  0  0  0  0  0  0  0  # atno 17343 bound_to 10162
  156.8724  130.9528  151.3608 LP  0  0  0  0  0  0  0  0  0  0  0  0  # atno 17370 bound_to 10713
  157.6221  130.8663  149.9127 LP  0  0  0  0  0  0  0  0  0  0  0  0  # atno 17371 bound_to 10713
  140.0689  134.9713  157.1433 LP  0  0  0  0  0  0  0  0  0  0  0  0  # atno 17394 bound_to 11000
  140.3739  134.2360  155.7176 LP  0  0  0  0  0  0  0  0  0  0  0  0  # atno 17395 bound_to 11000

$$$$
