AV-unprocessed.smi:2253|AV-procd|sdf|9118|dock7
  -GOLD-   2272012323D 1   1.00000     0.00000
 Structure written by MMmdl.
 52 54  0  0  0  0  0  0  0  0  3 V2000
  145.5738  135.5369  151.5495 C   0  0  0  0  0  0  0  0  0  0  0  0
  145.8293  136.3759  152.7404 N   0  3  2  0  0  0  0  0  0  0  0  0
  145.9230  137.8193  152.4061 C   0  0  0  0  0  0  0  0  0  0  0  0
  146.1104  138.6732  153.6745 C   0  0  0  0  0  0  0  0  0  0  0  0
  147.3660  138.2512  154.4760 C   0  0  2  0  0  0  0  0  0  0  0  0
  148.6471  138.5809  153.7588 N   0  3  2  0  0  0  0  0  0  0  0  0
  149.9069  138.3405  154.5207 C   0  0  0  0  0  0  0  0  0  0  0  0
  150.1088  139.3809  155.6381 C   0  0  0  0  0  0  0  0  0  0  0  0
  150.1378  140.8035  155.0538 C   0  0  2  0  0  0  0  0  0  0  0  0
  150.2529  141.7863  156.1279 N   0  0  0  0  0  0  0  0  0  0  0  0
  151.0557  141.6659  157.1961 C   0  0  0  0  0  0  0  0  0  0  0  0
  151.8093  140.7082  157.3643 O   0  0  0  0  0  0  0  0  0  0  0  0
  150.9181  142.7145  158.0263 N   0  0  0  0  0  0  0  0  0  0  0  0
  151.5515  142.9801  159.2735 C   0  0  0  0  0  0  0  0  0  0  0  0
  152.1915  142.0086  160.0826 C   0  0  0  0  0  0  0  0  0  0  0  0
  152.7750  142.4192  161.2981 C   0  0  0  0  0  0  0  0  0  0  0  0
  152.7595  143.6946  161.7388 N   0  0  0  0  0  0  0  0  0  0  0  0
  152.1504  144.6183  160.9662 C   0  0  0  0  0  0  0  0  0  0  0  0
  151.5359  144.3137  159.7350 C   0  0  0  0  0  0  0  0  0  0  0  0
  150.9401  145.2911  159.0096 F   0  0  0  0  0  0  0  0  0  0  0  0
  148.8763  141.0511  154.2037 C   0  0  0  0  0  0  0  0  0  0  0  0
  148.6903  139.9421  153.1484 C   0  0  0  0  0  0  0  0  0  0  0  0
  147.1860  136.7474  154.7993 C   0  0  0  0  0  0  0  0  0  0  0  0
  146.9960  135.9018  153.5260 C   0  0  0  0  0  0  0  0  0  0  0  0
  146.4059  135.5906  150.8461 H   0  0  0  0  0  0  0  0  0  0  0  0
  144.6693  135.8634  151.0351 H   0  0  0  0  0  0  0  0  0  0  0  0
  145.4346  134.4940  151.8360 H   0  0  0  0  0  0  0  0  0  0  0  0
  146.7487  137.9844  151.7120 H   0  0  0  0  0  0  0  0  0  0  0  0
  145.0124  138.1290  151.8917 H   0  0  0  0  0  0  0  0  0  0  0  0
  146.1142  139.7311  153.4203 H   0  0  0  0  0  0  0  0  0  0  0  0
  145.2309  138.5478  154.3080 H   0  0  0  0  0  0  0  0  0  0  0  0
  147.3631  138.7879  155.4244 H   0  0  0  0  0  0  0  0  0  0  0  0
  149.9704  137.3260  154.9086 H   0  0  0  0  0  0  0  0  0  0  0  0
  150.7405  138.4131  153.8205 H   0  0  0  0  0  0  0  0  0  0  0  0
  149.3155  139.2909  156.3812 H   0  0  0  0  0  0  0  0  0  0  0  0
  151.0438  139.1779  156.1615 H   0  0  0  0  0  0  0  0  0  0  0  0
  151.0160  140.8835  154.4097 H   0  0  0  0  0  0  0  0  0  0  0  0
  149.6654  142.6051  156.0654 H   0  0  0  0  0  0  0  0  0  0  0  0
  150.2583  143.4201  157.7331 H   0  0  0  0  0  0  0  0  0  0  0  0
  152.2519  140.9674  159.8107 H   0  0  0  0  0  0  0  0  0  0  0  0
  153.2681  141.6999  161.9351 H   0  0  0  0  0  0  0  0  0  0  0  0
  152.1516  145.6311  161.3408 H   0  0  0  0  0  0  0  0  0  0  0  0
  147.9966  141.1133  154.8447 H   0  0  0  0  0  0  0  0  0  0  0  0
  148.9497  142.0163  153.7013 H   0  0  0  0  0  0  0  0  0  0  0  0
  149.5329  139.9724  152.4559 H   0  0  0  0  0  0  0  0  0  0  0  0
  147.8176  140.1465  152.5329 H   0  0  0  0  0  0  0  0  0  0  0  0
  147.9956  136.3560  155.4130 H   0  0  0  0  0  0  0  0  0  0  0  0
  146.2982  136.6298  155.4228 H   0  0  0  0  0  0  0  0  0  0  0  0
  146.8436  134.8577  153.8026 H   0  0  0  0  0  0  0  0  0  0  0  0
  147.8943  135.9365  152.9079 H   0  0  0  0  0  0  0  0  0  0  0  0
  148.6832  137.9346  152.9836 H   0  0  0  0  0  0  0  0  0  0  0  0
  145.0208  136.2726  153.3378 H   0  0  0  0  0  0  0  0  0  0  0  0
  1  2  1  0  0  0  0
  1 25  1  0  0  0  0
  1 26  1  0  0  0  0
  1 27  1  0  0  0  0
  2 24  1  0  0  0  0
  2  3  1  0  0  0  0
  2 52  1  0  0  0  0
  3  4  1  0  0  0  0
  3 28  1  0  0  0  0
  3 29  1  0  0  0  0
  4  5  1  0  0  0  0
  4 30  1  0  0  0  0
  4 31  1  0  0  0  0
  5  6  1  0  0  0  0
  5 23  1  0  0  0  0
  5 32  1  0  0  0  0
  6 22  1  0  0  0  0
  6  7  1  0  0  0  0
  6 51  1  0  0  0  0
  7  8  1  0  0  0  0
  7 33  1  0  0  0  0
  7 34  1  0  0  0  0
  8  9  1  0  0  0  0
  8 35  1  0  0  0  0
  8 36  1  0  0  0  0
  9 10  1  0  0  0  0
  9 21  1  0  0  0  0
  9 37  1  0  0  0  0
 10 11  1  0  0  0  0
 10 38  1  0  0  0  0
 11 12  2  0  0  0  0
 11 13  1  0  0  0  0
 13 14  1  0  0  0  0
 13 39  1  0  0  0  0
 14 19  1  0  0  0  0
 14 15  2  0  0  0  0
 15 16  1  0  0  0  0
 15 40  1  0  0  0  0
 16 17  2  0  0  0  0
 16 41  1  0  0  0  0
 17 18  1  0  0  0  0
 18 19  2  0  0  0  0
 18 42  1  0  0  0  0
 19 20  1  0  0  0  0
 21 22  1  0  0  0  0
 21 43  1  0  0  0  0
 21 44  1  0  0  0  0
 22 45  1  0  0  0  0
 22 46  1  0  0  0  0
 23 24  1  0  0  0  0
 23 47  1  0  0  0  0
 23 48  1  0  0  0  0
 24 49  1  0  0  0  0
 24 50  1  0  0  0  0
M  CHG  1   2   1
M  CHG  1   6   1
M  END
> <s_m_source_file>
AV-unprocessed.smi

> <i_m_source_file_index>
2253

> <i_lp_mmshare_version>
43012

> <i_f3d_flags>
0

> <s_epik_input>
W0NIM11OMVtDSDJdW0NIMl1bQ0hdKFtDSDJdW0NIMl0xKU4yW0NIMl1bQ0gyXVtDSF0oW0NIMl1bQ0gyXTIpW05IXUMoPU8pW05IXWMzW2NIXVtjSF1uW2NIXWMzRg==

> <s_epik_cmdline>
J2VwaWtfcHl0aG9uJywgJy1waCcsICc3LjAnLCAnLXRuJywgJzgnLCAnLW1hJywgJzIwMCcsICctbWV0YWxfYmluZGluZycsICctaW1hZScsICc8aW5maWxlLm1hZT4nLCAnLW9tYWUnLCAnPG91dGZpbGUubWFlPic=

> <r_epik_Ionization_Penalty>
0.183544

> <r_epik_Ionization_Penalty_Charging>
0.180787

> <r_epik_Ionization_Penalty_Neutral>
0.00275649

> <r_epik_State_Penalty>
0.153592

> <r_epik_Charging_Adjusted_Penalty>
0.334379

> <i_epik_Tot_Q>
2

> <i_epik_Tot_abs_Q>
2

> <r_epik_Metal_State_Penalty>
0.153693

> <b_epik_Metal_Only>
0

> <s_lp_Force_Field>
OPLS_2005

> <r_lp_Energy>
53.0851

> <b_lp_Chiralities_Consistent>
1

> <s_lp_Variant>
AV-unprocessed.smi:2253-4

> <Gold.Version>
5.8.1

> <Gold.Id.Protein>
6NUR|6NUR_protein|mol2

> <Gold.PLP.Fitness>
40.2714

> <Gold.PLP.PLP>
-34.0500

> <Gold.PLP.part.hbond>
-2.2098

> <Gold.PLP.part.metal>
0.0000

> <Gold.PLP.part.buried>
6.6784

> <Gold.PLP.part.nonpolar>
-38.6977

> <Gold.PLP.part.repulsive>
0.2929

> <Gold.PLP.ligand.clash>
0.0000

> <Gold.PLP.ligand.torsion>
0.4240

> <Gold.PLP.Chemscore.Hbond>
2.3400

> <Gold.PLP.Chemscore.CHOScore>
0.0000

> <Gold.PLP.Chemscore.Metal>
0.0000

> <Gold.Chemscore.Hbonds>
donor molecule, donor type, donor heavy atom, donor atom, acceptor molecule, acceptor atom, score
      L1  H     6    51       P1  7948  1.98
      L1  H    10    38       P1  8028  0.36

> <Gold.PLP.Chemscore.Internal.Correction>
0.0494

> <Gold.Rescore>
     Score         DG    S(hbond)    S(metal)    S(lipo)     H(rot)  DE(clash)    DE(int)     intcor
     14.02     -21.00       1.67        0.00     112.41       1.26       4.10       2.89       ----

> <Gold.Chemscore.Fitness>
14.0200

> <Gold.Chemscore.DG>
-21.0043

> <Gold.Chemscore.ZeroCoef>
-5.4800

> <Gold.Chemscore.Hbond>
1.6730

> <Gold.Chemscore.Metal>
0.0000

> <Gold.Chemscore.Lipo>
112.4053

> <Gold.Chemscore.Internal_Hbond>
0.0000

> <Gold.Chemscore.DEClash>
4.0976

> <Gold.Chemscore.DEInternal>
2.8867

> <Gold.Chemscore.Rot>
1.2559

> <Gold.Chemscore.Internal.Correction>
   9.000000E+99

> <Gold.Chemscore.Hbonds>
donor molecule, donor type, donor heavy atom, donor atom, acceptor molecule, acceptor atom, score
      L1  H     6    51       P1  7948  0.92
      L1  H    10    38       P1  8028  0.35

> <Gold.Chemscore.Hbond.Weighted>
-5.5879

> <Gold.Chemscore.Metal.Weighted>
-0.0000

> <Gold.Chemscore.Lipo.Weighted>
-13.1514

> <Gold.Chemscore.Internal_Hbond.Weighted>
0.0000

> <Gold.Chemscore.DEClash.Weighted>
4.0976

> <Gold.Chemscore.DEInternal.Weighted>
2.8867

> <Gold.Chemscore.Rot.Weighted>
3.2151

> <Gold.Chemscore.Internal.Correction.Weighted>
   9.000000E+99

> <Gold.Protein.RotatedTorsions>
[ 6907 6896 6895 6894 ] final  -97.24 input  -60.11 | X-H torsion
[ 7974 7965 7964 7962 ] final  165.86 input  175.53 | X-H torsion
[ 8008 7997 7996 7995 ] final   12.87 input   59.86 | X-H torsion
[ 10167 10162 10161 10158 ] final   30.61 input  -65.29 | X-H torsion
[ 10718 10713 10712 10709 ] final   -8.04 input   66.30 | X-H torsion
[ 10763 10752 10751 10750 ] final  110.47 input  -60.55 | X-H torsion
[ 11005 11000 10999 10996 ] final  -76.47 input  -57.11 | X-H torsion

> <Gold.Protein.ActiveResidues>
 VAL166  LYS551  ARG553  GLY616  TRP617  ASP618  TYR619  PRO620  LYS621  CYS622 
 ASP623  PHE694  ASN695  SER759  ASP760  ASP761  ALA762  ILE779  LEU786  VAL792 
 PHE793  MET794  SER795  GLU796  ALA797  LYS798  CYS799  TRP800  GLU811  SER814 

> <Gold.Protein.RotatedAtoms>
  150.7011  134.1379  159.4093 H   0  0  0  0  0  0  0  0  0  0  0  0  # atno 6907 bound_to 6896
  151.9364  135.0231  160.0542 H   0  0  0  0  0  0  0  0  0  0  0  0  # atno 6908 bound_to 6896
  152.2131  133.4891  159.5158 H   0  0  0  0  0  0  0  0  0  0  0  0  # atno 6909 bound_to 6896
  144.7485  139.8531  143.6374 H   0  0  0  0  0  0  0  0  0  0  0  0  # atno 7974 bound_to 7965
  154.8266  140.2892  155.5751 H   0  0  0  0  0  0  0  0  0  0  0  0  # atno 8008 bound_to 7997
  156.3002  140.2540  156.3114 H   0  0  0  0  0  0  0  0  0  0  0  0  # atno 8009 bound_to 7997
  154.9279  140.0384  157.2022 H   0  0  0  0  0  0  0  0  0  0  0  0  # atno 8010 bound_to 7997
  140.4662  144.0831  150.6225 H   0  0  0  0  0  0  0  0  0  0  0  0  # atno 10167 bound_to 10162
  156.7084  130.5114  149.5898 H   0  0  0  0  0  0  0  0  0  0  0  0  # atno 10718 bound_to 10713
  153.4494  135.3747  155.2275 H   0  0  0  0  0  0  0  0  0  0  0  0  # atno 10763 bound_to 10752
  154.8756  135.3882  154.4057 H   0  0  0  0  0  0  0  0  0  0  0  0  # atno 10764 bound_to 10752
  153.4614  135.7086  153.6112 H   0  0  0  0  0  0  0  0  0  0  0  0  # atno 10765 bound_to 10752
  141.1654  133.6985  156.7674 H   0  0  0  0  0  0  0  0  0  0  0  0  # atno 11005 bound_to 11000
  146.1402  139.4457  143.0114 LP  0  0  0  0  0  0  0  0  0  0  0  0  # atno 17320 bound_to 7965
  145.7030  141.0130  143.1494 LP  0  0  0  0  0  0  0  0  0  0  0  0  # atno 17321 bound_to 7965
  140.4033  143.2693  151.9922 LP  0  0  0  0  0  0  0  0  0  0  0  0  # atno 17342 bound_to 10162
  139.4812  144.5979  151.7657 LP  0  0  0  0  0  0  0  0  0  0  0  0  # atno 17343 bound_to 10162
  156.1679  130.6417  151.0801 LP  0  0  0  0  0  0  0  0  0  0  0  0  # atno 17370 bound_to 10713
  157.6946  131.0798  150.7007 LP  0  0  0  0  0  0  0  0  0  0  0  0  # atno 17371 bound_to 10713
  140.2489  134.8556  157.3648 LP  0  0  0  0  0  0  0  0  0  0  0  0  # atno 17394 bound_to 11000
  140.1722  134.4594  155.7824 LP  0  0  0  0  0  0  0  0  0  0  0  0  # atno 17395 bound_to 11000

$$$$
