AV-unprocessed.smi:2962|AV-procd|sdf|11315|dock3
  -GOLD-   2272016213D 1   1.00000     0.00000
 Structure written by MMmdl.
 36 37  0  0  0  0  0  0  0  0  1 V2000
  152.7010  137.3714  160.9225 C   0  0  0  0  0  0  0  0  0  0  0  0
  151.8726  137.0884  159.8058 O   0  0  0  0  0  0  0  0  0  0  0  0
  151.4495  138.2488  159.1041 C   0  0  0  0  0  0  0  0  0  0  0  0
  152.6111  139.2283  158.8610 C   0  0  0  0  0  0  0  0  0  0  0  0
  152.1473  140.5064  158.3387 N   0  0  0  0  0  0  0  0  0  0  0  0
  151.5547  140.7712  157.1472 C   0  0  0  0  0  0  0  0  0  0  0  0
  151.2179  139.5191  155.9541 S   0  0  0  0  0  0  0  0  0  0  0  0
  149.7038  140.2293  155.2388 C   0  0  2  0  0  0  0  0  0  0  0  0
  148.8161  140.8127  156.3514 C   0  0  0  0  0  0  0  0  0  0  0  0
  148.9560  139.2059  154.3725 C   0  0  0  0  0  0  0  0  0  0  0  0
  149.6434  138.6366  153.3789 N   0  0  0  0  0  0  0  0  0  0  0  0
  147.7765  138.9300  154.5851 O   0  0  0  0  0  0  0  0  0  0  0  0
  151.2367  142.0473  156.9305 N   0  0  0  0  0  0  0  0  0  0  0  0
  151.6595  142.6688  158.0887 C   0  0  0  0  0  0  0  0  0  0  0  0
  151.6012  144.0263  158.4772 C   0  0  0  0  0  0  0  0  0  0  0  0
  152.1049  144.4321  159.7306 C   0  0  0  0  0  0  0  0  0  0  0  0
  152.6722  143.4884  160.6113 C   0  0  0  0  0  0  0  0  0  0  0  0
  152.7392  142.1308  160.2438 C   0  0  0  0  0  0  0  0  0  0  0  0
  152.2346  141.7313  158.9918 C   0  0  0  0  0  0  0  0  0  0  0  0
  152.9525  136.4423  161.4338 H   0  0  0  0  0  0  0  0  0  0  0  0
  152.2075  138.0251  161.6417 H   0  0  0  0  0  0  0  0  0  0  0  0
  153.6326  137.8431  160.6081 H   0  0  0  0  0  0  0  0  0  0  0  0
  150.9609  137.9827  158.1655 H   0  0  0  0  0  0  0  0  0  0  0  0
  150.6899  138.7419  159.7113 H   0  0  0  0  0  0  0  0  0  0  0  0
  153.1890  139.3853  159.7702 H   0  0  0  0  0  0  0  0  0  0  0  0
  153.3054  138.7989  158.1385 H   0  0  0  0  0  0  0  0  0  0  0  0
  149.9882  141.0592  154.5906 H   0  0  0  0  0  0  0  0  0  0  0  0
  147.8992  141.2421  155.9459 H   0  0  0  0  0  0  0  0  0  0  0  0
  149.3373  141.6063  156.8874 H   0  0  0  0  0  0  0  0  0  0  0  0
  148.5365  140.0523  157.0816 H   0  0  0  0  0  0  0  0  0  0  0  0
  149.1911  137.9733  152.7666 H   0  0  0  0  0  0  0  0  0  0  0  0
  150.6096  138.8892  153.2303 H   0  0  0  0  0  0  0  0  0  0  0  0
  151.1691  144.7572  157.8095 H   0  0  0  0  0  0  0  0  0  0  0  0
  152.0563  145.4723  160.0176 H   0  0  0  0  0  0  0  0  0  0  0  0
  153.0564  143.8075  161.5692 H   0  0  0  0  0  0  0  0  0  0  0  0
  153.1741  141.4057  160.9156 H   0  0  0  0  0  0  0  0  0  0  0  0
  1  2  1  0  0  0  0
  1 20  1  0  0  0  0
  1 21  1  0  0  0  0
  1 22  1  0  0  0  0
  2  3  1  0  0  0  0
  3  4  1  0  0  0  0
  3 23  1  0  0  0  0
  3 24  1  0  0  0  0
  4  5  1  0  0  0  0
  4 25  1  0  0  0  0
  4 26  1  0  0  0  0
  5 19  1  0  0  0  0
  5  6  1  0  0  0  0
  6  7  1  0  0  0  0
  6 13  2  0  0  0  0
  7  8  1  0  0  0  0
  8  9  1  0  0  0  0
  8 10  1  0  0  0  0
  8 27  1  0  0  0  0
  9 28  1  0  0  0  0
  9 29  1  0  0  0  0
  9 30  1  0  0  0  0
 10 11  1  0  0  0  0
 10 12  2  0  0  0  0
 11 31  1  0  0  0  0
 11 32  1  0  0  0  0
 13 14  1  0  0  0  0
 14 19  2  0  0  0  0
 14 15  1  0  0  0  0
 15 16  2  0  0  0  0
 15 33  1  0  0  0  0
 16 17  1  0  0  0  0
 16 34  1  0  0  0  0
 17 18  2  0  0  0  0
 17 35  1  0  0  0  0
 18 19  1  0  0  0  0
 18 36  1  0  0  0  0
M  END
> <s_m_source_file>
AV-unprocessed.smi

> <i_m_source_file_index>
2962

> <i_lp_mmshare_version>
43012

> <i_f3d_flags>
0

> <s_epik_input>
W2NIXTFbY0hdW2NIXVtjSF1jKGMxMiluKFtDSDJdW0NIMl1PW0NIM10pYyhuMilTW0NASF0oW0NIM10pQyg9TylbTkgyXQ==

> <s_epik_cmdline>
J2VwaWtfcHl0aG9uJywgJy1waCcsICc3LjAnLCAnLXRuJywgJzgnLCAnLW1hJywgJzIwMCcsICctbWV0YWxfYmluZGluZycsICctaW1hZScsICc8aW5maWxlLm1hZT4nLCAnLW9tYWUnLCAnPG91dGZpbGUubWFlPic=

> <r_epik_Ionization_Penalty>
0.0199986

> <r_epik_Ionization_Penalty_Charging>
0

> <r_epik_Ionization_Penalty_Neutral>
0.0199986

> <r_epik_State_Penalty>
0.0160044

> <r_epik_Charging_Adjusted_Penalty>
0.0160044

> <i_epik_Tot_Q>
0

> <i_epik_Tot_abs_Q>
0

> <r_epik_Metal_State_Penalty>
0.015472

> <b_epik_Metal_Only>
0

> <s_lp_Force_Field>
OPLS_2005

> <r_lp_Energy>
7.16755

> <b_lp_Chiralities_Consistent>
1

> <s_lp_Variant>
AV-unprocessed.smi:2962-1

> <Gold.Version>
5.8.1

> <Gold.Id.Protein>
6NUR|6NUR_protein|mol2

> <Gold.PLP.Fitness>
43.6977

> <Gold.PLP.PLP>
-38.7979

> <Gold.PLP.part.hbond>
-3.0000

> <Gold.PLP.part.metal>
0.0000

> <Gold.PLP.part.buried>
-4.8093

> <Gold.PLP.part.nonpolar>
-31.4674

> <Gold.PLP.part.repulsive>
0.2736

> <Gold.PLP.ligand.clash>
0.0000

> <Gold.PLP.ligand.torsion>
0.6176

> <Gold.PLP.Chemscore.Hbond>
2.0000

> <Gold.PLP.Chemscore.CHOScore>
0.0000

> <Gold.PLP.Chemscore.Metal>
0.0000

> <Gold.Chemscore.Hbonds>
donor molecule, donor type, donor heavy atom, donor atom, acceptor molecule, acceptor atom, score
      L1  H    11    31       P1  7948  1.00
      P1  H  6896  6907       L1     2  0.95

> <Gold.PLP.Chemscore.Internal.Correction>
0.1350

> <Gold.Rescore>
     Score         DG    S(hbond)    S(metal)    S(lipo)     H(rot)  DE(clash)    DE(int)     intcor
     14.80     -16.88       1.93        0.00      97.14       2.50       0.01       2.06       ----

> <Gold.Chemscore.Fitness>
14.8029

> <Gold.Chemscore.DG>
-16.8768

> <Gold.Chemscore.ZeroCoef>
-5.4800

> <Gold.Chemscore.Hbond>
1.9277

> <Gold.Chemscore.Metal>
0.0000

> <Gold.Chemscore.Lipo>
97.1403

> <Gold.Chemscore.Internal_Hbond>
0.0000

> <Gold.Chemscore.DEClash>
0.0108

> <Gold.Chemscore.DEInternal>
2.0631

> <Gold.Chemscore.Rot>
2.5027

> <Gold.Chemscore.Internal.Correction>
   9.000000E+99

> <Gold.Chemscore.Hbonds>
donor molecule, donor type, donor heavy atom, donor atom, acceptor molecule, acceptor atom, score
      L1  H    11    31       P1  7948  0.94
      P1  H  6896  6907       L1     2  0.21

> <Gold.Chemscore.Hbond.Weighted>
-6.4385

> <Gold.Chemscore.Metal.Weighted>
-0.0000

> <Gold.Chemscore.Lipo.Weighted>
-11.3654

> <Gold.Chemscore.Internal_Hbond.Weighted>
0.0000

> <Gold.Chemscore.DEClash.Weighted>
0.0108

> <Gold.Chemscore.DEInternal.Weighted>
2.0631

> <Gold.Chemscore.Rot.Weighted>
6.4070

> <Gold.Chemscore.Internal.Correction.Weighted>
   9.000000E+99

> <Gold.Protein.RotatedTorsions>
[ 6907 6896 6895 6894 ] final   10.55 input  -60.11 | X-H torsion
[ 7974 7965 7964 7962 ] final   77.84 input  175.53 | X-H torsion
[ 8008 7997 7996 7995 ] final  146.44 input   59.86 | X-H torsion
[ 10167 10162 10161 10158 ] final   83.54 input  -65.29 | X-H torsion
[ 10718 10713 10712 10709 ] final   -8.71 input   66.30 | X-H torsion
[ 10763 10752 10751 10750 ] final    7.44 input  -60.55 | X-H torsion
[ 11005 11000 10999 10996 ] final  -51.21 input  -57.11 | X-H torsion

> <Gold.Protein.ActiveResidues>
 VAL166  LYS551  ARG553  GLY616  TRP617  ASP618  TYR619  PRO620  LYS621  CYS622 
 ASP623  PHE694  ASN695  SER759  ASP760  ASP761  ALA762  ILE779  LEU786  VAL792 
 PHE793  MET794  SER795  GLU796  ALA797  LYS798  CYS799  TRP800  GLU811  SER814 

> <Gold.Protein.RotatedAtoms>
  151.7400  135.0856  160.0313 H   0  0  0  0  0  0  0  0  0  0  0  0  # atno 6907 bound_to 6896
  152.3485  133.6147  159.5936 H   0  0  0  0  0  0  0  0  0  0  0  0  # atno 6908 bound_to 6896
  150.7524  133.9527  159.3532 H   0  0  0  0  0  0  0  0  0  0  0  0  # atno 6909 bound_to 6896
  145.6848  139.2534  143.1793 H   0  0  0  0  0  0  0  0  0  0  0  0  # atno 7974 bound_to 7965
  156.2855  140.2182  156.5377 H   0  0  0  0  0  0  0  0  0  0  0  0  # atno 8008 bound_to 7997
  154.7396  140.0489  157.0821 H   0  0  0  0  0  0  0  0  0  0  0  0  # atno 8009 bound_to 7997
  155.0248  140.3128  155.4783 H   0  0  0  0  0  0  0  0  0  0  0  0  # atno 8010 bound_to 7997
  139.9173  144.6235  150.8476 H   0  0  0  0  0  0  0  0  0  0  0  0  # atno 10167 bound_to 10162
  156.6986  130.5086  149.5923 H   0  0  0  0  0  0  0  0  0  0  0  0  # atno 10718 bound_to 10713
  153.2362  135.6898  153.7834 H   0  0  0  0  0  0  0  0  0  0  0  0  # atno 10763 bound_to 10752
  153.6980  135.3302  155.3219 H   0  0  0  0  0  0  0  0  0  0  0  0  # atno 10764 bound_to 10752
  154.8336  135.4561  154.1267 H   0  0  0  0  0  0  0  0  0  0  0  0  # atno 10765 bound_to 10752
  141.0858  133.6643  156.3843 H   0  0  0  0  0  0  0  0  0  0  0  0  # atno 11005 bound_to 11000
  146.0933  140.7630  142.9585 LP  0  0  0  0  0  0  0  0  0  0  0  0  # atno 17320 bound_to 7965
  144.7015  140.3671  143.7152 LP  0  0  0  0  0  0  0  0  0  0  0  0  # atno 17321 bound_to 7965
  140.7671  143.3322  151.2385 LP  0  0  0  0  0  0  0  0  0  0  0  0  # atno 17342 bound_to 10162
  139.6891  143.9722  152.2850 LP  0  0  0  0  0  0  0  0  0  0  0  0  # atno 17343 bound_to 10162
  156.1745  130.6459  151.0878 LP  0  0  0  0  0  0  0  0  0  0  0  0  # atno 17370 bound_to 10713
  157.6982  131.0786  150.6904 LP  0  0  0  0  0  0  0  0  0  0  0  0  # atno 17371 bound_to 10713
  140.5365  134.6161  157.5366 LP  0  0  0  0  0  0  0  0  0  0  0  0  # atno 17394 bound_to 11000
  139.9676  134.7346  156.0106 LP  0  0  0  0  0  0  0  0  0  0  0  0  # atno 17395 bound_to 11000

$$$$
