AV-unprocessed.smi:72|AV-procd|sdf|732|dock8
  -GOLD-   2262017 63D 1   1.00000     0.00000
 Structure written by MMmdl.
 28 29  0  0  0  0  0  0  0  0  2 V2000
  154.3182  138.0146  154.6341 N   0  0  0  0  0  0  0  0  0  0  0  0
  153.1185  138.3578  154.8163 C   0  0  0  0  0  0  0  0  0  0  0  0
  152.8027  139.7276  155.1574 N   0  0  0  0  0  0  0  0  0  0  0  0
  151.5538  140.0368  155.3262 C   0  0  0  0  0  0  0  0  0  0  0  0
  150.4896  139.0518  155.1772 N   0  0  0  0  0  0  0  0  0  0  0  0
  149.0233  139.4064  155.3686 C   0  0  1  0  0  0  0  0  0  0  0  0
  148.8546  140.1214  156.5604 O   0  0  0  0  0  0  0  0  0  0  0  0
  148.5406  141.4799  156.2761 C   0  0  2  0  0  0  0  0  0  0  0  0
  147.8485  142.1479  157.4772 C   0  0  0  0  0  0  0  0  0  0  0  0
  148.6717  142.0757  158.6220 O   0  0  0  0  0  0  0  0  0  0  0  0
  147.7455  141.3997  154.9671 C   0  0  2  0  0  0  0  0  0  0  0  0
  146.3902  141.0691  155.2085 O   0  0  0  0  0  0  0  0  0  0  0  0
  148.4443  140.2711  154.2193 C   0  0  1  0  0  0  0  0  0  0  0  0
  149.4275  140.8108  153.3525 O   0  0  0  0  0  0  0  0  0  0  0  0
  150.8310  137.7131  154.8464 C   0  0  0  0  0  0  0  0  0  0  0  0
  149.9178  136.8968  154.7206 O   0  0  0  0  0  0  0  0  0  0  0  0
  152.1449  137.3936  154.6791 N   0  5  0  0  0  0  0  0  0  0  0  0
  148.5054  138.4538  155.4903 H   0  0  0  0  0  0  0  0  0  0  0  0
  149.4794  141.9992  156.0768 H   0  0  0  0  0  0  0  0  0  0  0  0
  147.7670  142.3433  154.4200 H   0  0  0  0  0  0  0  0  0  0  0  0
  147.7521  139.6762  153.6217 H   0  0  0  0  0  0  0  0  0  0  0  0
  154.4132  137.0369  154.4016 H   0  0  0  0  0  0  0  0  0  0  0  0
  151.2325  141.0446  155.5873 H   0  0  0  0  0  0  0  0  0  0  0  0
  147.5962  143.1878  157.2692 H   0  0  0  0  0  0  0  0  0  0  0  0
  146.9120  141.6341  157.6956 H   0  0  0  0  0  0  0  0  0  0  0  0
  148.2812  141.4708  159.2346 H   0  0  0  0  0  0  0  0  0  0  0  0
  146.3438  140.5692  156.0089 H   0  0  0  0  0  0  0  0  0  0  0  0
  149.6102  140.1782  152.6749 H   0  0  0  0  0  0  0  0  0  0  0  0
  1  2  2  0  0  0  0
  1 22  1  0  0  0  0
  2 17  1  0  0  0  0
  2  3  1  0  0  0  0
  3  4  2  0  0  0  0
  4  5  1  0  0  0  0
  4 23  1  0  0  0  0
  5  6  1  0  0  0  0
  5 15  1  0  0  0  0
  6 18  1  0  0  0  0
  6 13  1  0  0  0  0
  6  7  1  0  0  0  0
  7  8  1  0  0  0  0
  8 19  1  0  0  0  0
  8  9  1  0  0  0  0
  8 11  1  0  0  0  0
  9 10  1  0  0  0  0
  9 24  1  0  0  0  0
  9 25  1  0  0  0  0
 10 26  1  0  0  0  0
 11 20  1  0  0  0  0
 11 12  1  0  0  0  0
 11 13  1  0  0  0  0
 12 27  1  0  0  0  0
 13 21  1  0  0  0  0
 13 14  1  0  0  0  0
 14 28  1  0  0  0  0
 15 16  2  0  0  0  0
 15 17  1  0  0  0  0
M  CHG  1  17  -1
M  END
> <s_m_source_file>
AV-unprocessed.smi

> <i_m_source_file_index>
72

> <i_lp_mmshare_version>
43012

> <i_f3d_flags>
0

> <s_epik_input>
W05IMl1jMW5bY0hdbihjKD1PKW4xKVtDQEBIXTJPW0NASF0oW0NIMl1bT0hdKVtDQEBIXShbT0hdKVtDQEhdMltPSF0=

> <s_epik_cmdline>
J2VwaWtfcHl0aG9uJywgJy1waCcsICc3LjAnLCAnLXRuJywgJzgnLCAnLW1hJywgJzIwMCcsICctbWV0YWxfYmluZGluZycsICctaW1hZScsICc8aW5maWxlLm1hZT4nLCAnLW9tYWUnLCAnPG91dGZpbGUubWFlPic=

> <r_lp_tautomer_probability>
7.17554e-07

> <r_epik_Ionization_Penalty>
12.8705

> <r_epik_Ionization_Penalty_Charging>
5.64144

> <r_epik_Ionization_Penalty_Neutral>
7.22905

> <r_epik_State_Penalty>
3.30104

> <r_epik_Charging_Adjusted_Penalty>
8.94249

> <i_epik_Tot_Q>
-1

> <i_epik_Tot_abs_Q>
1

> <r_epik_Metal_State_Penalty>
0.529074

> <b_epik_Metal_Only>
1

> <s_epik_Chemistry_Notes>
This compound contains an acetal/aminal-like group ( X-CH(R)-Y where X, Y are N, S, or O) that may be acid/base labile, releasing an aldehyde.

> <s_lp_Force_Field>
OPLS_2005

> <r_lp_Energy>
37.8021

> <b_lp_Chiralities_Consistent>
1

> <s_lp_Variant>
AV-unprocessed.smi:72-70

> <Gold.Version>
5.8.1

> <Gold.Id.Protein>
6NUR|6NUR_protein|mol2

> <Gold.PLP.Fitness>
37.9910

> <Gold.PLP.PLP>
-25.5795

> <Gold.PLP.part.hbond>
-7.2940

> <Gold.PLP.part.metal>
0.0000

> <Gold.PLP.part.buried>
-2.7972

> <Gold.PLP.part.nonpolar>
-17.2530

> <Gold.PLP.part.repulsive>
0.8777

> <Gold.PLP.ligand.clash>
0.0000

> <Gold.PLP.ligand.torsion>
0.2514

> <Gold.PLP.Chemscore.Hbond>
4.2914

> <Gold.PLP.Chemscore.CHOScore>
0.0000

> <Gold.PLP.Chemscore.Metal>
0.0000

> <Gold.Chemscore.Hbonds>
donor molecule, donor type, donor heavy atom, donor atom, acceptor molecule, acceptor atom, score
      L1  H    14    28       P1  7957  0.80
      P1  H  7989  7998       L1    14  0.02
      P1  H  7997  8008       L1     3  0.95
      P1  H  8011  8017       L1    14  0.90
      P1  H 10752 10765       L1    17  1.63

> <Gold.PLP.Chemscore.Internal.Correction>
0.0404

> <Gold.Rescore>
     Score         DG    S(hbond)    S(metal)    S(lipo)     H(rot)  DE(clash)    DE(int)     intcor
      3.81      -5.24       2.33        0.00      19.68       4.04       0.19       1.24       ----

> <Gold.Chemscore.Fitness>
3.8053

> <Gold.Chemscore.DG>
-5.2352

> <Gold.Chemscore.ZeroCoef>
-5.4800

> <Gold.Chemscore.Hbond>
2.3341

> <Gold.Chemscore.Metal>
0.0000

> <Gold.Chemscore.Lipo>
19.6788

> <Gold.Chemscore.Internal_Hbond>
0.0000

> <Gold.Chemscore.DEClash>
0.1938

> <Gold.Chemscore.DEInternal>
1.2360

> <Gold.Chemscore.Rot>
4.0403

> <Gold.Chemscore.Internal.Correction>
   9.000000E+99

> <Gold.Chemscore.Hbonds>
donor molecule, donor type, donor heavy atom, donor atom, acceptor molecule, acceptor atom, score
      L1  H    14    28       P1  7957  0.74
      P1  H  7997  8008       L1     3  0.22
      P1  H  8011  8017       L1    14  0.18
      P1  H 10752 10765       L1    17  0.60

> <Gold.Chemscore.Hbond.Weighted>
-7.7958

> <Gold.Chemscore.Metal.Weighted>
-0.0000

> <Gold.Chemscore.Lipo.Weighted>
-2.3024

> <Gold.Chemscore.Internal_Hbond.Weighted>
0.0000

> <Gold.Chemscore.DEClash.Weighted>
0.1938

> <Gold.Chemscore.DEInternal.Weighted>
1.2360

> <Gold.Chemscore.Rot.Weighted>
10.3431

> <Gold.Chemscore.Internal.Correction.Weighted>
   9.000000E+99

> <Gold.Protein.RotatedTorsions>
[ 6907 6896 6895 6894 ] final  -51.47 input  -60.11 | X-H torsion
[ 7974 7965 7964 7962 ] final   53.23 input  175.53 | X-H torsion
[ 8008 7997 7996 7995 ] final  -27.96 input   59.86 | X-H torsion
[ 10167 10162 10161 10158 ] final   80.02 input  -65.29 | X-H torsion
[ 10718 10713 10712 10709 ] final -101.71 input   66.30 | X-H torsion
[ 10763 10752 10751 10750 ] final  167.37 input  -60.55 | X-H torsion
[ 11005 11000 10999 10996 ] final  -72.04 input  -57.11 | X-H torsion

> <Gold.Protein.ActiveResidues>
 VAL166  LYS551  ARG553  GLY616  TRP617  ASP618  TYR619  PRO620  LYS621  CYS622 
 ASP623  PHE694  ASN695  SER759  ASP760  ASP761  ALA762  ILE779  LEU786  VAL792 
 PHE793  MET794  SER795  GLU796  ALA797  LYS798  CYS799  TRP800  GLU811  SER814 

> <Gold.Protein.RotatedAtoms>
  150.8609  134.7960  159.7081 H   0  0  0  0  0  0  0  0  0  0  0  0  # atno 6907 bound_to 6896
  152.4646  134.5102  159.9761 H   0  0  0  0  0  0  0  0  0  0  0  0  # atno 6908 bound_to 6896
  151.5206  133.3429  159.2936 H   0  0  0  0  0  0  0  0  0  0  0  0  # atno 6909 bound_to 6896
  145.9732  139.4170  143.0177 H   0  0  0  0  0  0  0  0  0  0  0  0  # atno 7974 bound_to 7965
  154.4353  140.1858  156.1014 H   0  0  0  0  0  0  0  0  0  0  0  0  # atno 8008 bound_to 7997
  156.0289  140.3333  155.7092 H   0  0  0  0  0  0  0  0  0  0  0  0  # atno 8009 bound_to 7997
  155.5868  140.0627  157.2759 H   0  0  0  0  0  0  0  0  0  0  0  0  # atno 8010 bound_to 7997
  139.9542  144.6005  150.8132 H   0  0  0  0  0  0  0  0  0  0  0  0  # atno 10167 bound_to 10162
  156.0204  130.5386  150.7003 H   0  0  0  0  0  0  0  0  0  0  0  0  # atno 10718 bound_to 10713
  154.3528  135.2753  155.2362 H   0  0  0  0  0  0  0  0  0  0  0  0  # atno 10763 bound_to 10752
  154.4584  135.5913  153.6242 H   0  0  0  0  0  0  0  0  0  0  0  0  # atno 10764 bound_to 10752
  152.9848  135.6059  154.3741 H   0  0  0  0  0  0  0  0  0  0  0  0  # atno 10765 bound_to 10752
  141.1602  133.6835  156.6998 H   0  0  0  0  0  0  0  0  0  0  0  0  # atno 11005 bound_to 11000
  145.7876  140.9829  143.1066 LP  0  0  0  0  0  0  0  0  0  0  0  0  # atno 17320 bound_to 7965
  144.6842  139.9642  143.7481 LP  0  0  0  0  0  0  0  0  0  0  0  0  # atno 17321 bound_to 7965
  140.7573  143.3084  151.2905 LP  0  0  0  0  0  0  0  0  0  0  0  0  # atno 17342 bound_to 10162
  139.6604  144.0199  152.2689 LP  0  0  0  0  0  0  0  0  0  0  0  0  # atno 17343 bound_to 10162
  157.4665  131.0888  151.0689 LP  0  0  0  0  0  0  0  0  0  0  0  0  # atno 17370 bound_to 10713
  157.1162  130.6042  149.5494 LP  0  0  0  0  0  0  0  0  0  0  0  0  # atno 17371 bound_to 10713
  140.2967  134.8196  157.4063 LP  0  0  0  0  0  0  0  0  0  0  0  0  # atno 17394 bound_to 11000
  140.1298  134.5110  155.8115 LP  0  0  0  0  0  0  0  0  0  0  0  0  # atno 17395 bound_to 11000

$$$$
