AV-unprocessed.smi:1602|AV-procd|sdf|6442|dock9
  -GOLD-   22720 7 93D 1   1.00000     0.00000
 Structure written by MMmdl.
 35 36  0  0  0  0  0  0  0  0  2 V2000
  150.2624  142.3070  155.7009 C   0  0  0  0  0  0  0  0  0  0  0  0
  151.0309  141.9297  156.9789 C   0  0  1  0  0  0  0  0  0  0  0  0
  150.5790  142.7236  158.2345 C   0  0  0  0  0  0  0  0  0  0  0  0
  151.4513  142.6103  159.4021 N   0  0  0  0  0  0  0  0  0  0  0  0
  152.6302  141.9008  159.5329 C   0  0  0  0  0  0  0  0  0  0  0  0
  153.0726  142.0689  160.8137 C   0  0  0  0  0  0  0  0  0  0  0  0
  152.0783  142.8949  161.4076 C   0  0  0  0  0  0  0  0  0  0  0  0
  151.1064  143.2074  160.5672 N   0  0  0  0  0  0  0  0  0  0  0  0
  150.8972  140.5004  157.2221 N   0  5  0  0  0  0  0  0  0  0  0  0
  151.7115  139.4458  156.2974 S   0  0  0  0  0  0  0  0  0  0  0  0
  151.6263  139.7240  154.8544 O   0  0  0  0  0  0  0  0  0  0  0  0
  153.0317  139.1064  156.8532 O   0  0  0  0  0  0  0  0  0  0  0  0
  150.6912  138.0672  156.5738 N   0  0  0  0  0  0  0  0  0  0  0  0
  150.3190  137.7914  157.9723 C   0  0  0  0  0  0  0  0  0  0  0  0
  149.2428  136.6972  158.0599 C   0  0  0  0  0  0  0  0  0  0  0  0
  149.6709  135.5322  157.3726 O   0  0  0  0  0  0  0  0  0  0  0  0
  149.8632  135.7935  155.9910 C   0  0  0  0  0  0  0  0  0  0  0  0
  150.9714  136.8408  155.7985 C   0  0  0  0  0  0  0  0  0  0  0  0
  150.3042  143.3818  155.5253 H   0  0  0  0  0  0  0  0  0  0  0  0
  149.2122  142.0185  155.7588 H   0  0  0  0  0  0  0  0  0  0  0  0
  150.6879  141.8179  154.8245 H   0  0  0  0  0  0  0  0  0  0  0  0
  152.0770  142.1915  156.8151 H   0  0  0  0  0  0  0  0  0  0  0  0
  150.4529  143.7795  157.9888 H   0  0  0  0  0  0  0  0  0  0  0  0
  149.5914  142.3725  158.5358 H   0  0  0  0  0  0  0  0  0  0  0  0
  153.0532  141.3462  158.7084 H   0  0  0  0  0  0  0  0  0  0  0  0
  153.9677  141.6611  161.2591 H   0  0  0  0  0  0  0  0  0  0  0  0
  152.0310  143.2694  162.4195 H   0  0  0  0  0  0  0  0  0  0  0  0
  151.2114  137.4857  158.5194 H   0  0  0  0  0  0  0  0  0  0  0  0
  149.9491  138.7013  158.4442 H   0  0  0  0  0  0  0  0  0  0  0  0
  149.0553  136.4421  159.1031 H   0  0  0  0  0  0  0  0  0  0  0  0
  148.2969  137.0509  157.6466 H   0  0  0  0  0  0  0  0  0  0  0  0
  150.1391  134.8646  155.4917 H   0  0  0  0  0  0  0  0  0  0  0  0
  148.9295  136.1303  155.5373 H   0  0  0  0  0  0  0  0  0  0  0  0
  151.0675  137.0718  154.7380 H   0  0  0  0  0  0  0  0  0  0  0  0
  151.9298  136.4324  156.1215 H   0  0  0  0  0  0  0  0  0  0  0  0
  1  2  1  0  0  0  0
  1 19  1  0  0  0  0
  1 20  1  0  0  0  0
  1 21  1  0  0  0  0
  2  3  1  0  0  0  0
  2  9  1  0  0  0  0
  2 22  1  0  0  0  0
  3  4  1  0  0  0  0
  3 23  1  0  0  0  0
  3 24  1  0  0  0  0
  4  8  1  0  0  0  0
  4  5  1  0  0  0  0
  5  6  2  0  0  0  0
  5 25  1  0  0  0  0
  6  7  1  0  0  0  0
  6 26  1  0  0  0  0
  7  8  2  0  0  0  0
  7 27  1  0  0  0  0
  9 10  1  0  0  0  0
 10 11  2  0  0  0  0
 10 12  2  0  0  0  0
 10 13  1  0  0  0  0
 13 18  1  0  0  0  0
 13 14  1  0  0  0  0
 14 15  1  0  0  0  0
 14 28  1  0  0  0  0
 14 29  1  0  0  0  0
 15 16  1  0  0  0  0
 15 30  1  0  0  0  0
 15 31  1  0  0  0  0
 16 17  1  0  0  0  0
 17 18  1  0  0  0  0
 17 32  1  0  0  0  0
 17 33  1  0  0  0  0
 18 34  1  0  0  0  0
 18 35  1  0  0  0  0
M  CHG  1   9  -1
M  END
> <s_m_source_file>
AV-unprocessed.smi

> <i_m_source_file_index>
1602

> <i_lp_mmshare_version>
43012

> <i_f3d_flags>
0

> <s_epik_input>
bjFbY0hdW2NIXVtjSF1uMVtDSDJdW0NAQEhdKFtDSDNdKVtOSF1TKD1PKSg9TylOMltDSDJdW0NIMl1PW0NIMl1bQ0gyXTI=

> <s_epik_cmdline>
J2VwaWtfcHl0aG9uJywgJy1waCcsICc3LjAnLCAnLXRuJywgJzgnLCAnLW1hJywgJzIwMCcsICctbWV0YWxfYmluZGluZycsICctaW1hZScsICc8aW5maWxlLm1hZT4nLCAnLW9tYWUnLCAnPG91dGZpbGUubWFlPic=

> <r_lp_tautomer_probability>
1

> <r_epik_Ionization_Penalty>
1.03144

> <r_epik_Ionization_Penalty_Charging>
1.03142

> <r_epik_Ionization_Penalty_Neutral>
2.21579e-05

> <r_epik_State_Penalty>
1.0826

> <r_epik_Charging_Adjusted_Penalty>
2.11402

> <i_epik_Tot_Q>
-1

> <i_epik_Tot_abs_Q>
1

> <r_epik_Metal_State_Penalty>
0.386234

> <b_epik_Metal_Only>
0

> <s_lp_Force_Field>
OPLS_2005

> <r_lp_Energy>
7.84511

> <b_lp_Chiralities_Consistent>
1

> <s_lp_Variant>
AV-unprocessed.smi:1602-4

> <Gold.Version>
5.8.1

> <Gold.Id.Protein>
6NUR|6NUR_protein|mol2

> <Gold.PLP.Fitness>
38.4363

> <Gold.PLP.PLP>
-30.4662

> <Gold.PLP.part.hbond>
-3.6021

> <Gold.PLP.part.metal>
0.0000

> <Gold.PLP.part.buried>
-3.7031

> <Gold.PLP.part.nonpolar>
-23.6141

> <Gold.PLP.part.repulsive>
0.1166

> <Gold.PLP.ligand.clash>
0.0000

> <Gold.PLP.ligand.torsion>
1.1898

> <Gold.PLP.Chemscore.Hbond>
2.9440

> <Gold.PLP.Chemscore.CHOScore>
0.0000

> <Gold.PLP.Chemscore.Metal>
0.0000

> <Gold.Chemscore.Hbonds>
donor molecule, donor type, donor heavy atom, donor atom, acceptor molecule, acceptor atom, score
      P1  H  7989  7998       L1    11  1.00
      P1  H  7997  8009       L1    12  1.00

> <Gold.PLP.Chemscore.Internal.Correction>
1.5178

> <Gold.Rescore>
     Score         DG    S(hbond)    S(metal)    S(lipo)     H(rot)  DE(clash)    DE(int)     intcor
     16.43     -19.12       2.85        0.00      71.75       1.67       1.38       1.31       ----

> <Gold.Chemscore.Fitness>
16.4306

> <Gold.Chemscore.DG>
-19.1166

> <Gold.Chemscore.ZeroCoef>
-5.4800

> <Gold.Chemscore.Hbond>
2.8483

> <Gold.Chemscore.Metal>
0.0000

> <Gold.Chemscore.Lipo>
71.7548

> <Gold.Chemscore.Internal_Hbond>
0.0000

> <Gold.Chemscore.DEClash>
1.3784

> <Gold.Chemscore.DEInternal>
1.3076

> <Gold.Chemscore.Rot>
1.6688

> <Gold.Chemscore.Internal.Correction>
   9.000000E+99

> <Gold.Chemscore.Hbonds>
donor molecule, donor type, donor heavy atom, donor atom, acceptor molecule, acceptor atom, score
      P1  H  7989  7998       L1    11  0.99
      P1  H  7997  8009       L1    12  0.99

> <Gold.Chemscore.Hbond.Weighted>
-9.5135

> <Gold.Chemscore.Metal.Weighted>
-0.0000

> <Gold.Chemscore.Lipo.Weighted>
-8.3953

> <Gold.Chemscore.Internal_Hbond.Weighted>
0.0000

> <Gold.Chemscore.DEClash.Weighted>
1.3784

> <Gold.Chemscore.DEInternal.Weighted>
1.3076

> <Gold.Chemscore.Rot.Weighted>
4.2722

> <Gold.Chemscore.Internal.Correction.Weighted>
   9.000000E+99

> <Gold.Protein.RotatedTorsions>
[ 6907 6896 6895 6894 ] final  -76.27 input  -60.11 | X-H torsion
[ 7974 7965 7964 7962 ] final  153.91 input  175.53 | X-H torsion
[ 8008 7997 7996 7995 ] final  176.51 input   59.86 | X-H torsion
[ 10167 10162 10161 10158 ] final   83.20 input  -65.29 | X-H torsion
[ 10718 10713 10712 10709 ] final   62.22 input   66.30 | X-H torsion
[ 10763 10752 10751 10750 ] final   -6.03 input  -60.55 | X-H torsion
[ 11005 11000 10999 10996 ] final  159.32 input  -57.11 | X-H torsion

> <Gold.Protein.ActiveResidues>
 VAL166  LYS551  ARG553  GLY616  TRP617  ASP618  TYR619  PRO620  LYS621  CYS622 
 ASP623  PHE694  ASN695  SER759  ASP760  ASP761  ALA762  ILE779  LEU786  VAL792 
 PHE793  MET794  SER795  GLU796  ALA797  LYS798  CYS799  TRP800  GLU811  SER814 

> <Gold.Protein.RotatedAtoms>
  150.7033  134.4597  159.5374 H   0  0  0  0  0  0  0  0  0  0  0  0  # atno 6907 bound_to 6896
  152.2274  134.8352  160.0487 H   0  0  0  0  0  0  0  0  0  0  0  0  # atno 6908 bound_to 6896
  151.9180  133.3543  159.3924 H   0  0  0  0  0  0  0  0  0  0  0  0  # atno 6909 bound_to 6896
  144.8123  139.6863  143.6136 H   0  0  0  0  0  0  0  0  0  0  0  0  # atno 7974 bound_to 7965
  156.0757  140.1382  156.9774 H   0  0  0  0  0  0  0  0  0  0  0  0  # atno 8008 bound_to 7997
  154.4556  140.0962  156.6799 H   0  0  0  0  0  0  0  0  0  0  0  0  # atno 8009 bound_to 7997
  155.5156  140.3455  155.4399 H   0  0  0  0  0  0  0  0  0  0  0  0  # atno 8010 bound_to 7997
  139.9209  144.6213  150.8441 H   0  0  0  0  0  0  0  0  0  0  0  0  # atno 10167 bound_to 10162
  157.5885  130.9038  149.9559 H   0  0  0  0  0  0  0  0  0  0  0  0  # atno 10718 bound_to 10713
  153.4066  135.7006  153.6388 H   0  0  0  0  0  0  0  0  0  0  0  0  # atno 10763 bound_to 10752
  153.4899  135.3675  155.2487 H   0  0  0  0  0  0  0  0  0  0  0  0  # atno 10764 bound_to 10752
  154.8714  135.4086  154.3411 H   0  0  0  0  0  0  0  0  0  0  0  0  # atno 10765 bound_to 10752
  140.1950  134.8380  157.2954 H   0  0  0  0  0  0  0  0  0  0  0  0  # atno 11005 bound_to 11000
  146.2423  139.6026  142.9483 LP  0  0  0  0  0  0  0  0  0  0  0  0  # atno 17320 bound_to 7965
  145.5295  141.0428  143.2391 LP  0  0  0  0  0  0  0  0  0  0  0  0  # atno 17321 bound_to 7965
  140.7662  143.3298  151.2435 LP  0  0  0  0  0  0  0  0  0  0  0  0  # atno 17342 bound_to 10162
  139.6863  143.9768  152.2836 LP  0  0  0  0  0  0  0  0  0  0  0  0  # atno 17343 bound_to 10162
  156.0936  130.3661  150.0348 LP  0  0  0  0  0  0  0  0  0  0  0  0  # atno 17370 bound_to 10713
  156.8475  130.9447  151.3628 LP  0  0  0  0  0  0  0  0  0  0  0  0  # atno 17371 bound_to 10713
  140.2117  134.4130  155.7609 LP  0  0  0  0  0  0  0  0  0  0  0  0  # atno 17394 bound_to 11000
  141.2227  133.7122  156.8349 LP  0  0  0  0  0  0  0  0  0  0  0  0  # atno 17395 bound_to 11000

$$$$
