AV-unprocessed.smi:2558|AV-procd|sdf|10033|dock7
  -GOLD-   2272014 73D 1   1.00000     0.00000
 Structure written by MMmdl.
 42 43  0  0  0  0  0  0  0  0  2 V2000
  147.0532  133.5602  157.0498 C   0  0  0  0  0  0  0  0  0  0  0  0
  148.8411  133.1229  157.0744 S   0  0  0  0  0  0  0  0  0  0  0  0
  149.5169  133.9829  158.0594 O   0  0  0  0  0  0  0  0  0  0  0  0
  148.9542  131.6608  157.1993 O   0  0  0  0  0  0  0  0  0  0  0  0
  149.3652  133.5735  155.4649 N   0  0  0  0  0  0  0  0  0  0  0  0
  149.6421  132.6325  154.4436 C   0  0  0  0  0  0  0  0  0  0  0  0
  150.1728  131.5609  154.7440 O   0  0  0  0  0  0  0  0  0  0  0  0
  149.1546  133.0114  153.2313 N   0  5  0  0  0  0  0  0  0  0  0  0
  147.8386  133.1396  152.9269 C   0  0  0  0  0  0  0  0  0  0  0  0
  146.9322  133.4937  153.6842 O   0  0  0  0  0  0  0  0  0  0  0  0
  147.5711  132.8047  151.6520 N   0  0  0  0  0  0  0  0  0  0  0  0
  146.3322  132.8645  150.9600 C   0  0  0  0  0  0  0  0  0  0  0  0
  145.3323  133.7247  151.4572 C   0  0  0  0  0  0  0  0  0  0  0  0
  144.0870  133.7771  150.8026 C   0  0  0  0  0  0  0  0  0  0  0  0
  143.8872  132.9532  149.6781 C   0  0  0  0  0  0  0  0  0  0  0  0
  144.8267  132.1105  149.1998 N   0  0  0  0  0  0  0  0  0  0  0  0
  146.0204  132.0678  149.8309 C   0  0  0  0  0  0  0  0  0  0  0  0
  149.5873  135.0262  155.2263 C   0  0  0  0  0  0  0  0  0  0  0  0
  150.8161  135.5630  155.9902 C   0  0  0  0  0  0  0  0  0  0  0  0
  151.0708  137.0392  155.6432 C   0  0  0  0  0  0  0  0  0  0  0  0
  149.8204  137.8990  155.8968 C   0  0  0  0  0  0  0  0  0  0  0  0
  148.6017  137.3625  155.1260 C   0  0  0  0  0  0  0  0  0  0  0  0
  148.3278  135.8901  155.4728 C   0  0  0  0  0  0  0  0  0  0  0  0
  146.6030  133.2952  158.0059 H   0  0  0  0  0  0  0  0  0  0  0  0
  146.5554  133.0135  156.2494 H   0  0  0  0  0  0  0  0  0  0  0  0
  146.9407  134.6307  156.8806 H   0  0  0  0  0  0  0  0  0  0  0  0
  148.3412  132.4081  151.1340 H   0  0  0  0  0  0  0  0  0  0  0  0
  145.5168  134.3409  152.3252 H   0  0  0  0  0  0  0  0  0  0  0  0
  143.3037  134.4317  151.1549 H   0  0  0  0  0  0  0  0  0  0  0  0
  142.9438  132.9662  149.1524 H   0  0  0  0  0  0  0  0  0  0  0  0
  146.7243  131.3563  149.4267 H   0  0  0  0  0  0  0  0  0  0  0  0
  149.8107  135.1484  154.1665 H   0  0  0  0  0  0  0  0  0  0  0  0
  150.6729  135.4743  157.0665 H   0  0  0  0  0  0  0  0  0  0  0  0
  151.6977  134.9696  155.7457 H   0  0  0  0  0  0  0  0  0  0  0  0
  151.9079  137.4186  156.2295 H   0  0  0  0  0  0  0  0  0  0  0  0
  151.3645  137.1223  154.5960 H   0  0  0  0  0  0  0  0  0  0  0  0
  149.5987  137.9127  156.9648 H   0  0  0  0  0  0  0  0  0  0  0  0
  150.0164  138.9321  155.6087 H   0  0  0  0  0  0  0  0  0  0  0  0
  147.7228  137.9665  155.3524 H   0  0  0  0  0  0  0  0  0  0  0  0
  148.7753  137.4598  154.0534 H   0  0  0  0  0  0  0  0  0  0  0  0
  147.4949  135.5177  154.8753 H   0  0  0  0  0  0  0  0  0  0  0  0
  148.0124  135.8342  156.5149 H   0  0  0  0  0  0  0  0  0  0  0  0
  1  2  1  0  0  0  0
  1 24  1  0  0  0  0
  1 25  1  0  0  0  0
  1 26  1  0  0  0  0
  2  3  2  0  0  0  0
  2  4  2  0  0  0  0
  2  5  1  0  0  0  0
  5  6  1  0  0  0  0
  5 18  1  0  0  0  0
  6  7  2  0  0  0  0
  6  8  1  0  0  0  0
  8  9  1  0  0  0  0
  9 10  2  0  0  0  0
  9 11  1  0  0  0  0
 11 12  1  0  0  0  0
 11 27  1  0  0  0  0
 12 17  1  0  0  0  0
 12 13  2  0  0  0  0
 13 14  1  0  0  0  0
 13 28  1  0  0  0  0
 14 15  2  0  0  0  0
 14 29  1  0  0  0  0
 15 16  1  0  0  0  0
 15 30  1  0  0  0  0
 16 17  2  0  0  0  0
 17 31  1  0  0  0  0
 18 23  1  0  0  0  0
 18 19  1  0  0  0  0
 18 32  1  0  0  0  0
 19 20  1  0  0  0  0
 19 33  1  0  0  0  0
 19 34  1  0  0  0  0
 20 21  1  0  0  0  0
 20 35  1  0  0  0  0
 20 36  1  0  0  0  0
 21 22  1  0  0  0  0
 21 37  1  0  0  0  0
 21 38  1  0  0  0  0
 22 23  1  0  0  0  0
 22 39  1  0  0  0  0
 22 40  1  0  0  0  0
 23 41  1  0  0  0  0
 23 42  1  0  0  0  0
M  CHG  1   8  -1
M  END
> <s_m_source_file>
AV-unprocessed.smi

> <i_m_source_file_index>
2558

> <i_lp_mmshare_version>
43012

> <i_f3d_flags>
0

> <s_epik_input>
W0NIMl0xW0NIMl1bQ0gyXVtDSDJdW0NIMl1bQ0hdMU4oUyg9TykoPU8pW0NIM10pQyg9TylbTkhdQyg9TylbTkhdYzJbY0hdW2NIXVtjSF1uW2NIXTI=

> <s_epik_cmdline>
J2VwaWtfcHl0aG9uJywgJy1waCcsICc3LjAnLCAnLXRuJywgJzgnLCAnLW1hJywgJzIwMCcsICctbWV0YWxfYmluZGluZycsICctaW1hZScsICc8aW5maWxlLm1hZT4nLCAnLW9tYWUnLCAnPG91dGZpbGUubWFlPic=

> <r_epik_Ionization_Penalty>
6.14208

> <r_epik_Ionization_Penalty_Charging>
6.14039

> <r_epik_Ionization_Penalty_Neutral>
0.00168563

> <r_epik_State_Penalty>
6.14513

> <r_epik_Charging_Adjusted_Penalty>
12.2855

> <i_epik_Tot_Q>
-1

> <i_epik_Tot_abs_Q>
1

> <r_epik_Metal_State_Penalty>
2.09011

> <b_epik_Metal_Only>
1

> <s_lp_Force_Field>
OPLS_2005

> <r_lp_Energy>
23.9967

> <b_lp_Chiralities_Consistent>
1

> <s_lp_Variant>
AV-unprocessed.smi:2558-2

> <Gold.Version>
5.8.1

> <Gold.Id.Protein>
6NUR|6NUR_protein|mol2

> <Gold.PLP.Fitness>
41.1304

> <Gold.PLP.PLP>
-31.4875

> <Gold.PLP.part.hbond>
-2.5161

> <Gold.PLP.part.metal>
0.0000

> <Gold.PLP.part.buried>
-5.3864

> <Gold.PLP.part.nonpolar>
-24.5221

> <Gold.PLP.part.repulsive>
0.5279

> <Gold.PLP.ligand.clash>
0.0000

> <Gold.PLP.ligand.torsion>
2.7801

> <Gold.PLP.Chemscore.Hbond>
2.0000

> <Gold.PLP.Chemscore.CHOScore>
1.9320

> <Gold.PLP.Chemscore.Metal>
0.0000

> <Gold.Chemscore.Hbonds>
donor molecule, donor type, donor heavy atom, donor atom, acceptor molecule, acceptor atom, score
      L1  H    11    27       P1 10747  0.91
      P1  H  6896  6908       L1     3  1.00
      L1  C    15    30       P1 10186  0.97
      L1  C    17    31       P1 10747  0.96

> <Gold.PLP.Chemscore.Internal.Correction>
3.4070

> <Gold.Rescore>
     Score         DG    S(hbond)    S(metal)    S(lipo)     H(rot)  DE(clash)    DE(int)     intcor
     10.31     -18.08       2.22        0.00      66.19       1.00       0.06       7.72       ----

> <Gold.Chemscore.Fitness>
10.3091

> <Gold.Chemscore.DG>
-18.0827

> <Gold.Chemscore.ZeroCoef>
-5.4800

> <Gold.Chemscore.Hbond>
2.2210

> <Gold.Chemscore.Metal>
0.0000

> <Gold.Chemscore.Lipo>
66.1946

> <Gold.Chemscore.Internal_Hbond>
0.0000

> <Gold.Chemscore.DEClash>
0.0562

> <Gold.Chemscore.DEInternal>
7.7174

> <Gold.Chemscore.Rot>
1.0000

> <Gold.Chemscore.Internal.Correction>
   9.000000E+99

> <Gold.Chemscore.Hbonds>
donor molecule, donor type, donor heavy atom, donor atom, acceptor molecule, acceptor atom, score
      L1  H    11    27       P1 10747  0.90
      P1  H  6896  6908       L1     3  0.99

> <Gold.Chemscore.Hbond.Weighted>
-7.4180

> <Gold.Chemscore.Metal.Weighted>
-0.0000

> <Gold.Chemscore.Lipo.Weighted>
-7.7448

> <Gold.Chemscore.Internal_Hbond.Weighted>
0.0000

> <Gold.Chemscore.DEClash.Weighted>
0.0562

> <Gold.Chemscore.DEInternal.Weighted>
7.7174

> <Gold.Chemscore.Rot.Weighted>
2.5600

> <Gold.Chemscore.Internal.Correction.Weighted>
   9.000000E+99

> <Gold.Protein.RotatedTorsions>
[ 6907 6896 6895 6894 ] final  118.57 input  -60.11 | X-H torsion
[ 7974 7965 7964 7962 ] final -137.89 input  175.53 | X-H torsion
[ 8008 7997 7996 7995 ] final -129.30 input   59.86 | X-H torsion
[ 10167 10162 10161 10158 ] final   49.26 input  -65.29 | X-H torsion
[ 10718 10713 10712 10709 ] final  -44.39 input   66.30 | X-H torsion
[ 10763 10752 10751 10750 ] final    2.44 input  -60.55 | X-H torsion
[ 11005 11000 10999 10996 ] final   83.28 input  -57.11 | X-H torsion

> <Gold.Protein.ActiveResidues>
 VAL166  LYS551  ARG553  GLY616  TRP617  ASP618  TYR619  PRO620  LYS621  CYS622 
 ASP623  PHE694  ASN695  SER759  ASP760  ASP761  ALA762  ILE779  LEU786  VAL792 
 PHE793  MET794  SER795  GLU796  ALA797  LYS798  CYS799  TRP800  GLU811  SER814 

> <Gold.Protein.RotatedAtoms>
  152.4533  133.7673  159.6779 H   0  0  0  0  0  0  0  0  0  0  0  0  # atno 6907 bound_to 6896
  150.8452  133.7863  159.3052 H   0  0  0  0  0  0  0  0  0  0  0  0  # atno 6908 bound_to 6896
  151.5476  135.1070  159.9993 H   0  0  0  0  0  0  0  0  0  0  0  0  # atno 6909 bound_to 6896
  144.8804  140.6498  143.5210 H   0  0  0  0  0  0  0  0  0  0  0  0  # atno 7974 bound_to 7965
  155.2770  140.0442  157.3012 H   0  0  0  0  0  0  0  0  0  0  0  0  # atno 8008 bound_to 7997
  154.5619  140.2348  155.8290 H   0  0  0  0  0  0  0  0  0  0  0  0  # atno 8009 bound_to 7997
  156.2054  140.3014  155.9623 H   0  0  0  0  0  0  0  0  0  0  0  0  # atno 8010 bound_to 7997
  140.2848  144.3115  150.6255 H   0  0  0  0  0  0  0  0  0  0  0  0  # atno 10167 bound_to 10162
  156.2391  130.4178  149.8782 H   0  0  0  0  0  0  0  0  0  0  0  0  # atno 10718 bound_to 10713
  153.2956  135.6952  153.7252 H   0  0  0  0  0  0  0  0  0  0  0  0  # atno 10763 bound_to 10752
  153.6186  135.3431  155.3004 H   0  0  0  0  0  0  0  0  0  0  0  0  # atno 10764 bound_to 10752
  154.8536  135.4380  154.2051 H   0  0  0  0  0  0  0  0  0  0  0  0  # atno 10765 bound_to 10752
  139.9036  134.8133  156.2289 H   0  0  0  0  0  0  0  0  0  0  0  0  # atno 11005 bound_to 11000
  145.3965  139.1606  143.4200 LP  0  0  0  0  0  0  0  0  0  0  0  0  # atno 17320 bound_to 7965
  146.2990  140.4059  142.8711 LP  0  0  0  0  0  0  0  0  0  0  0  0  # atno 17321 bound_to 7965
  140.5782  143.2175  151.7477 LP  0  0  0  0  0  0  0  0  0  0  0  0  # atno 17342 bound_to 10162
  139.4953  144.4119  152.0072 LP  0  0  0  0  0  0  0  0  0  0  0  0  # atno 17343 bound_to 10162
  156.6369  130.8689  151.3506 LP  0  0  0  0  0  0  0  0  0  0  0  0  # atno 17370 bound_to 10713
  157.7167  130.9506  150.1283 LP  0  0  0  0  0  0  0  0  0  0  0  0  # atno 17371 bound_to 10713
  141.0358  133.6964  156.1510 LP  0  0  0  0  0  0  0  0  0  0  0  0  # atno 17394 bound_to 11000
  140.7029  134.4545  157.5585 LP  0  0  0  0  0  0  0  0  0  0  0  0  # atno 17395 bound_to 11000

$$$$
