AV-unprocessed.smi:1945|AV-procd|sdf|7859|dock9
  -GOLD-   2272010 03D 1   1.00000     0.00000
 Structure written by MMmdl.
 47 48  0  0  0  0  0  0  0  0  1 V2000
  148.9112  129.1673  153.6306 C   0  0  0  0  0  0  0  0  0  0  0  0
  148.7862  130.6492  153.4344 C   0  0  0  0  0  0  0  0  0  0  0  0
  149.6746  131.6715  153.8768 C   0  0  0  0  0  0  0  0  0  0  0  0
  149.0694  132.8129  153.4264 C   0  0  0  0  0  0  0  0  0  0  0  0
  149.4784  134.1021  153.5620 N   0  0  0  0  0  0  0  0  0  0  0  0
  150.2188  134.6436  154.5442 C   0  0  0  0  0  0  0  0  0  0  0  0
  150.7696  134.0173  155.4500 O   0  0  0  0  0  0  0  0  0  0  0  0
  150.2640  135.9793  154.4346 N   0  0  0  0  0  0  0  0  0  0  0  0
  150.8276  136.8797  155.4354 C   0  0  0  0  0  0  0  0  0  0  0  0
  150.5951  138.3467  155.0435 C   0  0  0  0  0  0  0  0  0  0  0  0
  150.7373  139.1596  156.1985 O   0  0  0  0  0  0  0  0  0  0  0  0
  151.1203  140.5056  155.9464 C   0  0  2  0  0  0  0  0  0  0  0  0
  151.8814  141.0082  157.1873 C   0  0  0  0  0  0  0  0  0  0  0  0
  150.9718  141.0879  158.4255 C   0  0  0  0  0  0  0  0  0  0  0  0
  149.7307  141.9509  158.1524 C   0  0  0  0  0  0  0  0  0  0  0  0
  148.9601  141.4475  156.9218 C   0  0  0  0  0  0  0  0  0  0  0  0
  149.8679  141.3764  155.6771 C   0  0  2  0  0  0  0  0  0  0  0  0
  149.0863  140.9355  154.4302 C   0  0  0  0  0  0  0  0  0  0  0  0
  147.9106  132.4700  152.7629 N   0  0  0  0  0  0  0  0  0  0  0  0
  146.9227  133.3063  152.1082 C   0  0  0  0  0  0  0  0  0  0  0  0
  147.7403  131.1305  152.7724 N   0  0  0  0  0  0  0  0  0  0  0  0
  149.7991  128.9206  154.2129 H   0  0  0  0  0  0  0  0  0  0  0  0
  148.9879  128.6500  152.6741 H   0  0  0  0  0  0  0  0  0  0  0  0
  148.0462  128.7668  154.1597 H   0  0  0  0  0  0  0  0  0  0  0  0
  150.5960  131.5634  154.4294 H   0  0  0  0  0  0  0  0  0  0  0  0
  149.0948  134.7477  152.8881 H   0  0  0  0  0  0  0  0  0  0  0  0
  149.7971  136.4092  153.6498 H   0  0  0  0  0  0  0  0  0  0  0  0
  150.4185  136.6740  156.4259 H   0  0  0  0  0  0  0  0  0  0  0  0
  151.8983  136.6841  155.4955 H   0  0  0  0  0  0  0  0  0  0  0  0
  151.3229  138.6593  154.2938 H   0  0  0  0  0  0  0  0  0  0  0  0
  149.6044  138.4593  154.6009 H   0  0  0  0  0  0  0  0  0  0  0  0
  151.7962  140.5613  155.0908 H   0  0  0  0  0  0  0  0  0  0  0  0
  152.7313  140.3564  157.3918 H   0  0  0  0  0  0  0  0  0  0  0  0
  152.2959  141.9956  156.9812 H   0  0  0  0  0  0  0  0  0  0  0  0
  150.6604  140.0843  158.7184 H   0  0  0  0  0  0  0  0  0  0  0  0
  151.5289  141.4954  159.2693 H   0  0  0  0  0  0  0  0  0  0  0  0
  149.0777  141.9493  159.0258 H   0  0  0  0  0  0  0  0  0  0  0  0
  150.0336  142.9868  157.9950 H   0  0  0  0  0  0  0  0  0  0  0  0
  148.5379  140.4644  157.1324 H   0  0  0  0  0  0  0  0  0  0  0  0
  148.1136  142.1074  156.7293 H   0  0  0  0  0  0  0  0  0  0  0  0
  150.2211  142.3894  155.4782 H   0  0  0  0  0  0  0  0  0  0  0  0
  148.6534  139.9439  154.5582 H   0  0  0  0  0  0  0  0  0  0  0  0
  149.7306  140.9099  153.5511 H   0  0  0  0  0  0  0  0  0  0  0  0
  148.2684  141.6245  154.2187 H   0  0  0  0  0  0  0  0  0  0  0  0
  147.1374  134.3616  152.2761 H   0  0  0  0  0  0  0  0  0  0  0  0
  145.9316  133.0841  152.5050 H   0  0  0  0  0  0  0  0  0  0  0  0
  146.9297  133.1102  151.0359 H   0  0  0  0  0  0  0  0  0  0  0  0
  1  2  1  0  0  0  0
  1 22  1  0  0  0  0
  1 23  1  0  0  0  0
  1 24  1  0  0  0  0
  2 21  2  0  0  0  0
  2  3  1  0  0  0  0
  3  4  2  0  0  0  0
  3 25  1  0  0  0  0
  4  5  1  0  0  0  0
  4 19  1  0  0  0  0
  5  6  1  0  0  0  0
  5 26  1  0  0  0  0
  6  7  2  0  0  0  0
  6  8  1  0  0  0  0
  8  9  1  0  0  0  0
  8 27  1  0  0  0  0
  9 10  1  0  0  0  0
  9 28  1  0  0  0  0
  9 29  1  0  0  0  0
 10 11  1  0  0  0  0
 10 30  1  0  0  0  0
 10 31  1  0  0  0  0
 11 12  1  0  0  0  0
 12 17  1  0  0  0  0
 12 13  1  0  0  0  0
 12 32  1  0  0  0  0
 13 14  1  0  0  0  0
 13 33  1  0  0  0  0
 13 34  1  0  0  0  0
 14 15  1  0  0  0  0
 14 35  1  0  0  0  0
 14 36  1  0  0  0  0
 15 16  1  0  0  0  0
 15 37  1  0  0  0  0
 15 38  1  0  0  0  0
 16 17  1  0  0  0  0
 16 39  1  0  0  0  0
 16 40  1  0  0  0  0
 17 18  1  0  0  0  0
 17 41  1  0  0  0  0
 18 42  1  0  0  0  0
 18 43  1  0  0  0  0
 18 44  1  0  0  0  0
 19 20  1  0  0  0  0
 19 21  1  0  0  0  0
 20 45  1  0  0  0  0
 20 46  1  0  0  0  0
 20 47  1  0  0  0  0
M  END
> <s_m_source_file>
AV-unprocessed.smi

> <i_m_source_file_index>
1945

> <i_lp_mmshare_version>
43012

> <i_f3d_flags>
0

> <s_epik_input>
W0NIM11jMVtjSF1jKG4objEpW0NIM10pW05IXUMoPU8pW05IXVtDSDJdW0NIMl1PW0NAQEhdMltDSDJdW0NIMl1bQ0gyXVtDSDJdW0NASF0yW0NIM10=

> <s_epik_cmdline>
J2VwaWtfcHl0aG9uJywgJy1waCcsICc3LjAnLCAnLXRuJywgJzgnLCAnLW1hJywgJzIwMCcsICctbWV0YWxfYmluZGluZycsICctaW1hZScsICc8aW5maWxlLm1hZT4nLCAnLW9tYWUnLCAnPG91dGZpbGUubWFlPic=

> <r_lp_tautomer_probability>
1

> <r_epik_Ionization_Penalty>
9.47735e-05

> <r_epik_Ionization_Penalty_Charging>
0

> <r_epik_Ionization_Penalty_Neutral>
9.47735e-05

> <r_epik_State_Penalty>
-0

> <r_epik_Charging_Adjusted_Penalty>
0

> <i_epik_Tot_Q>
0

> <i_epik_Tot_abs_Q>
0

> <r_epik_Metal_State_Penalty>
-0

> <b_epik_Metal_Only>
0

> <s_lp_Force_Field>
OPLS_2005

> <r_lp_Energy>
12.3815

> <b_lp_Chiralities_Consistent>
1

> <s_lp_Variant>
AV-unprocessed.smi:1945-3

> <Gold.Version>
5.8.1

> <Gold.Id.Protein>
6NUR|6NUR_protein|mol2

> <Gold.PLP.Fitness>
39.2887

> <Gold.PLP.PLP>
-35.6809

> <Gold.PLP.part.hbond>
-2.3577

> <Gold.PLP.part.metal>
0.0000

> <Gold.PLP.part.buried>
-5.1238

> <Gold.PLP.part.nonpolar>
-29.2494

> <Gold.PLP.part.repulsive>
0.3575

> <Gold.PLP.ligand.clash>
0.0000

> <Gold.PLP.ligand.torsion>
0.7398

> <Gold.PLP.Chemscore.Hbond>
1.6920

> <Gold.PLP.Chemscore.CHOScore>
0.0000

> <Gold.PLP.Chemscore.Metal>
0.0000

> <Gold.Chemscore.Hbonds>
donor molecule, donor type, donor heavy atom, donor atom, acceptor molecule, acceptor atom, score
      L1  H     5    26       P1  7948  0.40
      L1  H     8    27       P1  7948  0.98

> <Gold.PLP.Chemscore.Internal.Correction>
0.0115

> <Gold.Rescore>
     Score         DG    S(hbond)    S(metal)    S(lipo)     H(rot)  DE(clash)    DE(int)     intcor
     12.99     -13.94       1.43        0.00      67.26       1.63       0.02       0.94       ----

> <Gold.Chemscore.Fitness>
12.9882

> <Gold.Chemscore.DG>
-13.9433

> <Gold.Chemscore.ZeroCoef>
-5.4800

> <Gold.Chemscore.Hbond>
1.4284

> <Gold.Chemscore.Metal>
0.0000

> <Gold.Chemscore.Lipo>
67.2586

> <Gold.Chemscore.Internal_Hbond>
0.0000

> <Gold.Chemscore.DEClash>
0.0156

> <Gold.Chemscore.DEInternal>
0.9394

> <Gold.Chemscore.Rot>
1.6316

> <Gold.Chemscore.Internal.Correction>
   9.000000E+99

> <Gold.Chemscore.Hbonds>
donor molecule, donor type, donor heavy atom, donor atom, acceptor molecule, acceptor atom, score
      L1  H     5    26       P1  7948  0.01
      L1  H     8    27       P1  7948  0.32

> <Gold.Chemscore.Hbond.Weighted>
-4.7708

> <Gold.Chemscore.Metal.Weighted>
-0.0000

> <Gold.Chemscore.Lipo.Weighted>
-7.8693

> <Gold.Chemscore.Internal_Hbond.Weighted>
0.0000

> <Gold.Chemscore.DEClash.Weighted>
0.0156

> <Gold.Chemscore.DEInternal.Weighted>
0.9394

> <Gold.Chemscore.Rot.Weighted>
4.1768

> <Gold.Chemscore.Internal.Correction.Weighted>
   9.000000E+99

> <Gold.Protein.RotatedTorsions>
[ 6907 6896 6895 6894 ] final -105.37 input  -60.11 | X-H torsion
[ 7974 7965 7964 7962 ] final   96.44 input  175.53 | X-H torsion
[ 8008 7997 7996 7995 ] final  -10.20 input   59.86 | X-H torsion
[ 10167 10162 10161 10158 ] final  -18.08 input  -65.29 | X-H torsion
[ 10718 10713 10712 10709 ] final  138.08 input   66.30 | X-H torsion
[ 10763 10752 10751 10750 ] final -146.68 input  -60.55 | X-H torsion
[ 11005 11000 10999 10996 ] final -105.64 input  -57.11 | X-H torsion

> <Gold.Protein.ActiveResidues>
 VAL166  LYS551  ARG553  GLY616  TRP617  ASP618  TYR619  PRO620  LYS621  CYS622 
 ASP623  PHE694  ASN695  SER759  ASP760  ASP761  ALA762  ILE779  LEU786  VAL792 
 PHE793  MET794  SER795  GLU796  ALA797  LYS798  CYS799  TRP800  GLU811  SER814 

> <Gold.Protein.RotatedAtoms>
  150.7333  134.0136  159.3677 H   0  0  0  0  0  0  0  0  0  0  0  0  # atno 6907 bound_to 6896
  151.8097  135.0682  160.0420 H   0  0  0  0  0  0  0  0  0  0  0  0  # atno 6908 bound_to 6896
  152.3081  133.5688  159.5699 H   0  0  0  0  0  0  0  0  0  0  0  0  # atno 6909 bound_to 6896
  145.4388  139.2303  143.3103 H   0  0  0  0  0  0  0  0  0  0  0  0  # atno 7974 bound_to 7965
  154.5576  140.2335  155.8386 H   0  0  0  0  0  0  0  0  0  0  0  0  # atno 8008 bound_to 7997
  156.2002  140.3054  155.9470 H   0  0  0  0  0  0  0  0  0  0  0  0  # atno 8009 bound_to 7997
  155.2950  140.0428  157.3016 H   0  0  0  0  0  0  0  0  0  0  0  0  # atno 8010 bound_to 7997
  140.7254  143.4952  150.9940 H   0  0  0  0  0  0  0  0  0  0  0  0  # atno 10167 bound_to 10162
  157.4292  131.1047  151.0268 H   0  0  0  0  0  0  0  0  0  0  0  0  # atno 10718 bound_to 10713
  154.8324  135.3380  154.6700 H   0  0  0  0  0  0  0  0  0  0  0  0  # atno 10763 bound_to 10752
  153.7318  135.6951  153.4992 H   0  0  0  0  0  0  0  0  0  0  0  0  # atno 10764 bound_to 10752
  153.2306  135.4417  155.0543 H   0  0  0  0  0  0  0  0  0  0  0  0  # atno 10765 bound_to 10752
  141.1044  133.8825  157.1758 H   0  0  0  0  0  0  0  0  0  0  0  0  # atno 11005 bound_to 11000
  146.2568  140.5133  142.8870 LP  0  0  0  0  0  0  0  0  0  0  0  0  # atno 17320 bound_to 7965
  144.8135  140.6427  143.6399 LP  0  0  0  0  0  0  0  0  0  0  0  0  # atno 17321 bound_to 7965
  139.8659  143.7255  152.3170 LP  0  0  0  0  0  0  0  0  0  0  0  0  # atno 17342 bound_to 10162
  139.7487  144.7540  151.0540 LP  0  0  0  0  0  0  0  0  0  0  0  0  # atno 17343 bound_to 10162
  157.1171  130.6046  149.5496 LP  0  0  0  0  0  0  0  0  0  0  0  0  # atno 17370 bound_to 10713
  155.9907  130.4959  150.7269 LP  0  0  0  0  0  0  0  0  0  0  0  0  # atno 17371 bound_to 10713
  139.9908  135.0065  156.9969 LP  0  0  0  0  0  0  0  0  0  0  0  0  # atno 17394 bound_to 11000
  140.4941  134.1164  155.7238 LP  0  0  0  0  0  0  0  0  0  0  0  0  # atno 17395 bound_to 11000

$$$$
