AV-unprocessed.smi:948|AV-procd|sdf|4240|dock3
  -GOLD-   22720 2153D 1   1.00000     0.00000
 Structure written by MMmdl.
 18 18  0  0  0  0  0  0  0  0  2 V2000
  142.2822  132.4383  148.1931 N   0  3  0  0  0  0  0  0  0  0  0  0
  143.7096  132.7377  148.3958 C   0  0  0  0  0  0  0  0  0  0  0  0
  144.1814  132.3000  149.7892 C   0  0  0  0  0  0  0  0  0  0  0  0
  145.0254  133.3445  150.4530 C   0  0  0  0  0  0  0  0  0  0  0  0
  146.3598  133.2872  150.7932 C   0  0  0  0  0  0  0  0  0  0  0  0
  146.6455  134.5088  151.3778 N   0  0  0  0  0  0  0  0  0  0  0  0
  145.5187  135.2261  151.3675 C   0  0  0  0  0  0  0  0  0  0  0  0
  144.4935  134.5834  150.8207 N   0  0  0  0  0  0  0  0  0  0  0  0
  147.5389  134.8035  151.7460 H   0  0  0  0  0  0  0  0  0  0  0  0
  142.0768  132.4315  147.2042 H   0  0  0  0  0  0  0  0  0  0  0  0
  141.7214  133.1451  148.6474 H   0  0  0  0  0  0  0  0  0  0  0  0
  144.2879  132.2296  147.6234 H   0  0  0  0  0  0  0  0  0  0  0  0
  143.8631  133.8090  148.2609 H   0  0  0  0  0  0  0  0  0  0  0  0
  143.3163  132.0753  150.4146 H   0  0  0  0  0  0  0  0  0  0  0  0
  144.7432  131.3686  149.7076 H   0  0  0  0  0  0  0  0  0  0  0  0
  147.1008  132.5103  150.6743 H   0  0  0  0  0  0  0  0  0  0  0  0
  145.4484  136.2282  151.7645 H   0  0  0  0  0  0  0  0  0  0  0  0
  142.0671  131.5336  148.5873 H   0  0  0  0  0  0  0  0  0  0  0  0
  1  2  1  0  0  0  0
  1 10  1  0  0  0  0
  1 11  1  0  0  0  0
  1 18  1  0  0  0  0
  2  3  1  0  0  0  0
  2 12  1  0  0  0  0
  2 13  1  0  0  0  0
  3  4  1  0  0  0  0
  3 14  1  0  0  0  0
  3 15  1  0  0  0  0
  4  8  1  0  0  0  0
  4  5  2  0  0  0  0
  5  6  1  0  0  0  0
  5 16  1  0  0  0  0
  6  9  1  0  0  0  0
  6  7  1  0  0  0  0
  7  8  2  0  0  0  0
  7 17  1  0  0  0  0
M  CHG  1   1   1
M  END
> <s_m_source_file>
AV-unprocessed.smi

> <i_m_source_file_index>
948

> <i_lp_mmshare_version>
43012

> <i_f3d_flags>
0

> <s_epik_input>
W05IMl1bQ0gyXVtDSDJdYzFbY0hdW25IXVtjSF1uMQ==

> <s_epik_cmdline>
J2VwaWtfcHl0aG9uJywgJy1waCcsICc3LjAnLCAnLXRuJywgJzgnLCAnLW1hJywgJzIwMCcsICctbWV0YWxfYmluZGluZycsICctaW1hZScsICc8aW5maWxlLm1hZT4nLCAnLW9tYWUnLCAnPG91dGZpbGUubWFlPic=

> <r_lp_tautomer_probability>
0.5

> <r_epik_Ionization_Penalty>
0.0855475

> <r_epik_Ionization_Penalty_Charging>
0.085547

> <r_epik_Ionization_Penalty_Neutral>
5.68955e-07

> <r_epik_State_Penalty>
0.507598

> <r_epik_Charging_Adjusted_Penalty>
0.593145

> <i_epik_Tot_Q>
1

> <i_epik_Tot_abs_Q>
1

> <r_epik_Metal_State_Penalty>
0.442189

> <b_epik_Metal_Only>
0

> <s_lp_Force_Field>
OPLS_2005

> <r_lp_Energy>
1.58709

> <b_lp_Chiralities_Consistent>
1

> <s_lp_Variant>
AV-unprocessed.smi:948-2

> <Gold.Version>
5.8.1

> <Gold.Id.Protein>
6NUR|6NUR_protein|mol2

> <Gold.PLP.Fitness>
38.2784

> <Gold.PLP.PLP>
-21.0713

> <Gold.PLP.part.hbond>
-4.0000

> <Gold.PLP.part.metal>
0.0000

> <Gold.PLP.part.buried>
-3.1540

> <Gold.PLP.part.nonpolar>
-14.0048

> <Gold.PLP.part.repulsive>
0.4937

> <Gold.PLP.ligand.clash>
0.0000

> <Gold.PLP.ligand.torsion>
0.3506

> <Gold.PLP.Chemscore.Hbond>
4.9920

> <Gold.PLP.Chemscore.CHOScore>
0.9774

> <Gold.PLP.Chemscore.Metal>
0.0000

> <Gold.Chemscore.Hbonds>
donor molecule, donor type, donor heavy atom, donor atom, acceptor molecule, acceptor atom, score
      L1  H     1    10       P1 10195  1.00
      L1  H     1    11       P1 10186  2.00
      L1  H     1    18       P1 10952  0.98
      L1  H     6     9       P1  7948  0.96
      L1  C     5    16       P1 10747  1.00

> <Gold.PLP.Chemscore.Internal.Correction>
0.0000

> <Gold.Rescore>
     Score         DG    S(hbond)    S(metal)    S(lipo)     H(rot)  DE(clash)    DE(int)     intcor
     18.79     -19.14       3.84        0.00      40.29       1.51       0.00       0.35       ----

> <Gold.Chemscore.Fitness>
18.7941

> <Gold.Chemscore.DG>
-19.1435

> <Gold.Chemscore.ZeroCoef>
-5.4800

> <Gold.Chemscore.Hbond>
3.8391

> <Gold.Chemscore.Metal>
0.0000

> <Gold.Chemscore.Lipo>
40.2858

> <Gold.Chemscore.Internal_Hbond>
0.0000

> <Gold.Chemscore.DEClash>
0.0000

> <Gold.Chemscore.DEInternal>
0.3494

> <Gold.Chemscore.Rot>
1.5127

> <Gold.Chemscore.Internal.Correction>
   9.000000E+99

> <Gold.Chemscore.Hbonds>
donor molecule, donor type, donor heavy atom, donor atom, acceptor molecule, acceptor atom, score
      L1  H     1    10       P1 10195  0.98
      L1  H     1    11       P1 10186  1.00
      L1  H     1    18       P1 10952  0.92
      L1  H     6     9       P1  7948  0.55

> <Gold.Chemscore.Hbond.Weighted>
-12.8227

> <Gold.Chemscore.Metal.Weighted>
-0.0000

> <Gold.Chemscore.Lipo.Weighted>
-4.7134

> <Gold.Chemscore.Internal_Hbond.Weighted>
0.0000

> <Gold.Chemscore.DEClash.Weighted>
0.0000

> <Gold.Chemscore.DEInternal.Weighted>
0.3494

> <Gold.Chemscore.Rot.Weighted>
3.8726

> <Gold.Chemscore.Internal.Correction.Weighted>
   9.000000E+99

> <Gold.Protein.RotatedTorsions>
[ 6907 6896 6895 6894 ] final  159.20 input  -60.11 | X-H torsion
[ 7974 7965 7964 7962 ] final -148.65 input  175.53 | X-H torsion
[ 8008 7997 7996 7995 ] final -111.41 input   59.86 | X-H torsion
[ 10167 10162 10161 10158 ] final -144.65 input  -65.29 | X-H torsion
[ 10718 10713 10712 10709 ] final -158.17 input   66.30 | X-H torsion
[ 10763 10752 10751 10750 ] final    3.89 input  -60.55 | X-H torsion
[ 11005 11000 10999 10996 ] final -104.44 input  -57.11 | X-H torsion

> <Gold.Protein.ActiveResidues>
 VAL166  LYS551  ARG553  GLY616  TRP617  ASP618  TYR619  PRO620  LYS621  CYS622 
 ASP623  PHE694  ASN695  SER759  ASP760  ASP761  ALA762  ILE779  LEU786  VAL792 
 PHE793  MET794  SER795  GLU796  ALA797  LYS798  CYS799  TRP800  GLU811  SER814 

> <Gold.Protein.RotatedAtoms>
  151.9891  133.3784  159.4137 H   0  0  0  0  0  0  0  0  0  0  0  0  # atno 6907 bound_to 6896
  150.6924  134.3956  159.5105 H   0  0  0  0  0  0  0  0  0  0  0  0  # atno 6908 bound_to 6896
  152.1686  134.8852  160.0587 H   0  0  0  0  0  0  0  0  0  0  0  0  # atno 6909 bound_to 6896
  144.8016  140.5168  143.5703 H   0  0  0  0  0  0  0  0  0  0  0  0  # atno 7974 bound_to 7965
  154.9894  140.0395  157.2312 H   0  0  0  0  0  0  0  0  0  0  0  0  # atno 8008 bound_to 7997
  154.7642  140.2790  155.6167 H   0  0  0  0  0  0  0  0  0  0  0  0  # atno 8009 bound_to 7997
  156.2909  140.2622  156.2429 H   0  0  0  0  0  0  0  0  0  0  0  0  # atno 8010 bound_to 7997
  139.7879  143.8008  152.2646 H   0  0  0  0  0  0  0  0  0  0  0  0  # atno 10167 bound_to 10162
  156.5505  130.8603  151.2778 H   0  0  0  0  0  0  0  0  0  0  0  0  # atno 10718 bound_to 10713
  153.2778  135.6938  153.7415 H   0  0  0  0  0  0  0  0  0  0  0  0  # atno 10763 bound_to 10752
  153.6414  135.3392  155.3073 H   0  0  0  0  0  0  0  0  0  0  0  0  # atno 10764 bound_to 10752
  154.8485  135.4432  154.1822 H   0  0  0  0  0  0  0  0  0  0  0  0  # atno 10765 bound_to 10752
  141.1100  133.8724  157.1611 H   0  0  0  0  0  0  0  0  0  0  0  0  # atno 11005 bound_to 11000
  145.5539  139.1477  143.3378 LP  0  0  0  0  0  0  0  0  0  0  0  0  # atno 17320 bound_to 7965
  146.2298  140.5677  142.8980 LP  0  0  0  0  0  0  0  0  0  0  0  0  # atno 17321 bound_to 7965
  139.8090  144.7343  150.9722 LP  0  0  0  0  0  0  0  0  0  0  0  0  # atno 17342 bound_to 10162
  140.7820  143.4269  151.0754 LP  0  0  0  0  0  0  0  0  0  0  0  0  # atno 17343 bound_to 10162
  157.7388  130.9820  150.2276 LP  0  0  0  0  0  0  0  0  0  0  0  0  # atno 17370 bound_to 10713
  156.2889  130.3743  149.7861 LP  0  0  0  0  0  0  0  0  0  0  0  0  # atno 17371 bound_to 10713
  139.9989  135.0035  157.0146 LP  0  0  0  0  0  0  0  0  0  0  0  0  # atno 17394 bound_to 11000
  140.4800  134.1299  155.7215 LP  0  0  0  0  0  0  0  0  0  0  0  0  # atno 17395 bound_to 11000

$$$$
