AV-unprocessed.smi:1135|AV-procd|sdf|4861|dock3
  -GOLD-   22720 3433D 1   1.00000     0.00000
 Structure written by MMmdl.
 46 47  0  0  0  0  0  0  0  0  2 V2000
  142.2557  145.5618  157.8384 C   0  0  0  0  0  0  0  0  0  0  0  0
  143.3483  145.6727  158.9111 C   0  0  2  0  0  0  0  0  0  0  0  0
  144.5737  146.4465  158.3921 C   0  0  0  0  0  0  0  0  0  0  0  0
  145.6764  146.5474  159.4632 C   0  0  0  0  0  0  0  0  0  0  0  0
  146.1241  145.1684  160.0047 C   0  0  2  0  0  0  0  0  0  0  0  0
  147.1182  145.3930  161.1662 C   0  0  0  0  0  0  0  0  0  0  0  0
  146.7936  144.4522  158.9084 N   0  0  0  0  0  0  0  0  0  0  0  0
  147.2351  143.1842  158.8923 C   0  0  0  0  0  0  0  0  0  0  0  0
  147.1038  142.3857  159.8200 O   0  0  0  0  0  0  0  0  0  0  0  0
  147.8781  142.8986  157.7506 N   0  0  0  0  0  0  0  0  0  0  0  0
  148.5586  141.6378  157.4603 C   0  0  0  0  0  0  0  0  0  0  0  0
  149.9128  141.8458  156.7508 C   0  0  0  0  0  0  0  0  0  0  0  0
  150.9313  142.6103  157.5799 C   0  0  0  0  0  0  0  0  0  0  0  0
  151.7361  141.9773  158.5528 C   0  0  0  0  0  0  0  0  0  0  0  0
  152.6898  142.7384  159.2599 C   0  0  0  0  0  0  0  0  0  0  0  0
  152.8152  144.1157  158.9844 C   0  0  0  0  0  0  0  0  0  0  0  0
  151.9829  144.6975  158.0066 C   0  0  0  0  0  0  0  0  0  0  0  0
  151.0824  143.9345  157.3489 N   0  3  0  0  0  0  0  0  0  0  0  0
  144.8702  144.4031  160.5054 C   0  0  0  0  0  0  0  0  0  0  0  0
  143.7724  144.2879  159.4325 C   0  0  0  0  0  0  0  0  0  0  0  0
  142.6094  145.0088  156.9677 H   0  0  0  0  0  0  0  0  0  0  0  0
  141.9364  146.5480  157.5000 H   0  0  0  0  0  0  0  0  0  0  0  0
  141.3764  145.0466  158.2259 H   0  0  0  0  0  0  0  0  0  0  0  0
  142.9290  146.2321  159.7488 H   0  0  0  0  0  0  0  0  0  0  0  0
  144.9671  145.9607  157.4984 H   0  0  0  0  0  0  0  0  0  0  0  0
  144.2754  147.4496  158.0861 H   0  0  0  0  0  0  0  0  0  0  0  0
  146.5317  147.0880  159.0556 H   0  0  0  0  0  0  0  0  0  0  0  0
  145.3032  147.1579  160.2869 H   0  0  0  0  0  0  0  0  0  0  0  0
  146.6747  146.0071  161.9507 H   0  0  0  0  0  0  0  0  0  0  0  0
  148.0199  145.9023  160.8239 H   0  0  0  0  0  0  0  0  0  0  0  0
  147.4255  144.4573  161.6330 H   0  0  0  0  0  0  0  0  0  0  0  0
  146.9623  145.0002  158.0774 H   0  0  0  0  0  0  0  0  0  0  0  0
  147.9295  143.6163  157.0420 H   0  0  0  0  0  0  0  0  0  0  0  0
  148.7007  141.0636  158.3774 H   0  0  0  0  0  0  0  0  0  0  0  0
  147.9049  141.0370  156.8278 H   0  0  0  0  0  0  0  0  0  0  0  0
  150.3362  140.8774  156.4809 H   0  0  0  0  0  0  0  0  0  0  0  0
  149.7541  142.3772  155.8116 H   0  0  0  0  0  0  0  0  0  0  0  0
  151.6354  140.9191  158.7455 H   0  0  0  0  0  0  0  0  0  0  0  0
  153.3204  142.2707  160.0017 H   0  0  0  0  0  0  0  0  0  0  0  0
  153.5404  144.7161  159.5136 H   0  0  0  0  0  0  0  0  0  0  0  0
  152.0135  145.7410  157.7292 H   0  0  0  0  0  0  0  0  0  0  0  0
  145.1340  143.4094  160.8667 H   0  0  0  0  0  0  0  0  0  0  0  0
  144.4548  144.9236  161.3695 H   0  0  0  0  0  0  0  0  0  0  0  0
  142.9089  143.7710  159.8524 H   0  0  0  0  0  0  0  0  0  0  0  0
  144.1248  143.6691  158.6061 H   0  0  0  0  0  0  0  0  0  0  0  0
  150.4991  144.3748  156.6370 H   0  0  0  0  0  0  0  0  0  0  0  0
  1  2  1  0  0  0  0
  1 21  1  0  0  0  0
  1 22  1  0  0  0  0
  1 23  1  0  0  0  0
  2 20  1  0  0  0  0
  2  3  1  0  0  0  0
  2 24  1  0  0  0  0
  3  4  1  0  0  0  0
  3 25  1  0  0  0  0
  3 26  1  0  0  0  0
  4  5  1  0  0  0  0
  4 27  1  0  0  0  0
  4 28  1  0  0  0  0
  5  6  1  0  0  0  0
  5  7  1  0  0  0  0
  5 19  1  0  0  0  0
  6 29  1  0  0  0  0
  6 30  1  0  0  0  0
  6 31  1  0  0  0  0
  7  8  1  0  0  0  0
  7 32  1  0  0  0  0
  8  9  2  0  0  0  0
  8 10  1  0  0  0  0
 10 11  1  0  0  0  0
 10 33  1  0  0  0  0
 11 12  1  0  0  0  0
 11 34  1  0  0  0  0
 11 35  1  0  0  0  0
 12 13  1  0  0  0  0
 12 36  1  0  0  0  0
 12 37  1  0  0  0  0
 13 18  1  0  0  0  0
 13 14  2  0  0  0  0
 14 15  1  0  0  0  0
 14 38  1  0  0  0  0
 15 16  2  0  0  0  0
 15 39  1  0  0  0  0
 16 17  1  0  0  0  0
 16 40  1  0  0  0  0
 17 18  2  0  0  0  0
 17 41  1  0  0  0  0
 18 46  1  0  0  0  0
 19 20  1  0  0  0  0
 19 42  1  0  0  0  0
 19 43  1  0  0  0  0
 20 44  1  0  0  0  0
 20 45  1  0  0  0  0
M  CHG  1  18   1
M  END
> <s_m_source_file>
AV-unprocessed.smi

> <i_m_source_file_index>
1135

> <i_lp_mmshare_version>
43012

> <i_f3d_flags>
0

> <s_epik_input>
W0NIMl0xW0NIMl1bQ0BIXShbQ0gzXSlbQ0gyXVtDSDJdW0NAQF0xKFtDSDNdKVtOSF1DKD1PKVtOSF1bQ0gyXVtDSDJdYzJbY0hdW2NIXVtjSF1bY0hdbjI=

> <s_epik_cmdline>
J2VwaWtfcHl0aG9uJywgJy1waCcsICc3LjAnLCAnLXRuJywgJzgnLCAnLW1hJywgJzIwMCcsICctbWV0YWxfYmluZGluZycsICctaW1hZScsICc8aW5maWxlLm1hZT4nLCAnLW9tYWUnLCAnPG91dGZpbGUubWFlPic=

> <r_epik_Ionization_Penalty>
1.55217

> <r_epik_Ionization_Penalty_Charging>
1.55211

> <r_epik_Ionization_Penalty_Neutral>
5.91929e-05

> <r_epik_State_Penalty>
1.64641

> <r_epik_Charging_Adjusted_Penalty>
3.19851

> <i_epik_Tot_Q>
1

> <i_epik_Tot_abs_Q>
1

> <r_epik_Metal_State_Penalty>
1.68848

> <b_epik_Metal_Only>
0

> <s_lp_Force_Field>
OPLS_2005

> <r_lp_Energy>
12.4708

> <b_lp_Chiralities_Consistent>
1

> <s_lp_Variant>
AV-unprocessed.smi:1135-4

> <Gold.Version>
5.8.1

> <Gold.Id.Protein>
6NUR|6NUR_protein|mol2

> <Gold.PLP.Fitness>
49.0143

> <Gold.PLP.PLP>
-36.5808

> <Gold.PLP.part.hbond>
-5.6901

> <Gold.PLP.part.metal>
0.0000

> <Gold.PLP.part.buried>
-3.2270

> <Gold.PLP.part.nonpolar>
-27.9314

> <Gold.PLP.part.repulsive>
0.1320

> <Gold.PLP.ligand.clash>
0.0000

> <Gold.PLP.ligand.torsion>
0.5131

> <Gold.PLP.Chemscore.Hbond>
4.4778

> <Gold.PLP.Chemscore.CHOScore>
0.0000

> <Gold.PLP.Chemscore.Metal>
0.0000

> <Gold.Chemscore.Hbonds>
donor molecule, donor type, donor heavy atom, donor atom, acceptor molecule, acceptor atom, score
      L1  H     7    32       P1  8029  0.98
      L1  H    10    33       P1  8028  0.20
      L1  H    18    46       P1  8028  2.00
      P1  H  6933  6944       L1     9  0.45
      P1  H  6934  6946       L1     9  0.80

> <Gold.PLP.Chemscore.Internal.Correction>
0.0265

> <Gold.Rescore>
     Score         DG    S(hbond)    S(metal)    S(lipo)     H(rot)  DE(clash)    DE(int)     intcor
     23.82     -24.46       3.39        0.00      98.59       1.51       0.13       0.52       ----

> <Gold.Chemscore.Fitness>
23.8157

> <Gold.Chemscore.DG>
-24.4633

> <Gold.Chemscore.ZeroCoef>
-5.4800

> <Gold.Chemscore.Hbond>
3.3863

> <Gold.Chemscore.Metal>
0.0000

> <Gold.Chemscore.Lipo>
98.5889

> <Gold.Chemscore.Internal_Hbond>
0.0000

> <Gold.Chemscore.DEClash>
0.1269

> <Gold.Chemscore.DEInternal>
0.5207

> <Gold.Chemscore.Rot>
1.5085

> <Gold.Chemscore.Internal.Correction>
   9.000000E+99

> <Gold.Chemscore.Hbonds>
donor molecule, donor type, donor heavy atom, donor atom, acceptor molecule, acceptor atom, score
      L1  H     7    32       P1  8029  0.82
      L1  H    18    46       P1  8028  0.98
      P1  H  6933  6944       L1     9  0.44
      P1  H  6934  6946       L1     9  0.80

> <Gold.Chemscore.Hbond.Weighted>
-11.3102

> <Gold.Chemscore.Metal.Weighted>
-0.0000

> <Gold.Chemscore.Lipo.Weighted>
-11.5349

> <Gold.Chemscore.Internal_Hbond.Weighted>
0.0000

> <Gold.Chemscore.DEClash.Weighted>
0.1269

> <Gold.Chemscore.DEInternal.Weighted>
0.5207

> <Gold.Chemscore.Rot.Weighted>
3.8617

> <Gold.Chemscore.Internal.Correction.Weighted>
   9.000000E+99

> <Gold.Protein.RotatedTorsions>
[ 6907 6896 6895 6894 ] final   28.67 input  -60.11 | X-H torsion
[ 7974 7965 7964 7962 ] final -169.71 input  175.53 | X-H torsion
[ 8008 7997 7996 7995 ] final  -13.31 input   59.86 | X-H torsion
[ 10167 10162 10161 10158 ] final  168.82 input  -65.29 | X-H torsion
[ 10718 10713 10712 10709 ] final  -13.06 input   66.30 | X-H torsion
[ 10763 10752 10751 10750 ] final   26.48 input  -60.55 | X-H torsion
[ 11005 11000 10999 10996 ] final  -18.73 input  -57.11 | X-H torsion

> <Gold.Protein.ActiveResidues>
 VAL166  LYS551  ARG553  GLY616  TRP617  ASP618  TYR619  PRO620  LYS621  CYS622 
 ASP623  PHE694  ASN695  SER759  ASP760  ASP761  ALA762  ILE779  LEU786  VAL792 
 PHE793  MET794  SER795  GLU796  ALA797  LYS798  CYS799  TRP800  GLU811  SER814 

> <Gold.Protein.RotatedAtoms>
  152.0204  134.9826  160.0570 H   0  0  0  0  0  0  0  0  0  0  0  0  # atno 6907 bound_to 6896
  152.1342  133.4421  159.4744 H   0  0  0  0  0  0  0  0  0  0  0  0  # atno 6908 bound_to 6896
  150.6859  134.2302  159.4474 H   0  0  0  0  0  0  0  0  0  0  0  0  # atno 6909 bound_to 6896
  144.7181  140.2181  143.6319 H   0  0  0  0  0  0  0  0  0  0  0  0  # atno 7974 bound_to 7965
  154.5303  140.2253  155.8816 H   0  0  0  0  0  0  0  0  0  0  0  0  # atno 8008 bound_to 7997
  156.1757  140.3112  155.9018 H   0  0  0  0  0  0  0  0  0  0  0  0  # atno 8009 bound_to 7997
  155.3465  140.0453  157.3036 H   0  0  0  0  0  0  0  0  0  0  0  0  # atno 8010 bound_to 7997
  139.4977  144.3774  151.9660 H   0  0  0  0  0  0  0  0  0  0  0  0  # atno 10167 bound_to 10162
  156.6356  130.4913  149.6113 H   0  0  0  0  0  0  0  0  0  0  0  0  # atno 10718 bound_to 10713
  153.0619  135.6559  154.0442 H   0  0  0  0  0  0  0  0  0  0  0  0  # atno 10763 bound_to 10752
  154.0108  135.2928  155.3394 H   0  0  0  0  0  0  0  0  0  0  0  0  # atno 10764 bound_to 10752
  154.6961  135.5263  153.8529 H   0  0  0  0  0  0  0  0  0  0  0  0  # atno 10765 bound_to 10752
  140.8297  133.8006  155.9745 H   0  0  0  0  0  0  0  0  0  0  0  0  # atno 11005 bound_to 11000
  145.8527  139.2183  143.1762 LP  0  0  0  0  0  0  0  0  0  0  0  0  # atno 17320 bound_to 7965
  146.0246  140.8316  142.9906 LP  0  0  0  0  0  0  0  0  0  0  0  0  # atno 17321 bound_to 7965
  140.3210  144.3428  150.6009 LP  0  0  0  0  0  0  0  0  0  0  0  0  # atno 17342 bound_to 10162
  140.5723  143.2180  151.7578 LP  0  0  0  0  0  0  0  0  0  0  0  0  # atno 17343 bound_to 10162
  156.2200  130.6731  151.1358 LP  0  0  0  0  0  0  0  0  0  0  0  0  # atno 17370 bound_to 10713
  157.7187  131.0695  150.6225 LP  0  0  0  0  0  0  0  0  0  0  0  0  # atno 17371 bound_to 10713
  140.9011  134.2377  157.5041 LP  0  0  0  0  0  0  0  0  0  0  0  0  # atno 17394 bound_to 11000
  139.8705  134.9707  156.4710 LP  0  0  0  0  0  0  0  0  0  0  0  0  # atno 17395 bound_to 11000

$$$$
