AV-unprocessed.smi:2159|AV-procd|sdf|8794|dock3
  -GOLD-   2272011573D 1   1.00000     0.00000
 Structure written by MMmdl.
 48 50  0  0  0  0  0  0  0  0  2 V2000
  153.3468  136.0635  156.9872 O   0  0  0  0  0  0  0  0  0  0  0  0
  152.2502  136.6114  157.1050 C   0  0  0  0  0  0  0  0  0  0  0  0
  152.1224  137.9481  157.8410 C   0  0  0  0  0  0  0  0  0  0  0  0
  152.0848  139.1575  156.8855 C   0  0  0  0  0  0  0  0  0  0  0  0
  151.9705  140.4168  157.6251 N   0  0  0  0  0  0  0  0  0  0  0  0
  151.0358  141.3559  157.3843 C   0  0  0  0  0  0  0  0  0  0  0  0
  150.0925  141.2829  156.5974 O   0  0  0  0  0  0  0  0  0  0  0  0
  151.3651  142.5976  158.1995 C   0  0  1  0  0  0  0  0  0  0  0  0
  150.2856  143.5065  158.7890 C   0  0  0  0  0  0  0  0  0  0  0  0
  151.0216  144.6534  159.5318 C   0  0  0  0  0  0  0  0  0  0  0  0
  152.1161  144.1648  160.5262 C   0  0  0  0  0  0  0  0  0  0  0  0
  153.0729  143.0952  159.9356 C   0  0  0  0  0  0  0  0  0  0  0  0
  152.1923  142.0051  159.3233 C   0  0  2  0  0  0  0  0  0  0  0  0
  152.7682  140.7668  158.6524 C   0  0  0  0  0  0  0  0  0  0  0  0
  153.7616  140.1671  159.0620 O   0  0  0  0  0  0  0  0  0  0  0  0
  151.1141  136.0867  156.6202 N   0  0  0  0  0  0  0  0  0  0  0  0
  151.0230  134.8239  155.8966 C   0  0  0  0  0  0  0  0  0  0  0  0
  150.4481  135.0220  154.4837 C   0  0  0  0  0  0  0  0  0  0  0  0
  149.7124  133.7940  153.9849 C   0  0  0  0  0  0  0  0  0  0  0  0
  149.7995  132.5455  154.6386 C   0  0  0  0  0  0  0  0  0  0  0  0
  149.0852  131.4454  154.1194 C   0  0  0  0  0  0  0  0  0  0  0  0
  148.2997  131.6166  152.9605 C   0  0  0  0  0  0  0  0  0  0  0  0
  148.2474  132.8861  152.3492 C   0  0  0  0  0  0  0  0  0  0  0  0
  148.9458  133.9155  152.8768 N   0  3  0  0  0  0  0  0  0  0  0  0
  151.2198  137.9376  158.4540 H   0  0  0  0  0  0  0  0  0  0  0  0
  152.9653  138.0401  158.5267 H   0  0  0  0  0  0  0  0  0  0  0  0
  152.9826  139.1809  156.2650 H   0  0  0  0  0  0  0  0  0  0  0  0
  151.2484  139.0598  156.1905 H   0  0  0  0  0  0  0  0  0  0  0  0
  151.9976  143.2058  157.5486 H   0  0  0  0  0  0  0  0  0  0  0  0
  149.6468  143.9108  158.0032 H   0  0  0  0  0  0  0  0  0  0  0  0
  149.6420  142.9530  159.4738 H   0  0  0  0  0  0  0  0  0  0  0  0
  151.4931  145.3008  158.7913 H   0  0  0  0  0  0  0  0  0  0  0  0
  150.2980  145.2777  160.0565 H   0  0  0  0  0  0  0  0  0  0  0  0
  152.6930  145.0159  160.8887 H   0  0  0  0  0  0  0  0  0  0  0  0
  151.6225  143.7439  161.4030 H   0  0  0  0  0  0  0  0  0  0  0  0
  153.7268  143.5359  159.1820 H   0  0  0  0  0  0  0  0  0  0  0  0
  153.7134  142.6846  160.7168 H   0  0  0  0  0  0  0  0  0  0  0  0
  151.5368  141.6227  160.1093 H   0  0  0  0  0  0  0  0  0  0  0  0
  150.2554  136.6000  156.7595 H   0  0  0  0  0  0  0  0  0  0  0  0
  152.0225  134.3926  155.8344 H   0  0  0  0  0  0  0  0  0  0  0  0
  150.4152  134.1170  156.4640 H   0  0  0  0  0  0  0  0  0  0  0  0
  149.7589  135.8675  154.4685 H   0  0  0  0  0  0  0  0  0  0  0  0
  151.2496  135.2682  153.7857 H   0  0  0  0  0  0  0  0  0  0  0  0
  150.4045  132.4299  155.5264 H   0  0  0  0  0  0  0  0  0  0  0  0
  149.1395  130.4816  154.6043 H   0  0  0  0  0  0  0  0  0  0  0  0
  147.7453  130.7866  152.5473 H   0  0  0  0  0  0  0  0  0  0  0  0
  147.6731  133.1077  151.4613 H   0  0  0  0  0  0  0  0  0  0  0  0
  148.8936  134.8258  152.4186 H   0  0  0  0  0  0  0  0  0  0  0  0
  1  2  2  0  0  0  0
  2  3  1  0  0  0  0
  2 16  1  0  0  0  0
  3  4  1  0  0  0  0
  3 25  1  0  0  0  0
  3 26  1  0  0  0  0
  4  5  1  0  0  0  0
  4 27  1  0  0  0  0
  4 28  1  0  0  0  0
  5 14  1  0  0  0  0
  5  6  1  0  0  0  0
  6  7  2  0  0  0  0
  6  8  1  0  0  0  0
  8 13  1  0  0  0  0
  8  9  1  0  0  0  0
  8 29  1  0  0  0  0
  9 10  1  0  0  0  0
  9 30  1  0  0  0  0
  9 31  1  0  0  0  0
 10 11  1  0  0  0  0
 10 32  1  0  0  0  0
 10 33  1  0  0  0  0
 11 12  1  0  0  0  0
 11 34  1  0  0  0  0
 11 35  1  0  0  0  0
 12 13  1  0  0  0  0
 12 36  1  0  0  0  0
 12 37  1  0  0  0  0
 13 14  1  0  0  0  0
 13 38  1  0  0  0  0
 14 15  2  0  0  0  0
 16 17  1  0  0  0  0
 16 39  1  0  0  0  0
 17 18  1  0  0  0  0
 17 40  1  0  0  0  0
 17 41  1  0  0  0  0
 18 19  1  0  0  0  0
 18 42  1  0  0  0  0
 18 43  1  0  0  0  0
 19 24  1  0  0  0  0
 19 20  2  0  0  0  0
 20 21  1  0  0  0  0
 20 44  1  0  0  0  0
 21 22  2  0  0  0  0
 21 45  1  0  0  0  0
 22 23  1  0  0  0  0
 22 46  1  0  0  0  0
 23 24  2  0  0  0  0
 23 47  1  0  0  0  0
 24 48  1  0  0  0  0
M  CHG  1  24   1
M  END
> <s_m_source_file>
AV-unprocessed.smi

> <i_m_source_file_index>
2159

> <i_lp_mmshare_version>
43012

> <i_f3d_flags>
0

> <s_epik_input>
bjFbY0hdW2NIXVtjSF1bY0hdYzFbQ0gyXVtDSDJdW05IXUMoPU8pW0NIMl1bQ0gyXU4oQzI9TylDKD1PKVtDQEhdKFtDQEBIXTIzKVtDSDJdW0NIMl1bQ0gyXVtDSDJdMw==

> <s_epik_cmdline>
J2VwaWtfcHl0aG9uJywgJy1waCcsICc3LjAnLCAnLXRuJywgJzgnLCAnLW1hJywgJzIwMCcsICctbWV0YWxfYmluZGluZycsICctaW1hZScsICc8aW5maWxlLm1hZT4nLCAnLW9tYWUnLCAnPG91dGZpbGUubWFlPic=

> <r_lp_tautomer_probability>
1

> <r_epik_Ionization_Penalty>
1.85146

> <r_epik_Ionization_Penalty_Charging>
1.85146

> <r_epik_Ionization_Penalty_Neutral>
2.95922e-08

> <r_epik_State_Penalty>
1.96899

> <r_epik_Charging_Adjusted_Penalty>
3.82044

> <i_epik_Tot_Q>
1

> <i_epik_Tot_abs_Q>
1

> <r_epik_Metal_State_Penalty>
1.99467

> <b_epik_Metal_Only>
0

> <s_lp_Force_Field>
OPLS_2005

> <r_lp_Energy>
36.2537

> <b_lp_Chiralities_Consistent>
1

> <s_lp_Variant>
AV-unprocessed.smi:2159-4

> <Gold.Version>
5.8.1

> <Gold.Id.Protein>
6NUR|6NUR_protein|mol2

> <Gold.PLP.Fitness>
53.4080

> <Gold.PLP.PLP>
-42.9227

> <Gold.PLP.part.hbond>
-3.0000

> <Gold.PLP.part.metal>
0.0000

> <Gold.PLP.part.buried>
-4.8895

> <Gold.PLP.part.nonpolar>
-35.4984

> <Gold.PLP.part.repulsive>
0.1920

> <Gold.PLP.ligand.clash>
0.0000

> <Gold.PLP.ligand.torsion>
0.6918

> <Gold.PLP.Chemscore.Hbond>
3.9120

> <Gold.PLP.Chemscore.CHOScore>
0.0000

> <Gold.PLP.Chemscore.Metal>
0.0000

> <Gold.Chemscore.Hbonds>
donor molecule, donor type, donor heavy atom, donor atom, acceptor molecule, acceptor atom, score
      L1  H    24    48       P1  7948  0.48
      P1  H  7997  8009       L1    15  0.69
      P1  H 10752 10764       L1     1  1.00

> <Gold.PLP.Chemscore.Internal.Correction>
0.1328

> <Gold.Rescore>
     Score         DG    S(hbond)    S(metal)    S(lipo)     H(rot)  DE(clash)    DE(int)     intcor
     20.19     -20.83       2.71        0.00      99.54       2.10       0.04       0.61       ----

> <Gold.Chemscore.Fitness>
20.1855

> <Gold.Chemscore.DG>
-20.8285

> <Gold.Chemscore.ZeroCoef>
-5.4800

> <Gold.Chemscore.Hbond>
2.7149

> <Gold.Chemscore.Metal>
0.0000

> <Gold.Chemscore.Lipo>
99.5410

> <Gold.Chemscore.Internal_Hbond>
0.0000

> <Gold.Chemscore.DEClash>
0.0351

> <Gold.Chemscore.DEInternal>
0.6079

> <Gold.Chemscore.Rot>
2.0959

> <Gold.Chemscore.Internal.Correction>
   9.000000E+99

> <Gold.Chemscore.Hbonds>
donor molecule, donor type, donor heavy atom, donor atom, acceptor molecule, acceptor atom, score
      P1  H  7997  8009       L1    15  0.20
      P1  H 10752 10764       L1     1  0.78

> <Gold.Chemscore.Hbond.Weighted>
-9.0677

> <Gold.Chemscore.Metal.Weighted>
-0.0000

> <Gold.Chemscore.Lipo.Weighted>
-11.6463

> <Gold.Chemscore.Internal_Hbond.Weighted>
0.0000

> <Gold.Chemscore.DEClash.Weighted>
0.0351

> <Gold.Chemscore.DEInternal.Weighted>
0.6079

> <Gold.Chemscore.Rot.Weighted>
5.3655

> <Gold.Chemscore.Internal.Correction.Weighted>
   9.000000E+99

> <Gold.Protein.RotatedTorsions>
[ 6907 6896 6895 6894 ] final -138.81 input  -60.11 | X-H torsion
[ 7974 7965 7964 7962 ] final   88.48 input  175.53 | X-H torsion
[ 8008 7997 7996 7995 ] final  129.91 input   59.86 | X-H torsion
[ 10167 10162 10161 10158 ] final  115.12 input  -65.29 | X-H torsion
[ 10718 10713 10712 10709 ] final -167.36 input   66.30 | X-H torsion
[ 10763 10752 10751 10750 ] final   -1.25 input  -60.55 | X-H torsion
[ 11005 11000 10999 10996 ] final   21.35 input  -57.11 | X-H torsion

> <Gold.Protein.ActiveResidues>
 VAL166  LYS551  ARG553  GLY616  TRP617  ASP618  TYR619  PRO620  LYS621  CYS622 
 ASP623  PHE694  ASN695  SER759  ASP760  ASP761  ALA762  ILE779  LEU786  VAL792 
 PHE793  MET794  SER795  GLU796  ALA797  LYS798  CYS799  TRP800  GLU811  SER814 

> <Gold.Protein.RotatedAtoms>
  151.0397  133.5717  159.2652 H   0  0  0  0  0  0  0  0  0  0  0  0  # atno 6907 bound_to 6896
  151.2767  135.0700  159.9164 H   0  0  0  0  0  0  0  0  0  0  0  0  # atno 6908 bound_to 6896
  152.5362  134.0119  159.7996 H   0  0  0  0  0  0  0  0  0  0  0  0  # atno 6909 bound_to 6896
  145.5451  139.2291  143.2544 H   0  0  0  0  0  0  0  0  0  0  0  0  # atno 7974 bound_to 7965
  156.2945  140.2609  156.2675 H   0  0  0  0  0  0  0  0  0  0  0  0  # atno 8008 bound_to 7997
  154.9727  140.0391  157.2260 H   0  0  0  0  0  0  0  0  0  0  0  0  # atno 8009 bound_to 7997
  154.7844  140.2800  155.6044 H   0  0  0  0  0  0  0  0  0  0  0  0  # atno 8010 bound_to 7997
  139.6339  144.7118  151.2374 H   0  0  0  0  0  0  0  0  0  0  0  0  # atno 10167 bound_to 10162
  156.6813  130.9123  151.3057 H   0  0  0  0  0  0  0  0  0  0  0  0  # atno 10718 bound_to 10713
  153.3424  135.6981  153.6856 H   0  0  0  0  0  0  0  0  0  0  0  0  # atno 10763 bound_to 10752
  153.5615  135.3534  155.2802 H   0  0  0  0  0  0  0  0  0  0  0  0  # atno 10764 bound_to 10752
  154.8639  135.4250  154.2640 H   0  0  0  0  0  0  0  0  0  0  0  0  # atno 10765 bound_to 10752
  140.3925  134.1804  155.7663 H   0  0  0  0  0  0  0  0  0  0  0  0  # atno 11005 bound_to 11000
  146.1955  140.6272  142.9126 LP  0  0  0  0  0  0  0  0  0  0  0  0  # atno 17320 bound_to 7965
  144.7557  140.5301  143.6770 LP  0  0  0  0  0  0  0  0  0  0  0  0  # atno 17321 bound_to 7965
  140.7455  143.6430  150.8317 LP  0  0  0  0  0  0  0  0  0  0  0  0  # atno 17342 bound_to 10162
  140.0059  143.5695  152.2858 LP  0  0  0  0  0  0  0  0  0  0  0  0  # atno 17343 bound_to 10162
  157.7042  130.9367  150.0880 LP  0  0  0  0  0  0  0  0  0  0  0  0  # atno 17370 bound_to 10713
  156.1865  130.3652  149.8966 LP  0  0  0  0  0  0  0  0  0  0  0  0  # atno 17371 bound_to 10713
  141.1886  133.8257  157.0990 LP  0  0  0  0  0  0  0  0  0  0  0  0  # atno 17394 bound_to 11000
  140.0396  134.9861  157.0936 LP  0  0  0  0  0  0  0  0  0  0  0  0  # atno 17395 bound_to 11000

$$$$
