AV-unprocessed.smi:2875|AV-procd|sdf|11040|dock9
  -GOLD-   2272015503D 1   1.00000     0.00000
 Structure written by MMmdl.
 40 40  0  0  0  0  0  0  0  0  1 V2000
  145.7329  143.7364  153.4405 C   0  0  0  0  0  0  0  0  0  0  0  0
  145.6158  143.6365  154.9646 C   0  0  0  0  0  0  0  0  0  0  0  0
  145.7938  142.1952  155.4700 C   0  0  0  0  0  0  0  0  0  0  0  0
  147.1640  141.7328  155.3682 N   0  0  0  0  0  0  0  0  0  0  0  0
  148.0529  141.7029  156.4469 C   0  0  0  0  0  0  0  0  0  0  0  0
  147.5898  142.1308  157.6827 N   0  0  0  0  0  0  0  0  0  0  0  0
  149.3426  141.2727  156.3036 C   0  0  0  0  0  0  0  0  0  0  0  0
  150.2246  141.2064  157.3997 N   0  0  0  0  0  0  0  0  0  0  0  0
  150.5447  142.4710  158.0823 C   0  0  0  0  0  0  0  0  0  0  0  0
  152.0304  142.8430  157.9492 C   0  0  0  0  0  0  0  0  0  0  0  0
  152.3360  143.8878  158.8571 O   0  0  0  0  0  0  0  0  0  0  0  0
  152.5623  143.4155  160.1729 C   0  0  0  0  0  0  0  0  0  0  0  0
  150.8144  140.0430  157.7807 C   0  0  0  0  0  0  0  0  0  0  0  0
  151.7176  140.0247  159.0197 C   0  0  0  0  0  0  0  0  0  0  0  0
  150.6338  138.9821  157.1824 O   0  0  0  0  0  0  0  0  0  0  0  0
  149.8269  140.7874  155.0030 C   0  0  0  0  0  0  0  0  0  0  0  0
  150.9595  140.3677  154.7681 O   0  0  0  0  0  0  0  0  0  0  0  0
  148.8841  140.8158  153.9787 N   0  0  0  0  0  0  0  0  0  0  0  0
  147.5715  141.2573  154.0987 C   0  0  0  0  0  0  0  0  0  0  0  0
  146.8289  141.2151  153.1171 O   0  0  0  0  0  0  0  0  0  0  0  0
  149.1770  140.4798  153.0728 H   0  0  0  0  0  0  0  0  0  0  0  0
  145.5967  144.7652  153.1067 H   0  0  0  0  0  0  0  0  0  0  0  0
  144.9780  143.1234  152.9474 H   0  0  0  0  0  0  0  0  0  0  0  0
  146.7128  143.4021  153.0989 H   0  0  0  0  0  0  0  0  0  0  0  0
  146.3634  144.2837  155.4248 H   0  0  0  0  0  0  0  0  0  0  0  0
  144.6433  144.0206  155.2743 H   0  0  0  0  0  0  0  0  0  0  0  0
  145.4706  142.0809  156.5062 H   0  0  0  0  0  0  0  0  0  0  0  0
  145.1787  141.4938  154.9069 H   0  0  0  0  0  0  0  0  0  0  0  0
  146.6421  142.4560  157.8119 H   0  0  0  0  0  0  0  0  0  0  0  0
  148.2006  142.2027  158.4838 H   0  0  0  0  0  0  0  0  0  0  0  0
  149.9266  143.2750  157.6790 H   0  0  0  0  0  0  0  0  0  0  0  0
  150.2886  142.4128  159.1411 H   0  0  0  0  0  0  0  0  0  0  0  0
  152.6667  141.9758  158.1311 H   0  0  0  0  0  0  0  0  0  0  0  0
  152.2307  143.1822  156.9321 H   0  0  0  0  0  0  0  0  0  0  0  0
  152.7904  144.2553  160.8290 H   0  0  0  0  0  0  0  0  0  0  0  0
  153.4051  142.7238  160.2037 H   0  0  0  0  0  0  0  0  0  0  0  0
  151.6791  142.9114  160.5675 H   0  0  0  0  0  0  0  0  0  0  0  0
  152.6625  140.5282  158.8167 H   0  0  0  0  0  0  0  0  0  0  0  0
  151.9451  138.9988  159.3113 H   0  0  0  0  0  0  0  0  0  0  0  0
  151.2352  140.5093  159.8691 H   0  0  0  0  0  0  0  0  0  0  0  0
  1  2  1  0  0  0  0
  1 22  1  0  0  0  0
  1 23  1  0  0  0  0
  1 24  1  0  0  0  0
  2  3  1  0  0  0  0
  2 25  1  0  0  0  0
  2 26  1  0  0  0  0
  3  4  1  0  0  0  0
  3 27  1  0  0  0  0
  3 28  1  0  0  0  0
  4 19  1  0  0  0  0
  4  5  1  0  0  0  0
  5  6  1  0  0  0  0
  5  7  2  0  0  0  0
  6 29  1  0  0  0  0
  6 30  1  0  0  0  0
  7  8  1  0  0  0  0
  7 16  1  0  0  0  0
  8  9  1  0  0  0  0
  8 13  1  0  0  0  0
  9 10  1  0  0  0  0
  9 31  1  0  0  0  0
  9 32  1  0  0  0  0
 10 11  1  0  0  0  0
 10 33  1  0  0  0  0
 10 34  1  0  0  0  0
 11 12  1  0  0  0  0
 12 35  1  0  0  0  0
 12 36  1  0  0  0  0
 12 37  1  0  0  0  0
 13 14  1  0  0  0  0
 13 15  2  0  0  0  0
 14 38  1  0  0  0  0
 14 39  1  0  0  0  0
 14 40  1  0  0  0  0
 16 17  2  0  0  0  0
 16 18  1  0  0  0  0
 18 21  1  0  0  0  0
 18 19  1  0  0  0  0
 19 20  2  0  0  0  0
M  END
> <s_m_source_file>
AV-unprocessed.smi

> <i_m_source_file_index>
2875

> <i_lp_mmshare_version>
43012

> <i_f3d_flags>
0

> <s_epik_input>
W0NIM11bQ0gyXVtDSDJdbjFjKFtOSDJdKWMoYyg9TylbbkhdYzE9TylOKEMoPU8pW0NIM10pW0NIMl1bQ0gyXU9bQ0gzXQ==

> <s_epik_cmdline>
J2VwaWtfcHl0aG9uJywgJy1waCcsICc3LjAnLCAnLXRuJywgJzgnLCAnLW1hJywgJzIwMCcsICctbWV0YWxfYmluZGluZycsICctaW1hZScsICc8aW5maWxlLm1hZT4nLCAnLW9tYWUnLCAnPG91dGZpbGUubWFlPic=

> <r_lp_tautomer_probability>
1

> <r_epik_Ionization_Penalty>
1.36284e-05

> <r_epik_Ionization_Penalty_Charging>
6.32507e-06

> <r_epik_Ionization_Penalty_Neutral>
7.30329e-06

> <r_epik_State_Penalty>
-0

> <r_epik_Charging_Adjusted_Penalty>
6.32507e-06

> <i_epik_Tot_Q>
0

> <i_epik_Tot_abs_Q>
0

> <r_epik_Metal_State_Penalty>
0.00594323

> <b_epik_Metal_Only>
0

> <s_epik_Chemistry_Notes>
This compound has an imine and may undergo hydrolysis.

> <s_lp_Force_Field>
OPLS_2005

> <r_lp_Energy>
24.7155

> <b_lp_Chiralities_Consistent>
1

> <s_lp_Variant>
AV-unprocessed.smi:2875-1

> <Gold.Version>
5.8.1

> <Gold.Id.Protein>
6NUR|6NUR_protein|mol2

> <Gold.PLP.Fitness>
36.7339

> <Gold.PLP.PLP>
-31.6252

> <Gold.PLP.part.hbond>
-1.8528

> <Gold.PLP.part.metal>
0.0000

> <Gold.PLP.part.buried>
-6.0969

> <Gold.PLP.part.nonpolar>
-23.7163

> <Gold.PLP.part.repulsive>
0.5562

> <Gold.PLP.ligand.clash>
0.0000

> <Gold.PLP.ligand.torsion>
1.5890

> <Gold.PLP.Chemscore.Hbond>
1.9913

> <Gold.PLP.Chemscore.CHOScore>
0.0000

> <Gold.PLP.Chemscore.Metal>
0.0000

> <Gold.Chemscore.Hbonds>
donor molecule, donor type, donor heavy atom, donor atom, acceptor molecule, acceptor atom, score
      L1  H    18    21       P1  7957  1.00
      P1  H  7989  7998       L1    17  0.98

> <Gold.PLP.Chemscore.Internal.Correction>
2.3129

> <Gold.Rescore>
     Score         DG    S(hbond)    S(metal)    S(lipo)     H(rot)  DE(clash)    DE(int)     intcor
      9.10     -12.07       1.89        0.00      47.72       2.08       0.50       2.47       ----

> <Gold.Chemscore.Fitness>
9.0995

> <Gold.Chemscore.DG>
-12.0734

> <Gold.Chemscore.ZeroCoef>
-5.4800

> <Gold.Chemscore.Hbond>
1.8940

> <Gold.Chemscore.Metal>
0.0000

> <Gold.Chemscore.Lipo>
47.7156

> <Gold.Chemscore.Internal_Hbond>
0.0000

> <Gold.Chemscore.DEClash>
0.5015

> <Gold.Chemscore.DEInternal>
2.4724

> <Gold.Chemscore.Rot>
2.0763

> <Gold.Chemscore.Internal.Correction>
   9.000000E+99

> <Gold.Chemscore.Hbonds>
donor molecule, donor type, donor heavy atom, donor atom, acceptor molecule, acceptor atom, score
      L1  H    18    21       P1  7957  0.95
      P1  H  7989  7998       L1    17  0.85

> <Gold.Chemscore.Hbond.Weighted>
-6.3260

> <Gold.Chemscore.Metal.Weighted>
-0.0000

> <Gold.Chemscore.Lipo.Weighted>
-5.5827

> <Gold.Chemscore.Internal_Hbond.Weighted>
0.0000

> <Gold.Chemscore.DEClash.Weighted>
0.5015

> <Gold.Chemscore.DEInternal.Weighted>
2.4724

> <Gold.Chemscore.Rot.Weighted>
5.3153

> <Gold.Chemscore.Internal.Correction.Weighted>
   9.000000E+99

> <Gold.Protein.RotatedTorsions>
[ 6907 6896 6895 6894 ] final  -45.78 input  -60.11 | X-H torsion
[ 7974 7965 7964 7962 ] final -169.07 input  175.53 | X-H torsion
[ 8008 7997 7996 7995 ] final  148.81 input   59.86 | X-H torsion
[ 10167 10162 10161 10158 ] final  141.09 input  -65.29 | X-H torsion
[ 10718 10713 10712 10709 ] final  -97.48 input   66.30 | X-H torsion
[ 10763 10752 10751 10750 ] final  153.33 input  -60.55 | X-H torsion
[ 11005 11000 10999 10996 ] final  152.31 input  -57.11 | X-H torsion

> <Gold.Protein.ActiveResidues>
 VAL166  LYS551  ARG553  GLY616  TRP617  ASP618  TYR619  PRO620  LYS621  CYS622 
 ASP623  PHE694  ASN695  SER759  ASP760  ASP761  ALA762  ILE779  LEU786  VAL792 
 PHE793  MET794  SER795  GLU796  ALA797  LYS798  CYS799  TRP800  GLU811  SER814 

> <Gold.Protein.RotatedAtoms>
  150.9182  134.8600  159.7470 H   0  0  0  0  0  0  0  0  0  0  0  0  # atno 6907 bound_to 6896
  152.4979  134.4257  159.9505 H   0  0  0  0  0  0  0  0  0  0  0  0  # atno 6908 bound_to 6896
  151.4294  133.3635  159.2802 H   0  0  0  0  0  0  0  0  0  0  0  0  # atno 6909 bound_to 6896
  144.7192  140.2275  143.6308 H   0  0  0  0  0  0  0  0  0  0  0  0  # atno 7974 bound_to 7965
  156.2778  140.2119  156.5757 H   0  0  0  0  0  0  0  0  0  0  0  0  # atno 8008 bound_to 7997
  154.7099  140.0513  157.0563 H   0  0  0  0  0  0  0  0  0  0  0  0  # atno 8009 bound_to 7997
  155.0619  140.3167  155.4661 H   0  0  0  0  0  0  0  0  0  0  0  0  # atno 8010 bound_to 7997
  139.5030  144.6194  151.6088 H   0  0  0  0  0  0  0  0  0  0  0  0  # atno 10167 bound_to 10162
  156.0084  130.5196  150.6381 H   0  0  0  0  0  0  0  0  0  0  0  0  # atno 10718 bound_to 10713
  154.1345  135.2824  155.3176 H   0  0  0  0  0  0  0  0  0  0  0  0  # atno 10763 bound_to 10752
  154.6331  135.5428  153.7707 H   0  0  0  0  0  0  0  0  0  0  0  0  # atno 10764 bound_to 10752
  153.0270  135.6467  154.1494 H   0  0  0  0  0  0  0  0  0  0  0  0  # atno 10765 bound_to 10752
  140.1296  134.8810  157.2186 H   0  0  0  0  0  0  0  0  0  0  0  0  # atno 11005 bound_to 11000
  145.8442  139.2144  143.1810 LP  0  0  0  0  0  0  0  0  0  0  0  0  # atno 17320 bound_to 7965
  146.0319  140.8249  142.9871 LP  0  0  0  0  0  0  0  0  0  0  0  0  # atno 17321 bound_to 7965
  140.5891  143.9811  150.6313 LP  0  0  0  0  0  0  0  0  0  0  0  0  # atno 17342 bound_to 10162
  140.2986  143.3276  152.0994 LP  0  0  0  0  0  0  0  0  0  0  0  0  # atno 17343 bound_to 10162
  157.4166  131.0831  151.1171 LP  0  0  0  0  0  0  0  0  0  0  0  0  # atno 17370 bound_to 10713
  157.1786  130.6299  149.5664 LP  0  0  0  0  0  0  0  0  0  0  0  0  # atno 17371 bound_to 10713
  140.2859  134.3296  155.7329 LP  0  0  0  0  0  0  0  0  0  0  0  0  # atno 17394 bound_to 11000
  141.2168  133.7506  156.9432 LP  0  0  0  0  0  0  0  0  0  0  0  0  # atno 17395 bound_to 11000

$$$$
