AV-unprocessed.smi:1780|AV-procd|sdf|7185|dock6
  -GOLD-   22720 8423D 1   1.00000     0.00000
 Structure written by MMmdl.
 44 45  0  0  0  0  0  0  0  0  2 V2000
  153.8511  140.7587  160.3752 C   0  0  0  0  0  0  0  0  0  0  0  0
  153.8203  142.2916  160.3599 C   0  0  0  0  0  0  0  0  0  0  0  0
  152.9211  142.8014  159.3431 N   0  0  0  0  0  0  0  0  0  0  0  0
  152.0839  142.0873  158.5090 C   0  0  0  0  0  0  0  0  0  0  0  0
  151.4509  143.0187  157.7354 C   0  0  0  0  0  0  0  0  0  0  0  0
  150.4847  142.8339  156.7142 N   0  0  0  0  0  0  0  0  0  0  0  0
  150.2493  141.7165  156.0075 C   0  0  0  0  0  0  0  0  0  0  0  0
  150.8717  140.6602  156.1216 O   0  0  0  0  0  0  0  0  0  0  0  0
  149.2377  141.8884  155.1448 N   0  0  0  0  0  0  0  0  0  0  0  0
  148.7192  140.8594  154.2473 C   0  0  0  0  0  0  0  0  0  0  0  0
  147.3462  141.2279  153.6161 C   0  0  2  0  0  0  0  0  0  0  0  0
  146.5448  142.1367  154.5774 C   0  0  0  0  0  0  0  0  0  0  0  0
  146.5281  140.0329  153.2219 N   0  3  0  0  0  0  0  0  0  0  0  0
  147.1084  139.2955  152.0654 C   0  0  0  0  0  0  0  0  0  0  0  0
  146.2088  138.1232  151.6419 C   0  0  0  0  0  0  0  0  0  0  0  0
  146.0241  137.2458  152.7420 O   0  0  0  0  0  0  0  0  0  0  0  0
  145.3718  137.8979  153.8207 C   0  0  0  0  0  0  0  0  0  0  0  0
  146.2299  139.0726  154.3211 C   0  0  0  0  0  0  0  0  0  0  0  0
  151.9547  144.2774  158.1550 C   0  0  0  0  0  0  0  0  0  0  0  0
  152.8428  144.1380  159.1276 N   0  0  0  0  0  0  0  0  0  0  0  0
  154.5175  140.3920  161.1558 H   0  0  0  0  0  0  0  0  0  0  0  0
  154.2034  140.3604  159.4234 H   0  0  0  0  0  0  0  0  0  0  0  0
  152.8589  140.3478  160.5642 H   0  0  0  0  0  0  0  0  0  0  0  0
  153.4994  142.6707  161.3307 H   0  0  0  0  0  0  0  0  0  0  0  0
  154.8194  142.6903  160.1785 H   0  0  0  0  0  0  0  0  0  0  0  0
  152.0212  141.0098  158.5454 H   0  0  0  0  0  0  0  0  0  0  0  0
  149.9000  143.6323  156.5146 H   0  0  0  0  0  0  0  0  0  0  0  0
  148.7843  142.7901  155.1162 H   0  0  0  0  0  0  0  0  0  0  0  0
  149.4788  140.6924  153.4826 H   0  0  0  0  0  0  0  0  0  0  0  0
  148.6342  139.9316  154.8140 H   0  0  0  0  0  0  0  0  0  0  0  0
  147.5517  141.7927  152.7053 H   0  0  0  0  0  0  0  0  0  0  0  0
  147.1113  143.0218  154.8661 H   0  0  0  0  0  0  0  0  0  0  0  0
  146.2807  141.6047  155.4917 H   0  0  0  0  0  0  0  0  0  0  0  0
  145.6241  142.5114  154.1344 H   0  0  0  0  0  0  0  0  0  0  0  0
  147.2391  139.9487  151.2051 H   0  0  0  0  0  0  0  0  0  0  0  0
  148.0981  138.9209  152.3316 H   0  0  0  0  0  0  0  0  0  0  0  0
  145.2458  138.4812  151.2743 H   0  0  0  0  0  0  0  0  0  0  0  0
  146.6744  137.5694  150.8264 H   0  0  0  0  0  0  0  0  0  0  0  0
  144.3840  138.2425  153.5104 H   0  0  0  0  0  0  0  0  0  0  0  0
  145.2173  137.1782  154.6249 H   0  0  0  0  0  0  0  0  0  0  0  0
  147.1635  138.7015  154.7471 H   0  0  0  0  0  0  0  0  0  0  0  0
  145.6714  139.5569  155.1211 H   0  0  0  0  0  0  0  0  0  0  0  0
  151.7105  145.2662  157.7959 H   0  0  0  0  0  0  0  0  0  0  0  0
  145.6328  140.3907  152.9209 H   0  0  0  0  0  0  0  0  0  0  0  0
  1  2  1  0  0  0  0
  1 21  1  0  0  0  0
  1 22  1  0  0  0  0
  1 23  1  0  0  0  0
  2  3  1  0  0  0  0
  2 24  1  0  0  0  0
  2 25  1  0  0  0  0
  3 20  1  0  0  0  0
  3  4  1  0  0  0  0
  4  5  2  0  0  0  0
  4 26  1  0  0  0  0
  5  6  1  0  0  0  0
  5 19  1  0  0  0  0
  6  7  1  0  0  0  0
  6 27  1  0  0  0  0
  7  8  2  0  0  0  0
  7  9  1  0  0  0  0
  9 10  1  0  0  0  0
  9 28  1  0  0  0  0
 10 11  1  0  0  0  0
 10 29  1  0  0  0  0
 10 30  1  0  0  0  0
 11 12  1  0  0  0  0
 11 13  1  0  0  0  0
 11 31  1  0  0  0  0
 12 32  1  0  0  0  0
 12 33  1  0  0  0  0
 12 34  1  0  0  0  0
 13 18  1  0  0  0  0
 13 14  1  0  0  0  0
 13 44  1  0  0  0  0
 14 15  1  0  0  0  0
 14 35  1  0  0  0  0
 14 36  1  0  0  0  0
 15 16  1  0  0  0  0
 15 37  1  0  0  0  0
 15 38  1  0  0  0  0
 16 17  1  0  0  0  0
 17 18  1  0  0  0  0
 17 39  1  0  0  0  0
 17 40  1  0  0  0  0
 18 41  1  0  0  0  0
 18 42  1  0  0  0  0
 19 20  2  0  0  0  0
 19 43  1  0  0  0  0
M  CHG  1  13   1
M  END
> <s_m_source_file>
AV-unprocessed.smi

> <i_m_source_file_index>
1780

> <i_lp_mmshare_version>
43012

> <i_f3d_flags>
0

> <s_epik_input>
W0NIM11bQ0gyXW4xW2NIXWMoW2NIXW4xKVtOSF1DKD1PKVtOSF1bQ0gyXVtDQEhdKFtDSDNdKU4yW0NIMl1bQ0gyXU9bQ0gyXVtDSDJdMg==

> <s_epik_cmdline>
J2VwaWtfcHl0aG9uJywgJy1waCcsICc3LjAnLCAnLXRuJywgJzgnLCAnLW1hJywgJzIwMCcsICctbWV0YWxfYmluZGluZycsICctaW1hZScsICc8aW5maWxlLm1hZT4nLCAnLW9tYWUnLCAnPG91dGZpbGUubWFlPic=

> <r_lp_tautomer_probability>
1

> <r_epik_Ionization_Penalty>
0.64612

> <r_epik_Ionization_Penalty_Charging>
0.645968

> <r_epik_Ionization_Penalty_Neutral>
0.000152026

> <r_epik_State_Penalty>
0.664063

> <r_epik_Charging_Adjusted_Penalty>
1.31003

> <i_epik_Tot_Q>
1

> <i_epik_Tot_abs_Q>
1

> <r_epik_Metal_State_Penalty>
0.664075

> <b_epik_Metal_Only>
0

> <s_lp_Force_Field>
OPLS_2005

> <r_lp_Energy>
24.4997

> <b_lp_Chiralities_Consistent>
1

> <s_lp_Variant>
AV-unprocessed.smi:1780-3

> <Gold.Version>
5.8.1

> <Gold.Id.Protein>
6NUR|6NUR_protein|mol2

> <Gold.PLP.Fitness>
52.9301

> <Gold.PLP.PLP>
-42.2602

> <Gold.PLP.part.hbond>
-3.0000

> <Gold.PLP.part.metal>
0.0000

> <Gold.PLP.part.buried>
-3.0799

> <Gold.PLP.part.nonpolar>
-38.0575

> <Gold.PLP.part.repulsive>
0.4564

> <Gold.PLP.ligand.clash>
0.0000

> <Gold.PLP.ligand.torsion>
0.6146

> <Gold.PLP.Chemscore.Hbond>
3.9440

> <Gold.PLP.Chemscore.CHOScore>
0.0000

> <Gold.PLP.Chemscore.Metal>
0.0000

> <Gold.Chemscore.Hbonds>
donor molecule, donor type, donor heavy atom, donor atom, acceptor molecule, acceptor atom, score
      L1  H     6    27       P1  8028  1.00
      L1  H     9    28       P1  8028  0.94
      L1  H    13    44       P1 10175  2.00

> <Gold.PLP.Chemscore.Internal.Correction>
0.0671

> <Gold.Rescore>
     Score         DG    S(hbond)    S(metal)    S(lipo)     H(rot)  DE(clash)    DE(int)     intcor
     19.95     -21.65       2.86        0.00      92.95       1.67       0.04       1.66       ----

> <Gold.Chemscore.Fitness>
19.9450

> <Gold.Chemscore.DG>
-21.6457

> <Gold.Chemscore.ZeroCoef>
-5.4800

> <Gold.Chemscore.Hbond>
2.8646

> <Gold.Chemscore.Metal>
0.0000

> <Gold.Chemscore.Lipo>
92.9501

> <Gold.Chemscore.Internal_Hbond>
0.0000

> <Gold.Chemscore.DEClash>
0.0368

> <Gold.Chemscore.DEInternal>
1.6638

> <Gold.Chemscore.Rot>
1.6708

> <Gold.Chemscore.Internal.Correction>
   9.000000E+99

> <Gold.Chemscore.Hbonds>
donor molecule, donor type, donor heavy atom, donor atom, acceptor molecule, acceptor atom, score
      L1  H     6    27       P1  8028  1.00
      L1  H     9    28       P1  8028  0.88
      L1  H    13    44       P1 10175  0.85

> <Gold.Chemscore.Hbond.Weighted>
-9.5678

> <Gold.Chemscore.Metal.Weighted>
-0.0000

> <Gold.Chemscore.Lipo.Weighted>
-10.8752

> <Gold.Chemscore.Internal_Hbond.Weighted>
0.0000

> <Gold.Chemscore.DEClash.Weighted>
0.0368

> <Gold.Chemscore.DEInternal.Weighted>
1.6638

> <Gold.Chemscore.Rot.Weighted>
4.2773

> <Gold.Chemscore.Internal.Correction.Weighted>
   9.000000E+99

> <Gold.Protein.RotatedTorsions>
[ 6907 6896 6895 6894 ] final   -3.10 input  -60.11 | X-H torsion
[ 7974 7965 7964 7962 ] final -124.81 input  175.53 | X-H torsion
[ 8008 7997 7996 7995 ] final -153.65 input   59.86 | X-H torsion
[ 10167 10162 10161 10158 ] final -171.17 input  -65.29 | X-H torsion
[ 10718 10713 10712 10709 ] final  -23.27 input   66.30 | X-H torsion
[ 10763 10752 10751 10750 ] final   69.12 input  -60.55 | X-H torsion
[ 11005 11000 10999 10996 ] final  161.43 input  -57.11 | X-H torsion

> <Gold.Protein.ActiveResidues>
 VAL166  LYS551  ARG553  GLY616  TRP617  ASP618  TYR619  PRO620  LYS621  CYS622 
 ASP623  PHE694  ASN695  SER759  ASP760  ASP761  ALA762  ILE779  LEU786  VAL792 
 PHE793  MET794  SER795  GLU796  ALA797  LYS798  CYS799  TRP800  GLU811  SER814 

> <Gold.Protein.RotatedAtoms>
  151.5192  135.1067  159.9873 H   0  0  0  0  0  0  0  0  0  0  0  0  # atno 6907 bound_to 6896
  152.4628  133.7854  159.6884 H   0  0  0  0  0  0  0  0  0  0  0  0  # atno 6908 bound_to 6896
  150.8597  133.7597  159.3022 H   0  0  0  0  0  0  0  0  0  0  0  0  # atno 6909 bound_to 6896
  145.0041  140.7847  143.4478 H   0  0  0  0  0  0  0  0  0  0  0  0  # atno 7974 bound_to 7965
  155.6740  140.0736  157.2509 H   0  0  0  0  0  0  0  0  0  0  0  0  # atno 8008 bound_to 7997
  154.4118  140.1694  156.1962 H   0  0  0  0  0  0  0  0  0  0  0  0  # atno 8009 bound_to 7997
  155.9592  140.3371  155.6478 H   0  0  0  0  0  0  0  0  0  0  0  0  # atno 8010 bound_to 7997
  139.5818  144.1406  152.1525 H   0  0  0  0  0  0  0  0  0  0  0  0  # atno 10167 bound_to 10162
  156.4933  130.4571  149.6743 H   0  0  0  0  0  0  0  0  0  0  0  0  # atno 10718 bound_to 10713
  153.0270  135.5222  154.7240 H   0  0  0  0  0  0  0  0  0  0  0  0  # atno 10763 bound_to 10752
  154.6287  135.2897  155.0244 H   0  0  0  0  0  0  0  0  0  0  0  0  # atno 10764 bound_to 10752
  154.1204  135.6608  153.4954 H   0  0  0  0  0  0  0  0  0  0  0  0  # atno 10765 bound_to 10752
  140.2158  134.8233  157.3168 H   0  0  0  0  0  0  0  0  0  0  0  0  # atno 11005 bound_to 11000
  145.2112  139.2204  143.5142 LP  0  0  0  0  0  0  0  0  0  0  0  0  # atno 17320 bound_to 7965
  146.3458  140.1951  142.8589 LP  0  0  0  0  0  0  0  0  0  0  0  0  # atno 17321 bound_to 7965
  140.0961  144.5579  150.7021 LP  0  0  0  0  0  0  0  0  0  0  0  0  # atno 17342 bound_to 10162
  140.7095  143.2494  151.4624 LP  0  0  0  0  0  0  0  0  0  0  0  0  # atno 17343 bound_to 10162
  156.3405  130.7379  151.2324 LP  0  0  0  0  0  0  0  0  0  0  0  0  # atno 17370 bound_to 10713
  157.7471  131.0405  150.4601 LP  0  0  0  0  0  0  0  0  0  0  0  0  # atno 17371 bound_to 10713
  140.1902  134.4381  155.7720 LP  0  0  0  0  0  0  0  0  0  0  0  0  # atno 17394 bound_to 11000
  141.2225  133.7024  156.8015 LP  0  0  0  0  0  0  0  0  0  0  0  0  # atno 17395 bound_to 11000

$$$$
