AV-unprocessed.smi:1252|AV-procd|sdf|5265|dock10
  -GOLD-   22720 4383D 1   1.00000     0.00000
 Structure written by MMmdl.
 43 44  0  0  0  0  0  0  0  0  1 V2000
  145.6739  135.8446  150.7865 C   0  0  0  0  0  0  0  0  0  0  0  0
  146.0820  134.5191  151.4620 C   0  0  1  0  0  0  0  0  0  0  0  0
  146.0818  134.5993  152.9986 C   0  0  0  0  0  0  0  0  0  0  0  0
  145.3392  133.8848  153.6726 O   0  0  0  0  0  0  0  0  0  0  0  0
  146.9301  135.4848  153.5407 N   0  0  0  0  0  0  0  0  0  0  0  0
  147.1402  135.6881  154.9695 C   0  0  0  0  0  0  0  0  0  0  0  0
  148.6536  135.7222  155.3272 C   0  0  0  0  0  0  0  0  0  0  0  0
  148.7631  135.6806  156.8704 C   0  0  0  0  0  0  0  0  0  0  0  0
  149.2557  134.3996  154.7856 C   0  0  0  0  0  0  0  0  0  0  0  0
  149.3323  136.9046  154.7252 N   0  0  0  0  0  0  0  0  0  0  0  0
  148.7644  138.2026  155.1087 C   0  0  0  0  0  0  0  0  0  0  0  0
  149.4268  139.3683  154.3554 C   0  0  0  0  0  0  0  0  0  0  0  0
  150.8298  139.3517  154.5877 O   0  0  0  0  0  0  0  0  0  0  0  0
  151.4330  138.1311  154.1758 C   0  0  0  0  0  0  0  0  0  0  0  0
  150.7855  136.9524  154.9227 C   0  0  0  0  0  0  0  0  0  0  0  0
  145.2599  133.4004  151.0131 N   0  0  0  0  0  0  0  0  0  0  0  0
  145.6220  132.1945  150.5695 C   0  0  0  0  0  0  0  0  0  0  0  0
  144.6029  131.3907  150.3002 N   0  0  0  0  0  0  0  0  0  0  0  0
  143.5673  132.2177  150.6311 C   0  0  0  0  0  0  0  0  0  0  0  0
  143.9050  133.4286  151.0736 N   0  0  0  0  0  0  0  0  0  0  0  0
  146.3549  136.6514  151.0592 H   0  0  0  0  0  0  0  0  0  0  0  0
  144.6661  136.1533  151.0675 H   0  0  0  0  0  0  0  0  0  0  0  0
  145.6993  135.7513  149.7005 H   0  0  0  0  0  0  0  0  0  0  0  0
  147.1075  134.3027  151.1581 H   0  0  0  0  0  0  0  0  0  0  0  0
  147.4983  136.0426  152.9197 H   0  0  0  0  0  0  0  0  0  0  0  0
  146.6333  136.6034  155.2763 H   0  0  0  0  0  0  0  0  0  0  0  0
  146.6457  134.8865  155.5217 H   0  0  0  0  0  0  0  0  0  0  0  0
  148.2676  134.7964  157.2733 H   0  0  0  0  0  0  0  0  0  0  0  0
  148.2917  136.5439  157.3395 H   0  0  0  0  0  0  0  0  0  0  0  0
  149.7978  135.6418  157.2098 H   0  0  0  0  0  0  0  0  0  0  0  0
  148.6591  133.5363  155.0831 H   0  0  0  0  0  0  0  0  0  0  0  0
  150.2608  134.2170  155.1657 H   0  0  0  0  0  0  0  0  0  0  0  0
  149.3096  134.3956  153.6960 H   0  0  0  0  0  0  0  0  0  0  0  0
  147.6969  138.2384  154.9005 H   0  0  0  0  0  0  0  0  0  0  0  0
  148.8841  138.3651  156.1800 H   0  0  0  0  0  0  0  0  0  0  0  0
  149.2253  139.3001  153.2850 H   0  0  0  0  0  0  0  0  0  0  0  0
  149.0205  140.3199  154.6979 H   0  0  0  0  0  0  0  0  0  0  0  0
  151.3255  138.0099  153.0968 H   0  0  0  0  0  0  0  0  0  0  0  0
  152.5013  138.1727  154.3881 H   0  0  0  0  0  0  0  0  0  0  0  0
  151.0198  137.0379  155.9838 H   0  0  0  0  0  0  0  0  0  0  0  0
  151.2572  136.0385  154.5660 H   0  0  0  0  0  0  0  0  0  0  0  0
  146.6531  131.8952  150.4500 H   0  0  0  0  0  0  0  0  0  0  0  0
  142.5334  131.9157  150.5502 H   0  0  0  0  0  0  0  0  0  0  0  0
  1  2  1  0  0  0  0
  1 21  1  0  0  0  0
  1 22  1  0  0  0  0
  1 23  1  0  0  0  0
  2  3  1  0  0  0  0
  2 16  1  0  0  0  0
  2 24  1  0  0  0  0
  3  4  2  0  0  0  0
  3  5  1  0  0  0  0
  5  6  1  0  0  0  0
  5 25  1  0  0  0  0
  6  7  1  0  0  0  0
  6 26  1  0  0  0  0
  6 27  1  0  0  0  0
  7  8  1  0  0  0  0
  7  9  1  0  0  0  0
  7 10  1  0  0  0  0
  8 28  1  0  0  0  0
  8 29  1  0  0  0  0
  8 30  1  0  0  0  0
  9 31  1  0  0  0  0
  9 32  1  0  0  0  0
  9 33  1  0  0  0  0
 10 15  1  0  0  0  0
 10 11  1  0  0  0  0
 11 12  1  0  0  0  0
 11 34  1  0  0  0  0
 11 35  1  0  0  0  0
 12 13  1  0  0  0  0
 12 36  1  0  0  0  0
 12 37  1  0  0  0  0
 13 14  1  0  0  0  0
 14 15  1  0  0  0  0
 14 38  1  0  0  0  0
 14 39  1  0  0  0  0
 15 40  1  0  0  0  0
 15 41  1  0  0  0  0
 16 20  1  0  0  0  0
 16 17  1  0  0  0  0
 17 18  2  0  0  0  0
 17 42  1  0  0  0  0
 18 19  1  0  0  0  0
 19 20  2  0  0  0  0
 19 43  1  0  0  0  0
M  END
> <s_m_source_file>
AV-unprocessed.smi

> <i_m_source_file_index>
1252

> <i_lp_mmshare_version>
43012

> <i_f3d_flags>
0

> <s_epik_input>
bjFbY0hdbltjSF1uMVtDQEhdKFtDSDNdKUMoPU8pW05IXVtDSDJdQyhbQ0gzXSkoW0NIM10pTjJbQ0gyXVtDSDJdT1tDSDJdW0NIMl0y

> <s_epik_cmdline>
J2VwaWtfcHl0aG9uJywgJy1waCcsICc3LjAnLCAnLXRuJywgJzgnLCAnLW1hJywgJzIwMCcsICctbWV0YWxfYmluZGluZycsICctaW1hZScsICc8aW5maWxlLm1hZT4nLCAnLW9tYWUnLCAnPG91dGZpbGUubWFlPic=

> <r_lp_tautomer_probability>
1

> <r_epik_Ionization_Penalty>
0.211373

> <r_epik_Ionization_Penalty_Charging>
0

> <r_epik_Ionization_Penalty_Neutral>
0.211373

> <r_epik_State_Penalty>
0.201459

> <r_epik_Charging_Adjusted_Penalty>
0.201459

> <i_epik_Tot_Q>
0

> <i_epik_Tot_abs_Q>
0

> <r_epik_Metal_State_Penalty>
0.201458

> <b_epik_Metal_Only>
0

> <s_lp_Force_Field>
OPLS_2005

> <r_lp_Energy>
47.0271

> <b_lp_Chiralities_Consistent>
1

> <s_lp_Variant>
AV-unprocessed.smi:1252-2

> <Gold.Version>
5.8.1

> <Gold.Id.Protein>
6NUR|6NUR_protein|mol2

> <Gold.PLP.Fitness>
39.4941

> <Gold.PLP.PLP>
-28.2113

> <Gold.PLP.part.hbond>
-2.9072

> <Gold.PLP.part.metal>
0.0000

> <Gold.PLP.part.buried>
-6.0106

> <Gold.PLP.part.nonpolar>
-22.0911

> <Gold.PLP.part.repulsive>
2.0227

> <Gold.PLP.ligand.clash>
0.0000

> <Gold.PLP.ligand.torsion>
0.4487

> <Gold.PLP.Chemscore.Hbond>
2.0052

> <Gold.PLP.Chemscore.CHOScore>
2.0000

> <Gold.PLP.Chemscore.Metal>
0.0000

> <Gold.Chemscore.Hbonds>
donor molecule, donor type, donor heavy atom, donor atom, acceptor molecule, acceptor atom, score
      L1  H     5    25       P1  7948  0.99
      P1  H  7989  7998       L1    13  1.00
      L1  C    17    42       P1 10747  0.96
      L1  C    19    43       P1 10952  1.00

> <Gold.PLP.Chemscore.Internal.Correction>
0.1646

> <Gold.Rescore>
     Score         DG    S(hbond)    S(metal)    S(lipo)     H(rot)  DE(clash)    DE(int)     intcor
      8.40      -9.30       1.42        0.00      47.24       2.52       0.29       0.61       ----

> <Gold.Chemscore.Fitness>
8.4004

> <Gold.Chemscore.DG>
-9.3038

> <Gold.Chemscore.ZeroCoef>
-5.4800

> <Gold.Chemscore.Hbond>
1.4180

> <Gold.Chemscore.Metal>
0.0000

> <Gold.Chemscore.Lipo>
47.2374

> <Gold.Chemscore.Internal_Hbond>
0.0000

> <Gold.Chemscore.DEClash>
0.2940

> <Gold.Chemscore.DEInternal>
0.6094

> <Gold.Chemscore.Rot>
2.5153

> <Gold.Chemscore.Internal.Correction>
   9.000000E+99

> <Gold.Chemscore.Hbonds>
donor molecule, donor type, donor heavy atom, donor atom, acceptor molecule, acceptor atom, score
      L1  H     5    25       P1  7948  0.94
      P1  H  7989  7998       L1    13  0.37

> <Gold.Chemscore.Hbond.Weighted>
-4.7362

> <Gold.Chemscore.Metal.Weighted>
-0.0000

> <Gold.Chemscore.Lipo.Weighted>
-5.5268

> <Gold.Chemscore.Internal_Hbond.Weighted>
0.0000

> <Gold.Chemscore.DEClash.Weighted>
0.2940

> <Gold.Chemscore.DEInternal.Weighted>
0.6094

> <Gold.Chemscore.Rot.Weighted>
6.4392

> <Gold.Chemscore.Internal.Correction.Weighted>
   9.000000E+99

> <Gold.Protein.RotatedTorsions>
[ 6907 6896 6895 6894 ] final   30.76 input  -60.11 | X-H torsion
[ 7974 7965 7964 7962 ] final  -20.72 input  175.53 | X-H torsion
[ 8008 7997 7996 7995 ] final  109.69 input   59.86 | X-H torsion
[ 10167 10162 10161 10158 ] final  -76.07 input  -65.29 | X-H torsion
[ 10718 10713 10712 10709 ] final   61.34 input   66.30 | X-H torsion
[ 10763 10752 10751 10750 ] final  -36.62 input  -60.55 | X-H torsion
[ 11005 11000 10999 10996 ] final  158.92 input  -57.11 | X-H torsion

> <Gold.Protein.ActiveResidues>
 VAL166  LYS551  ARG553  GLY616  TRP617  ASP618  TYR619  PRO620  LYS621  CYS622 
 ASP623  PHE694  ASN695  SER759  ASP760  ASP761  ALA762  ILE779  LEU786  VAL792 
 PHE793  MET794  SER795  GLU796  ALA797  LYS798  CYS799  TRP800  GLU811  SER814 

> <Gold.Protein.RotatedAtoms>
  152.0506  134.9656  160.0574 H   0  0  0  0  0  0  0  0  0  0  0  0  # atno 6907 bound_to 6896
  152.1058  133.4269  159.4616 H   0  0  0  0  0  0  0  0  0  0  0  0  # atno 6908 bound_to 6896
  150.6841  134.2625  159.4598 H   0  0  0  0  0  0  0  0  0  0  0  0  # atno 6909 bound_to 6896
  146.1773  140.4241  142.8508 H   0  0  0  0  0  0  0  0  0  0  0  0  # atno 7974 bound_to 7965
  156.1998  140.3053  155.9502 H   0  0  0  0  0  0  0  0  0  0  0  0  # atno 8008 bound_to 7997
  155.2981  140.0445  157.3044 H   0  0  0  0  0  0  0  0  0  0  0  0  # atno 8009 bound_to 7997
  154.5556  140.2304  155.8425 H   0  0  0  0  0  0  0  0  0  0  0  0  # atno 8010 bound_to 7997
  140.4888  143.2385  151.7940 H   0  0  0  0  0  0  0  0  0  0  0  0  # atno 10167 bound_to 10162
  157.5821  130.8989  149.9449 H   0  0  0  0  0  0  0  0  0  0  0  0  # atno 10718 bound_to 10713
  153.8828  135.6820  153.4766 H   0  0  0  0  0  0  0  0  0  0  0  0  # atno 10763 bound_to 10752
  153.1224  135.4734  154.9215 H   0  0  0  0  0  0  0  0  0  0  0  0  # atno 10764 bound_to 10752
  154.7660  135.3224  154.8237 H   0  0  0  0  0  0  0  0  0  0  0  0  # atno 10765 bound_to 10752
  140.1912  134.8406  157.2914 H   0  0  0  0  0  0  0  0  0  0  0  0  # atno 11005 bound_to 11000
  144.8257  140.6624  143.6324 LP  0  0  0  0  0  0  0  0  0  0  0  0  # atno 17320 bound_to 7965
  145.4176  139.1569  143.4092 LP  0  0  0  0  0  0  0  0  0  0  0  0  # atno 17321 bound_to 7965
  139.4847  144.4676  151.9465 LP  0  0  0  0  0  0  0  0  0  0  0  0  # atno 17342 bound_to 10162
  140.3762  144.2793  150.5914 LP  0  0  0  0  0  0  0  0  0  0  0  0  # atno 17343 bound_to 10162
  156.0867  130.3667  150.0473 LP  0  0  0  0  0  0  0  0  0  0  0  0  # atno 17370 bound_to 10713
  156.8611  130.9492  151.3618 LP  0  0  0  0  0  0  0  0  0  0  0  0  # atno 17371 bound_to 10713
  140.2158  134.4083  155.7590 LP  0  0  0  0  0  0  0  0  0  0  0  0  # atno 17394 bound_to 11000
  141.2226  133.7141  156.8411 LP  0  0  0  0  0  0  0  0  0  0  0  0  # atno 17395 bound_to 11000

$$$$
