AV-unprocessed.smi:1395|AV-procd|sdf|5669|dock2
  -GOLD-   22720 5293D 1   1.00000     0.00000
 Structure written by MMmdl.
 42 43  0  0  0  0  0  0  0  0  1 V2000
  141.2989  138.6879  153.9214 C   0  0  0  0  0  0  0  0  0  0  0  0
  141.6915  137.2542  153.6030 C   0  0  0  0  0  0  0  0  0  0  0  0
  140.6987  136.2515  153.5972 C   0  0  0  0  0  0  0  0  0  0  0  0
  141.0635  134.9266  153.3032 C   0  0  0  0  0  0  0  0  0  0  0  0
  142.4148  134.6590  153.0254 C   0  0  0  0  0  0  0  0  0  0  0  0
  143.3702  135.6107  153.0291 N   0  0  0  0  0  0  0  0  0  0  0  0
  143.0349  136.8950  153.3110 C   0  0  0  0  0  0  0  0  0  0  0  0
  143.9892  137.9511  153.3355 N   0  0  0  0  0  0  0  0  0  0  0  0
  145.2504  137.9307  153.8018 C   0  0  0  0  0  0  0  0  0  0  0  0
  145.8120  136.9550  154.3008 O   0  0  0  0  0  0  0  0  0  0  0  0
  145.8387  139.1264  153.6531 N   0  0  0  0  0  0  0  0  0  0  0  0
  147.2065  139.4481  154.0490 C   0  0  0  0  0  0  0  0  0  0  0  0
  147.3480  139.3314  155.5731 C   0  0  0  0  0  0  0  0  0  0  0  0
  148.7394  139.7893  156.0447 C   0  0  0  0  0  0  0  0  0  0  0  0
  148.9936  141.1758  155.6266 N   0  0  0  0  0  0  0  0  0  0  0  0
  150.2882  141.6928  156.1256 C   0  0  0  0  0  0  0  0  0  0  0  0
  151.4612  140.7134  155.9889 C   0  0  0  0  0  0  0  0  0  0  0  0
  152.1166  140.3871  157.1055 N   0  0  0  0  0  0  0  0  0  0  0  0
  151.7730  140.2604  154.8895 O   0  0  0  0  0  0  0  0  0  0  0  0
  148.9626  141.2762  154.1636 C   0  0  0  0  0  0  0  0  0  0  0  0
  147.5793  140.8768  153.6209 C   0  0  0  0  0  0  0  0  0  0  0  0
  140.2290  138.7735  154.1133 H   0  0  0  0  0  0  0  0  0  0  0  0
  141.5430  139.3454  153.0864 H   0  0  0  0  0  0  0  0  0  0  0  0
  141.8279  139.0400  154.8074 H   0  0  0  0  0  0  0  0  0  0  0  0
  139.6683  136.4916  153.8152 H   0  0  0  0  0  0  0  0  0  0  0  0
  140.3273  134.1366  153.2907 H   0  0  0  0  0  0  0  0  0  0  0  0
  142.7382  133.6549  152.7944 H   0  0  0  0  0  0  0  0  0  0  0  0
  143.6712  138.8276  152.9501 H   0  0  0  0  0  0  0  0  0  0  0  0
  145.3032  139.8707  153.2310 H   0  0  0  0  0  0  0  0  0  0  0  0
  147.8962  138.7415  153.5831 H   0  0  0  0  0  0  0  0  0  0  0  0
  146.5851  139.9359  156.0664 H   0  0  0  0  0  0  0  0  0  0  0  0
  147.1747  138.3009  155.8856 H   0  0  0  0  0  0  0  0  0  0  0  0
  148.7734  139.6965  157.1301 H   0  0  0  0  0  0  0  0  0  0  0  0
  149.5117  139.1286  155.6473 H   0  0  0  0  0  0  0  0  0  0  0  0
  150.5278  142.6302  155.6193 H   0  0  0  0  0  0  0  0  0  0  0  0
  150.1977  141.9291  157.1869 H   0  0  0  0  0  0  0  0  0  0  0  0
  152.8963  139.7472  157.0651 H   0  0  0  0  0  0  0  0  0  0  0  0
  151.8289  140.7846  157.9880 H   0  0  0  0  0  0  0  0  0  0  0  0
  149.1761  142.3015  153.8582 H   0  0  0  0  0  0  0  0  0  0  0  0
  149.7373  140.6467  153.7220 H   0  0  0  0  0  0  0  0  0  0  0  0
  147.5765  140.9562  152.5333 H   0  0  0  0  0  0  0  0  0  0  0  0
  146.8308  141.5827  153.9841 H   0  0  0  0  0  0  0  0  0  0  0  0
  1  2  1  0  0  0  0
  1 22  1  0  0  0  0
  1 23  1  0  0  0  0
  1 24  1  0  0  0  0
  2  7  1  0  0  0  0
  2  3  2  0  0  0  0
  3  4  1  0  0  0  0
  3 25  1  0  0  0  0
  4  5  2  0  0  0  0
  4 26  1  0  0  0  0
  5  6  1  0  0  0  0
  5 27  1  0  0  0  0
  6  7  2  0  0  0  0
  7  8  1  0  0  0  0
  8  9  1  0  0  0  0
  8 28  1  0  0  0  0
  9 10  2  0  0  0  0
  9 11  1  0  0  0  0
 11 12  1  0  0  0  0
 11 29  1  0  0  0  0
 12 21  1  0  0  0  0
 12 13  1  0  0  0  0
 12 30  1  0  0  0  0
 13 14  1  0  0  0  0
 13 31  1  0  0  0  0
 13 32  1  0  0  0  0
 14 15  1  0  0  0  0
 14 33  1  0  0  0  0
 14 34  1  0  0  0  0
 15 16  1  0  0  0  0
 15 20  1  0  0  0  0
 16 17  1  0  0  0  0
 16 35  1  0  0  0  0
 16 36  1  0  0  0  0
 17 18  1  0  0  0  0
 17 19  2  0  0  0  0
 18 37  1  0  0  0  0
 18 38  1  0  0  0  0
 20 21  1  0  0  0  0
 20 39  1  0  0  0  0
 20 40  1  0  0  0  0
 21 41  1  0  0  0  0
 21 42  1  0  0  0  0
M  END
> <s_m_source_file>
AV-unprocessed.smi

> <i_m_source_file_index>
1395

> <i_lp_mmshare_version>
43012

> <i_f3d_flags>
0

> <s_epik_input>
W0NIM11jMVtjSF1bY0hdW2NIXW5jMVtOSF1DKD1PKVtOSF1bQ0hdMltDSDJdW0NIMl1OKFtDSDJdW0NIMl0yKVtDSDJdQyg9TylbTkgyXQ==

> <s_epik_cmdline>
J2VwaWtfcHl0aG9uJywgJy1waCcsICc3LjAnLCAnLXRuJywgJzgnLCAnLW1hJywgJzIwMCcsICctbWV0YWxfYmluZGluZycsICctaW1hZScsICc8aW5maWxlLm1hZT4nLCAnLW9tYWUnLCAnPG91dGZpbGUubWFlPic=

> <r_epik_Ionization_Penalty>
0.164795

> <r_epik_Ionization_Penalty_Charging>
0

> <r_epik_Ionization_Penalty_Neutral>
0.164795

> <r_epik_State_Penalty>
0.154069

> <r_epik_Charging_Adjusted_Penalty>
0.154069

> <i_epik_Tot_Q>
0

> <i_epik_Tot_abs_Q>
0

> <r_epik_Metal_State_Penalty>
0.171366

> <b_epik_Metal_Only>
0

> <s_lp_Force_Field>
OPLS_2005

> <r_lp_Energy>
15.3703

> <b_lp_Chiralities_Consistent>
1

> <s_lp_Variant>
AV-unprocessed.smi:1395-1

> <Gold.Version>
5.8.1

> <Gold.Id.Protein>
6NUR|6NUR_protein|mol2

> <Gold.PLP.Fitness>
39.9131

> <Gold.PLP.PLP>
-29.1381

> <Gold.PLP.part.hbond>
-3.0000

> <Gold.PLP.part.metal>
0.0000

> <Gold.PLP.part.buried>
-1.6471

> <Gold.PLP.part.nonpolar>
-25.2089

> <Gold.PLP.part.repulsive>
0.4199

> <Gold.PLP.ligand.clash>
0.0000

> <Gold.PLP.ligand.torsion>
0.4717

> <Gold.PLP.Chemscore.Hbond>
2.9040

> <Gold.PLP.Chemscore.CHOScore>
1.0000

> <Gold.PLP.Chemscore.Metal>
0.0000

> <Gold.Chemscore.Hbonds>
donor molecule, donor type, donor heavy atom, donor atom, acceptor molecule, acceptor atom, score
      L1  H     8    28       P1 10175  1.00
      L1  H    11    29       P1 10175  0.99
      P1  H  7989  7998       L1    19  0.86
      L1  C     5    27       P1 10957  0.39

> <Gold.PLP.Chemscore.Internal.Correction>
0.0065

> <Gold.Rescore>
     Score         DG    S(hbond)    S(metal)    S(lipo)     H(rot)  DE(clash)    DE(int)     intcor
     16.69     -17.31       2.88        0.00      61.31       1.94       0.01       0.62       ----

> <Gold.Chemscore.Fitness>
16.6896

> <Gold.Chemscore.DG>
-17.3145

> <Gold.Chemscore.ZeroCoef>
-5.4800

> <Gold.Chemscore.Hbond>
2.8812

> <Gold.Chemscore.Metal>
0.0000

> <Gold.Chemscore.Lipo>
61.3099

> <Gold.Chemscore.Internal_Hbond>
0.0000

> <Gold.Chemscore.DEClash>
0.0079

> <Gold.Chemscore.DEInternal>
0.6170

> <Gold.Chemscore.Rot>
1.9383

> <Gold.Chemscore.Internal.Correction>
   9.000000E+99

> <Gold.Chemscore.Hbonds>
donor molecule, donor type, donor heavy atom, donor atom, acceptor molecule, acceptor atom, score
      L1  H     8    28       P1 10175  1.00
      L1  H    11    29       P1 10175  0.93
      P1  H  7989  7998       L1    19  0.80

> <Gold.Chemscore.Hbond.Weighted>
-9.6233

> <Gold.Chemscore.Metal.Weighted>
-0.0000

> <Gold.Chemscore.Lipo.Weighted>
-7.1733

> <Gold.Chemscore.Internal_Hbond.Weighted>
0.0000

> <Gold.Chemscore.DEClash.Weighted>
0.0079

> <Gold.Chemscore.DEInternal.Weighted>
0.6170

> <Gold.Chemscore.Rot.Weighted>
4.9620

> <Gold.Chemscore.Internal.Correction.Weighted>
   9.000000E+99

> <Gold.Protein.RotatedTorsions>
[ 6907 6896 6895 6894 ] final -175.21 input  -60.11 | X-H torsion
[ 7974 7965 7964 7962 ] final  150.85 input  175.53 | X-H torsion
[ 8008 7997 7996 7995 ] final  154.56 input   59.86 | X-H torsion
[ 10167 10162 10161 10158 ] final -156.16 input  -65.29 | X-H torsion
[ 10718 10713 10712 10709 ] final  172.87 input   66.30 | X-H torsion
[ 10763 10752 10751 10750 ] final  140.18 input  -60.55 | X-H torsion
[ 11005 11000 10999 10996 ] final -119.56 input  -57.11 | X-H torsion

> <Gold.Protein.ActiveResidues>
 VAL166  LYS551  ARG553  GLY616  TRP617  ASP618  TYR619  PRO620  LYS621  CYS622 
 ASP623  PHE694  ASN695  SER759  ASP760  ASP761  ALA762  ILE779  LEU786  VAL792 
 PHE793  MET794  SER795  GLU796  ALA797  LYS798  CYS799  TRP800  GLU811  SER814 

> <Gold.Protein.RotatedAtoms>
  151.5849  133.3373  159.3015 H   0  0  0  0  0  0  0  0  0  0  0  0  # atno 6907 bound_to 6896
  150.8292  134.7541  159.6851 H   0  0  0  0  0  0  0  0  0  0  0  0  # atno 6908 bound_to 6896
  152.4378  134.5658  159.9958 H   0  0  0  0  0  0  0  0  0  0  0  0  # atno 6909 bound_to 6896
  144.8334  139.6461  143.6048 H   0  0  0  0  0  0  0  0  0  0  0  0  # atno 7974 bound_to 7965
  156.2524  140.1963  156.6666 H   0  0  0  0  0  0  0  0  0  0  0  0  # atno 8008 bound_to 7997
  154.6424  140.0582  156.9887 H   0  0  0  0  0  0  0  0  0  0  0  0  # atno 8009 bound_to 7997
  155.1542  140.3254  155.4427 H   0  0  0  0  0  0  0  0  0  0  0  0  # atno 8010 bound_to 7997
  139.6873  143.9480  152.2367 H   0  0  0  0  0  0  0  0  0  0  0  0  # atno 10167 bound_to 10162
  156.9727  131.0095  151.2901 H   0  0  0  0  0  0  0  0  0  0  0  0  # atno 10718 bound_to 10713
  153.9183  135.3003  155.3448 H   0  0  0  0  0  0  0  0  0  0  0  0  # atno 10763 bound_to 10752
  154.7588  135.4944  153.9428 H   0  0  0  0  0  0  0  0  0  0  0  0  # atno 10764 bound_to 10752
  153.1155  135.6769  153.9528 H   0  0  0  0  0  0  0  0  0  0  0  0  # atno 10765 bound_to 10752
  141.0206  134.0129  157.3287 H   0  0  0  0  0  0  0  0  0  0  0  0  # atno 11005 bound_to 11000
  146.2635  139.6466  142.9345 LP  0  0  0  0  0  0  0  0  0  0  0  0  # atno 17320 bound_to 7965
  145.4846  141.0438  143.2627 LP  0  0  0  0  0  0  0  0  0  0  0  0  # atno 17321 bound_to 7965
  139.9286  144.6755  150.8386 LP  0  0  0  0  0  0  0  0  0  0  0  0  # atno 17342 bound_to 10162
  140.7671  143.3324  151.2381 LP  0  0  0  0  0  0  0  0  0  0  0  0  # atno 17343 bound_to 10162
  157.5581  130.8227  149.8231 LP  0  0  0  0  0  0  0  0  0  0  0  0  # atno 17370 bound_to 10713
  156.0276  130.3774  150.1778 LP  0  0  0  0  0  0  0  0  0  0  0  0  # atno 17371 bound_to 10713
  139.9144  135.0195  156.7822 LP  0  0  0  0  0  0  0  0  0  0  0  0  # atno 17394 bound_to 11000
  140.6579  133.9672  155.7789 LP  0  0  0  0  0  0  0  0  0  0  0  0  # atno 17395 bound_to 11000

$$$$
