AV-unprocessed.smi:742|AV-procd|sdf|3559|dock3
  -GOLD-   22720 0553D 1   1.00000     0.00000
 Structure written by MMmdl.
 24 24  0  0  0  0  0  0  0  0  3 V2000
  148.4148  138.6719  152.9287 N   0  3  0  0  0  0  0  0  0  0  0  0
  148.9597  139.2570  154.1629 C   0  0  0  0  0  0  0  0  0  0  0  0
  150.4184  138.8243  154.3739 C   0  0  0  0  0  0  0  0  0  0  0  0
  151.2193  139.9272  154.8773 N   0  5  0  0  0  0  0  0  0  0  0  0
  151.1377  140.3466  156.4442 S   0  0  0  0  0  0  0  0  0  0  0  0
  149.9848  139.7421  157.1318 O   0  0  0  0  0  0  0  0  0  0  0  0
  152.4453  140.2431  157.1119 O   0  0  0  0  0  0  0  0  0  0  0  0
  150.7866  142.1552  156.3059 C   0  0  0  0  0  0  0  0  0  0  0  0
  151.0132  142.8431  157.6246 C   0  0  0  0  0  0  0  0  0  0  0  0
  151.7965  143.9993  157.8973 C   0  0  0  0  0  0  0  0  0  0  0  0
  151.6495  144.1750  159.2428 C   0  0  0  0  0  0  0  0  0  0  0  0
  150.8516  143.2093  159.7639 O   0  0  0  0  0  0  0  0  0  0  0  0
  150.4532  142.3618  158.7240 N   0  0  0  0  0  0  0  0  0  0  0  0
  147.4109  138.5972  153.0056 H   0  0  0  0  0  0  0  0  0  0  0  0
  148.8153  137.7547  152.7927 H   0  0  0  0  0  0  0  0  0  0  0  0
  148.8858  140.3432  154.0964 H   0  0  0  0  0  0  0  0  0  0  0  0
  148.3287  138.9373  154.9916 H   0  0  0  0  0  0  0  0  0  0  0  0
  150.4471  137.9606  155.0388 H   0  0  0  0  0  0  0  0  0  0  0  0
  150.8125  138.4686  153.4211 H   0  0  0  0  0  0  0  0  0  0  0  0
  151.4522  142.5601  155.5430 H   0  0  0  0  0  0  0  0  0  0  0  0
  149.7659  142.2907  155.9489 H   0  0  0  0  0  0  0  0  0  0  0  0
  152.3696  144.6052  157.2115 H   0  0  0  0  0  0  0  0  0  0  0  0
  152.0317  144.9040  159.9420 H   0  0  0  0  0  0  0  0  0  0  0  0
  148.6543  139.2638  152.1463 H   0  0  0  0  0  0  0  0  0  0  0  0
  1  2  1  0  0  0  0
  1 14  1  0  0  0  0
  1 15  1  0  0  0  0
  1 24  1  0  0  0  0
  2  3  1  0  0  0  0
  2 16  1  0  0  0  0
  2 17  1  0  0  0  0
  3  4  1  0  0  0  0
  3 18  1  0  0  0  0
  3 19  1  0  0  0  0
  4  5  1  0  0  0  0
  5  6  2  0  0  0  0
  5  7  2  0  0  0  0
  5  8  1  0  0  0  0
  8  9  1  0  0  0  0
  8 20  1  0  0  0  0
  8 21  1  0  0  0  0
  9 13  2  0  0  0  0
  9 10  1  0  0  0  0
 10 11  2  0  0  0  0
 10 22  1  0  0  0  0
 11 12  1  0  0  0  0
 11 23  1  0  0  0  0
 12 13  1  0  0  0  0
M  CHG  1   1   1
M  CHG  1   4  -1
M  END
> <s_m_source_file>
AV-unprocessed.smi

> <i_m_source_file_index>
742

> <i_lp_mmshare_version>
43012

> <i_f3d_flags>
0

> <s_epik_input>
W05IMl1bQ0gyXVtDSDJdW05IXVMoPU8pKD1PKVtDSDJdYzFbY0hdW2NIXW9uMQ==

> <s_epik_cmdline>
J2VwaWtfcHl0aG9uJywgJy1waCcsICc3LjAnLCAnLXRuJywgJzgnLCAnLW1hJywgJzIwMCcsICctbWV0YWxfYmluZGluZycsICctaW1hZScsICc8aW5maWxlLm1hZT4nLCAnLW9tYWUnLCAnPG91dGZpbGUubWFlPic=

> <r_lp_tautomer_probability>
1

> <r_epik_Ionization_Penalty>
3.53052

> <r_epik_Ionization_Penalty_Charging>
3.53052

> <r_epik_Ionization_Penalty_Neutral>
1.92474e-10

> <r_epik_State_Penalty>
3.52863

> <r_epik_Charging_Adjusted_Penalty>
7.05915

> <i_epik_Tot_Q>
0

> <i_epik_Tot_abs_Q>
2

> <r_epik_Metal_State_Penalty>
0.514327

> <b_epik_Metal_Only>
1

> <s_lp_Force_Field>
OPLS_2005

> <r_lp_Energy>
-11.204

> <b_lp_Chiralities_Consistent>
1

> <s_lp_Variant>
AV-unprocessed.smi:742-2

> <Gold.Version>
5.8.1

> <Gold.Id.Protein>
6NUR|6NUR_protein|mol2

> <Gold.PLP.Fitness>
41.1310

> <Gold.PLP.PLP>
-27.6535

> <Gold.PLP.part.hbond>
-4.7086

> <Gold.PLP.part.metal>
0.0000

> <Gold.PLP.part.buried>
-2.9651

> <Gold.PLP.part.nonpolar>
-19.5892

> <Gold.PLP.part.repulsive>
0.2055

> <Gold.PLP.ligand.clash>
0.0000

> <Gold.PLP.ligand.torsion>
1.2736

> <Gold.PLP.Chemscore.Hbond>
5.0000

> <Gold.PLP.Chemscore.CHOScore>
0.0000

> <Gold.PLP.Chemscore.Metal>
0.0000

> <Gold.Chemscore.Hbonds>
donor molecule, donor type, donor heavy atom, donor atom, acceptor molecule, acceptor atom, score
      L1  H     1    15       P1  7948  2.00
      L1  H     1    24       P1  7957  1.00
      P1  H  7989  7998       L1     4  1.00
      P1  H  7997  8009       L1     7  1.00

> <Gold.PLP.Chemscore.Internal.Correction>
1.0248

> <Gold.Rescore>
     Score         DG    S(hbond)    S(metal)    S(lipo)     H(rot)  DE(clash)    DE(int)     intcor
     17.83     -19.23       3.83        0.00      57.03       2.23       0.00       1.40       ----

> <Gold.Chemscore.Fitness>
17.8263

> <Gold.Chemscore.DG>
-19.2287

> <Gold.Chemscore.ZeroCoef>
-5.4800

> <Gold.Chemscore.Hbond>
3.8280

> <Gold.Chemscore.Metal>
0.0000

> <Gold.Chemscore.Lipo>
57.0294

> <Gold.Chemscore.Internal_Hbond>
0.0000

> <Gold.Chemscore.DEClash>
0.0004

> <Gold.Chemscore.DEInternal>
1.4019

> <Gold.Chemscore.Rot>
2.2303

> <Gold.Chemscore.Internal.Correction>
   9.000000E+99

> <Gold.Chemscore.Hbonds>
donor molecule, donor type, donor heavy atom, donor atom, acceptor molecule, acceptor atom, score
      L1  H     1    15       P1  7948  0.95
      L1  H     1    24       P1  7957  0.95
      P1  H  7989  7998       L1     4  0.55
      P1  H  7997  8009       L1     7  0.92

> <Gold.Chemscore.Hbond.Weighted>
-12.7857

> <Gold.Chemscore.Metal.Weighted>
-0.0000

> <Gold.Chemscore.Lipo.Weighted>
-6.6724

> <Gold.Chemscore.Internal_Hbond.Weighted>
0.0000

> <Gold.Chemscore.DEClash.Weighted>
0.0004

> <Gold.Chemscore.DEInternal.Weighted>
1.4019

> <Gold.Chemscore.Rot.Weighted>
5.7094

> <Gold.Chemscore.Internal.Correction.Weighted>
   9.000000E+99

> <Gold.Protein.RotatedTorsions>
[ 6907 6896 6895 6894 ] final  101.00 input  -60.11 | X-H torsion
[ 7974 7965 7964 7962 ] final  159.64 input  175.53 | X-H torsion
[ 8008 7997 7996 7995 ] final -172.48 input   59.86 | X-H torsion
[ 10167 10162 10161 10158 ] final   72.13 input  -65.29 | X-H torsion
[ 10718 10713 10712 10709 ] final   77.12 input   66.30 | X-H torsion
[ 10763 10752 10751 10750 ] final  -80.17 input  -60.55 | X-H torsion
[ 11005 11000 10999 10996 ] final  -67.81 input  -57.11 | X-H torsion

> <Gold.Protein.ActiveResidues>
 VAL166  LYS551  ARG553  GLY616  TRP617  ASP618  TYR619  PRO620  LYS621  CYS622 
 ASP623  PHE694  ASN695  SER759  ASP760  ASP761  ALA762  ILE779  LEU786  VAL792 
 PHE793  MET794  SER795  GLU796  ALA797  LYS798  CYS799  TRP800  GLU811  SER814 

> <Gold.Protein.RotatedAtoms>
  152.5359  134.0192  159.7973 H   0  0  0  0  0  0  0  0  0  0  0  0  # atno 6907 bound_to 6896
  151.0381  133.5722  159.2661 H   0  0  0  0  0  0  0  0  0  0  0  0  # atno 6908 bound_to 6896
  151.2702  135.0689  159.9185 H   0  0  0  0  0  0  0  0  0  0  0  0  # atno 6909 bound_to 6896
  144.7779  139.7646  143.6271 H   0  0  0  0  0  0  0  0  0  0  0  0  # atno 7974 bound_to 7965
  155.9452  140.1116  157.1023 H   0  0  0  0  0  0  0  0  0  0  0  0  # atno 8008 bound_to 7997
  154.4097  140.1211  156.5045 H   0  0  0  0  0  0  0  0  0  0  0  0  # atno 8009 bound_to 7997
  155.6912  140.3472  155.4896 H   0  0  0  0  0  0  0  0  0  0  0  0  # atno 8010 bound_to 7997
  140.0386  144.5408  150.7452 H   0  0  0  0  0  0  0  0  0  0  0  0  # atno 10167 bound_to 10162
  157.6699  130.9807  150.1596 H   0  0  0  0  0  0  0  0  0  0  0  0  # atno 10718 bound_to 10713
  154.5479  135.5670  153.6896 H   0  0  0  0  0  0  0  0  0  0  0  0  # atno 10763 bound_to 10752
  152.9981  135.6243  154.2414 H   0  0  0  0  0  0  0  0  0  0  0  0  # atno 10764 bound_to 10752
  154.2348  135.2864  155.2856 H   0  0  0  0  0  0  0  0  0  0  0  0  # atno 10765 bound_to 10752
  141.1517  133.6727  156.6349 H   0  0  0  0  0  0  0  0  0  0  0  0  # atno 11005 bound_to 11000
  146.1970  139.5242  142.9768 LP  0  0  0  0  0  0  0  0  0  0  0  0  # atno 17320 bound_to 7965
  145.6133  141.0336  143.1954 LP  0  0  0  0  0  0  0  0  0  0  0  0  # atno 17321 bound_to 7965
  140.7270  143.2647  151.4084 LP  0  0  0  0  0  0  0  0  0  0  0  0  # atno 17342 bound_to 10162
  139.6029  144.1258  152.2217 LP  0  0  0  0  0  0  0  0  0  0  0  0  # atno 17343 bound_to 10162
  156.2375  130.3688  149.8374 LP  0  0  0  0  0  0  0  0  0  0  0  0  # atno 17370 bound_to 10713
  156.6183  130.8616  151.3470 LP  0  0  0  0  0  0  0  0  0  0  0  0  # atno 17371 bound_to 10713
  140.3438  134.7827  157.4417 LP  0  0  0  0  0  0  0  0  0  0  0  0  # atno 17394 bound_to 11000
  140.0916  134.5593  155.8438 LP  0  0  0  0  0  0  0  0  0  0  0  0  # atno 17395 bound_to 11000

$$$$
