AV-unprocessed.smi:2507|AV-procd|sdf|9864|dock8
  -GOLD-   2272013493D 1   1.00000     0.00000
 Structure written by MMmdl.
 44 45  0  0  0  0  0  0  0  0  1 V2000
  142.0002  135.0921  153.5617 C   0  0  0  0  0  0  0  0  0  0  0  0
  143.5199  135.2903  153.5743 C   0  0  0  0  0  0  0  0  0  0  0  0
  144.1568  134.8369  152.2894 C   0  0  0  0  0  0  0  0  0  0  0  0
  143.5231  133.9761  151.5045 N   0  0  0  0  0  0  0  0  0  0  0  0
  144.3482  133.7843  150.4475 N   0  0  0  0  0  0  0  0  0  0  0  0
  143.9469  132.8808  149.3908 C   0  0  0  0  0  0  0  0  0  0  0  0
  145.5094  134.5228  150.5491 C   0  0  0  0  0  0  0  0  0  0  0  0
  145.4075  135.2098  151.7258 C   0  0  0  0  0  0  0  0  0  0  0  0
  146.3227  136.1204  152.3134 N   0  0  0  0  0  0  0  0  0  0  0  0
  146.0368  137.2408  152.9966 C   0  0  0  0  0  0  0  0  0  0  0  0
  144.9024  137.6585  153.2294 O   0  0  0  0  0  0  0  0  0  0  0  0
  147.1541  137.8618  153.4000 N   0  0  0  0  0  0  0  0  0  0  0  0
  147.1951  139.1063  154.1590 C   0  0  0  0  0  0  0  0  0  0  0  0
  148.5035  139.8775  153.9134 C   0  0  0  0  0  0  0  0  0  0  0  0
  149.6630  139.3838  154.7928 C   0  0  1  0  0  0  0  0  0  0  0  0
  150.4087  138.1985  154.1488 C   0  0  0  0  0  0  0  0  0  0  0  0
  151.6054  137.7802  155.0106 C   0  0  0  0  0  0  0  0  0  0  0  0
  152.4886  138.9992  155.2949 C   0  0  0  0  0  0  0  0  0  0  0  0
  151.6450  140.1453  155.8752 C   0  0  0  0  0  0  0  0  0  0  0  0
  150.5782  140.4607  154.9857 O   0  0  0  0  0  0  0  0  0  0  0  0
  141.5565  135.4290  154.4987 H   0  0  0  0  0  0  0  0  0  0  0  0
  141.7408  134.0413  153.4292 H   0  0  0  0  0  0  0  0  0  0  0  0
  141.5377  135.6568  152.7518 H   0  0  0  0  0  0  0  0  0  0  0  0
  143.7455  136.3416  153.7529 H   0  0  0  0  0  0  0  0  0  0  0  0
  143.9489  134.7451  154.4160 H   0  0  0  0  0  0  0  0  0  0  0  0
  144.7060  132.8592  148.6083 H   0  0  0  0  0  0  0  0  0  0  0  0
  143.0022  133.2131  148.9592 H   0  0  0  0  0  0  0  0  0  0  0  0
  143.8233  131.8749  149.7928 H   0  0  0  0  0  0  0  0  0  0  0  0
  146.2783  134.4906  149.7916 H   0  0  0  0  0  0  0  0  0  0  0  0
  147.3000  135.8956  152.1982 H   0  0  0  0  0  0  0  0  0  0  0  0
  148.0422  137.4440  153.1640 H   0  0  0  0  0  0  0  0  0  0  0  0
  146.3300  139.7235  153.9103 H   0  0  0  0  0  0  0  0  0  0  0  0
  147.1041  138.8576  155.2164 H   0  0  0  0  0  0  0  0  0  0  0  0
  148.7832  139.7744  152.8642 H   0  0  0  0  0  0  0  0  0  0  0  0
  148.3456  140.9430  154.0856 H   0  0  0  0  0  0  0  0  0  0  0  0
  149.2628  139.0749  155.7602 H   0  0  0  0  0  0  0  0  0  0  0  0
  149.7331  137.3528  154.0165 H   0  0  0  0  0  0  0  0  0  0  0  0
  150.7571  138.4793  153.1538 H   0  0  0  0  0  0  0  0  0  0  0  0
  151.2504  137.3559  155.9506 H   0  0  0  0  0  0  0  0  0  0  0  0
  152.1808  137.0003  154.5108 H   0  0  0  0  0  0  0  0  0  0  0  0
  153.2902  138.7329  155.9843 H   0  0  0  0  0  0  0  0  0  0  0  0
  152.9653  139.3299  154.3713 H   0  0  0  0  0  0  0  0  0  0  0  0
  151.2484  139.8785  156.8559 H   0  0  0  0  0  0  0  0  0  0  0  0
  152.2626  141.0326  156.0132 H   0  0  0  0  0  0  0  0  0  0  0  0
  1  2  1  0  0  0  0
  1 21  1  0  0  0  0
  1 22  1  0  0  0  0
  1 23  1  0  0  0  0
  2  3  1  0  0  0  0
  2 24  1  0  0  0  0
  2 25  1  0  0  0  0
  3  8  1  0  0  0  0
  3  4  2  0  0  0  0
  4  5  1  0  0  0  0
  5  6  1  0  0  0  0
  5  7  1  0  0  0  0
  6 26  1  0  0  0  0
  6 27  1  0  0  0  0
  6 28  1  0  0  0  0
  7  8  2  0  0  0  0
  7 29  1  0  0  0  0
  8  9  1  0  0  0  0
  9 10  1  0  0  0  0
  9 30  1  0  0  0  0
 10 11  2  0  0  0  0
 10 12  1  0  0  0  0
 12 13  1  0  0  0  0
 12 31  1  0  0  0  0
 13 14  1  0  0  0  0
 13 32  1  0  0  0  0
 13 33  1  0  0  0  0
 14 15  1  0  0  0  0
 14 34  1  0  0  0  0
 14 35  1  0  0  0  0
 15 20  1  0  0  0  0
 15 16  1  0  0  0  0
 15 36  1  0  0  0  0
 16 17  1  0  0  0  0
 16 37  1  0  0  0  0
 16 38  1  0  0  0  0
 17 18  1  0  0  0  0
 17 39  1  0  0  0  0
 17 40  1  0  0  0  0
 18 19  1  0  0  0  0
 18 41  1  0  0  0  0
 18 42  1  0  0  0  0
 19 20  1  0  0  0  0
 19 43  1  0  0  0  0
 19 44  1  0  0  0  0
M  END
> <s_m_source_file>
AV-unprocessed.smi

> <i_m_source_file_index>
2507

> <i_lp_mmshare_version>
43012

> <i_f3d_flags>
0

> <s_epik_input>
W0NIM11bQ0gyXWMxbm4oW0NIM10pW2NIXWMxW05IXUMoPU8pW05IXVtDSDJdW0NIMl1bQ0BASF0yW0NIMl1bQ0gyXVtDSDJdW0NIMl1PMg==

> <s_epik_cmdline>
J2VwaWtfcHl0aG9uJywgJy1waCcsICc3LjAnLCAnLXRuJywgJzgnLCAnLW1hJywgJzIwMCcsICctbWV0YWxfYmluZGluZycsICctaW1hZScsICc8aW5maWxlLm1hZT4nLCAnLW9tYWUnLCAnPG91dGZpbGUubWFlPic=

> <r_lp_tautomer_probability>
1

> <r_epik_Ionization_Penalty>
0.00072031

> <r_epik_Ionization_Penalty_Charging>
0

> <r_epik_Ionization_Penalty_Neutral>
0.00072031

> <r_epik_State_Penalty>
-0

> <r_epik_Charging_Adjusted_Penalty>
0

> <i_epik_Tot_Q>
0

> <i_epik_Tot_abs_Q>
0

> <r_epik_Metal_State_Penalty>
-0

> <b_epik_Metal_Only>
0

> <s_lp_Force_Field>
OPLS_2005

> <r_lp_Energy>
7.2839

> <b_lp_Chiralities_Consistent>
1

> <s_lp_Variant>
AV-unprocessed.smi:2507-2

> <Gold.Version>
5.8.1

> <Gold.Id.Protein>
6NUR|6NUR_protein|mol2

> <Gold.PLP.Fitness>
44.2264

> <Gold.PLP.PLP>
-35.4326

> <Gold.PLP.part.hbond>
-3.0000

> <Gold.PLP.part.metal>
0.0000

> <Gold.PLP.part.buried>
-3.7105

> <Gold.PLP.part.nonpolar>
-30.6981

> <Gold.PLP.part.repulsive>
0.4931

> <Gold.PLP.ligand.clash>
0.0000

> <Gold.PLP.ligand.torsion>
1.1950

> <Gold.PLP.Chemscore.Hbond>
2.7800

> <Gold.PLP.Chemscore.CHOScore>
0.9322

> <Gold.PLP.Chemscore.Metal>
0.0000

> <Gold.Chemscore.Hbonds>
donor molecule, donor type, donor heavy atom, donor atom, acceptor molecule, acceptor atom, score
      L1  H     9    30       P1  7948  1.00
      L1  H    12    31       P1  7948  0.88
      P1  H  7989  7998       L1    20  0.85
      L1  C     7    29       P1  7921  0.94

> <Gold.PLP.Chemscore.Internal.Correction>
0.0472

> <Gold.Rescore>
     Score         DG    S(hbond)    S(metal)    S(lipo)     H(rot)  DE(clash)    DE(int)     intcor
     15.77     -19.21       2.50        0.00      79.04       1.50       0.97       2.48       ----

> <Gold.Chemscore.Fitness>
15.7654

> <Gold.Chemscore.DG>
-19.2114

> <Gold.Chemscore.ZeroCoef>
-5.4800

> <Gold.Chemscore.Hbond>
2.4953

> <Gold.Chemscore.Metal>
0.0000

> <Gold.Chemscore.Lipo>
79.0419

> <Gold.Chemscore.Internal_Hbond>
0.0000

> <Gold.Chemscore.DEClash>
0.9708

> <Gold.Chemscore.DEInternal>
2.4752

> <Gold.Chemscore.Rot>
1.5042

> <Gold.Chemscore.Internal.Correction>
   9.000000E+99

> <Gold.Chemscore.Hbonds>
donor molecule, donor type, donor heavy atom, donor atom, acceptor molecule, acceptor atom, score
      L1  H     9    30       P1  7948  0.98
      L1  H    12    31       P1  7948  0.84
      P1  H  7989  7998       L1    20  0.13

> <Gold.Chemscore.Hbond.Weighted>
-8.3342

> <Gold.Chemscore.Metal.Weighted>
-0.0000

> <Gold.Chemscore.Lipo.Weighted>
-9.2479

> <Gold.Chemscore.Internal_Hbond.Weighted>
0.0000

> <Gold.Chemscore.DEClash.Weighted>
0.9708

> <Gold.Chemscore.DEInternal.Weighted>
2.4752

> <Gold.Chemscore.Rot.Weighted>
3.8507

> <Gold.Chemscore.Internal.Correction.Weighted>
   9.000000E+99

> <Gold.Protein.RotatedTorsions>
[ 6907 6896 6895 6894 ] final  170.94 input  -60.11 | X-H torsion
[ 7974 7965 7964 7962 ] final   42.38 input  175.53 | X-H torsion
[ 8008 7997 7996 7995 ] final  -51.48 input   59.86 | X-H torsion
[ 10167 10162 10161 10158 ] final  159.09 input  -65.29 | X-H torsion
[ 10718 10713 10712 10709 ] final  -87.38 input   66.30 | X-H torsion
[ 10763 10752 10751 10750 ] final -113.22 input  -60.55 | X-H torsion
[ 11005 11000 10999 10996 ] final  112.69 input  -57.11 | X-H torsion

> <Gold.Protein.ActiveResidues>
 VAL166  LYS551  ARG553  GLY616  TRP617  ASP618  TYR619  PRO620  LYS621  CYS622 
 ASP623  PHE694  ASN695  SER759  ASP760  ASP761  ALA762  ILE779  LEU786  VAL792 
 PHE793  MET794  SER795  GLU796  ALA797  LYS798  CYS799  TRP800  GLU811  SER814 

> <Gold.Protein.RotatedAtoms>
  151.8081  133.3378  159.3546 H   0  0  0  0  0  0  0  0  0  0  0  0  # atno 6907 bound_to 6896
  150.7335  134.5690  159.5890 H   0  0  0  0  0  0  0  0  0  0  0  0  # atno 6908 bound_to 6896
  152.3095  134.7516  160.0391 H   0  0  0  0  0  0  0  0  0  0  0  0  # atno 6909 bound_to 6896
  146.0745  139.5307  142.9576 H   0  0  0  0  0  0  0  0  0  0  0  0  # atno 7974 bound_to 7965
  154.4084  140.1247  156.4836 H   0  0  0  0  0  0  0  0  0  0  0  0  # atno 8008 bound_to 7997
  155.7060  140.3494  155.4934 H   0  0  0  0  0  0  0  0  0  0  0  0  # atno 8009 bound_to 7997
  155.9342  140.1075  157.1097 H   0  0  0  0  0  0  0  0  0  0  0  0  # atno 8010 bound_to 7997
  139.4830  144.4763  151.8507 H   0  0  0  0  0  0  0  0  0  0  0  0  # atno 10167 bound_to 10162
  155.9985  130.4798  150.4859 H   0  0  0  0  0  0  0  0  0  0  0  0  # atno 10718 bound_to 10713
  154.8386  135.4462  154.1315 H   0  0  0  0  0  0  0  0  0  0  0  0  # atno 10763 bound_to 10752
  153.2524  135.6928  153.7671 H   0  0  0  0  0  0  0  0  0  0  0  0  # atno 10764 bound_to 10752
  153.6978  135.3377  155.3193 H   0  0  0  0  0  0  0  0  0  0  0  0  # atno 10765 bound_to 10752
  139.8933  134.9535  156.6624 H   0  0  0  0  0  0  0  0  0  0  0  0  # atno 11005 bound_to 11000
  145.6331  141.0300  143.1852 LP  0  0  0  0  0  0  0  0  0  0  0  0  # atno 17320 bound_to 7965
  144.7253  139.7897  143.7367 LP  0  0  0  0  0  0  0  0  0  0  0  0  # atno 17321 bound_to 7965
  140.4235  144.2211  150.5887 LP  0  0  0  0  0  0  0  0  0  0  0  0  # atno 17342 bound_to 10162
  140.4850  143.2366  151.8901 LP  0  0  0  0  0  0  0  0  0  0  0  0  # atno 17343 bound_to 10162
  157.2859  131.0616  151.2166 LP  0  0  0  0  0  0  0  0  0  0  0  0  # atno 17370 bound_to 10713
  157.3196  130.6930  149.6261 LP  0  0  0  0  0  0  0  0  0  0  0  0  # atno 17371 bound_to 10713
  140.7437  133.8956  155.8296 LP  0  0  0  0  0  0  0  0  0  0  0  0  # atno 17394 bound_to 11000
  141.0057  134.1089  157.4273 LP  0  0  0  0  0  0  0  0  0  0  0  0  # atno 17395 bound_to 11000

$$$$
