AV-unprocessed.smi:1249|AV-procd|sdf|5253|dock3
  -GOLD-   22720 4363D 1   1.00000     0.00000
 Structure written by MMmdl.
 42 43  0  0  0  0  0  0  0  0  1 V2000
  145.1349  132.0950  150.3911 C   0  0  0  0  0  0  0  0  0  0  0  0
  144.0594  132.8042  150.9968 O   0  0  0  0  0  0  0  0  0  0  0  0
  144.2917  134.0887  151.4440 C   0  0  0  0  0  0  0  0  0  0  0  0
  143.2229  134.8079  152.0145 C   0  0  0  0  0  0  0  0  0  0  0  0
  143.4552  136.1188  152.4716 C   0  0  0  0  0  0  0  0  0  0  0  0
  144.7426  136.6764  152.3373 C   0  0  0  0  0  0  0  0  0  0  0  0
  144.9534  137.9945  152.8246 N   0  0  0  0  0  0  0  0  0  0  0  0
  146.0206  138.4814  153.4804 C   0  0  0  0  0  0  0  0  0  0  0  0
  147.0466  137.8521  153.7372 O   0  0  0  0  0  0  0  0  0  0  0  0
  145.8422  139.7692  153.8076 N   0  0  0  0  0  0  0  0  0  0  0  0
  146.8151  140.5992  154.5124 C   0  0  0  0  0  0  0  0  0  0  0  0
  148.1189  140.6768  153.7046 C   0  0  0  0  0  0  0  0  0  0  0  0
  149.1909  141.4946  154.4464 C   0  0  0  0  0  0  0  0  0  0  0  0
  149.4176  140.9849  155.8138 N   0  0  0  0  0  0  0  0  0  0  0  0
  150.8038  139.9891  156.1534 S   0  0  0  0  0  0  0  0  0  0  0  0
  151.6951  140.8966  157.4824 C   0  0  0  0  0  0  0  0  0  0  0  0
  150.3189  138.7177  156.7119 O   0  0  0  0  0  0  0  0  0  0  0  0
  151.6556  139.9808  154.9543 O   0  0  0  0  0  0  0  0  0  0  0  0
  148.1952  140.8499  156.6312 C   0  0  0  0  0  0  0  0  0  0  0  0
  147.1152  140.0264  155.9078 C   0  0  0  0  0  0  0  0  0  0  0  0
  145.7535  135.8687  151.7614 C   0  0  0  0  0  0  0  0  0  0  0  0
  145.5375  134.6102  151.3233 N   0  0  0  0  0  0  0  0  0  0  0  0
  144.7901  131.1063  150.0883 H   0  0  0  0  0  0  0  0  0  0  0  0
  145.9636  131.9575  151.0873 H   0  0  0  0  0  0  0  0  0  0  0  0
  145.4982  132.6061  149.4983 H   0  0  0  0  0  0  0  0  0  0  0  0
  142.2433  134.3613  152.1013 H   0  0  0  0  0  0  0  0  0  0  0  0
  142.6512  136.6877  152.9159 H   0  0  0  0  0  0  0  0  0  0  0  0
  144.2246  138.6581  152.6067 H   0  0  0  0  0  0  0  0  0  0  0  0
  144.9704  140.2086  153.5512 H   0  0  0  0  0  0  0  0  0  0  0  0
  146.4152  141.6097  154.6175 H   0  0  0  0  0  0  0  0  0  0  0  0
  148.4920  139.6731  153.5030 H   0  0  0  0  0  0  0  0  0  0  0  0
  147.9264  141.1306  152.7317 H   0  0  0  0  0  0  0  0  0  0  0  0
  150.1233  141.4983  153.8825 H   0  0  0  0  0  0  0  0  0  0  0  0
  148.8710  142.5348  154.5167 H   0  0  0  0  0  0  0  0  0  0  0  0
  152.5879  140.3358  157.7579 H   0  0  0  0  0  0  0  0  0  0  0  0
  151.0558  140.9957  158.3578 H   0  0  0  0  0  0  0  0  0  0  0  0
  151.9938  141.8799  157.1238 H   0  0  0  0  0  0  0  0  0  0  0  0
  148.4308  140.4023  157.5962 H   0  0  0  0  0  0  0  0  0  0  0  0
  147.8105  141.8484  156.8415 H   0  0  0  0  0  0  0  0  0  0  0  0
  146.2074  140.0148  156.5120 H   0  0  0  0  0  0  0  0  0  0  0  0
  147.4342  138.9884  155.8212 H   0  0  0  0  0  0  0  0  0  0  0  0
  146.7712  136.2110  151.6596 H   0  0  0  0  0  0  0  0  0  0  0  0
  1  2  1  0  0  0  0
  1 23  1  0  0  0  0
  1 24  1  0  0  0  0
  1 25  1  0  0  0  0
  2  3  1  0  0  0  0
  3 22  1  0  0  0  0
  3  4  2  0  0  0  0
  4  5  1  0  0  0  0
  4 26  1  0  0  0  0
  5  6  2  0  0  0  0
  5 27  1  0  0  0  0
  6  7  1  0  0  0  0
  6 21  1  0  0  0  0
  7  8  1  0  0  0  0
  7 28  1  0  0  0  0
  8  9  2  0  0  0  0
  8 10  1  0  0  0  0
 10 11  1  0  0  0  0
 10 29  1  0  0  0  0
 11 20  1  0  0  0  0
 11 12  1  0  0  0  0
 11 30  1  0  0  0  0
 12 13  1  0  0  0  0
 12 31  1  0  0  0  0
 12 32  1  0  0  0  0
 13 14  1  0  0  0  0
 13 33  1  0  0  0  0
 13 34  1  0  0  0  0
 14 15  1  0  0  0  0
 14 19  1  0  0  0  0
 15 16  1  0  0  0  0
 15 17  2  0  0  0  0
 15 18  2  0  0  0  0
 16 35  1  0  0  0  0
 16 36  1  0  0  0  0
 16 37  1  0  0  0  0
 19 20  1  0  0  0  0
 19 38  1  0  0  0  0
 19 39  1  0  0  0  0
 20 40  1  0  0  0  0
 20 41  1  0  0  0  0
 21 22  2  0  0  0  0
 21 42  1  0  0  0  0
M  END
> <s_m_source_file>
AV-unprocessed.smi

> <i_m_source_file_index>
1249

> <i_lp_mmshare_version>
43012

> <i_f3d_flags>
0

> <s_epik_input>
W0NIM11PYzFbY0hdW2NIXWMoW2NIXW4xKVtOSF1DKD1PKVtOSF1bQ0hdMltDSDJdW0NIMl1OKFMoPU8pKD1PKVtDSDNdKVtDSDJdW0NIMl0y

> <s_epik_cmdline>
J2VwaWtfcHl0aG9uJywgJy1waCcsICc3LjAnLCAnLXRuJywgJzgnLCAnLW1hJywgJzIwMCcsICctbWV0YWxfYmluZGluZycsICctaW1hZScsICc8aW5maWxlLm1hZT4nLCAnLW9tYWUnLCAnPG91dGZpbGUubWFlPic=

> <r_lp_tautomer_probability>
1

> <r_epik_Ionization_Penalty>
9.27424e-05

> <r_epik_Ionization_Penalty_Charging>
0

> <r_epik_Ionization_Penalty_Neutral>
9.27424e-05

> <r_epik_State_Penalty>
-0

> <r_epik_Charging_Adjusted_Penalty>
0

> <i_epik_Tot_Q>
0

> <i_epik_Tot_abs_Q>
0

> <r_epik_Metal_State_Penalty>
-0

> <b_epik_Metal_Only>
0

> <s_lp_Force_Field>
OPLS_2005

> <r_lp_Energy>
2.02988

> <b_lp_Chiralities_Consistent>
1

> <s_lp_Variant>
AV-unprocessed.smi:1249-1

> <Gold.Version>
5.8.1

> <Gold.Id.Protein>
6NUR|6NUR_protein|mol2

> <Gold.PLP.Fitness>
41.0771

> <Gold.PLP.PLP>
-29.7305

> <Gold.PLP.part.hbond>
-3.2603

> <Gold.PLP.part.metal>
0.0000

> <Gold.PLP.part.buried>
-2.7554

> <Gold.PLP.part.nonpolar>
-24.1478

> <Gold.PLP.part.repulsive>
0.6155

> <Gold.PLP.ligand.clash>
0.0000

> <Gold.PLP.ligand.torsion>
1.3447

> <Gold.PLP.Chemscore.Hbond>
2.9920

> <Gold.PLP.Chemscore.CHOScore>
1.0000

> <Gold.PLP.Chemscore.Metal>
0.0000

> <Gold.Chemscore.Hbonds>
donor molecule, donor type, donor heavy atom, donor atom, acceptor molecule, acceptor atom, score
      L1  H     7    28       P1 10175  0.99
      L1  H    10    29       P1 10175  1.00
      P1  H  7989  7998       L1    18  1.00
      L1  C    21    42       P1  7948  1.00

> <Gold.PLP.Chemscore.Internal.Correction>
2.0600

> <Gold.Rescore>
     Score         DG    S(hbond)    S(metal)    S(lipo)     H(rot)  DE(clash)    DE(int)     intcor
     15.41     -18.63       2.89        0.00      58.11       1.29       0.14       3.08       ----

> <Gold.Chemscore.Fitness>
15.4144

> <Gold.Chemscore.DG>
-18.6347

> <Gold.Chemscore.ZeroCoef>
-5.4800

> <Gold.Chemscore.Hbond>
2.8909

> <Gold.Chemscore.Metal>
0.0000

> <Gold.Chemscore.Lipo>
58.1114

> <Gold.Chemscore.Internal_Hbond>
0.0000

> <Gold.Chemscore.DEClash>
0.1365

> <Gold.Chemscore.DEInternal>
3.0838

> <Gold.Chemscore.Rot>
1.2890

> <Gold.Chemscore.Internal.Correction>
   9.000000E+99

> <Gold.Chemscore.Hbonds>
donor molecule, donor type, donor heavy atom, donor atom, acceptor molecule, acceptor atom, score
      L1  H     7    28       P1 10175  0.94
      L1  H    10    29       P1 10175  0.97
      P1  H  7989  7998       L1    18  0.96

> <Gold.Chemscore.Hbond.Weighted>
-9.6556

> <Gold.Chemscore.Metal.Weighted>
-0.0000

> <Gold.Chemscore.Lipo.Weighted>
-6.7990

> <Gold.Chemscore.Internal_Hbond.Weighted>
0.0000

> <Gold.Chemscore.DEClash.Weighted>
0.1365

> <Gold.Chemscore.DEInternal.Weighted>
3.0838

> <Gold.Chemscore.Rot.Weighted>
3.2999

> <Gold.Chemscore.Internal.Correction.Weighted>
   9.000000E+99

> <Gold.Protein.RotatedTorsions>
[ 6907 6896 6895 6894 ] final -151.12 input  -60.11 | X-H torsion
[ 7974 7965 7964 7962 ] final -132.86 input  175.53 | X-H torsion
[ 8008 7997 7996 7995 ] final  175.73 input   59.86 | X-H torsion
[ 10167 10162 10161 10158 ] final  -15.10 input  -65.29 | X-H torsion
[ 10718 10713 10712 10709 ] final  -52.25 input   66.30 | X-H torsion
[ 10763 10752 10751 10750 ] final -166.67 input  -60.55 | X-H torsion
[ 11005 11000 10999 10996 ] final -134.01 input  -57.11 | X-H torsion

> <Gold.Protein.ActiveResidues>
 VAL166  LYS551  ARG553  GLY616  TRP617  ASP618  TYR619  PRO620  LYS621  CYS622 
 ASP623  PHE694  ASN695  SER759  ASP760  ASP761  ALA762  ILE779  LEU786  VAL792 
 PHE793  MET794  SER795  GLU796  ALA797  LYS798  CYS799  TRP800  GLU811  SER814 

> <Gold.Protein.RotatedAtoms>
  151.2084  133.4570  159.2597 H   0  0  0  0  0  0  0  0  0  0  0  0  # atno 6907 bound_to 6896
  151.1000  134.9967  159.8454 H   0  0  0  0  0  0  0  0  0  0  0  0  # atno 6908 bound_to 6896
  152.5442  134.2011  159.8765 H   0  0  0  0  0  0  0  0  0  0  0  0  # atno 6909 bound_to 6896
  144.9246  140.7055  143.4944 H   0  0  0  0  0  0  0  0  0  0  0  0  # atno 7974 bound_to 7965
  156.0840  140.1401  156.9677 H   0  0  0  0  0  0  0  0  0  0  0  0  # atno 8008 bound_to 7997
  154.4602  140.0946  156.6919 H   0  0  0  0  0  0  0  0  0  0  0  0  # atno 8009 bound_to 7997
  155.5029  140.3451  155.4376 H   0  0  0  0  0  0  0  0  0  0  0  0  # atno 8010 bound_to 7997
  140.7213  143.5253  150.9585 H   0  0  0  0  0  0  0  0  0  0  0  0  # atno 10167 bound_to 10162
  156.1638  130.4149  149.9751 H   0  0  0  0  0  0  0  0  0  0  0  0  # atno 10718 bound_to 10713
  154.6810  135.2954  154.9613 H   0  0  0  0  0  0  0  0  0  0  0  0  # atno 10763 bound_to 10752
  154.0608  135.6631  153.4815 H   0  0  0  0  0  0  0  0  0  0  0  0  # atno 10764 bound_to 10752
  153.0547  135.5152  154.7853 H   0  0  0  0  0  0  0  0  0  0  0  0  # atno 10765 bound_to 10752
  140.9028  134.1668  157.4447 H   0  0  0  0  0  0  0  0  0  0  0  0  # atno 11005 bound_to 11000
  145.3240  139.1779  143.4572 LP  0  0  0  0  0  0  0  0  0  0  0  0  # atno 17320 bound_to 7965
  146.3220  140.3261  142.8637 LP  0  0  0  0  0  0  0  0  0  0  0  0  # atno 17321 bound_to 7965
  139.8971  143.6881  152.3137 LP  0  0  0  0  0  0  0  0  0  0  0  0  # atno 17342 bound_to 10162
  139.7217  144.7601  151.0944 LP  0  0  0  0  0  0  0  0  0  0  0  0  # atno 17343 bound_to 10162
  156.7572  130.9137  151.3640 LP  0  0  0  0  0  0  0  0  0  0  0  0  # atno 17370 bound_to 10713
  157.6753  130.9088  150.0135 LP  0  0  0  0  0  0  0  0  0  0  0  0  # atno 17371 bound_to 10713
  139.8745  134.9905  156.5505 LP  0  0  0  0  0  0  0  0  0  0  0  0  # atno 17394 bound_to 11000
  140.8208  133.8355  155.8894 LP  0  0  0  0  0  0  0  0  0  0  0  0  # atno 17395 bound_to 11000

$$$$
