AV-unprocessed.smi:95|AV-procd|sdf|857|dock7
  -GOLD-   2262017303D 1   1.00000     0.00000
 Structure written by MMmdl.
 42 45  0  0  0  0  0  0  0  0  2 V2000
  147.2053  142.5741  154.0296 O   0  0  0  0  0  0  0  0  0  0  0  0
  146.7189  142.2900  155.1254 C   0  0  0  0  0  0  0  0  0  0  0  0
  145.4269  142.7895  155.5835 C   0  0  0  0  0  0  0  0  0  0  0  0
  144.7195  143.6198  154.7991 F   0  0  0  0  0  0  0  0  0  0  0  0
  144.9247  142.4254  156.7831 C   0  0  0  0  0  0  0  0  0  0  0  0
  145.5825  141.5694  157.6494 N   0  0  0  0  0  0  0  0  0  0  0  0
  144.9602  141.1893  158.9721 C   0  0  2  0  0  0  0  0  0  0  0  0
  143.6167  141.9062  159.1592 C   0  0  0  0  0  0  0  0  0  0  0  0
  143.9749  143.0183  160.1233 C   0  0  0  0  0  0  0  0  0  0  0  0
  145.0853  142.3725  160.9426 C   0  0  0  0  0  0  0  0  0  0  0  0
  145.8157  141.5975  159.9996 O   0  0  0  0  0  0  0  0  0  0  0  0
  146.8332  141.0259  157.2843 C   0  0  0  0  0  0  0  0  0  0  0  0
  147.4182  140.2225  158.0145 O   0  0  0  0  0  0  0  0  0  0  0  0
  147.3716  141.4246  156.0382 N   0  0  0  0  0  0  0  0  0  0  0  0
  148.6597  140.8695  155.6544 C   0  0  0  0  0  0  0  0  0  0  0  0
  149.8116  141.1190  156.6210 C   0  0  0  0  0  0  0  0  0  0  0  0
  150.5169  140.0926  157.2921 C   0  0  0  0  0  0  0  0  0  0  0  0
  151.5693  140.4334  158.1661 C   0  0  0  0  0  0  0  0  0  0  0  0
  151.8986  141.7924  158.3527 C   0  0  0  0  0  0  0  0  0  0  0  0
  152.9439  142.1752  159.2182 C   0  0  0  0  0  0  0  0  0  0  0  0
  153.2534  143.5399  159.3856 C   0  0  0  0  0  0  0  0  0  0  0  0
  152.5216  144.5240  158.6908 C   0  0  0  0  0  0  0  0  0  0  0  0
  151.4756  144.1481  157.8248 C   0  0  0  0  0  0  0  0  0  0  0  0
  151.1641  142.7845  157.6565 C   0  0  0  0  0  0  0  0  0  0  0  0
  150.1636  142.4078  156.8300 N   0  3  0  0  0  0  0  0  0  0  0  0
  143.9619  142.8220  157.0689 H   0  0  0  0  0  0  0  0  0  0  0  0
  144.8781  140.1019  158.9896 H   0  0  0  0  0  0  0  0  0  0  0  0
  143.1969  142.2565  158.2153 H   0  0  0  0  0  0  0  0  0  0  0  0
  142.9144  141.2114  159.6214 H   0  0  0  0  0  0  0  0  0  0  0  0
  144.3589  143.8821  159.5796 H   0  0  0  0  0  0  0  0  0  0  0  0
  143.1314  143.3454  160.7319 H   0  0  0  0  0  0  0  0  0  0  0  0
  145.7227  143.1028  161.4412 H   0  0  0  0  0  0  0  0  0  0  0  0
  144.6656  141.7091  161.7001 H   0  0  0  0  0  0  0  0  0  0  0  0
  148.5351  139.7985  155.4902 H   0  0  0  0  0  0  0  0  0  0  0  0
  148.8987  141.2681  154.6664 H   0  0  0  0  0  0  0  0  0  0  0  0
  150.2638  139.0528  157.1465 H   0  0  0  0  0  0  0  0  0  0  0  0
  152.1148  139.6575  158.6834 H   0  0  0  0  0  0  0  0  0  0  0  0
  153.5110  141.4287  159.7551 H   0  0  0  0  0  0  0  0  0  0  0  0
  154.0547  143.8333  160.0483 H   0  0  0  0  0  0  0  0  0  0  0  0
  152.7640  145.5684  158.8222 H   0  0  0  0  0  0  0  0  0  0  0  0
  150.9196  144.9081  157.2950 H   0  0  0  0  0  0  0  0  0  0  0  0
  149.6457  143.1349  156.3369 H   0  0  0  0  0  0  0  0  0  0  0  0
  1  2  2  0  0  0  0
  2 14  1  0  0  0  0
  2  3  1  0  0  0  0
  3  4  1  0  0  0  0
  3  5  2  0  0  0  0
  5  6  1  0  0  0  0
  5 26  1  0  0  0  0
  6  7  1  0  0  0  0
  6 12  1  0  0  0  0
  7 11  1  0  0  0  0
  7  8  1  0  0  0  0
  7 27  1  0  0  0  0
  8  9  1  0  0  0  0
  8 28  1  0  0  0  0
  8 29  1  0  0  0  0
  9 10  1  0  0  0  0
  9 30  1  0  0  0  0
  9 31  1  0  0  0  0
 10 11  1  0  0  0  0
 10 32  1  0  0  0  0
 10 33  1  0  0  0  0
 12 13  2  0  0  0  0
 12 14  1  0  0  0  0
 14 15  1  0  0  0  0
 15 16  1  0  0  0  0
 15 34  1  0  0  0  0
 15 35  1  0  0  0  0
 16 25  1  0  0  0  0
 16 17  2  0  0  0  0
 17 18  1  0  0  0  0
 17 36  1  0  0  0  0
 18 19  2  0  0  0  0
 18 37  1  0  0  0  0
 19 24  1  0  0  0  0
 19 20  1  0  0  0  0
 20 21  2  0  0  0  0
 20 38  1  0  0  0  0
 21 22  1  0  0  0  0
 21 39  1  0  0  0  0
 22 23  2  0  0  0  0
 22 40  1  0  0  0  0
 23 24  1  0  0  0  0
 23 41  1  0  0  0  0
 24 25  2  0  0  0  0
 25 42  1  0  0  0  0
M  CHG  1  25   1
M  END
> <s_m_source_file>
AV-unprocessed.smi

> <i_m_source_file_index>
95

> <i_lp_mmshare_version>
43012

> <i_f3d_flags>
0

> <s_epik_input>
TzFbQ0gyXVtDSDJdW0NIMl1bQ0BIXTFuKFtjSF1jKEYpYzI9TyljKD1PKW4yW0NIMl1jKFtjSF1bY0hdMyluYyhjMzQpW2NIXVtjSF1bY0hdW2NIXTQ=

> <s_epik_cmdline>
J2VwaWtfcHl0aG9uJywgJy1waCcsICc3LjAnLCAnLXRuJywgJzgnLCAnLW1hJywgJzIwMCcsICctbWV0YWxfYmluZGluZycsICctaW1hZScsICc8aW5maWxlLm1hZT4nLCAnLW9tYWUnLCAnPG91dGZpbGUubWFlPic=

> <r_lp_tautomer_probability>
1

> <r_epik_Ionization_Penalty>
1.83445

> <r_epik_Ionization_Penalty_Charging>
1.83445

> <r_epik_Ionization_Penalty_Neutral>
6.33322e-12

> <r_epik_State_Penalty>
1.95069

> <r_epik_Charging_Adjusted_Penalty>
3.78513

> <i_epik_Tot_Q>
1

> <i_epik_Tot_abs_Q>
1

> <r_epik_Metal_State_Penalty>
6.02102

> <b_epik_Metal_Only>
0

> <s_epik_Chemistry_Notes>
This compound contains an acetal/aminal-like group ( X-CH(R)-Y where X, Y are N, S, or O) that may be acid/base labile, releasing an aldehyde.

> <s_lp_Force_Field>
OPLS_2005

> <r_lp_Energy>
36.4977

> <b_lp_Chiralities_Consistent>
1

> <s_lp_Variant>
AV-unprocessed.smi:95-3

> <Gold.Version>
5.8.1

> <Gold.Id.Protein>
6NUR|6NUR_protein|mol2

> <Gold.PLP.Fitness>
50.7853

> <Gold.PLP.PLP>
-41.8207

> <Gold.PLP.part.hbond>
-3.0594

> <Gold.PLP.part.metal>
0.0000

> <Gold.PLP.part.buried>
-5.7802

> <Gold.PLP.part.nonpolar>
-33.7600

> <Gold.PLP.part.repulsive>
0.2101

> <Gold.PLP.ligand.clash>
0.0000

> <Gold.PLP.ligand.torsion>
0.0217

> <Gold.PLP.Chemscore.Hbond>
3.0000

> <Gold.PLP.Chemscore.CHOScore>
0.0000

> <Gold.PLP.Chemscore.Metal>
0.0000

> <Gold.Chemscore.Hbonds>
donor molecule, donor type, donor heavy atom, donor atom, acceptor molecule, acceptor atom, score
      L1  H    25    42       P1  8028  2.00
      P1  H  6934  6946       L1    11  0.91

> <Gold.PLP.Chemscore.Internal.Correction>
0.0080

> <Gold.Rescore>
     Score         DG    S(hbond)    S(metal)    S(lipo)     H(rot)  DE(clash)    DE(int)     intcor
     17.54     -20.00       1.89        0.00     103.82       1.54       0.08       2.38       ----

> <Gold.Chemscore.Fitness>
17.5405

> <Gold.Chemscore.DG>
-20.0000

> <Gold.Chemscore.ZeroCoef>
-5.4800

> <Gold.Chemscore.Hbond>
1.8916

> <Gold.Chemscore.Metal>
0.0000

> <Gold.Chemscore.Lipo>
103.8152

> <Gold.Chemscore.Internal_Hbond>
0.0000

> <Gold.Chemscore.DEClash>
0.0783

> <Gold.Chemscore.DEInternal>
2.3812

> <Gold.Chemscore.Rot>
1.5407

> <Gold.Chemscore.Internal.Correction>
   9.000000E+99

> <Gold.Chemscore.Hbonds>
donor molecule, donor type, donor heavy atom, donor atom, acceptor molecule, acceptor atom, score
      L1  H    25    42       P1  8028  1.00
      P1  H  6934  6946       L1    11  0.61

> <Gold.Chemscore.Hbond.Weighted>
-6.3179

> <Gold.Chemscore.Metal.Weighted>
-0.0000

> <Gold.Chemscore.Lipo.Weighted>
-12.1464

> <Gold.Chemscore.Internal_Hbond.Weighted>
0.0000

> <Gold.Chemscore.DEClash.Weighted>
0.0783

> <Gold.Chemscore.DEInternal.Weighted>
2.3812

> <Gold.Chemscore.Rot.Weighted>
3.9443

> <Gold.Chemscore.Internal.Correction.Weighted>
   9.000000E+99

> <Gold.Protein.RotatedTorsions>
[ 6907 6896 6895 6894 ] final    4.66 input  -60.11 | X-H torsion
[ 7974 7965 7964 7962 ] final -152.42 input  175.53 | X-H torsion
[ 8008 7997 7996 7995 ] final  -26.29 input   59.86 | X-H torsion
[ 10167 10162 10161 10158 ] final   56.02 input  -65.29 | X-H torsion
[ 10718 10713 10712 10709 ] final   32.57 input   66.30 | X-H torsion
[ 10763 10752 10751 10750 ] final  -15.01 input  -60.55 | X-H torsion
[ 11005 11000 10999 10996 ] final  -86.23 input  -57.11 | X-H torsion

> <Gold.Protein.ActiveResidues>
 VAL166  LYS551  ARG553  GLY616  TRP617  ASP618  TYR619  PRO620  LYS621  CYS622 
 ASP623  PHE694  ASN695  SER759  ASP760  ASP761  ALA762  ILE779  LEU786  VAL792 
 PHE793  MET794  SER795  GLU796  ALA797  LYS798  CYS799  TRP800  GLU811  SER814 

> <Gold.Protein.RotatedAtoms>
  151.6450  135.1008  160.0148 H   0  0  0  0  0  0  0  0  0  0  0  0  # atno 6907 bound_to 6896
  152.4033  133.6846  159.6343 H   0  0  0  0  0  0  0  0  0  0  0  0  # atno 6908 bound_to 6896
  150.7930  133.8670  159.3289 H   0  0  0  0  0  0  0  0  0  0  0  0  # atno 6909 bound_to 6896
  144.7795  140.4664  143.5849 H   0  0  0  0  0  0  0  0  0  0  0  0  # atno 7974 bound_to 7965
  154.4432  140.1903  156.0752 H   0  0  0  0  0  0  0  0  0  0  0  0  # atno 8008 bound_to 7997
  156.0481  140.3312  155.7293 H   0  0  0  0  0  0  0  0  0  0  0  0  # atno 8009 bound_to 7997
  155.5599  140.0602  157.2822 H   0  0  0  0  0  0  0  0  0  0  0  0  # atno 8010 bound_to 7997
  140.2132  144.3867  150.6480 H   0  0  0  0  0  0  0  0  0  0  0  0  # atno 10167 bound_to 10162
  157.2869  130.7283  149.6588 H   0  0  0  0  0  0  0  0  0  0  0  0  # atno 10718 bound_to 10713
  153.5369  135.7014  153.5656 H   0  0  0  0  0  0  0  0  0  0  0  0  # atno 10763 bound_to 10752
  153.3639  135.3962  155.1738 H   0  0  0  0  0  0  0  0  0  0  0  0  # atno 10764 bound_to 10752
  154.8678  135.3795  154.4870 H   0  0  0  0  0  0  0  0  0  0  0  0  # atno 10765 bound_to 10752
  141.1632  133.7443  156.9131 H   0  0  0  0  0  0  0  0  0  0  0  0  # atno 11005 bound_to 11000
  145.6090  139.1511  143.3086 LP  0  0  0  0  0  0  0  0  0  0  0  0  # atno 17320 bound_to 7965
  146.1995  140.6207  142.9109 LP  0  0  0  0  0  0  0  0  0  0  0  0  # atno 17321 bound_to 7965
  140.6308  143.2187  151.6499 LP  0  0  0  0  0  0  0  0  0  0  0  0  # atno 17342 bound_to 10162
  139.5172  144.3323  152.0815 LP  0  0  0  0  0  0  0  0  0  0  0  0  # atno 17343 bound_to 10162
  155.9666  130.4321  150.4947 LP  0  0  0  0  0  0  0  0  0  0  0  0  # atno 17370 bound_to 10713
  157.2902  131.0625  151.2139 LP  0  0  0  0  0  0  0  0  0  0  0  0  # atno 17371 bound_to 10713
  140.1503  134.9234  157.2584 LP  0  0  0  0  0  0  0  0  0  0  0  0  # atno 17394 bound_to 11000
  140.2730  134.3437  155.7367 LP  0  0  0  0  0  0  0  0  0  0  0  0  # atno 17395 bound_to 11000

$$$$
