AV-unprocessed.smi:2912|AV-procd|sdf|11181|dock10
  -GOLD-   2272016 73D 1   1.00000     0.00000
 Structure written by MMmdl.
 31 32  0  0  0  0  0  0  0  0  1 V2000
  146.7374  138.9849  152.4412 C   0  0  0  0  0  0  0  0  0  0  0  0
  147.4305  139.9573  153.2583 N   0  0  0  0  0  0  0  0  0  0  0  0
  148.6315  139.8254  153.9202 C   0  0  0  0  0  0  0  0  0  0  0  0
  148.8874  141.0124  154.5474 C   0  0  0  0  0  0  0  0  0  0  0  0
  150.0891  141.4020  155.3692 C   0  0  0  0  0  0  0  0  0  0  0  0
  149.7300  141.7871  156.8184 C   0  0  0  0  0  0  0  0  0  0  0  0
  150.8751  142.3487  157.5319 N   0  0  0  0  0  0  0  0  0  0  0  0
  150.8137  143.0493  158.6772 C   0  0  0  0  0  0  0  0  0  0  0  0
  149.7720  143.1833  159.3211 O   0  0  0  0  0  0  0  0  0  0  0  0
  152.1200  143.7111  159.1463 C   0  0  0  0  0  0  0  0  0  0  0  0
  153.3725  142.5067  159.6534 S   0  0  0  0  0  0  0  0  0  0  0  0
  152.7834  142.5104  161.3633 C   0  0  0  0  0  0  0  0  0  0  0  0
  152.5785  143.9663  161.8014 C   0  0  0  0  0  0  0  0  0  0  0  0
  151.8138  144.9271  160.4596 S   0  0  0  0  0  0  0  0  0  0  0  0
  147.7578  141.8125  154.2115 C   0  0  0  0  0  0  0  0  0  0  0  0
  146.8904  141.1797  153.4382 N   0  0  0  0  0  0  0  0  0  0  0  0
  147.2784  138.0384  152.4467 H   0  0  0  0  0  0  0  0  0  0  0  0
  146.6684  139.3481  151.4154 H   0  0  0  0  0  0  0  0  0  0  0  0
  145.7328  138.8218  152.8323 H   0  0  0  0  0  0  0  0  0  0  0  0
  149.2074  138.9125  153.8789 H   0  0  0  0  0  0  0  0  0  0  0  0
  150.8165  140.5899  155.3901 H   0  0  0  0  0  0  0  0  0  0  0  0
  150.6060  142.2418  154.9035 H   0  0  0  0  0  0  0  0  0  0  0  0
  148.8935  142.4877  156.8181 H   0  0  0  0  0  0  0  0  0  0  0  0
  149.3841  140.9056  157.3584 H   0  0  0  0  0  0  0  0  0  0  0  0
  151.7725  142.2782  157.0741 H   0  0  0  0  0  0  0  0  0  0  0  0
  152.5211  144.2480  158.2866 H   0  0  0  0  0  0  0  0  0  0  0  0
  151.8367  141.9707  161.4041 H   0  0  0  0  0  0  0  0  0  0  0  0
  153.4862  141.9891  162.0131 H   0  0  0  0  0  0  0  0  0  0  0  0
  151.9747  144.0324  162.7062 H   0  0  0  0  0  0  0  0  0  0  0  0
  153.5453  144.4178  162.0242 H   0  0  0  0  0  0  0  0  0  0  0  0
  147.5522  142.8345  154.4934 H   0  0  0  0  0  0  0  0  0  0  0  0
  1  2  1  0  0  0  0
  1 17  1  0  0  0  0
  1 18  1  0  0  0  0
  1 19  1  0  0  0  0
  2 16  1  0  0  0  0
  2  3  1  0  0  0  0
  3  4  2  0  0  0  0
  3 20  1  0  0  0  0
  4  5  1  0  0  0  0
  4 15  1  0  0  0  0
  5  6  1  0  0  0  0
  5 21  1  0  0  0  0
  5 22  1  0  0  0  0
  6  7  1  0  0  0  0
  6 23  1  0  0  0  0
  6 24  1  0  0  0  0
  7  8  1  0  0  0  0
  7 25  1  0  0  0  0
  8  9  2  0  0  0  0
  8 10  1  0  0  0  0
 10 14  1  0  0  0  0
 10 11  1  0  0  0  0
 10 26  1  0  0  0  0
 11 12  1  0  0  0  0
 12 13  1  0  0  0  0
 12 27  1  0  0  0  0
 12 28  1  0  0  0  0
 13 14  1  0  0  0  0
 13 29  1  0  0  0  0
 13 30  1  0  0  0  0
 15 16  2  0  0  0  0
 15 31  1  0  0  0  0
M  END
> <s_m_source_file>
AV-unprocessed.smi

> <i_m_source_file_index>
2912

> <i_lp_mmshare_version>
43012

> <i_f3d_flags>
0

> <s_epik_input>
W0NIM11uMVtjSF1jKFtjSF1uMSlbQ0gyXVtDSDJdW05IXUMoPU8pW0NIXTJTW0NIMl1bQ0gyXVMy

> <s_epik_cmdline>
J2VwaWtfcHl0aG9uJywgJy1waCcsICc3LjAnLCAnLXRuJywgJzgnLCAnLW1hJywgJzIwMCcsICctbWV0YWxfYmluZGluZycsICctaW1hZScsICc8aW5maWxlLm1hZT4nLCAnLW9tYWUnLCAnPG91dGZpbGUubWFlPic=

> <r_lp_tautomer_probability>
1

> <r_epik_Ionization_Penalty>
0.000416309

> <r_epik_Ionization_Penalty_Charging>
0

> <r_epik_Ionization_Penalty_Neutral>
0.000416309

> <r_epik_State_Penalty>
-0

> <r_epik_Charging_Adjusted_Penalty>
0

> <i_epik_Tot_Q>
0

> <i_epik_Tot_abs_Q>
0

> <r_epik_Metal_State_Penalty>
-0

> <b_epik_Metal_Only>
0

> <s_epik_Chemistry_Notes>
This compound contains an acetal/aminal-like group ( X-CH(R)-Y where X, Y are N, S, or O) that may be acid/base labile, releasing an aldehyde.

> <s_lp_Force_Field>
OPLS_2005

> <r_lp_Energy>
6.65343

> <b_lp_Chiralities_Consistent>
1

> <s_lp_Variant>
AV-unprocessed.smi:2912-1

> <Gold.Version>
5.8.1

> <Gold.Id.Protein>
6NUR|6NUR_protein|mol2

> <Gold.PLP.Fitness>
41.8664

> <Gold.PLP.PLP>
-39.4774

> <Gold.PLP.part.hbond>
-0.8221

> <Gold.PLP.part.metal>
0.0000

> <Gold.PLP.part.buried>
0.3315

> <Gold.PLP.part.nonpolar>
-36.4058

> <Gold.PLP.part.repulsive>
0.3324

> <Gold.PLP.ligand.clash>
0.0000

> <Gold.PLP.ligand.torsion>
0.3260

> <Gold.PLP.Chemscore.Hbond>
0.0000

> <Gold.PLP.Chemscore.CHOScore>
1.0000

> <Gold.PLP.Chemscore.Metal>
0.0000

> <Gold.Chemscore.Hbonds>
donor molecule, donor type, donor heavy atom, donor atom, acceptor molecule, acceptor atom, score
      L1  C    15    31       P1  8028  0.96

> <Gold.PLP.Chemscore.Internal.Correction>
0.0409

> <Gold.Rescore>
     Score         DG    S(hbond)    S(metal)    S(lipo)     H(rot)  DE(clash)    DE(int)     intcor
     13.26     -13.49       0.00        0.00     102.20       1.54       0.06       0.17       ----

> <Gold.Chemscore.Fitness>
13.2568

> <Gold.Chemscore.DG>
-13.4878

> <Gold.Chemscore.ZeroCoef>
-5.4800

> <Gold.Chemscore.Hbond>
0.0005

> <Gold.Chemscore.Metal>
0.0000

> <Gold.Chemscore.Lipo>
102.1986

> <Gold.Chemscore.Internal_Hbond>
0.0000

> <Gold.Chemscore.DEClash>
0.0603

> <Gold.Chemscore.DEInternal>
0.1706

> <Gold.Chemscore.Rot>
1.5434

> <Gold.Chemscore.Internal.Correction>
   9.000000E+99

> <Gold.Chemscore.Hbond.Weighted>
-0.0016

> <Gold.Chemscore.Metal.Weighted>
-0.0000

> <Gold.Chemscore.Lipo.Weighted>
-11.9572

> <Gold.Chemscore.Internal_Hbond.Weighted>
0.0000

> <Gold.Chemscore.DEClash.Weighted>
0.0603

> <Gold.Chemscore.DEInternal.Weighted>
0.1706

> <Gold.Chemscore.Rot.Weighted>
3.9511

> <Gold.Chemscore.Internal.Correction.Weighted>
   9.000000E+99

> <Gold.Protein.RotatedTorsions>
[ 6907 6896 6895 6894 ] final  178.28 input  -60.11 | X-H torsion
[ 7974 7965 7964 7962 ] final  -64.02 input  175.53 | X-H torsion
[ 8008 7997 7996 7995 ] final   84.63 input   59.86 | X-H torsion
[ 10167 10162 10161 10158 ] final    6.79 input  -65.29 | X-H torsion
[ 10718 10713 10712 10709 ] final  -67.94 input   66.30 | X-H torsion
[ 10763 10752 10751 10750 ] final  -73.51 input  -60.55 | X-H torsion
[ 11005 11000 10999 10996 ] final -170.43 input  -57.11 | X-H torsion

> <Gold.Protein.ActiveResidues>
 VAL166  LYS551  ARG553  GLY616  TRP617  ASP618  TYR619  PRO620  LYS621  CYS622 
 ASP623  PHE694  ASN695  SER759  ASP760  ASP761  ALA762  ILE779  LEU786  VAL792 
 PHE793  MET794  SER795  GLU796  ALA797  LYS798  CYS799  TRP800  GLU811  SER814 

> <Gold.Protein.RotatedAtoms>
  151.6904  133.3311  159.3241 H   0  0  0  0  0  0  0  0  0  0  0  0  # atno 6907 bound_to 6896
  150.7782  134.6704  159.6397 H   0  0  0  0  0  0  0  0  0  0  0  0  # atno 6908 bound_to 6896
  152.3830  134.6563  160.0188 H   0  0  0  0  0  0  0  0  0  0  0  0  # atno 6909 bound_to 6896
  145.7719  140.8808  143.0376 H   0  0  0  0  0  0  0  0  0  0  0  0  # atno 7974 bound_to 7965
  155.9395  140.3409  155.6316 H   0  0  0  0  0  0  0  0  0  0  0  0  # atno 8008 bound_to 7997
  155.7057  140.0765  157.2410 H   0  0  0  0  0  0  0  0  0  0  0  0  # atno 8009 bound_to 7997
  154.4100  140.1632  156.2227 H   0  0  0  0  0  0  0  0  0  0  0  0  # atno 8010 bound_to 7997
  140.6408  143.7778  150.7425 H   0  0  0  0  0  0  0  0  0  0  0  0  # atno 10167 bound_to 10162
  156.0531  130.4286  150.1927 H   0  0  0  0  0  0  0  0  0  0  0  0  # atno 10718 bound_to 10713
  154.4604  135.5895  153.6252 H   0  0  0  0  0  0  0  0  0  0  0  0  # atno 10763 bound_to 10752
  152.9823  135.6042  154.3493 H   0  0  0  0  0  0  0  0  0  0  0  0  # atno 10764 bound_to 10752
  154.3364  135.2842  155.2424 H   0  0  0  0  0  0  0  0  0  0  0  0  # atno 10765 bound_to 10752
  140.5196  134.5722  157.5044 H   0  0  0  0  0  0  0  0  0  0  0  0  # atno 11005 bound_to 11000
  144.6811  139.9867  143.7484 LP  0  0  0  0  0  0  0  0  0  0  0  0  # atno 17320 bound_to 7965
  146.0161  139.3211  143.0841 LP  0  0  0  0  0  0  0  0  0  0  0  0  # atno 17321 bound_to 7965
  140.1409  143.4442  152.2194 LP  0  0  0  0  0  0  0  0  0  0  0  0  # atno 17342 bound_to 10162
  139.5617  144.7410  151.4135 LP  0  0  0  0  0  0  0  0  0  0  0  0  # atno 17343 bound_to 10162
  157.0008  130.9921  151.3391 LP  0  0  0  0  0  0  0  0  0  0  0  0  # atno 17370 bound_to 10713
  157.5476  130.8161  149.8105 LP  0  0  0  0  0  0  0  0  0  0  0  0  # atno 17371 bound_to 10713
  139.9613  134.7447  156.0230 LP  0  0  0  0  0  0  0  0  0  0  0  0  # atno 17394 bound_to 11000
  141.1341  133.6579  156.3546 LP  0  0  0  0  0  0  0  0  0  0  0  0  # atno 17395 bound_to 11000

$$$$
