AV-unprocessed.smi:6|AV-procd|sdf|40|dock1
  -GOLD-   2262015153D 1   1.00000     0.00000
 Structure written by MMmdl.
 38 39  0  0  0  0  0  0  0  0  2 V2000
  153.5700  140.7293  160.1303 C   0  0  0  0  0  0  0  0  0  0  0  0
  153.5314  142.1850  160.6206 C   0  0  0  0  0  0  0  0  0  0  0  0
  153.0982  142.3126  162.0890 C   0  0  0  0  0  0  0  0  0  0  0  0
  152.7033  143.0748  159.7045 C   0  0  0  0  0  0  0  0  0  0  0  0
  152.5377  144.3677  160.0280 N   0  3  0  0  0  0  0  0  0  0  0  0
  151.7950  145.1705  159.2273 C   0  0  0  0  0  0  0  0  0  0  0  0
  151.1983  144.6577  158.0603 C   0  0  0  0  0  0  0  0  0  0  0  0
  151.4128  143.2974  157.7795 C   0  0  0  0  0  0  0  0  0  0  0  0
  150.8427  142.7293  156.6320 N   0  0  0  0  0  0  0  0  0  0  0  0
  149.8572  141.6615  156.7551 C   0  0  0  0  0  0  0  0  0  0  0  0
  150.3147  140.3540  156.1270 C   0  0  0  0  0  0  0  0  0  0  0  0
  151.5362  140.2260  155.5483 C   0  0  0  0  0  0  0  0  0  0  0  0
  151.9975  139.0452  154.9879 N   0  0  0  0  0  0  0  0  0  0  0  0
  153.2912  138.9183  154.3743 C   0  0  0  0  0  0  0  0  0  0  0  0
  151.1845  137.8929  155.0094 C   0  0  0  0  0  0  0  0  0  0  0  0
  151.5320  136.8144  154.5277 O   0  0  0  0  0  0  0  0  0  0  0  0
  149.9359  138.0199  155.6165 N   0  0  0  0  0  0  0  0  0  0  0  0
  149.4269  139.1868  156.1947 C   0  0  0  0  0  0  0  0  0  0  0  0
  148.3089  139.1716  156.7069 O   0  0  0  0  0  0  0  0  0  0  0  0
  152.1587  142.5313  158.6061 N   0  0  0  0  0  0  0  0  0  0  0  0
  149.3500  137.1978  155.6416 H   0  0  0  0  0  0  0  0  0  0  0  0
  153.9576  140.6674  159.1132 H   0  0  0  0  0  0  0  0  0  0  0  0
  152.5764  140.2798  160.1366 H   0  0  0  0  0  0  0  0  0  0  0  0
  154.2119  140.1188  160.7660 H   0  0  0  0  0  0  0  0  0  0  0  0
  154.5589  142.5498  160.5725 H   0  0  0  0  0  0  0  0  0  0  0  0
  153.1583  143.3476  162.4271 H   0  0  0  0  0  0  0  0  0  0  0  0
  153.7374  141.7154  162.7396 H   0  0  0  0  0  0  0  0  0  0  0  0
  152.0716  141.9740  162.2327 H   0  0  0  0  0  0  0  0  0  0  0  0
  151.7015  146.1977  159.5480 H   0  0  0  0  0  0  0  0  0  0  0  0
  150.6024  145.2852  157.4136 H   0  0  0  0  0  0  0  0  0  0  0  0
  151.3130  142.8455  155.7458 H   0  0  0  0  0  0  0  0  0  0  0  0
  149.6387  141.5059  157.8121 H   0  0  0  0  0  0  0  0  0  0  0  0
  148.9220  141.9609  156.2799 H   0  0  0  0  0  0  0  0  0  0  0  0
  152.1810  141.0929  155.5223 H   0  0  0  0  0  0  0  0  0  0  0  0
  153.1378  138.6418  153.3293 H   0  0  0  0  0  0  0  0  0  0  0  0
  153.8470  138.1564  154.9245 H   0  0  0  0  0  0  0  0  0  0  0  0
  153.8004  139.8802  154.4412 H   0  0  0  0  0  0  0  0  0  0  0  0
  152.9631  144.7520  160.8721 H   0  0  0  0  0  0  0  0  0  0  0  0
  1  2  1  0  0  0  0
  1 22  1  0  0  0  0
  1 23  1  0  0  0  0
  1 24  1  0  0  0  0
  2  3  1  0  0  0  0
  2  4  1  0  0  0  0
  2 25  1  0  0  0  0
  3 26  1  0  0  0  0
  3 27  1  0  0  0  0
  3 28  1  0  0  0  0
  4 20  1  0  0  0  0
  4  5  2  0  0  0  0
  5  6  1  0  0  0  0
  5 38  1  0  0  0  0
  6  7  2  0  0  0  0
  6 29  1  0  0  0  0
  7  8  1  0  0  0  0
  7 30  1  0  0  0  0
  8  9  1  0  0  0  0
  8 20  2  0  0  0  0
  9 10  1  0  0  0  0
  9 31  1  0  0  0  0
 10 11  1  0  0  0  0
 10 32  1  0  0  0  0
 10 33  1  0  0  0  0
 11 18  1  0  0  0  0
 11 12  2  0  0  0  0
 12 13  1  0  0  0  0
 12 34  1  0  0  0  0
 13 14  1  0  0  0  0
 13 15  1  0  0  0  0
 14 35  1  0  0  0  0
 14 36  1  0  0  0  0
 14 37  1  0  0  0  0
 15 16  2  0  0  0  0
 15 17  1  0  0  0  0
 17 21  1  0  0  0  0
 17 18  1  0  0  0  0
 18 19  2  0  0  0  0
M  CHG  1   5   1
M  END
> <s_m_source_file>
AV-unprocessed.smi

> <i_m_source_file_index>
6

> <i_lp_mmshare_version>
43012

> <i_f3d_flags>
0

> <s_epik_input>
W0NIM11bQ0hdKFtDSDNdKWMxbltjSF1bY0hdYyhuMSlbTkhdW0NIMl1jMltjSF1uKFtDSDNdKWMoPU8pW25IXWMyPU8=

> <s_epik_cmdline>
J2VwaWtfcHl0aG9uJywgJy1waCcsICc3LjAnLCAnLXRuJywgJzgnLCAnLW1hJywgJzIwMCcsICctbWV0YWxfYmluZGluZycsICctaW1hZScsICc8aW5maWxlLm1hZT4nLCAnLW9tYWUnLCAnPG91dGZpbGUubWFlPic=

> <r_lp_tautomer_probability>
0.998874

> <r_epik_Ionization_Penalty>
0.537311

> <r_epik_Ionization_Penalty_Charging>
0.537291

> <r_epik_Ionization_Penalty_Neutral>
2.09214e-05

> <r_epik_State_Penalty>
0.545757

> <r_epik_Charging_Adjusted_Penalty>
1.08305

> <i_epik_Tot_Q>
1

> <i_epik_Tot_abs_Q>
1

> <r_epik_Metal_State_Penalty>
0.947272

> <b_epik_Metal_Only>
0

> <s_lp_Force_Field>
OPLS_2005

> <r_lp_Energy>
10.386

> <b_lp_Chiralities_Consistent>
1

> <s_lp_Variant>
AV-unprocessed.smi:6-2

> <Gold.Version>
5.8.1

> <Gold.Id.Protein>
6NUR|6NUR_protein|mol2

> <Gold.PLP.Fitness>
46.3302

> <Gold.PLP.PLP>
-44.6197

> <Gold.PLP.part.hbond>
-2.0000

> <Gold.PLP.part.metal>
0.0000

> <Gold.PLP.part.buried>
-3.4218

> <Gold.PLP.part.nonpolar>
-39.2702

> <Gold.PLP.part.repulsive>
0.2591

> <Gold.PLP.ligand.clash>
0.0000

> <Gold.PLP.ligand.torsion>
0.7008

> <Gold.PLP.Chemscore.Hbond>
1.0000

> <Gold.PLP.Chemscore.CHOScore>
0.0000

> <Gold.PLP.Chemscore.Metal>
0.0000

> <Gold.Chemscore.Hbonds>
donor molecule, donor type, donor heavy atom, donor atom, acceptor molecule, acceptor atom, score
      P1  H 10752 10763       L1    16  1.00

> <Gold.PLP.Chemscore.Internal.Correction>
0.1120

> <Gold.Rescore>
     Score         DG    S(hbond)    S(metal)    S(lipo)     H(rot)  DE(clash)    DE(int)     intcor
     13.73     -14.41       1.00        0.00      84.52       1.68       0.00       0.68       ----

> <Gold.Chemscore.Fitness>
13.7292

> <Gold.Chemscore.DG>
-14.4069

> <Gold.Chemscore.ZeroCoef>
-5.4800

> <Gold.Chemscore.Hbond>
0.9988

> <Gold.Chemscore.Metal>
0.0000

> <Gold.Chemscore.Lipo>
84.5209

> <Gold.Chemscore.Internal_Hbond>
0.0000

> <Gold.Chemscore.DEClash>
0.0009

> <Gold.Chemscore.DEInternal>
0.6768

> <Gold.Chemscore.Rot>
1.6789

> <Gold.Chemscore.Internal.Correction>
   9.000000E+99

> <Gold.Chemscore.Hbonds>
donor molecule, donor type, donor heavy atom, donor atom, acceptor molecule, acceptor atom, score
      P1  H 10752 10763       L1    16  1.00

> <Gold.Chemscore.Hbond.Weighted>
-3.3360

> <Gold.Chemscore.Metal.Weighted>
-0.0000

> <Gold.Chemscore.Lipo.Weighted>
-9.8889

> <Gold.Chemscore.Internal_Hbond.Weighted>
0.0000

> <Gold.Chemscore.DEClash.Weighted>
0.0009

> <Gold.Chemscore.DEInternal.Weighted>
0.6768

> <Gold.Chemscore.Rot.Weighted>
4.2980

> <Gold.Chemscore.Internal.Correction.Weighted>
   9.000000E+99

> <Gold.Protein.RotatedTorsions>
[ 6907 6896 6895 6894 ] final   99.43 input  -60.11 | X-H torsion
[ 7974 7965 7964 7962 ] final  145.52 input  175.53 | X-H torsion
[ 8008 7997 7996 7995 ] final   34.26 input   59.86 | X-H torsion
[ 10167 10162 10161 10158 ] final  -30.02 input  -65.29 | X-H torsion
[ 10718 10713 10712 10709 ] final  -65.24 input   66.30 | X-H torsion
[ 10763 10752 10751 10750 ] final   52.61 input  -60.55 | X-H torsion
[ 11005 11000 10999 10996 ] final  -47.36 input  -57.11 | X-H torsion

> <Gold.Protein.ActiveResidues>
 VAL166  LYS551  ARG553  GLY616  TRP617  ASP618  TYR619  PRO620  LYS621  CYS622 
 ASP623  PHE694  ASN695  SER759  ASP760  ASP761  ALA762  ILE779  LEU786  VAL792 
 PHE793  MET794  SER795  GLU796  ALA797  LYS798  CYS799  TRP800  GLU811  SER814 

> <Gold.Protein.RotatedAtoms>
  152.5392  134.0429  159.8075 H   0  0  0  0  0  0  0  0  0  0  0  0  # atno 6907 bound_to 6896
  151.0582  133.5558  159.2643 H   0  0  0  0  0  0  0  0  0  0  0  0  # atno 6908 bound_to 6896
  151.2467  135.0616  159.9100 H   0  0  0  0  0  0  0  0  0  0  0  0  # atno 6909 bound_to 6896
  144.8746  139.5793  143.5871 H   0  0  0  0  0  0  0  0  0  0  0  0  # atno 7974 bound_to 7965
  155.1520  140.3275  155.4429 H   0  0  0  0  0  0  0  0  0  0  0  0  # atno 8008 bound_to 7997
  156.2571  140.1975  156.6582 H   0  0  0  0  0  0  0  0  0  0  0  0  # atno 8009 bound_to 7997
  154.6466  140.0563  156.9894 H   0  0  0  0  0  0  0  0  0  0  0  0  # atno 8010 bound_to 7997
  140.7254  143.3882  151.1478 H   0  0  0  0  0  0  0  0  0  0  0  0  # atno 10167 bound_to 10162
  156.0681  130.4244  150.1535 H   0  0  0  0  0  0  0  0  0  0  0  0  # atno 10718 bound_to 10713
  152.9790  135.5806  154.4607 H   0  0  0  0  0  0  0  0  0  0  0  0  # atno 10763 bound_to 10752
  154.4183  135.2771  155.1994 H   0  0  0  0  0  0  0  0  0  0  0  0  # atno 10764 bound_to 10752
  154.3754  135.6158  153.5816 H   0  0  0  0  0  0  0  0  0  0  0  0  # atno 10765 bound_to 10752
  141.0636  133.6701  156.3286 H   0  0  0  0  0  0  0  0  0  0  0  0  # atno 11005 bound_to 11000
  146.2953  139.7261  142.9131 LP  0  0  0  0  0  0  0  0  0  0  0  0  # atno 17320 bound_to 7965
  145.4067  141.0392  143.3040 LP  0  0  0  0  0  0  0  0  0  0  0  0  # atno 17321 bound_to 7965
  139.7482  143.8819  152.3069 LP  0  0  0  0  0  0  0  0  0  0  0  0  # atno 17342 bound_to 10162
  139.8664  144.7091  150.9039 LP  0  0  0  0  0  0  0  0  0  0  0  0  # atno 17343 bound_to 10162
  156.9591  130.9799  151.3483 LP  0  0  0  0  0  0  0  0  0  0  0  0  # atno 17370 bound_to 10713
  157.5736  130.8327  149.8425 LP  0  0  0  0  0  0  0  0  0  0  0  0  # atno 17371 bound_to 10713
  140.5819  134.5737  157.5481 LP  0  0  0  0  0  0  0  0  0  0  0  0  # atno 17394 bound_to 11000
  139.9455  134.7710  156.0572 LP  0  0  0  0  0  0  0  0  0  0  0  0  # atno 17395 bound_to 11000

$$$$
