AV-unprocessed.smi:1412|AV-procd|sdf|5745|dock4
  -GOLD-   22720 5383D 1   1.00000     0.00000
 Structure written by MMmdl.
 40 41  0  0  0  0  0  0  0  0  2 V2000
  148.2839  141.5405  157.4781 C   0  0  0  0  0  0  0  0  0  0  0  0
  149.5498  141.1463  158.2609 C   0  0  0  0  0  0  0  0  0  0  0  0
  150.4246  140.0263  157.6119 C   0  0  2  0  0  0  0  0  0  0  0  0
  150.7953  140.5312  156.1915 C   0  0  0  0  0  0  0  0  0  0  0  0
  149.5491  138.7373  157.4741 C   0  0  0  0  0  0  0  0  0  0  0  0
  148.7634  138.4207  158.6682 N   0  0  0  0  0  0  0  0  0  0  0  0
  148.7757  137.2682  159.3538 C   0  0  0  0  0  0  0  0  0  0  0  0
  149.5138  136.3456  159.0005 O   0  0  0  0  0  0  0  0  0  0  0  0
  147.9216  137.2524  160.4019 N   0  5  0  0  0  0  0  0  0  0  0  0
  147.5060  136.0809  160.9106 C   0  0  0  0  0  0  0  0  0  0  0  0
  147.1696  135.0389  160.1337 N   0  0  0  0  0  0  0  0  0  0  0  0
  146.7717  133.9236  160.8586 N   0  0  0  0  0  0  0  0  0  0  0  0
  146.8274  134.1515  162.1704 C   0  0  0  0  0  0  0  0  0  0  0  0
  147.3717  135.7481  162.6395 S   0  0  0  0  0  0  0  0  0  0  0  0
  151.6592  139.7800  158.4110 N   0  0  0  0  0  0  0  0  0  0  0  0
  152.3990  140.9848  158.8057 C   0  0  0  0  0  0  0  0  0  0  0  0
  153.5713  140.6582  159.7466 C   0  0  0  0  0  0  0  0  0  0  0  0
  154.4401  139.7188  159.1248 O   0  0  0  0  0  0  0  0  0  0  0  0
  153.7733  138.5121  158.7732 C   0  0  0  0  0  0  0  0  0  0  0  0
  152.6046  138.8234  157.8229 C   0  0  0  0  0  0  0  0  0  0  0  0
  147.7535  142.3421  157.9922 H   0  0  0  0  0  0  0  0  0  0  0  0
  147.5913  140.7048  157.3825 H   0  0  0  0  0  0  0  0  0  0  0  0
  148.5198  141.8982  156.4760 H   0  0  0  0  0  0  0  0  0  0  0  0
  150.1483  142.0405  158.4346 H   0  0  0  0  0  0  0  0  0  0  0  0
  149.2298  140.8383  159.2569 H   0  0  0  0  0  0  0  0  0  0  0  0
  149.9353  140.9508  155.6686 H   0  0  0  0  0  0  0  0  0  0  0  0
  151.1767  139.7289  155.5597 H   0  0  0  0  0  0  0  0  0  0  0  0
  151.5590  141.3084  156.2258 H   0  0  0  0  0  0  0  0  0  0  0  0
  148.8895  138.7994  156.6087 H   0  0  0  0  0  0  0  0  0  0  0  0
  150.1810  137.8678  157.2973 H   0  0  0  0  0  0  0  0  0  0  0  0
  148.1419  139.1427  159.0018 H   0  0  0  0  0  0  0  0  0  0  0  0
  146.5481  133.3744  162.8659 H   0  0  0  0  0  0  0  0  0  0  0  0
  152.7906  141.4946  157.9259 H   0  0  0  0  0  0  0  0  0  0  0  0
  151.7492  141.6915  159.3185 H   0  0  0  0  0  0  0  0  0  0  0  0
  154.1335  141.5626  159.9791 H   0  0  0  0  0  0  0  0  0  0  0  0
  153.2058  140.2560  160.6928 H   0  0  0  0  0  0  0  0  0  0  0  0
  154.4842  137.8405  158.2919 H   0  0  0  0  0  0  0  0  0  0  0  0
  153.4154  138.0093  159.6729 H   0  0  0  0  0  0  0  0  0  0  0  0
  152.1123  137.8831  157.5826 H   0  0  0  0  0  0  0  0  0  0  0  0
  153.0097  139.2159  156.8903 H   0  0  0  0  0  0  0  0  0  0  0  0
  1  2  1  0  0  0  0
  1 21  1  0  0  0  0
  1 22  1  0  0  0  0
  1 23  1  0  0  0  0
  2  3  1  0  0  0  0
  2 24  1  0  0  0  0
  2 25  1  0  0  0  0
  3  4  1  0  0  0  0
  3  5  1  0  0  0  0
  3 15  1  0  0  0  0
  4 26  1  0  0  0  0
  4 27  1  0  0  0  0
  4 28  1  0  0  0  0
  5  6  1  0  0  0  0
  5 29  1  0  0  0  0
  5 30  1  0  0  0  0
  6  7  1  0  0  0  0
  6 31  1  0  0  0  0
  7  8  2  0  0  0  0
  7  9  1  0  0  0  0
  9 10  1  0  0  0  0
 10 14  1  0  0  0  0
 10 11  2  0  0  0  0
 11 12  1  0  0  0  0
 12 13  2  0  0  0  0
 13 14  1  0  0  0  0
 13 32  1  0  0  0  0
 15 20  1  0  0  0  0
 15 16  1  0  0  0  0
 16 17  1  0  0  0  0
 16 33  1  0  0  0  0
 16 34  1  0  0  0  0
 17 18  1  0  0  0  0
 17 35  1  0  0  0  0
 17 36  1  0  0  0  0
 18 19  1  0  0  0  0
 19 20  1  0  0  0  0
 19 37  1  0  0  0  0
 19 38  1  0  0  0  0
 20 39  1  0  0  0  0
 20 40  1  0  0  0  0
M  CHG  1   9  -1
M  END
> <s_m_source_file>
AV-unprocessed.smi

> <i_m_source_file_index>
1412

> <i_lp_mmshare_version>
43012

> <i_f3d_flags>
0

> <s_epik_input>
W0NIMl0xW0NIMl1PW0NIMl1bQ0gyXU4xW0NAQF0oW0NIM10pKFtDSDJdW0NIM10pW0NIMl1bTkhdQyg9TylbTkhdYzJubltjSF1zMg==

> <s_epik_cmdline>
J2VwaWtfcHl0aG9uJywgJy1waCcsICc3LjAnLCAnLXRuJywgJzgnLCAnLW1hJywgJzIwMCcsICctbWV0YWxfYmluZGluZycsICctaW1hZScsICc8aW5maWxlLm1hZT4nLCAnLW9tYWUnLCAnPG91dGZpbGUubWFlPic=

> <r_lp_tautomer_probability>
1

> <r_epik_Ionization_Penalty>
4.84662

> <r_epik_Ionization_Penalty_Charging>
4.3852

> <r_epik_Ionization_Penalty_Neutral>
0.461421

> <r_epik_State_Penalty>
4.67356

> <r_epik_Charging_Adjusted_Penalty>
9.05877

> <i_epik_Tot_Q>
-1

> <i_epik_Tot_abs_Q>
1

> <r_epik_Metal_State_Penalty>
1.08474

> <b_epik_Metal_Only>
1

> <s_lp_Force_Field>
OPLS_2005

> <r_lp_Energy>
39.9544

> <b_lp_Chiralities_Consistent>
1

> <s_lp_Variant>
AV-unprocessed.smi:1412-6

> <Gold.Version>
5.8.1

> <Gold.Id.Protein>
6NUR|6NUR_protein|mol2

> <Gold.PLP.Fitness>
44.4996

> <Gold.PLP.PLP>
-30.8662

> <Gold.PLP.part.hbond>
-4.0000

> <Gold.PLP.part.metal>
0.0000

> <Gold.PLP.part.buried>
-5.3237

> <Gold.PLP.part.nonpolar>
-22.5835

> <Gold.PLP.part.repulsive>
0.1980

> <Gold.PLP.ligand.clash>
0.0000

> <Gold.PLP.ligand.torsion>
0.7743

> <Gold.PLP.Chemscore.Hbond>
4.9760

> <Gold.PLP.Chemscore.CHOScore>
0.0000

> <Gold.PLP.Chemscore.Metal>
0.0000

> <Gold.Chemscore.Hbonds>
donor molecule, donor type, donor heavy atom, donor atom, acceptor molecule, acceptor atom, score
      P1  H  6896  6907       L1     8  0.81
      P1  H  6931  6943       L1     9  1.12
      P1  H  6934  6947       L1     9  1.57
      P1  H  7997  8008       L1    18  0.80

> <Gold.PLP.Chemscore.Internal.Correction>
0.2540

> <Gold.Rescore>
     Score         DG    S(hbond)    S(metal)    S(lipo)     H(rot)  DE(clash)    DE(int)     intcor
     15.77     -16.88       2.77        0.00      58.37       1.82       0.01       1.11       ----

> <Gold.Chemscore.Fitness>
15.7659

> <Gold.Chemscore.DG>
-16.8838

> <Gold.Chemscore.ZeroCoef>
-5.4800

> <Gold.Chemscore.Hbond>
2.7677

> <Gold.Chemscore.Metal>
0.0000

> <Gold.Chemscore.Lipo>
58.3744

> <Gold.Chemscore.Internal_Hbond>
0.0000

> <Gold.Chemscore.DEClash>
0.0058

> <Gold.Chemscore.DEInternal>
1.1121

> <Gold.Chemscore.Rot>
1.8243

> <Gold.Chemscore.Internal.Correction>
   9.000000E+99

> <Gold.Chemscore.Hbonds>
donor molecule, donor type, donor heavy atom, donor atom, acceptor molecule, acceptor atom, score
      P1  H  6896  6907       L1     8  0.80
      P1  H  6931  6943       L1     9  0.13
      P1  H  6934  6947       L1     9  0.68
      P1  H  7997  8008       L1    18  0.11

> <Gold.Chemscore.Hbond.Weighted>
-9.2443

> <Gold.Chemscore.Metal.Weighted>
-0.0000

> <Gold.Chemscore.Lipo.Weighted>
-6.8298

> <Gold.Chemscore.Internal_Hbond.Weighted>
0.0000

> <Gold.Chemscore.DEClash.Weighted>
0.0058

> <Gold.Chemscore.DEInternal.Weighted>
1.1121

> <Gold.Chemscore.Rot.Weighted>
4.6702

> <Gold.Chemscore.Internal.Correction.Weighted>
   9.000000E+99

> <Gold.Protein.RotatedTorsions>
[ 6907 6896 6895 6894 ] final  -55.26 input  -60.11 | X-H torsion
[ 7974 7965 7964 7962 ] final   61.22 input  175.53 | X-H torsion
[ 8008 7997 7996 7995 ] final -129.61 input   59.86 | X-H torsion
[ 10167 10162 10161 10158 ] final  -59.87 input  -65.29 | X-H torsion
[ 10718 10713 10712 10709 ] final  143.49 input   66.30 | X-H torsion
[ 10763 10752 10751 10750 ] final   42.26 input  -60.55 | X-H torsion
[ 11005 11000 10999 10996 ] final  -66.35 input  -57.11 | X-H torsion

> <Gold.Protein.ActiveResidues>
 VAL166  LYS551  ARG553  GLY616  TRP617  ASP618  TYR619  PRO620  LYS621  CYS622 
 ASP623  PHE694  ASN695  SER759  ASP760  ASP761  ALA762  ILE779  LEU786  VAL792 
 PHE793  MET794  SER795  GLU796  ALA797  LYS798  CYS799  TRP800  GLU811  SER814 

> <Gold.Protein.RotatedAtoms>
  150.8266  134.7500  159.6818 H   0  0  0  0  0  0  0  0  0  0  0  0  # atno 6907 bound_to 6896
  152.4376  134.5651  159.9915 H   0  0  0  0  0  0  0  0  0  0  0  0  # atno 6908 bound_to 6896
  151.5822  133.3339  159.3046 H   0  0  0  0  0  0  0  0  0  0  0  0  # atno 6909 bound_to 6896
  145.8872  139.3485  143.0671 H   0  0  0  0  0  0  0  0  0  0  0  0  # atno 7974 bound_to 7965
  155.2820  140.0444  157.3016 H   0  0  0  0  0  0  0  0  0  0  0  0  # atno 8008 bound_to 7997
  154.5591  140.2340  155.8331 H   0  0  0  0  0  0  0  0  0  0  0  0  # atno 8009 bound_to 7997
  156.2032  140.3020  155.9579 H   0  0  0  0  0  0  0  0  0  0  0  0  # atno 8010 bound_to 7997
  140.6108  143.2386  151.5714 H   0  0  0  0  0  0  0  0  0  0  0  0  # atno 10167 bound_to 10162
  157.3684  131.0975  151.0851 H   0  0  0  0  0  0  0  0  0  0  0  0  # atno 10718 bound_to 10713
  152.9887  135.6137  154.2921 H   0  0  0  0  0  0  0  0  0  0  0  0  # atno 10763 bound_to 10752
  154.2646  135.2781  155.2766 H   0  0  0  0  0  0  0  0  0  0  0  0  # atno 10764 bound_to 10752
  154.5176  135.5823  153.6712 H   0  0  0  0  0  0  0  0  0  0  0  0  # atno 10765 bound_to 10752
  141.1479  133.6698  156.6125 H   0  0  0  0  0  0  0  0  0  0  0  0  # atno 11005 bound_to 11000
  145.8952  140.9278  143.0531 LP  0  0  0  0  0  0  0  0  0  0  0  0  # atno 17320 bound_to 7965
  144.6729  140.0959  143.7463 LP  0  0  0  0  0  0  0  0  0  0  0  0  # atno 17321 bound_to 7965
  139.5359  144.2781  152.1251 LP  0  0  0  0  0  0  0  0  0  0  0  0  # atno 17342 bound_to 10162
  140.1980  144.4686  150.6445 LP  0  0  0  0  0  0  0  0  0  0  0  0  # atno 17343 bound_to 10162
  157.1965  130.6375  149.5723 LP  0  0  0  0  0  0  0  0  0  0  0  0  # atno 17370 bound_to 10713
  155.9750  130.4705  150.6432 LP  0  0  0  0  0  0  0  0  0  0  0  0  # atno 17371 bound_to 10713
  140.3603  134.7693  157.4529 LP  0  0  0  0  0  0  0  0  0  0  0  0  # atno 17394 bound_to 11000
  140.0790  134.5757  155.8560 LP  0  0  0  0  0  0  0  0  0  0  0  0  # atno 17395 bound_to 11000

$$$$
