AV-unprocessed.smi:655|AV-procd|sdf|3216|dock5
  -GOLD-   22720 0153D 1   1.00000     0.00000
 Structure written by MMmdl.
 34 35  0  0  0  0  0  0  0  0  2 V2000
  153.4937  142.0248  162.0943 C   0  0  0  0  0  0  0  0  0  0  0  0
  153.2552  142.1524  160.5831 C   0  0  2  0  0  0  0  0  0  0  0  0
  152.4756  143.4334  160.2395 C   0  0  0  0  0  0  0  0  0  0  0  0
  152.2438  143.5664  158.7233 C   0  0  0  0  0  0  0  0  0  0  0  0
  151.5471  142.3337  158.0984 C   0  0  1  0  0  0  0  0  0  0  0  0
  150.2322  142.2981  158.6226 O   0  0  0  0  0  0  0  0  0  0  0  0
  151.4323  142.5356  156.5602 C   0  0  0  0  0  0  0  0  0  0  0  0
  150.7393  141.4487  155.8453 N   0  0  0  0  0  0  0  0  0  0  0  0
  149.4010  141.6614  155.4680 C   0  0  0  0  0  0  0  0  0  0  0  0
  148.6859  140.7312  154.8067 C   0  0  0  0  0  0  0  0  0  0  0  0
  147.0469  141.0277  154.3475 Cl  0  0  0  0  0  0  0  0  0  0  0  0
  149.3391  139.4637  154.4881 C   0  0  0  0  0  0  0  0  0  0  0  0
  148.7176  138.5951  153.8777 O   0  0  0  0  0  0  0  0  0  0  0  0
  150.6324  139.2981  154.8920 N   0  5  0  0  0  0  0  0  0  0  0  0
  151.3419  140.2540  155.5675 C   0  0  0  0  0  0  0  0  0  0  0  0
  152.5023  140.0709  155.9355 O   0  0  0  0  0  0  0  0  0  0  0  0
  152.2892  141.0360  158.5068 C   0  0  0  0  0  0  0  0  0  0  0  0
  152.5207  140.9220  160.0239 C   0  0  0  0  0  0  0  0  0  0  0  0
  152.5522  141.9616  162.6409 H   0  0  0  0  0  0  0  0  0  0  0  0
  154.0454  142.8830  162.4785 H   0  0  0  0  0  0  0  0  0  0  0  0
  154.0734  141.1307  162.3251 H   0  0  0  0  0  0  0  0  0  0  0  0
  154.2318  142.2109  160.1002 H   0  0  0  0  0  0  0  0  0  0  0  0
  151.5175  143.4359  160.7608 H   0  0  0  0  0  0  0  0  0  0  0  0
  153.0202  144.3071  160.5995 H   0  0  0  0  0  0  0  0  0  0  0  0
  151.6671  144.4699  158.5194 H   0  0  0  0  0  0  0  0  0  0  0  0
  153.2114  143.7145  158.2422 H   0  0  0  0  0  0  0  0  0  0  0  0
  149.8186  141.4961  158.3419 H   0  0  0  0  0  0  0  0  0  0  0  0
  150.9746  143.5011  156.3366 H   0  0  0  0  0  0  0  0  0  0  0  0
  152.4362  142.6187  156.1411 H   0  0  0  0  0  0  0  0  0  0  0  0
  148.9968  142.6254  155.7402 H   0  0  0  0  0  0  0  0  0  0  0  0
  151.7393  140.1575  158.1676 H   0  0  0  0  0  0  0  0  0  0  0  0
  153.2573  141.0038  158.0057 H   0  0  0  0  0  0  0  0  0  0  0  0
  153.0952  140.0192  160.2339 H   0  0  0  0  0  0  0  0  0  0  0  0
  151.5635  140.7992  160.5326 H   0  0  0  0  0  0  0  0  0  0  0  0
  1  2  1  0  0  0  0
  1 19  1  0  0  0  0
  1 20  1  0  0  0  0
  1 21  1  0  0  0  0
  2 18  1  0  0  0  0
  2  3  1  0  0  0  0
  2 22  1  0  0  0  0
  3  4  1  0  0  0  0
  3 23  1  0  0  0  0
  3 24  1  0  0  0  0
  4  5  1  0  0  0  0
  4 25  1  0  0  0  0
  4 26  1  0  0  0  0
  5  6  1  0  0  0  0
  5  7  1  0  0  0  0
  5 17  1  0  0  0  0
  6 27  1  0  0  0  0
  7  8  1  0  0  0  0
  7 28  1  0  0  0  0
  7 29  1  0  0  0  0
  8 15  1  0  0  0  0
  8  9  1  0  0  0  0
  9 10  2  0  0  0  0
  9 30  1  0  0  0  0
 10 11  1  0  0  0  0
 10 12  1  0  0  0  0
 12 13  2  0  0  0  0
 12 14  1  0  0  0  0
 14 15  1  0  0  0  0
 15 16  2  0  0  0  0
 17 18  1  0  0  0  0
 17 31  1  0  0  0  0
 17 32  1  0  0  0  0
 18 33  1  0  0  0  0
 18 34  1  0  0  0  0
M  CHG  1  14  -1
M  END
> <s_m_source_file>
AV-unprocessed.smi

> <i_m_source_file_index>
655

> <i_lp_mmshare_version>
43012

> <i_f3d_flags>
0

> <s_epik_input>
W0NIMl0xW0NIMl1bQ0BIXShbQ0gzXSlbQ0gyXVtDSDJdW0NAQF0xKFtPSF0pW0NIMl1uMltjSF1jKENsKWMoPU8pW25IXWMyPU8=

> <s_epik_cmdline>
J2VwaWtfcHl0aG9uJywgJy1waCcsICc3LjAnLCAnLXRuJywgJzgnLCAnLW1hJywgJzIwMCcsICctbWV0YWxfYmluZGluZycsICctaW1hZScsICc8aW5maWxlLm1hZT4nLCAnLW9tYWUnLCAnPG91dGZpbGUubWFlPic=

> <r_epik_Ionization_Penalty>
2.34257

> <r_epik_Ionization_Penalty_Charging>
1.00552e-07

> <r_epik_Ionization_Penalty_Neutral>
2.34257

> <r_epik_State_Penalty>
2.4963

> <r_epik_Charging_Adjusted_Penalty>
2.4963

> <i_epik_Tot_Q>
-1

> <i_epik_Tot_abs_Q>
1

> <r_epik_Metal_State_Penalty>
0.0381881

> <b_epik_Metal_Only>
0

> <s_lp_Force_Field>
OPLS_2005

> <r_lp_Energy>
26.568

> <b_lp_Chiralities_Consistent>
1

> <s_lp_Variant>
AV-unprocessed.smi:655-3

> <Gold.Version>
5.8.1

> <Gold.Id.Protein>
6NUR|6NUR_protein|mol2

> <Gold.PLP.Fitness>
41.7506

> <Gold.PLP.PLP>
-36.1902

> <Gold.PLP.part.hbond>
-1.1045

> <Gold.PLP.part.metal>
0.0000

> <Gold.PLP.part.buried>
-2.7221

> <Gold.PLP.part.nonpolar>
-32.6220

> <Gold.PLP.part.repulsive>
0.2894

> <Gold.PLP.ligand.clash>
0.0000

> <Gold.PLP.ligand.torsion>
0.2480

> <Gold.PLP.Chemscore.Hbond>
1.0000

> <Gold.PLP.Chemscore.CHOScore>
1.0000

> <Gold.PLP.Chemscore.Metal>
0.0000

> <Gold.Chemscore.Hbonds>
donor molecule, donor type, donor heavy atom, donor atom, acceptor molecule, acceptor atom, score
      P1  H  7997  8009       L1    16  1.00
      L1  C     9    30       P1  8028  1.00

> <Gold.PLP.Chemscore.Internal.Correction>
0.0564

> <Gold.Rescore>
     Score         DG    S(hbond)    S(metal)    S(lipo)     H(rot)  DE(clash)    DE(int)     intcor
     12.51     -15.59       1.00        0.00      97.45       1.81       1.40       1.68       ----

> <Gold.Chemscore.Fitness>
12.5054

> <Gold.Chemscore.DG>
-15.5892

> <Gold.Chemscore.ZeroCoef>
-5.4800

> <Gold.Chemscore.Hbond>
0.9997

> <Gold.Chemscore.Metal>
0.0000

> <Gold.Chemscore.Lipo>
97.4513

> <Gold.Chemscore.Internal_Hbond>
0.0000

> <Gold.Chemscore.DEClash>
1.4012

> <Gold.Chemscore.DEInternal>
1.6827

> <Gold.Chemscore.Rot>
1.8092

> <Gold.Chemscore.Internal.Correction>
   9.000000E+99

> <Gold.Chemscore.Hbonds>
donor molecule, donor type, donor heavy atom, donor atom, acceptor molecule, acceptor atom, score
      P1  H  7997  8009       L1    16  1.00

> <Gold.Chemscore.Hbond.Weighted>
-3.3390

> <Gold.Chemscore.Metal.Weighted>
-0.0000

> <Gold.Chemscore.Lipo.Weighted>
-11.4018

> <Gold.Chemscore.Internal_Hbond.Weighted>
0.0000

> <Gold.Chemscore.DEClash.Weighted>
1.4012

> <Gold.Chemscore.DEInternal.Weighted>
1.6827

> <Gold.Chemscore.Rot.Weighted>
4.6316

> <Gold.Chemscore.Internal.Correction.Weighted>
   9.000000E+99

> <Gold.Protein.RotatedTorsions>
[ 6907 6896 6895 6894 ] final   73.39 input  -60.11 | X-H torsion
[ 7974 7965 7964 7962 ] final  -80.50 input  175.53 | X-H torsion
[ 8008 7997 7996 7995 ] final -154.17 input   59.86 | X-H torsion
[ 10167 10162 10161 10158 ] final -154.13 input  -65.29 | X-H torsion
[ 10718 10713 10712 10709 ] final  135.86 input   66.30 | X-H torsion
[ 10763 10752 10751 10750 ] final  -99.98 input  -60.55 | X-H torsion
[ 11005 11000 10999 10996 ] final   76.37 input  -57.11 | X-H torsion

> <Gold.Protein.ActiveResidues>
 VAL166  LYS551  ARG553  GLY616  TRP617  ASP618  TYR619  PRO620  LYS621  CYS622 
 ASP623  PHE694  ASN695  SER759  ASP760  ASP761  ALA762  ILE779  LEU786  VAL792 
 PHE793  MET794  SER795  GLU796  ALA797  LYS798  CYS799  TRP800  GLU811  SER814 

> <Gold.Protein.RotatedAtoms>
  152.4920  134.4429  159.9549 H   0  0  0  0  0  0  0  0  0  0  0  0  # atno 6907 bound_to 6896
  151.4415  133.3636  159.2790 H   0  0  0  0  0  0  0  0  0  0  0  0  # atno 6908 bound_to 6896
  150.9084  134.8524  159.7469 H   0  0  0  0  0  0  0  0  0  0  0  0  # atno 6909 bound_to 6896
  145.5592  140.9485  143.1457 H   0  0  0  0  0  0  0  0  0  0  0  0  # atno 7974 bound_to 7965
  155.6822  140.0745  157.2480 H   0  0  0  0  0  0  0  0  0  0  0  0  # atno 8008 bound_to 7997
  154.4103  140.1680  156.2047 H   0  0  0  0  0  0  0  0  0  0  0  0  # atno 8009 bound_to 7997
  155.9524  140.3376  155.6423 H   0  0  0  0  0  0  0  0  0  0  0  0  # atno 8010 bound_to 7997
  139.7039  143.9219  152.2440 H   0  0  0  0  0  0  0  0  0  0  0  0  # atno 10167 bound_to 10162
  157.4527  131.1067  151.0014 H   0  0  0  0  0  0  0  0  0  0  0  0  # atno 10718 bound_to 10713
  154.7542  135.4952  153.9345 H   0  0  0  0  0  0  0  0  0  0  0  0  # atno 10763 bound_to 10752
  153.1178  135.6724  153.9396 H   0  0  0  0  0  0  0  0  0  0  0  0  # atno 10764 bound_to 10752
  153.9137  135.3096  155.3427 H   0  0  0  0  0  0  0  0  0  0  0  0  # atno 10765 bound_to 10752
  139.9301  134.7595  156.1387 H   0  0  0  0  0  0  0  0  0  0  0  0  # atno 11005 bound_to 11000
  144.7491  139.7240  143.7280 LP  0  0  0  0  0  0  0  0  0  0  0  0  # atno 17320 bound_to 7965
  146.1863  139.5080  142.9834 LP  0  0  0  0  0  0  0  0  0  0  0  0  # atno 17321 bound_to 7965
  139.9069  144.6879  150.8605 LP  0  0  0  0  0  0  0  0  0  0  0  0  # atno 17342 bound_to 10162
  140.7716  143.3472  151.2087 LP  0  0  0  0  0  0  0  0  0  0  0  0  # atno 17343 bound_to 10162
  157.0839  130.5914  149.5426 LP  0  0  0  0  0  0  0  0  0  0  0  0  # atno 17370 bound_to 10713
  155.9994  130.5070  150.7605 LP  0  0  0  0  0  0  0  0  0  0  0  0  # atno 17371 bound_to 10713
  141.0885  133.6724  156.2488 LP  0  0  0  0  0  0  0  0  0  0  0  0  # atno 17394 bound_to 11000
  140.6225  134.5347  157.5549 LP  0  0  0  0  0  0  0  0  0  0  0  0  # atno 17395 bound_to 11000

$$$$
