AV-unprocessed.smi:3267|AV-procd|sdf|12507|dock10
  -GOLD-   2272018413D 1   1.00000     0.00000
 Structure written by MMmdl.
 38 39  0  0  0  0  0  0  0  0  1 V2000
  151.0498  136.1260  156.3507 C   0  0  0  0  0  0  0  0  0  0  0  0
  150.1179  136.9987  155.4945 C   0  0  1  0  0  0  0  0  0  0  0  0
  150.8615  138.1058  154.7099 C   0  0  0  0  0  0  0  0  0  0  0  0
  150.0338  139.2598  154.3980 N   0  0  0  0  0  0  0  0  0  0  0  0
  148.8026  139.2889  153.7766 C   0  0  0  0  0  0  0  0  0  0  0  0
  148.4147  140.5959  153.7025 C   0  0  0  0  0  0  0  0  0  0  0  0
  149.4916  141.3025  154.3073 C   0  0  0  0  0  0  0  0  0  0  0  0
  150.4593  140.5009  154.7208 N   0  0  0  0  0  0  0  0  0  0  0  0
  149.3465  136.1427  154.5963 N   0  0  0  0  0  0  0  0  0  0  0  0
  148.4683  135.2057  154.9792 C   0  0  0  0  0  0  0  0  0  0  0  0
  148.2136  134.9342  156.1530 O   0  0  0  0  0  0  0  0  0  0  0  0
  147.9012  134.6001  153.9276 N   0  0  0  0  0  0  0  0  0  0  0  0
  146.9227  133.5227  154.0109 C   0  0  0  0  0  0  0  0  0  0  0  0
  146.6042  132.9443  152.6224 C   0  0  1  0  0  0  0  0  0  0  0  0
  145.6264  131.7700  152.6477 C   0  0  0  0  0  0  0  0  0  0  0  0
  144.9352  131.8419  151.2930 C   0  0  0  0  0  0  0  0  0  0  0  0
  145.3709  133.1927  150.7194 C   0  0  0  0  0  0  0  0  0  0  0  0
  145.9180  133.8959  151.8243 O   0  0  0  0  0  0  0  0  0  0  0  0
  151.6456  136.7382  157.0281 H   0  0  0  0  0  0  0  0  0  0  0  0
  151.7359  135.5419  155.7367 H   0  0  0  0  0  0  0  0  0  0  0  0
  150.4775  135.4252  156.9594 H   0  0  0  0  0  0  0  0  0  0  0  0
  149.4212  137.4894  156.1766 H   0  0  0  0  0  0  0  0  0  0  0  0
  151.7441  138.4429  155.2560 H   0  0  0  0  0  0  0  0  0  0  0  0
  151.2295  137.6959  153.7688 H   0  0  0  0  0  0  0  0  0  0  0  0
  148.3092  138.3865  153.4464 H   0  0  0  0  0  0  0  0  0  0  0  0
  147.5015  140.9877  153.2799 H   0  0  0  0  0  0  0  0  0  0  0  0
  149.5984  142.3668  154.4568 H   0  0  0  0  0  0  0  0  0  0  0  0
  149.4780  136.2905  153.6063 H   0  0  0  0  0  0  0  0  0  0  0  0
  148.1769  134.8938  153.0019 H   0  0  0  0  0  0  0  0  0  0  0  0
  147.2922  132.7373  154.6724 H   0  0  0  0  0  0  0  0  0  0  0  0
  146.0167  133.9164  154.4724 H   0  0  0  0  0  0  0  0  0  0  0  0
  147.5202  132.6445  152.1093 H   0  0  0  0  0  0  0  0  0  0  0  0
  146.1274  130.8166  152.8176 H   0  0  0  0  0  0  0  0  0  0  0  0
  144.8887  131.9061  153.4396 H   0  0  0  0  0  0  0  0  0  0  0  0
  145.2377  131.0245  150.6376 H   0  0  0  0  0  0  0  0  0  0  0  0
  143.8524  131.7926  151.4136 H   0  0  0  0  0  0  0  0  0  0  0  0
  146.1460  133.0564  149.9638 H   0  0  0  0  0  0  0  0  0  0  0  0
  144.5466  133.7439  150.2663 H   0  0  0  0  0  0  0  0  0  0  0  0
  1  2  1  0  0  0  0
  1 19  1  0  0  0  0
  1 20  1  0  0  0  0
  1 21  1  0  0  0  0
  2  3  1  0  0  0  0
  2  9  1  0  0  0  0
  2 22  1  0  0  0  0
  3  4  1  0  0  0  0
  3 23  1  0  0  0  0
  3 24  1  0  0  0  0
  4  8  1  0  0  0  0
  4  5  1  0  0  0  0
  5  6  2  0  0  0  0
  5 25  1  0  0  0  0
  6  7  1  0  0  0  0
  6 26  1  0  0  0  0
  7  8  2  0  0  0  0
  7 27  1  0  0  0  0
  9 10  1  0  0  0  0
  9 28  1  0  0  0  0
 10 11  2  0  0  0  0
 10 12  1  0  0  0  0
 12 13  1  0  0  0  0
 12 29  1  0  0  0  0
 13 14  1  0  0  0  0
 13 30  1  0  0  0  0
 13 31  1  0  0  0  0
 14 18  1  0  0  0  0
 14 15  1  0  0  0  0
 14 32  1  0  0  0  0
 15 16  1  0  0  0  0
 15 33  1  0  0  0  0
 15 34  1  0  0  0  0
 16 17  1  0  0  0  0
 16 35  1  0  0  0  0
 16 36  1  0  0  0  0
 17 18  1  0  0  0  0
 17 37  1  0  0  0  0
 17 38  1  0  0  0  0
M  END
> <s_m_source_file>
AV-unprocessed.smi

> <i_m_source_file_index>
3267

> <i_lp_mmshare_version>
43012

> <i_f3d_flags>
0

> <s_epik_input>
bjFbY0hdW2NIXVtjSF1uMVtDSDJdW0NAQEhdKFtDSDNdKVtOSF1DKD1PKVtOSF1bQ0gyXVtDQEBIXTJbQ0gyXVtDSDJdW0NIMl1PMg==

> <s_epik_cmdline>
J2VwaWtfcHl0aG9uJywgJy1waCcsICc3LjAnLCAnLXRuJywgJzgnLCAnLW1hJywgJzIwMCcsICctbWV0YWxfYmluZGluZycsICctaW1hZScsICc8aW5maWxlLm1hZT4nLCAnLW9tYWUnLCAnPG91dGZpbGUubWFlPic=

> <r_lp_tautomer_probability>
1

> <r_epik_Ionization_Penalty>
6.24796e-05

> <r_epik_Ionization_Penalty_Charging>
0

> <r_epik_Ionization_Penalty_Neutral>
6.24796e-05

> <r_epik_State_Penalty>
-0

> <r_epik_Charging_Adjusted_Penalty>
0

> <i_epik_Tot_Q>
0

> <i_epik_Tot_abs_Q>
0

> <r_epik_Metal_State_Penalty>
-0

> <b_epik_Metal_Only>
0

> <s_lp_Force_Field>
OPLS_2005

> <r_lp_Energy>
14.3103

> <b_lp_Chiralities_Consistent>
1

> <s_lp_Variant>
AV-unprocessed.smi:3267-4

> <Gold.Version>
5.8.1

> <Gold.Id.Protein>
6NUR|6NUR_protein|mol2

> <Gold.PLP.Fitness>
41.4129

> <Gold.PLP.PLP>
-29.1380

> <Gold.PLP.part.hbond>
-3.0000

> <Gold.PLP.part.metal>
0.0000

> <Gold.PLP.part.buried>
-0.5707

> <Gold.PLP.part.nonpolar>
-25.4214

> <Gold.PLP.part.repulsive>
0.3043

> <Gold.PLP.ligand.clash>
0.0000

> <Gold.PLP.ligand.torsion>
0.3991

> <Gold.PLP.Chemscore.Hbond>
2.9440

> <Gold.PLP.Chemscore.CHOScore>
1.4002

> <Gold.PLP.Chemscore.Metal>
0.0000

> <Gold.Chemscore.Hbonds>
donor molecule, donor type, donor heavy atom, donor atom, acceptor molecule, acceptor atom, score
      L1  H     9    28       P1  7948  1.00
      L1  H    12    29       P1  7948  1.00
      P1  H  7989  7998       L1     8  0.90
      L1  C     5    25       P1  7948  0.49
      L1  C     7    27       P1  8028  0.52

> <Gold.PLP.Chemscore.Internal.Correction>
0.0406

> <Gold.Rescore>
     Score         DG    S(hbond)    S(metal)    S(lipo)     H(rot)  DE(clash)    DE(int)     intcor
     13.65     -14.07       1.89        0.00      60.52       1.87       0.00       0.42       ----

> <Gold.Chemscore.Fitness>
13.6480

> <Gold.Chemscore.DG>
-14.0727

> <Gold.Chemscore.ZeroCoef>
-5.4800

> <Gold.Chemscore.Hbond>
1.8876

> <Gold.Chemscore.Metal>
0.0000

> <Gold.Chemscore.Lipo>
60.5238

> <Gold.Chemscore.Internal_Hbond>
0.0000

> <Gold.Chemscore.DEClash>
0.0009

> <Gold.Chemscore.DEInternal>
0.4238

> <Gold.Chemscore.Rot>
1.8724

> <Gold.Chemscore.Internal.Correction>
   9.000000E+99

> <Gold.Chemscore.Hbonds>
donor molecule, donor type, donor heavy atom, donor atom, acceptor molecule, acceptor atom, score
      L1  H     9    28       P1  7948  0.64
      L1  H    12    29       P1  7948  0.81
      P1  H  7989  7998       L1     8  0.08

> <Gold.Chemscore.Hbond.Weighted>
-6.3046

> <Gold.Chemscore.Metal.Weighted>
-0.0000

> <Gold.Chemscore.Lipo.Weighted>
-7.0813

> <Gold.Chemscore.Internal_Hbond.Weighted>
0.0000

> <Gold.Chemscore.DEClash.Weighted>
0.0009

> <Gold.Chemscore.DEInternal.Weighted>
0.4238

> <Gold.Chemscore.Rot.Weighted>
4.7933

> <Gold.Chemscore.Internal.Correction.Weighted>
   9.000000E+99

> <Gold.Protein.RotatedTorsions>
[ 6907 6896 6895 6894 ] final  -83.61 input  -60.11 | X-H torsion
[ 7974 7965 7964 7962 ] final   19.29 input  175.53 | X-H torsion
[ 8008 7997 7996 7995 ] final  169.59 input   59.86 | X-H torsion
[ 10167 10162 10161 10158 ] final  -49.15 input  -65.29 | X-H torsion
[ 10718 10713 10712 10709 ] final   45.93 input   66.30 | X-H torsion
[ 10763 10752 10751 10750 ] final  -56.61 input  -60.55 | X-H torsion
[ 11005 11000 10999 10996 ] final   99.46 input  -57.11 | X-H torsion

> <Gold.Protein.ActiveResidues>
 VAL166  LYS551  ARG553  GLY616  TRP617  ASP618  TYR619  PRO620  LYS621  CYS622 
 ASP623  PHE694  ASN695  SER759  ASP760  ASP761  ALA762  ILE779  LEU786  VAL792 
 PHE793  MET794  SER795  GLU796  ALA797  LYS798  CYS799  TRP800  GLU811  SER814 

> <Gold.Protein.RotatedAtoms>
  150.6884  134.3486  159.4898 H   0  0  0  0  0  0  0  0  0  0  0  0  # atno 6907 bound_to 6896
  152.1330  134.9118  160.0567 H   0  0  0  0  0  0  0  0  0  0  0  0  # atno 6908 bound_to 6896
  152.0280  133.3891  159.4322 H   0  0  0  0  0  0  0  0  0  0  0  0  # atno 6909 bound_to 6896
  146.2154  139.8334  142.8655 H   0  0  0  0  0  0  0  0  0  0  0  0  # atno 7974 bound_to 7965
  156.1444  140.1560  156.8870 H   0  0  0  0  0  0  0  0  0  0  0  0  # atno 8008 bound_to 7997
  154.5015  140.0824  156.7845 H   0  0  0  0  0  0  0  0  0  0  0  0  # atno 8009 bound_to 7997
  155.4017  140.3415  155.4260 H   0  0  0  0  0  0  0  0  0  0  0  0  # atno 8010 bound_to 7997
  140.6698  143.2710  151.4174 H   0  0  0  0  0  0  0  0  0  0  0  0  # atno 10167 bound_to 10162
  157.4427  130.8091  149.7710 H   0  0  0  0  0  0  0  0  0  0  0  0  # atno 10718 bound_to 10713
  154.2094  135.6397  153.5110 H   0  0  0  0  0  0  0  0  0  0  0  0  # atno 10763 bound_to 10752
  152.9993  135.5470  154.6231 H   0  0  0  0  0  0  0  0  0  0  0  0  # atno 10764 bound_to 10752
  154.5664  135.2913  155.0843 H   0  0  0  0  0  0  0  0  0  0  0  0  # atno 10765 bound_to 10752
  139.8771  134.9096  156.4609 H   0  0  0  0  0  0  0  0  0  0  0  0  # atno 11005 bound_to 11000
  145.2973  141.0184  143.3628 LP  0  0  0  0  0  0  0  0  0  0  0  0  # atno 17320 bound_to 7965
  144.9032  139.4623  143.6622 LP  0  0  0  0  0  0  0  0  0  0  0  0  # atno 17321 bound_to 7965
  139.5962  144.1393  152.2146 LP  0  0  0  0  0  0  0  0  0  0  0  0  # atno 17342 bound_to 10162
  140.0763  144.5738  150.7155 LP  0  0  0  0  0  0  0  0  0  0  0  0  # atno 17343 bound_to 10162
  155.9955  130.3911  150.2816 LP  0  0  0  0  0  0  0  0  0  0  0  0  # atno 17370 bound_to 10713
  157.0982  131.0188  151.3096 LP  0  0  0  0  0  0  0  0  0  0  0  0  # atno 17371 bound_to 10713
  140.8864  133.7880  155.9523 LP  0  0  0  0  0  0  0  0  0  0  0  0  # atno 17394 bound_to 11000
  140.8800  134.2623  157.5149 LP  0  0  0  0  0  0  0  0  0  0  0  0  # atno 17395 bound_to 11000

$$$$
