#       Name:                AV-unprocessed.smi:1763
#       Creating user name   scv26
#       Creation time:       Fri Mar 27 08:36:48 2020


#       File generated by GOLD software.
#

@<TRIPOS>MOLECULE
AV-unprocessed.smi:1763
    48    49     1
SMALL
NO_CHARGES


@<TRIPOS>ATOM
      1 ****        -3.2139   4.3107  -3.8613 C.3            1 S1                 0.0000
      2 ****        -2.9976   2.9788  -3.3080 N.pl3          1 S1                -1.0000
      3 ****        -3.3787   2.6169  -2.0517 C.2            1 S1                 0.0000
      4 ****        -3.9490   3.2611  -1.1657 O.2            1 S1                 0.0000
      5 ****        -3.0036   1.1584  -1.7605 C.3            1 S1                 0.0000
      6 ****        -1.5318   0.9671  -1.8255 N.4            1 S1                 1.0000
      7 ****        -1.1550  -0.4357  -2.1309 C.3            1 S1                 0.0000
      8 ****         0.3632  -0.5708  -2.3478 C.3            1 S1                 0.0000
      9 ****         1.1705  -0.0329  -1.1534 C.3            1 S1                 0.0000
     10 ****         1.0490  -0.9307  -0.0048 N.am           1 S1                 0.0000
     11 ****         1.9148  -1.0022   1.0173 C.2            1 S1                 0.0000
     12 ****         2.9224  -0.2995   1.1017 O.2            1 S1                 0.0000
     13 ****         1.5333  -1.9273   1.9158 N.am           1 S1                 0.0000
     14 ****         2.1792  -2.2925   3.1273 C.ar           1 S1                 0.0000
     15 ****         1.5335  -3.3088   3.8675 C.ar           1 S1                 0.0000
     16 ****         2.0947  -3.7420   5.0845 C.ar           1 S1                 0.0000
     17 ****         3.2885  -3.1473   5.5305 C.ar           1 S1                 0.0000
     18 ****         3.8665  -2.1419   4.7336 C.ar           1 S1                 0.0000
     19 ****         3.3303  -1.7250   3.5672 N.ar           1 S1                 0.0000
     20 ****         0.7073   1.3979  -0.8139 C.3            1 S1                 0.0000
     21 ****        -0.8175   1.4815  -0.6269 C.3            1 S1                 0.0000
     22 ****        -2.8624   4.3831  -4.8904 H              1 S1                 0.0000
     23 ****        -2.6866   5.0830  -3.3006 H              1 S1                 0.0000
     24 ****        -4.2674   4.5918  -3.8736 H              1 S1                 0.0000
     25 ****        -3.3845   0.8478  -0.7862 H              1 S1                 0.0000
     26 ****        -3.5017   0.5322  -2.5028 H              1 S1                 0.0000
     27 ****        -1.4855  -1.0866  -1.3201 H              1 S1                 0.0000
     28 ****        -1.6726  -0.7658  -3.0324 H              1 S1                 0.0000
     29 ****         0.6235  -1.6118  -2.5436 H              1 S1                 0.0000
     30 ****         0.6422  -0.0159  -3.2447 H              1 S1                 0.0000
     31 ****         2.2217  -0.0015  -1.4459 H              1 S1                 0.0000
     32 ****         0.2513  -1.5493   0.0069 H              1 S1                 0.0000
     33 ****         0.6823  -2.4291   1.7105 H              1 S1                 0.0000
     34 ****         0.6168  -3.7556   3.5105 H              1 S1                 0.0000
     35 ****         1.6168  -4.5173   5.6650 H              1 S1                 0.0000
     36 ****         3.7487  -3.4527   6.4586 H              1 S1                 0.0000
     37 ****         4.7830  -1.6594   5.0400 H              1 S1                 0.0000
     38 ****         1.2147   1.7659   0.0786 H              1 S1                 0.0000
     39 ****         1.0006   2.0685  -1.6228 H              1 S1                 0.0000
     40 ****        -1.0943   2.5196  -0.4409 H              1 S1                 0.0000
     41 ****        -1.1234   0.9139   0.2533 H              1 S1                 0.0000
     42 ****        -1.2278   1.5236  -2.6126 H              1 S1                 0.0000
     43 ****        -2.5457   2.2953  -3.8813 LP             1 S1                 0.0000
     44 ****        -4.2044   4.2145  -1.3264 LP             1 S1                 0.0000
     45 ****        -4.1554   2.8293  -0.2877 LP             1 S1                 0.0000
     46 ****         3.1289   0.3666   0.3849 LP             1 S1                 0.0000
     47 ****         3.5341  -0.3949   1.8869 LP             1 S1                 0.0000
     48 ****         3.7762  -1.0064   3.0336 LP             1 S1                 0.0000
@<TRIPOS>BOND
    1    1    2 1     
    2    1   22 1     
    3    1   23 1     
    4    1   24 1     
    5    2    3 1     
    6    3    4 2     
    7    3    5 1     
    8    5    6 1     
    9    5   25 1     
   10    5   26 1     
   11    6   21 1     
   12    6    7 1     
   13    6   42 1     
   14    7    8 1     
   15    7   27 1     
   16    7   28 1     
   17    8    9 1     
   18    8   29 1     
   19    8   30 1     
   20    9   10 1     
   21    9   20 1     
   22    9   31 1     
   23   10   11 am    
   24   10   32 1     
   25   11   12 2     
   26   11   13 am    
   27   13   14 1     
   28   13   33 1     
   29   14   19 ar    
   30   14   15 ar    
   31   15   16 ar    
   32   15   34 1     
   33   16   17 ar    
   34   16   35 1     
   35   17   18 ar    
   36   17   36 1     
   37   18   19 ar    
   38   18   37 1     
   39   20   21 1     
   40   20   38 1     
   41   20   39 1     
   42   21   40 1     
   43   21   41 1     
   44    2   43 1     
   45    4   44 1     
   46    4   45 1     
   47   12   46 1     
   48   12   47 1     
   49   19   48 1     
@<TRIPOS>SUBSTRUCTURE
      1 S1             1
@<TRIPOS>SET
LONE_PAIRS      STATIC     ATOMS    <user>   **** ""
6 43 44 45 46 47 48
DONOR_HYDROGENS      STATIC     ATOMS    <user>   **** ""
3 42 32 33
ATOM$BLUE        STATIC     ATOMS    COLORGROUP SYSTEM
6 43 44 45 46 47 48
ATOM$RED        STATIC     ATOMS    COLORGROUP SYSTEM
3 42 32 33
