AV-unprocessed.smi:2768|AV-procd|sdf|10649|dock10
  -GOLD-   2272015103D 1   1.00000     0.00000
 Structure written by MMmdl.
 35 36  0  0  0  0  0  0  0  0  1 V2000
  148.7166  140.9725  158.2343 O   0  0  0  0  0  0  0  0  0  0  0  0
  149.5707  141.2470  157.3903 C   0  0  0  0  0  0  0  0  0  0  0  0
  150.6124  142.0578  157.6390 N   0  0  0  0  0  0  0  0  0  0  0  0
  150.8540  142.7678  158.8927 C   0  0  1  0  0  0  0  0  0  0  0  0
  152.3652  142.8453  159.1841 C   0  0  0  0  0  0  0  0  0  0  0  0
  152.6404  143.5950  160.4977 C   0  0  0  0  0  0  0  0  0  0  0  0
  152.0136  144.9979  160.4822 C   0  0  0  0  0  0  0  0  0  0  0  0
  150.5045  144.9379  160.1828 C   0  0  0  0  0  0  0  0  0  0  0  0
  150.1983  144.1708  158.8819 C   0  0  1  0  0  0  0  0  0  0  0  0
  150.6532  144.9325  157.7779 O   0  0  0  0  0  0  0  0  0  0  0  0
  149.4652  140.6826  155.9662 C   0  0  0  0  0  0  0  0  0  0  0  0
  148.3797  139.9087  155.8903 F   0  0  0  0  0  0  0  0  0  0  0  0
  149.3115  141.6892  155.1025 F   0  0  0  0  0  0  0  0  0  0  0  0
  150.7227  139.8879  155.6225 C   0  0  0  0  0  0  0  0  0  0  0  0
  150.8563  139.2343  154.3758 C   0  0  0  0  0  0  0  0  0  0  0  0
  152.0306  138.5003  154.1207 C   0  0  0  0  0  0  0  0  0  0  0  0
  153.0251  138.4423  155.1151 C   0  0  0  0  0  0  0  0  0  0  0  0
  152.7999  139.1238  156.3268 C   0  0  0  0  0  0  0  0  0  0  0  0
  151.6774  139.8294  156.5816 N   0  0  0  0  0  0  0  0  0  0  0  0
  150.4018  142.1904  159.7017 H   0  0  0  0  0  0  0  0  0  0  0  0
  149.1172  144.0697  158.7800 H   0  0  0  0  0  0  0  0  0  0  0  0
  151.2694  142.2247  156.8906 H   0  0  0  0  0  0  0  0  0  0  0  0
  152.7858  141.8407  159.2429 H   0  0  0  0  0  0  0  0  0  0  0  0
  152.8802  143.3473  158.3637 H   0  0  0  0  0  0  0  0  0  0  0  0
  152.2374  143.0242  161.3354 H   0  0  0  0  0  0  0  0  0  0  0  0
  153.7154  143.6703  160.6644 H   0  0  0  0  0  0  0  0  0  0  0  0
  152.1812  145.4888  161.4412 H   0  0  0  0  0  0  0  0  0  0  0  0
  152.5137  145.6121  159.7324 H   0  0  0  0  0  0  0  0  0  0  0  0
  149.9981  144.4450  161.0136 H   0  0  0  0  0  0  0  0  0  0  0  0
  150.0920  145.9463  160.1324 H   0  0  0  0  0  0  0  0  0  0  0  0
  149.9904  144.9068  157.1049 H   0  0  0  0  0  0  0  0  0  0  0  0
  150.0779  139.2870  153.6290 H   0  0  0  0  0  0  0  0  0  0  0  0
  152.1652  137.9890  153.1791 H   0  0  0  0  0  0  0  0  0  0  0  0
  153.9382  137.8886  154.9538 H   0  0  0  0  0  0  0  0  0  0  0  0
  153.5400  139.1009  157.1130 H   0  0  0  0  0  0  0  0  0  0  0  0
  1  2  2  0  0  0  0
  2  3  1  0  0  0  0
  2 11  1  0  0  0  0
  3  4  1  0  0  0  0
  3 22  1  0  0  0  0
  4 20  1  0  0  0  0
  4  9  1  0  0  0  0
  4  5  1  0  0  0  0
  5  6  1  0  0  0  0
  5 23  1  0  0  0  0
  5 24  1  0  0  0  0
  6  7  1  0  0  0  0
  6 25  1  0  0  0  0
  6 26  1  0  0  0  0
  7  8  1  0  0  0  0
  7 27  1  0  0  0  0
  7 28  1  0  0  0  0
  8  9  1  0  0  0  0
  8 29  1  0  0  0  0
  8 30  1  0  0  0  0
  9 21  1  0  0  0  0
  9 10  1  0  0  0  0
 10 31  1  0  0  0  0
 11 12  1  0  0  0  0
 11 13  1  0  0  0  0
 11 14  1  0  0  0  0
 14 19  1  0  0  0  0
 14 15  2  0  0  0  0
 15 16  1  0  0  0  0
 15 32  1  0  0  0  0
 16 17  2  0  0  0  0
 16 33  1  0  0  0  0
 17 18  1  0  0  0  0
 17 34  1  0  0  0  0
 18 19  2  0  0  0  0
 18 35  1  0  0  0  0
M  END
> <s_m_source_file>
AV-unprocessed.smi

> <i_m_source_file_index>
2768

> <i_lp_mmshare_version>
43012

> <i_f3d_flags>
0

> <s_epik_input>
bjFbY0hdW2NIXVtjSF1bY0hdYzFDKEYpKEYpQyg9TylbTkhdW0NAQEhdMltDSDJdW0NIMl1bQ0gyXVtDSDJdW0NASF0yW09IXQ==

> <s_epik_cmdline>
J2VwaWtfcHl0aG9uJywgJy1waCcsICc3LjAnLCAnLXRuJywgJzgnLCAnLW1hJywgJzIwMCcsICctbWV0YWxfYmluZGluZycsICctaW1hZScsICc8aW5maWxlLm1hZT4nLCAnLW9tYWUnLCAnPG91dGZpbGUubWFlPic=

> <r_lp_tautomer_probability>
1

> <r_epik_Ionization_Penalty>
4.19456e-05

> <r_epik_Ionization_Penalty_Charging>
0

> <r_epik_Ionization_Penalty_Neutral>
4.19456e-05

> <r_epik_State_Penalty>
-0

> <r_epik_Charging_Adjusted_Penalty>
0

> <i_epik_Tot_Q>
0

> <i_epik_Tot_abs_Q>
0

> <r_epik_Metal_State_Penalty>
0.0354684

> <b_epik_Metal_Only>
0

> <s_lp_Force_Field>
OPLS_2005

> <r_lp_Energy>
19.7139

> <b_lp_Chiralities_Consistent>
1

> <s_lp_Variant>
AV-unprocessed.smi:2768-2

> <Gold.Version>
5.8.1

> <Gold.Id.Protein>
6NUR|6NUR_protein|mol2

> <Gold.PLP.Fitness>
37.3489

> <Gold.PLP.PLP>
-35.0842

> <Gold.PLP.part.hbond>
-1.3978

> <Gold.PLP.part.metal>
0.0000

> <Gold.PLP.part.buried>
-2.8418

> <Gold.PLP.part.nonpolar>
-30.6285

> <Gold.PLP.part.repulsive>
0.0688

> <Gold.PLP.ligand.clash>
0.0000

> <Gold.PLP.ligand.torsion>
0.3802

> <Gold.PLP.Chemscore.Hbond>
1.0000

> <Gold.PLP.Chemscore.CHOScore>
0.0000

> <Gold.PLP.Chemscore.Metal>
0.0000

> <Gold.Chemscore.Hbonds>
donor molecule, donor type, donor heavy atom, donor atom, acceptor molecule, acceptor atom, score
      L1  H    10    31       P1  8028  0.80

> <Gold.PLP.Chemscore.Internal.Correction>
0.0251

> <Gold.Rescore>
     Score         DG    S(hbond)    S(metal)    S(lipo)     H(rot)  DE(clash)    DE(int)     intcor
     11.79     -14.44       0.70        0.00     100.29       2.00       0.79       1.86       ----

> <Gold.Chemscore.Fitness>
11.7858

> <Gold.Chemscore.DG>
-14.4380

> <Gold.Chemscore.ZeroCoef>
-5.4800

> <Gold.Chemscore.Hbond>
0.6995

> <Gold.Chemscore.Metal>
0.0000

> <Gold.Chemscore.Lipo>
100.2896

> <Gold.Chemscore.Internal_Hbond>
0.0000

> <Gold.Chemscore.DEClash>
0.7944

> <Gold.Chemscore.DEInternal>
1.8578

> <Gold.Chemscore.Rot>
1.9969

> <Gold.Chemscore.Internal.Correction>
   9.000000E+99

> <Gold.Chemscore.Hbonds>
donor molecule, donor type, donor heavy atom, donor atom, acceptor molecule, acceptor atom, score
      L1  H    10    31       P1  8028  0.12

> <Gold.Chemscore.Hbond.Weighted>
-2.3362

> <Gold.Chemscore.Metal.Weighted>
-0.0000

> <Gold.Chemscore.Lipo.Weighted>
-11.7339

> <Gold.Chemscore.Internal_Hbond.Weighted>
0.0000

> <Gold.Chemscore.DEClash.Weighted>
0.7944

> <Gold.Chemscore.DEInternal.Weighted>
1.8578

> <Gold.Chemscore.Rot.Weighted>
5.1122

> <Gold.Chemscore.Internal.Correction.Weighted>
   9.000000E+99

> <Gold.Protein.RotatedTorsions>
[ 6907 6896 6895 6894 ] final -129.27 input  -60.11 | X-H torsion
[ 7974 7965 7964 7962 ] final   -9.30 input  175.53 | X-H torsion
[ 8008 7997 7996 7995 ] final  111.32 input   59.86 | X-H torsion
[ 10167 10162 10161 10158 ] final   98.64 input  -65.29 | X-H torsion
[ 10718 10713 10712 10709 ] final  146.40 input   66.30 | X-H torsion
[ 10763 10752 10751 10750 ] final  153.09 input  -60.55 | X-H torsion
[ 11005 11000 10999 10996 ] final  -84.62 input  -57.11 | X-H torsion

> <Gold.Protein.ActiveResidues>
 VAL166  LYS551  ARG553  GLY616  TRP617  ASP618  TYR619  PRO620  LYS621  CYS622 
 ASP623  PHE694  ASN695  SER759  ASP760  ASP761  ALA762  ILE779  LEU786  VAL792 
 PHE793  MET794  SER795  GLU796  ALA797  LYS798  CYS799  TRP800  GLU811  SER814 

> <Gold.Protein.RotatedAtoms>
  150.9269  133.6813  159.2819 H   0  0  0  0  0  0  0  0  0  0  0  0  # atno 6907 bound_to 6896
  151.4248  135.1001  159.9634 H   0  0  0  0  0  0  0  0  0  0  0  0  # atno 6908 bound_to 6896
  152.5007  133.8713  159.7355 H   0  0  0  0  0  0  0  0  0  0  0  0  # atno 6909 bound_to 6896
  146.2256  140.2595  142.8351 H   0  0  0  0  0  0  0  0  0  0  0  0  # atno 7974 bound_to 7965
  156.2115  140.3021  155.9744 H   0  0  0  0  0  0  0  0  0  0  0  0  # atno 8008 bound_to 7997
  155.2711  140.0434  157.3024 H   0  0  0  0  0  0  0  0  0  0  0  0  # atno 8009 bound_to 7997
  154.5707  140.2347  155.8205 H   0  0  0  0  0  0  0  0  0  0  0  0  # atno 8010 bound_to 7997
  139.7690  144.6929  151.0183 H   0  0  0  0  0  0  0  0  0  0  0  0  # atno 10167 bound_to 10162
  157.3337  131.0924  151.1141 H   0  0  0  0  0  0  0  0  0  0  0  0  # atno 10718 bound_to 10713
  154.1306  135.2827  155.3186 H   0  0  0  0  0  0  0  0  0  0  0  0  # atno 10763 bound_to 10752
  154.6358  135.5419  153.7735 H   0  0  0  0  0  0  0  0  0  0  0  0  # atno 10764 bound_to 10752
  153.0282  135.6474  154.1457 H   0  0  0  0  0  0  0  0  0  0  0  0  # atno 10765 bound_to 10752
  141.1649  133.7355  156.8894 H   0  0  0  0  0  0  0  0  0  0  0  0  # atno 11005 bound_to 11000
  144.9350  140.8016  143.5666 LP  0  0  0  0  0  0  0  0  0  0  0  0  # atno 17320 bound_to 7965
  145.2542  139.2019  143.4926 LP  0  0  0  0  0  0  0  0  0  0  0  0  # atno 17321 bound_to 7965
  140.7813  143.4610  151.0278 LP  0  0  0  0  0  0  0  0  0  0  0  0  # atno 17342 bound_to 10162
  139.8294  143.7711  152.3179 LP  0  0  0  0  0  0  0  0  0  0  0  0  # atno 17343 bound_to 10162
  157.2380  130.6556  149.5877 LP  0  0  0  0  0  0  0  0  0  0  0  0  # atno 17370 bound_to 10713
  155.9699  130.4577  150.5974 LP  0  0  0  0  0  0  0  0  0  0  0  0  # atno 17371 bound_to 10713
  140.1659  134.9133  157.2773 LP  0  0  0  0  0  0  0  0  0  0  0  0  # atno 17394 bound_to 11000
  140.2558  134.3630  155.7425 LP  0  0  0  0  0  0  0  0  0  0  0  0  # atno 17395 bound_to 11000

$$$$
