AV-unprocessed.smi:1535|AV-procd|sdf|6178|dock8
  -GOLD-   22720 6333D 1   1.00000     0.00000
 Structure written by MMmdl.
 47 48  0  0  0  0  0  0  0  0  2 V2000
  153.7693  142.7492  163.5057 C   0  0  0  0  0  0  0  0  0  0  0  0
  153.1786  142.9422  162.1200 C   0  0  0  0  0  0  0  0  0  0  0  0
  152.3682  144.0722  161.8705 C   0  0  0  0  0  0  0  0  0  0  0  0
  151.8012  144.2895  160.5959 C   0  0  0  0  0  0  0  0  0  0  0  0
  150.9879  145.3112  160.1376 N   0  0  0  0  0  0  0  0  0  0  0  0
  150.7956  144.9540  158.8718 C   0  0  0  0  0  0  0  0  0  0  0  0
  151.3778  143.8118  158.4574 N   0  0  0  0  0  0  0  0  0  0  0  0
  151.3006  143.2242  157.1313 C   0  0  0  0  0  0  0  0  0  0  0  0
  151.2467  141.6836  157.1625 C   0  0  2  0  0  0  0  0  0  0  0  0
  151.6328  141.2061  155.8903 O   0  0  0  0  0  0  0  0  0  0  0  0
  149.8507  141.1132  157.5007 C   0  0  0  0  0  0  0  0  0  0  0  0
  148.7689  142.0643  157.1444 N   0  3  2  0  0  0  0  0  0  0  0  0
  148.1746  142.7095  158.3367 C   0  0  0  0  0  0  0  0  0  0  0  0
  147.7408  141.4737  156.2476 C   0  0  0  0  0  0  0  0  0  0  0  0
  148.1899  141.4866  154.7760 C   0  0  2  0  0  0  0  0  0  0  0  0
  146.9899  141.5294  153.8218 C   0  0  0  0  0  0  0  0  0  0  0  0
  149.0523  140.3319  154.4762 C   0  0  0  0  0  0  0  0  0  0  0  0
  149.7322  139.4255  154.2447 N   0  0  0  0  0  0  0  0  0  0  0  0
  152.0696  143.3384  159.5681 C   0  0  0  0  0  0  0  0  0  0  0  0
  152.8793  142.2129  159.8033 C   0  0  0  0  0  0  0  0  0  0  0  0
  153.4344  142.0087  161.0838 C   0  0  0  0  0  0  0  0  0  0  0  0
  154.3040  140.7881  161.3281 C   0  0  0  0  0  0  0  0  0  0  0  0
  153.5012  143.5704  164.1713 H   0  0  0  0  0  0  0  0  0  0  0  0
  154.8572  142.7030  163.4540 H   0  0  0  0  0  0  0  0  0  0  0  0
  153.4037  141.8242  163.9522 H   0  0  0  0  0  0  0  0  0  0  0  0
  152.1751  144.7850  162.6589 H   0  0  0  0  0  0  0  0  0  0  0  0
  150.1880  145.5535  158.2094 H   0  0  0  0  0  0  0  0  0  0  0  0
  150.4167  143.6215  156.6298 H   0  0  0  0  0  0  0  0  0  0  0  0
  152.1645  143.5632  156.5579 H   0  0  0  0  0  0  0  0  0  0  0  0
  151.9842  141.3256  157.8795 H   0  0  0  0  0  0  0  0  0  0  0  0
  152.2813  140.5275  156.0051 H   0  0  0  0  0  0  0  0  0  0  0  0
  149.6633  140.1712  156.9839 H   0  0  0  0  0  0  0  0  0  0  0  0
  149.8182  140.8832  158.5672 H   0  0  0  0  0  0  0  0  0  0  0  0
  147.7019  141.9710  158.9857 H   0  0  0  0  0  0  0  0  0  0  0  0
  147.4225  143.4447  158.0512 H   0  0  0  0  0  0  0  0  0  0  0  0
  148.9393  143.2311  158.9130 H   0  0  0  0  0  0  0  0  0  0  0  0
  147.5337  140.4413  156.5315 H   0  0  0  0  0  0  0  0  0  0  0  0
  146.7968  142.0070  156.3696 H   0  0  0  0  0  0  0  0  0  0  0  0
  148.7955  142.3739  154.5922 H   0  0  0  0  0  0  0  0  0  0  0  0
  147.3193  141.5670  152.7830 H   0  0  0  0  0  0  0  0  0  0  0  0
  146.3722  142.4092  154.0044 H   0  0  0  0  0  0  0  0  0  0  0  0
  146.3599  140.6471  153.9389 H   0  0  0  0  0  0  0  0  0  0  0  0
  153.0749  141.5118  159.0059 H   0  0  0  0  0  0  0  0  0  0  0  0
  154.3468  140.1468  160.4474 H   0  0  0  0  0  0  0  0  0  0  0  0
  153.9100  140.1945  162.1530 H   0  0  0  0  0  0  0  0  0  0  0  0
  155.3227  141.0895  161.5733 H   0  0  0  0  0  0  0  0  0  0  0  0
  149.2251  142.7996  156.6225 H   0  0  0  0  0  0  0  0  0  0  0  0
  1  2  1  0  0  0  0
  1 23  1  0  0  0  0
  1 24  1  0  0  0  0
  1 25  1  0  0  0  0
  2 21  1  0  0  0  0
  2  3  2  0  0  0  0
  3  4  1  0  0  0  0
  3 26  1  0  0  0  0
  4 19  2  0  0  0  0
  4  5  1  0  0  0  0
  5  6  2  0  0  0  0
  6  7  1  0  0  0  0
  6 27  1  0  0  0  0
  7  8  1  0  0  0  0
  7 19  1  0  0  0  0
  8  9  1  0  0  0  0
  8 28  1  0  0  0  0
  8 29  1  0  0  0  0
  9 10  1  0  0  0  0
  9 11  1  0  0  0  0
  9 30  1  0  0  0  0
 10 31  1  0  0  0  0
 11 12  1  0  0  0  0
 11 32  1  0  0  0  0
 11 33  1  0  0  0  0
 12 13  1  0  0  0  0
 12 14  1  0  0  0  0
 12 47  1  0  0  0  0
 13 34  1  0  0  0  0
 13 35  1  0  0  0  0
 13 36  1  0  0  0  0
 14 15  1  0  0  0  0
 14 37  1  0  0  0  0
 14 38  1  0  0  0  0
 15 16  1  0  0  0  0
 15 17  1  0  0  0  0
 15 39  1  0  0  0  0
 16 40  1  0  0  0  0
 16 41  1  0  0  0  0
 16 42  1  0  0  0  0
 17 18  3  0  0  0  0
 19 20  1  0  0  0  0
 20 21  2  0  0  0  0
 20 43  1  0  0  0  0
 21 22  1  0  0  0  0
 22 44  1  0  0  0  0
 22 45  1  0  0  0  0
 22 46  1  0  0  0  0
M  CHG  1  12   1
M  END
> <s_m_source_file>
AV-unprocessed.smi

> <i_m_source_file_index>
1535

> <i_lp_mmshare_version>
43012

> <i_f3d_flags>
0

> <s_epik_input>
W0NIM11jKFtjSF0xKWMoW0NIM10pW2NIXWMoYzEyKW4oW2NIXW4yKVtDSDJdW0NASF0oW09IXSlbQ0gyXU4oW0NIM10pW0NIMl1bQ0BIXShbQ0gzXSlDI04=

> <s_epik_cmdline>
J2VwaWtfcHl0aG9uJywgJy1waCcsICc3LjAnLCAnLXRuJywgJzgnLCAnLW1hJywgJzIwMCcsICctbWV0YWxfYmluZGluZycsICctaW1hZScsICc8aW5maWxlLm1hZT4nLCAnLW9tYWUnLCAnPG91dGZpbGUubWFlPic=

> <r_epik_Ionization_Penalty>
2.21058

> <r_epik_Ionization_Penalty_Charging>
2.12381

> <r_epik_Ionization_Penalty_Neutral>
0.0867699

> <r_epik_State_Penalty>
2.36208

> <r_epik_Charging_Adjusted_Penalty>
4.48589

> <i_epik_Tot_Q>
1

> <i_epik_Tot_abs_Q>
1

> <r_epik_Metal_State_Penalty>
2.2818

> <b_epik_Metal_Only>
0

> <s_lp_Force_Field>
OPLS_2005

> <r_lp_Energy>
15.029

> <b_lp_Chiralities_Consistent>
1

> <s_lp_Variant>
AV-unprocessed.smi:1535-9

> <Gold.Version>
5.8.1

> <Gold.Id.Protein>
6NUR|6NUR_protein|mol2

> <Gold.PLP.Fitness>
56.4315

> <Gold.PLP.PLP>
-52.6348

> <Gold.PLP.part.hbond>
-1.9299

> <Gold.PLP.part.metal>
0.0000

> <Gold.PLP.part.buried>
-2.6246

> <Gold.PLP.part.nonpolar>
-47.0544

> <Gold.PLP.part.repulsive>
0.7415

> <Gold.PLP.ligand.clash>
0.0000

> <Gold.PLP.ligand.torsion>
2.2553

> <Gold.PLP.Chemscore.Hbond>
1.7201

> <Gold.PLP.Chemscore.CHOScore>
1.0000

> <Gold.PLP.Chemscore.Metal>
0.0000

> <Gold.Chemscore.Hbonds>
donor molecule, donor type, donor heavy atom, donor atom, acceptor molecule, acceptor atom, score
      L1  H    12    47       P1  8028  1.12
      P1  H  7989  7998       L1    10  0.02
      L1  C     6    27       P1  8029  1.00

> <Gold.PLP.Chemscore.Internal.Correction>
0.1468

> <Gold.Rescore>
     Score         DG    S(hbond)    S(metal)    S(lipo)     H(rot)  DE(clash)    DE(int)     intcor
     13.25     -17.07       0.83        0.00     132.45       2.60       0.78       3.05       ----

> <Gold.Chemscore.Fitness>
13.2486

> <Gold.Chemscore.DG>
-17.0731

> <Gold.Chemscore.ZeroCoef>
-5.4800

> <Gold.Chemscore.Hbond>
0.8266

> <Gold.Chemscore.Metal>
0.0000

> <Gold.Chemscore.Lipo>
132.4470

> <Gold.Chemscore.Internal_Hbond>
0.0000

> <Gold.Chemscore.DEClash>
0.7771

> <Gold.Chemscore.DEInternal>
3.0473

> <Gold.Chemscore.Rot>
2.6031

> <Gold.Chemscore.Internal.Correction>
   9.000000E+99

> <Gold.Chemscore.Hbonds>
donor molecule, donor type, donor heavy atom, donor atom, acceptor molecule, acceptor atom, score
      L1  H    12    47       P1  8028  0.55

> <Gold.Chemscore.Hbond.Weighted>
-2.7608

> <Gold.Chemscore.Metal.Weighted>
-0.0000

> <Gold.Chemscore.Lipo.Weighted>
-15.4963

> <Gold.Chemscore.Internal_Hbond.Weighted>
0.0000

> <Gold.Chemscore.DEClash.Weighted>
0.7771

> <Gold.Chemscore.DEInternal.Weighted>
3.0473

> <Gold.Chemscore.Rot.Weighted>
6.6640

> <Gold.Chemscore.Internal.Correction.Weighted>
   9.000000E+99

> <Gold.Protein.RotatedTorsions>
[ 6907 6896 6895 6894 ] final -115.97 input  -60.11 | X-H torsion
[ 7974 7965 7964 7962 ] final -159.21 input  175.53 | X-H torsion
[ 8008 7997 7996 7995 ] final   22.60 input   59.86 | X-H torsion
[ 10167 10162 10161 10158 ] final  177.77 input  -65.29 | X-H torsion
[ 10718 10713 10712 10709 ] final  -45.97 input   66.30 | X-H torsion
[ 10763 10752 10751 10750 ] final   -5.76 input  -60.55 | X-H torsion
[ 11005 11000 10999 10996 ] final  100.87 input  -57.11 | X-H torsion

> <Gold.Protein.ActiveResidues>
 VAL166  LYS551  ARG553  GLY616  TRP617  ASP618  TYR619  PRO620  LYS621  CYS622 
 ASP623  PHE694  ASN695  SER759  ASP760  ASP761  ALA762  ILE779  LEU786  VAL792 
 PHE793  MET794  SER795  GLU796  ALA797  LYS798  CYS799  TRP800  GLU811  SER814 

> <Gold.Protein.RotatedAtoms>
  150.8019  133.8583  159.3224 H   0  0  0  0  0  0  0  0  0  0  0  0  # atno 6907 bound_to 6896
  151.6392  135.1013  160.0147 H   0  0  0  0  0  0  0  0  0  0  0  0  # atno 6908 bound_to 6896
  152.4107  133.6919  159.6430 H   0  0  0  0  0  0  0  0  0  0  0  0  # atno 6909 bound_to 6896
  144.7474  140.3718  143.6074 H   0  0  0  0  0  0  0  0  0  0  0  0  # atno 7974 bound_to 7965
  154.9682  140.3087  155.5000 H   0  0  0  0  0  0  0  0  0  0  0  0  # atno 8008 bound_to 7997
  156.2969  140.2289  156.4711 H   0  0  0  0  0  0  0  0  0  0  0  0  # atno 8009 bound_to 7997
  154.7901  140.0440  157.1183 H   0  0  0  0  0  0  0  0  0  0  0  0  # atno 8010 bound_to 7997
  139.5266  144.2759  152.0588 H   0  0  0  0  0  0  0  0  0  0  0  0  # atno 10167 bound_to 10162
  156.2230  130.4167  149.8969 H   0  0  0  0  0  0  0  0  0  0  0  0  # atno 10718 bound_to 10713
  153.4030  135.7005  153.6413 H   0  0  0  0  0  0  0  0  0  0  0  0  # atno 10763 bound_to 10752
  153.4938  135.3667  155.2506 H   0  0  0  0  0  0  0  0  0  0  0  0  # atno 10764 bound_to 10752
  154.8712  135.4095  154.3368 H   0  0  0  0  0  0  0  0  0  0  0  0  # atno 10765 bound_to 10752
  139.8772  134.9159  156.4822 H   0  0  0  0  0  0  0  0  0  0  0  0  # atno 11005 bound_to 11000
  145.7070  139.1675  143.2560 LP  0  0  0  0  0  0  0  0  0  0  0  0  # atno 17320 bound_to 7965
  146.1375  140.7103  142.9383 LP  0  0  0  0  0  0  0  0  0  0  0  0  # atno 17321 bound_to 7965
  140.2217  144.4459  150.6339 LP  0  0  0  0  0  0  0  0  0  0  0  0  # atno 17342 bound_to 10162
  140.6414  143.2204  151.6282 LP  0  0  0  0  0  0  0  0  0  0  0  0  # atno 17343 bound_to 10162
  156.6609  130.8781  151.3547 LP  0  0  0  0  0  0  0  0  0  0  0  0  # atno 17370 bound_to 10713
  157.7097  130.9425  150.1047 LP  0  0  0  0  0  0  0  0  0  0  0  0  # atno 17371 bound_to 10713
  140.8719  133.7982  155.9373 LP  0  0  0  0  0  0  0  0  0  0  0  0  # atno 17394 bound_to 11000
  140.8944  134.2456  157.5077 LP  0  0  0  0  0  0  0  0  0  0  0  0  # atno 17395 bound_to 11000

$$$$
