AV-unprocessed.smi:2228|AV-procd|sdf|9024|dock5
  -GOLD-   2272012223D 1   1.00000     0.00000
 Structure written by MMmdl.
 40 41  0  0  0  0  0  0  0  0  1 V2000
  146.2899  140.0747  157.4959 C   0  0  0  0  0  0  0  0  0  0  0  0
  147.5210  140.2050  156.8037 O   0  0  0  0  0  0  0  0  0  0  0  0
  147.4547  139.8153  155.4343 C   0  0  1  0  0  0  0  0  0  0  0  0
  146.4165  140.6864  154.7186 C   0  0  0  0  0  0  0  0  0  0  0  0
  147.1664  141.9780  154.4056 C   0  0  0  0  0  0  0  0  0  0  0  0
  148.5890  141.5293  154.0612 C   0  0  0  0  0  0  0  0  0  0  0  0
  148.7855  140.1502  154.7214 C   0  0  1  0  0  0  0  0  0  0  0  0
  149.9358  140.1529  155.6230 N   0  0  0  0  0  0  0  0  0  0  0  0
  150.1480  141.0583  156.5887 C   0  0  0  0  0  0  0  0  0  0  0  0
  149.3741  141.9857  156.8296 O   0  0  0  0  0  0  0  0  0  0  0  0
  151.2999  140.8155  157.2378 N   0  0  0  0  0  0  0  0  0  0  0  0
  151.8859  141.5616  158.2943 C   0  0  0  0  0  0  0  0  0  0  0  0
  151.6218  142.9492  158.2648 C   0  0  0  0  0  0  0  0  0  0  0  0
  152.1550  143.7796  159.2710 C   0  0  0  0  0  0  0  0  0  0  0  0
  151.8816  145.2688  159.2588 C   0  0  0  0  0  0  0  0  0  0  0  0
  152.9402  143.1961  160.2837 C   0  0  0  0  0  0  0  0  0  0  0  0
  153.1543  141.8045  160.2400 C   0  0  0  0  0  0  0  0  0  0  0  0
  153.9821  141.1101  161.3008 C   0  0  0  0  0  0  0  0  0  0  0  0
  152.6431  141.0104  159.2751 N   0  0  0  0  0  0  0  0  0  0  0  0
  146.4171  140.4014  158.5278 H   0  0  0  0  0  0  0  0  0  0  0  0
  145.9596  139.0354  157.5134 H   0  0  0  0  0  0  0  0  0  0  0  0
  145.5048  140.6827  157.0462 H   0  0  0  0  0  0  0  0  0  0  0  0
  147.2330  138.7500  155.3464 H   0  0  0  0  0  0  0  0  0  0  0  0
  146.1194  140.2058  153.7857 H   0  0  0  0  0  0  0  0  0  0  0  0
  145.5115  140.8582  155.3010 H   0  0  0  0  0  0  0  0  0  0  0  0
  146.7010  142.5486  153.6018 H   0  0  0  0  0  0  0  0  0  0  0  0
  147.1867  142.6114  155.2934 H   0  0  0  0  0  0  0  0  0  0  0  0
  148.6954  141.4338  152.9800 H   0  0  0  0  0  0  0  0  0  0  0  0
  149.3214  142.2678  154.3898 H   0  0  0  0  0  0  0  0  0  0  0  0
  148.9573  139.4203  153.9278 H   0  0  0  0  0  0  0  0  0  0  0  0
  150.6233  139.4267  155.4868 H   0  0  0  0  0  0  0  0  0  0  0  0
  151.8238  140.0082  156.9345 H   0  0  0  0  0  0  0  0  0  0  0  0
  151.0158  143.3759  157.4785 H   0  0  0  0  0  0  0  0  0  0  0  0
  152.4188  145.7776  160.0598 H   0  0  0  0  0  0  0  0  0  0  0  0
  150.8158  145.4567  159.3886 H   0  0  0  0  0  0  0  0  0  0  0  0
  152.1945  145.7036  158.3093 H   0  0  0  0  0  0  0  0  0  0  0  0
  153.3649  143.7979  161.0738 H   0  0  0  0  0  0  0  0  0  0  0  0
  154.4804  141.8320  161.9483 H   0  0  0  0  0  0  0  0  0  0  0  0
  154.7463  140.4834  160.8399 H   0  0  0  0  0  0  0  0  0  0  0  0
  153.3459  140.4774  161.9203 H   0  0  0  0  0  0  0  0  0  0  0  0
  1  2  1  0  0  0  0
  1 20  1  0  0  0  0
  1 21  1  0  0  0  0
  1 22  1  0  0  0  0
  2  3  1  0  0  0  0
  3  7  1  0  0  0  0
  3  4  1  0  0  0  0
  3 23  1  0  0  0  0
  4  5  1  0  0  0  0
  4 24  1  0  0  0  0
  4 25  1  0  0  0  0
  5  6  1  0  0  0  0
  5 26  1  0  0  0  0
  5 27  1  0  0  0  0
  6  7  1  0  0  0  0
  6 28  1  0  0  0  0
  6 29  1  0  0  0  0
  7  8  1  0  0  0  0
  7 30  1  0  0  0  0
  8  9  1  0  0  0  0
  8 31  1  0  0  0  0
  9 10  2  0  0  0  0
  9 11  1  0  0  0  0
 11 12  1  0  0  0  0
 11 32  1  0  0  0  0
 12 19  1  0  0  0  0
 12 13  2  0  0  0  0
 13 14  1  0  0  0  0
 13 33  1  0  0  0  0
 14 15  1  0  0  0  0
 14 16  2  0  0  0  0
 15 34  1  0  0  0  0
 15 35  1  0  0  0  0
 15 36  1  0  0  0  0
 16 17  1  0  0  0  0
 16 37  1  0  0  0  0
 17 18  1  0  0  0  0
 17 19  2  0  0  0  0
 18 38  1  0  0  0  0
 18 39  1  0  0  0  0
 18 40  1  0  0  0  0
M  END
> <s_m_source_file>
AV-unprocessed.smi

> <i_m_source_file_index>
2228

> <i_lp_mmshare_version>
43012

> <i_f3d_flags>
0

> <s_epik_input>
W0NIM11PW0NAQEhdMVtDSDJdW0NIMl1bQ0gyXVtDQEhdMVtOSF1DKD1PKVtOSF1jMltjSF1jKFtDSDNdKVtjSF1jKG4yKVtDSDNd

> <s_epik_cmdline>
J2VwaWtfcHl0aG9uJywgJy1waCcsICc3LjAnLCAnLXRuJywgJzgnLCAnLW1hJywgJzIwMCcsICctbWV0YWxfYmluZGluZycsICctaW1hZScsICc8aW5maWxlLm1hZT4nLCAnLW9tYWUnLCAnPG91dGZpbGUubWFlPic=

> <r_lp_tautomer_probability>
1

> <r_epik_Ionization_Penalty>
0.000275391

> <r_epik_Ionization_Penalty_Charging>
0

> <r_epik_Ionization_Penalty_Neutral>
0.000275391

> <r_epik_State_Penalty>
-0

> <r_epik_Charging_Adjusted_Penalty>
0

> <i_epik_Tot_Q>
0

> <i_epik_Tot_abs_Q>
0

> <r_epik_Metal_State_Penalty>
-0

> <b_epik_Metal_Only>
0

> <s_lp_Force_Field>
OPLS_2005

> <r_lp_Energy>
22.5757

> <b_lp_Chiralities_Consistent>
1

> <s_lp_Variant>
AV-unprocessed.smi:2228-2

> <Gold.Version>
5.8.1

> <Gold.Id.Protein>
6NUR|6NUR_protein|mol2

> <Gold.PLP.Fitness>
35.5222

> <Gold.PLP.PLP>
-36.0879

> <Gold.PLP.part.hbond>
0.0000

> <Gold.PLP.part.metal>
0.0000

> <Gold.PLP.part.buried>
-4.5431

> <Gold.PLP.part.nonpolar>
-33.1947

> <Gold.PLP.part.repulsive>
1.1375

> <Gold.PLP.ligand.clash>
0.0000

> <Gold.PLP.ligand.torsion>
0.2888

> <Gold.PLP.Chemscore.Hbond>
0.0000

> <Gold.PLP.Chemscore.CHOScore>
0.0000

> <Gold.PLP.Chemscore.Metal>
0.0000

> <Gold.PLP.Chemscore.Internal.Correction>
0.0120

> <Gold.Rescore>
     Score         DG    S(hbond)    S(metal)    S(lipo)     H(rot)  DE(clash)    DE(int)     intcor
      8.74     -13.16       0.00        0.00      92.17       1.21       0.02       4.41       ----

> <Gold.Chemscore.Fitness>
8.7351

> <Gold.Chemscore.DG>
-13.1609

> <Gold.Chemscore.ZeroCoef>
-5.4800

> <Gold.Chemscore.Hbond>
0.0000

> <Gold.Chemscore.Metal>
0.0000

> <Gold.Chemscore.Lipo>
92.1662

> <Gold.Chemscore.Internal_Hbond>
0.0000

> <Gold.Chemscore.DEClash>
0.0174

> <Gold.Chemscore.DEInternal>
4.4084

> <Gold.Chemscore.Rot>
1.2119

> <Gold.Chemscore.Internal.Correction>
   9.000000E+99

> <Gold.Chemscore.Hbond.Weighted>
-0.0000

> <Gold.Chemscore.Metal.Weighted>
-0.0000

> <Gold.Chemscore.Lipo.Weighted>
-10.7834

> <Gold.Chemscore.Internal_Hbond.Weighted>
0.0000

> <Gold.Chemscore.DEClash.Weighted>
0.0174

> <Gold.Chemscore.DEInternal.Weighted>
4.4084

> <Gold.Chemscore.Rot.Weighted>
3.1026

> <Gold.Chemscore.Internal.Correction.Weighted>
   9.000000E+99

> <Gold.Protein.RotatedTorsions>
[ 6907 6896 6895 6894 ] final  166.05 input  -60.11 | X-H torsion
[ 7974 7965 7964 7962 ] final  -73.68 input  175.53 | X-H torsion
[ 8008 7997 7996 7995 ] final  -31.69 input   59.86 | X-H torsion
[ 10167 10162 10161 10158 ] final   41.08 input  -65.29 | X-H torsion
[ 10718 10713 10712 10709 ] final -100.99 input   66.30 | X-H torsion
[ 10763 10752 10751 10750 ] final   77.99 input  -60.55 | X-H torsion
[ 11005 11000 10999 10996 ] final  135.87 input  -57.11 | X-H torsion

> <Gold.Protein.ActiveResidues>
 VAL166  LYS551  ARG553  GLY616  TRP617  ASP618  TYR619  PRO620  LYS621  CYS622 
 ASP623  PHE694  ASN695  SER759  ASP760  ASP761  ALA762  ILE779  LEU786  VAL792 
 PHE793  MET794  SER795  GLU796  ALA797  LYS798  CYS799  TRP800  GLU811  SER814 

> <Gold.Protein.RotatedAtoms>
  151.8849  133.3503  159.3778 H   0  0  0  0  0  0  0  0  0  0  0  0  # atno 6907 bound_to 6896
  150.7118  134.4982  159.5558 H   0  0  0  0  0  0  0  0  0  0  0  0  # atno 6908 bound_to 6896
  152.2541  134.8103  160.0492 H   0  0  0  0  0  0  0  0  0  0  0  0  # atno 6909 bound_to 6896
  145.6490  140.9288  143.0995 H   0  0  0  0  0  0  0  0  0  0  0  0  # atno 7974 bound_to 7965
  154.4205  140.1757  156.1607 H   0  0  0  0  0  0  0  0  0  0  0  0  # atno 8008 bound_to 7997
  155.9841  140.3375  155.6666 H   0  0  0  0  0  0  0  0  0  0  0  0  # atno 8009 bound_to 7997
  155.6461  140.0685  157.2593 H   0  0  0  0  0  0  0  0  0  0  0  0  # atno 8010 bound_to 7997
  140.3679  144.2143  150.6134 H   0  0  0  0  0  0  0  0  0  0  0  0  # atno 10167 bound_to 10162
  156.0180  130.5353  150.6897 H   0  0  0  0  0  0  0  0  0  0  0  0  # atno 10718 bound_to 10713
  153.0840  135.4893  154.8560 H   0  0  0  0  0  0  0  0  0  0  0  0  # atno 10763 bound_to 10752
  154.7187  135.3035  154.9084 H   0  0  0  0  0  0  0  0  0  0  0  0  # atno 10764 bound_to 10752
  153.9755  135.6796  153.4801 H   0  0  0  0  0  0  0  0  0  0  0  0  # atno 10765 bound_to 10752
  140.0008  134.9479  157.0068 H   0  0  0  0  0  0  0  0  0  0  0  0  # atno 11005 bound_to 11000
  144.7129  139.8302  143.7408 LP  0  0  0  0  0  0  0  0  0  0  0  0  # atno 17320 bound_to 7965
  146.1219  139.4239  143.0223 LP  0  0  0  0  0  0  0  0  0  0  0  0  # atno 17321 bound_to 7965
  140.5062  143.2303  151.8604 LP  0  0  0  0  0  0  0  0  0  0  0  0  # atno 17342 bound_to 10162
  139.4807  144.5002  151.9070 LP  0  0  0  0  0  0  0  0  0  0  0  0  # atno 17343 bound_to 10162
  157.4581  131.0880  151.0774 LP  0  0  0  0  0  0  0  0  0  0  0  0  # atno 17370 bound_to 10713
  157.1270  130.6086  149.5519 LP  0  0  0  0  0  0  0  0  0  0  0  0  # atno 17371 bound_to 10713
  140.4731  134.1366  155.7206 LP  0  0  0  0  0  0  0  0  0  0  0  0  # atno 17394 bound_to 11000
  141.1640  133.8738  157.1766 LP  0  0  0  0  0  0  0  0  0  0  0  0  # atno 17395 bound_to 11000

$$$$
