AV-unprocessed.smi:1576|AV-procd|sdf|6344|dock8
  -GOLD-   22720 6563D 1   1.00000     0.00000
 Structure written by MMmdl.
 45 47  0  0  0  0  0  0  0  0  1 V2000
  150.0238  135.2759  156.3103 O   0  0  0  0  0  0  0  0  0  0  0  0
  149.8144  135.5856  155.1380 C   0  0  0  0  0  0  0  0  0  0  0  0
  149.9795  136.8122  154.6135 N   0  0  0  0  0  0  0  0  0  0  0  0
  150.3991  138.0072  155.2591 C   0  0  0  0  0  0  0  0  0  0  0  0
  150.6413  139.2336  154.5975 C   0  0  0  0  0  0  0  0  0  0  0  0
  151.0702  140.3425  155.3521 C   0  0  0  0  0  0  0  0  0  0  0  0
  151.2560  140.2018  156.7474 C   0  0  0  0  0  0  0  0  0  0  0  0
  151.6845  141.3026  157.5207 N   0  0  0  0  0  0  0  0  0  0  0  0
  152.3507  140.9631  158.7797 C   0  0  0  0  0  0  0  0  0  0  0  0
  153.1295  142.1665  159.3384 C   0  0  0  0  0  0  0  0  0  0  0  0
  152.2250  143.4015  159.4631 C   0  0  0  0  0  0  0  0  0  0  0  0
  151.5639  143.7067  158.1112 C   0  0  0  0  0  0  0  0  0  0  0  0
  150.8110  142.4778  157.5739 C   0  0  0  0  0  0  0  0  0  0  0  0
  151.0307  139.0224  157.3764 N   0  0  0  0  0  0  0  0  0  0  0  0
  150.6214  137.9622  156.6496 C   0  0  0  0  0  0  0  0  0  0  0  0
  149.4008  134.7135  154.2075 N   0  0  0  0  0  0  0  0  0  0  0  0
  149.1483  133.2946  154.4421 C   0  0  1  0  0  0  0  0  0  0  0  0
  148.9456  132.5114  153.1285 C   0  0  0  0  0  0  0  0  0  0  0  0
  149.0619  131.0118  153.4278 C   0  0  0  0  0  0  0  0  0  0  0  0
  150.2407  130.8613  154.8229 S   0  0  0  0  0  0  0  0  0  0  0  0
  149.5801  130.1565  155.9318 O   0  0  0  0  0  0  0  0  0  0  0  0
  151.5494  130.4194  154.3176 O   0  0  0  0  0  0  0  0  0  0  0  0
  150.3203  132.6533  155.1988 C   0  0  0  0  0  0  0  0  0  0  0  0
  149.8383  136.8893  153.6169 H   0  0  0  0  0  0  0  0  0  0  0  0
  150.5185  139.3472  153.5321 H   0  0  0  0  0  0  0  0  0  0  0  0
  151.2404  141.2867  154.8565 H   0  0  0  0  0  0  0  0  0  0  0  0
  151.5930  140.6471  159.4979 H   0  0  0  0  0  0  0  0  0  0  0  0
  153.0352  140.1242  158.6612 H   0  0  0  0  0  0  0  0  0  0  0  0
  153.5561  141.9155  160.3099 H   0  0  0  0  0  0  0  0  0  0  0  0
  153.9695  142.3940  158.6807 H   0  0  0  0  0  0  0  0  0  0  0  0
  151.4573  143.2215  160.2167 H   0  0  0  0  0  0  0  0  0  0  0  0
  152.8039  144.2606  159.8029 H   0  0  0  0  0  0  0  0  0  0  0  0
  150.8796  144.5498  158.2096 H   0  0  0  0  0  0  0  0  0  0  0  0
  152.3268  144.0089  157.3924 H   0  0  0  0  0  0  0  0  0  0  0  0
  150.4242  142.7051  156.5796 H   0  0  0  0  0  0  0  0  0  0  0  0
  149.9536  142.2574  158.2114 H   0  0  0  0  0  0  0  0  0  0  0  0
  150.4616  137.0471  157.2011 H   0  0  0  0  0  0  0  0  0  0  0  0
  149.2578  135.0530  153.2677 H   0  0  0  0  0  0  0  0  0  0  0  0
  148.2513  133.1813  155.0541 H   0  0  0  0  0  0  0  0  0  0  0  0
  147.9927  132.7485  152.6543 H   0  0  0  0  0  0  0  0  0  0  0  0
  149.7294  132.7875  152.4217 H   0  0  0  0  0  0  0  0  0  0  0  0
  148.1031  130.6083  153.7541 H   0  0  0  0  0  0  0  0  0  0  0  0
  149.4109  130.4321  152.5730 H   0  0  0  0  0  0  0  0  0  0  0  0
  151.2789  133.0237  154.8343 H   0  0  0  0  0  0  0  0  0  0  0  0
  150.2717  132.8137  156.2760 H   0  0  0  0  0  0  0  0  0  0  0  0
  1  2  2  0  0  0  0
  2  3  1  0  0  0  0
  2 16  1  0  0  0  0
  3  4  1  0  0  0  0
  3 24  1  0  0  0  0
  4 15  1  0  0  0  0
  4  5  2  0  0  0  0
  5  6  1  0  0  0  0
  5 25  1  0  0  0  0
  6  7  2  0  0  0  0
  6 26  1  0  0  0  0
  7  8  1  0  0  0  0
  7 14  1  0  0  0  0
  8 13  1  0  0  0  0
  8  9  1  0  0  0  0
  9 10  1  0  0  0  0
  9 27  1  0  0  0  0
  9 28  1  0  0  0  0
 10 11  1  0  0  0  0
 10 29  1  0  0  0  0
 10 30  1  0  0  0  0
 11 12  1  0  0  0  0
 11 31  1  0  0  0  0
 11 32  1  0  0  0  0
 12 13  1  0  0  0  0
 12 33  1  0  0  0  0
 12 34  1  0  0  0  0
 13 35  1  0  0  0  0
 13 36  1  0  0  0  0
 14 15  2  0  0  0  0
 15 37  1  0  0  0  0
 16 17  1  0  0  0  0
 16 38  1  0  0  0  0
 17 23  1  0  0  0  0
 17 18  1  0  0  0  0
 17 39  1  0  0  0  0
 18 19  1  0  0  0  0
 18 40  1  0  0  0  0
 18 41  1  0  0  0  0
 19 20  1  0  0  0  0
 19 42  1  0  0  0  0
 19 43  1  0  0  0  0
 20 21  2  0  0  0  0
 20 22  2  0  0  0  0
 20 23  1  0  0  0  0
 23 44  1  0  0  0  0
 23 45  1  0  0  0  0
M  END
> <s_m_source_file>
AV-unprocessed.smi

> <i_m_source_file_index>
1576

> <i_lp_mmshare_version>
43012

> <i_f3d_flags>
0

> <s_epik_input>
Tz1TMSg9TylbQ0gyXVtDSDJdW0NASF0oW0NIMl0xKVtOSF1DKD1PKVtOSF1jMltjSF1bY0hdYyhuW2NIXTIpTjNbQ0gyXVtDSDJdW0NIMl1bQ0gyXVtDSDJdMw==

> <s_epik_cmdline>
J2VwaWtfcHl0aG9uJywgJy1waCcsICc3LjAnLCAnLXRuJywgJzgnLCAnLW1hJywgJzIwMCcsICctbWV0YWxfYmluZGluZycsICctaW1hZScsICc8aW5maWxlLm1hZT4nLCAnLW9tYWUnLCAnPG91dGZpbGUubWFlPic=

> <r_lp_tautomer_probability>
1

> <r_epik_Ionization_Penalty>
0.0900267

> <r_epik_Ionization_Penalty_Charging>
0

> <r_epik_Ionization_Penalty_Neutral>
0.0900267

> <r_epik_State_Penalty>
0.0748882

> <r_epik_Charging_Adjusted_Penalty>
0.0748882

> <i_epik_Tot_Q>
0

> <i_epik_Tot_abs_Q>
0

> <r_epik_Metal_State_Penalty>
0.0662821

> <b_epik_Metal_Only>
0

> <s_lp_Force_Field>
OPLS_2005

> <r_lp_Energy>
22.1821

> <b_lp_Chiralities_Consistent>
1

> <s_lp_Variant>
AV-unprocessed.smi:1576-2

> <Gold.Version>
5.8.1

> <Gold.Id.Protein>
6NUR|6NUR_protein|mol2

> <Gold.PLP.Fitness>
43.5500

> <Gold.PLP.PLP>
-38.0747

> <Gold.PLP.part.hbond>
-2.0000

> <Gold.PLP.part.metal>
0.0000

> <Gold.PLP.part.buried>
-1.5015

> <Gold.PLP.part.nonpolar>
-35.3396

> <Gold.PLP.part.repulsive>
0.1208

> <Gold.PLP.ligand.clash>
0.0000

> <Gold.PLP.ligand.torsion>
0.4600

> <Gold.PLP.Chemscore.Hbond>
1.9913

> <Gold.PLP.Chemscore.CHOScore>
0.0000

> <Gold.PLP.Chemscore.Metal>
0.0000

> <Gold.Chemscore.Hbonds>
donor molecule, donor type, donor heavy atom, donor atom, acceptor molecule, acceptor atom, score
      L1  H     3    24       P1  7948  0.99
      L1  H    16    38       P1  7948  0.70

> <Gold.PLP.Chemscore.Internal.Correction>
0.4215

> <Gold.Rescore>
     Score         DG    S(hbond)    S(metal)    S(lipo)     H(rot)  DE(clash)    DE(int)     intcor
     15.50     -18.71       1.72        0.00      90.91       1.24       0.05       3.16       ----

> <Gold.Chemscore.Fitness>
15.5007

> <Gold.Chemscore.DG>
-18.7078

> <Gold.Chemscore.ZeroCoef>
-5.4800

> <Gold.Chemscore.Hbond>
1.7235

> <Gold.Chemscore.Metal>
0.0000

> <Gold.Chemscore.Lipo>
90.9142

> <Gold.Chemscore.Internal_Hbond>
0.0000

> <Gold.Chemscore.DEClash>
0.0504

> <Gold.Chemscore.DEInternal>
3.1566

> <Gold.Chemscore.Rot>
1.2366

> <Gold.Chemscore.Internal.Correction>
   9.000000E+99

> <Gold.Chemscore.Hbonds>
donor molecule, donor type, donor heavy atom, donor atom, acceptor molecule, acceptor atom, score
      L1  H     3    24       P1  7948  0.44
      L1  H    16    38       P1  7948  0.07

> <Gold.Chemscore.Hbond.Weighted>
-5.7565

> <Gold.Chemscore.Metal.Weighted>
-0.0000

> <Gold.Chemscore.Lipo.Weighted>
-10.6370

> <Gold.Chemscore.Internal_Hbond.Weighted>
0.0000

> <Gold.Chemscore.DEClash.Weighted>
0.0504

> <Gold.Chemscore.DEInternal.Weighted>
3.1566

> <Gold.Chemscore.Rot.Weighted>
3.1657

> <Gold.Chemscore.Internal.Correction.Weighted>
   9.000000E+99

> <Gold.Protein.RotatedTorsions>
[ 6907 6896 6895 6894 ] final  -83.49 input  -60.11 | X-H torsion
[ 7974 7965 7964 7962 ] final -138.97 input  175.53 | X-H torsion
[ 8008 7997 7996 7995 ] final  118.18 input   59.86 | X-H torsion
[ 10167 10162 10161 10158 ] final  146.87 input  -65.29 | X-H torsion
[ 10718 10713 10712 10709 ] final  -19.34 input   66.30 | X-H torsion
[ 10763 10752 10751 10750 ] final -156.13 input  -60.55 | X-H torsion
[ 11005 11000 10999 10996 ] final -151.26 input  -57.11 | X-H torsion

> <Gold.Protein.ActiveResidues>
 VAL166  LYS551  ARG553  GLY616  TRP617  ASP618  TYR619  PRO620  LYS621  CYS622 
 ASP623  PHE694  ASN695  SER759  ASP760  ASP761  ALA762  ILE779  LEU786  VAL792 
 PHE793  MET794  SER795  GLU796  ALA797  LYS798  CYS799  TRP800  GLU811  SER814 

> <Gold.Protein.RotatedAtoms>
  150.6885  134.3504  159.4906 H   0  0  0  0  0  0  0  0  0  0  0  0  # atno 6907 bound_to 6896
  152.1346  134.9106  160.0566 H   0  0  0  0  0  0  0  0  0  0  0  0  # atno 6908 bound_to 6896
  152.0263  133.3884  159.4315 H   0  0  0  0  0  0  0  0  0  0  0  0  # atno 6909 bound_to 6896
  144.8714  140.6373  143.5264 H   0  0  0  0  0  0  0  0  0  0  0  0  # atno 7974 bound_to 7965
  156.2533  140.2880  156.0794 H   0  0  0  0  0  0  0  0  0  0  0  0  # atno 8008 bound_to 7997
  155.1583  140.0399  157.2854 H   0  0  0  0  0  0  0  0  0  0  0  0  # atno 8009 bound_to 7997
  154.6411  140.2522  155.7327 H   0  0  0  0  0  0  0  0  0  0  0  0  # atno 8010 bound_to 7997
  139.4899  144.5798  151.6895 H   0  0  0  0  0  0  0  0  0  0  0  0  # atno 10167 bound_to 10162
  156.5470  130.4692  149.6470 H   0  0  0  0  0  0  0  0  0  0  0  0  # atno 10718 bound_to 10713
  154.7736  135.3152  154.8139 H   0  0  0  0  0  0  0  0  0  0  0  0  # atno 10763 bound_to 10752
  153.8868  135.6829  153.4767 H   0  0  0  0  0  0  0  0  0  0  0  0  # atno 10764 bound_to 10752
  153.1354  135.4762  154.9350 H   0  0  0  0  0  0  0  0  0  0  0  0  # atno 10765 bound_to 10752
  140.7315  134.3616  157.5166 H   0  0  0  0  0  0  0  0  0  0  0  0  # atno 11005 bound_to 11000
  145.4123  139.1578  143.4119 LP  0  0  0  0  0  0  0  0  0  0  0  0  # atno 17320 bound_to 7965
  146.2933  140.4227  142.8731 LP  0  0  0  0  0  0  0  0  0  0  0  0  # atno 17321 bound_to 7965
  140.5401  144.0592  150.6085 LP  0  0  0  0  0  0  0  0  0  0  0  0  # atno 17342 bound_to 10162
  140.3612  143.2907  152.0382 LP  0  0  0  0  0  0  0  0  0  0  0  0  # atno 17343 bound_to 10162
  156.2919  130.7129  151.1980 LP  0  0  0  0  0  0  0  0  0  0  0  0  # atno 17370 bound_to 10713
  157.7395  131.0529  150.5230 LP  0  0  0  0  0  0  0  0  0  0  0  0  # atno 17371 bound_to 10713
  139.8825  134.9021  156.2825 LP  0  0  0  0  0  0  0  0  0  0  0  0  # atno 17394 bound_to 11000
  140.9917  133.7205  156.0824 LP  0  0  0  0  0  0  0  0  0  0  0  0  # atno 17395 bound_to 11000

$$$$
