AV-unprocessed.smi:103|AV-procd|sdf|981|dock3
  -GOLD-   2262017543D 1   1.00000     0.00000
 Structure written by MMmdl.
 53 55  0  0  0  0  0  0  0  0  1 V2000
  147.0489  134.8840  161.3317 C   0  0  0  0  0  0  0  0  0  0  0  0
  147.8467  136.0925  160.8602 C   0  0  0  0  0  0  0  0  0  0  0  0
  147.8664  137.1380  161.5098 O   0  0  0  0  0  0  0  0  0  0  0  0
  148.4945  135.8607  159.7051 O   0  0  0  0  0  0  0  0  0  0  0  0
  149.7234  136.5139  159.4201 C   0  0  0  0  0  0  0  0  0  0  0  0
  149.4560  137.9031  158.8194 C   0  0  2  0  0  0  0  0  0  0  0  0
  148.4665  137.8243  157.7988 O   0  0  0  0  0  0  0  0  0  0  0  0
  149.0912  137.7043  156.5688 C   0  0  1  0  0  0  0  0  0  0  0  0
  148.0902  138.0330  155.4842 N   0  0  0  0  0  0  0  0  0  0  0  0
  147.6063  139.2789  155.1090 C   0  0  0  0  0  0  0  0  0  0  0  0
  148.0298  140.8811  155.8014 S   0  0  0  0  0  0  0  0  0  0  0  0
  147.0492  142.0440  154.7670 C   0  0  0  0  0  0  0  0  0  0  0  0
  147.5384  140.9127  157.1859 O   0  0  0  0  0  0  0  0  0  0  0  0
  149.4581  141.1002  155.5221 O   0  0  0  0  0  0  0  0  0  0  0  0
  146.6946  139.3019  154.1768 N   0  0  0  0  0  0  0  0  0  0  0  0
  146.5184  137.9663  153.8679 C   0  0  0  0  0  0  0  0  0  0  0  0
  145.6825  137.2802  152.9507 C   0  0  0  0  0  0  0  0  0  0  0  0
  144.8312  137.9077  152.1277 N   0  0  0  0  0  0  0  0  0  0  0  0
  145.7407  135.9303  152.9050 N   0  0  0  0  0  0  0  0  0  0  0  0
  146.5758  135.2839  153.7213 C   0  0  0  0  0  0  0  0  0  0  0  0
  147.4136  135.7926  154.6268 N   0  0  0  0  0  0  0  0  0  0  0  0
  147.3702  137.1579  154.6764 C   0  0  0  0  0  0  0  0  0  0  0  0
  150.2968  138.6396  156.6666 C   0  0  2  0  0  0  0  0  0  0  0  0
  151.3285  138.2051  155.7891 O   0  0  0  0  0  0  0  0  0  0  0  0
  152.3788  139.0041  155.5322 C   0  0  0  0  0  0  0  0  0  0  0  0
  153.3760  138.3617  154.5777 C   0  0  0  0  0  0  0  0  0  0  0  0
  152.5590  140.1337  155.9868 O   0  0  0  0  0  0  0  0  0  0  0  0
  150.7063  138.4697  158.1247 C   0  0  1  0  0  0  0  0  0  0  0  0
  151.0736  139.7353  158.6584 O   0  0  0  0  0  0  0  0  0  0  0  0
  152.3675  140.0865  158.7395 C   0  0  0  0  0  0  0  0  0  0  0  0
  152.5530  141.4855  159.3108 C   0  0  0  0  0  0  0  0  0  0  0  0
  153.3288  139.3931  158.4070 O   0  0  0  0  0  0  0  0  0  0  0  0
  147.6648  134.2583  161.9779 H   0  0  0  0  0  0  0  0  0  0  0  0
  146.7165  134.2855  160.4832 H   0  0  0  0  0  0  0  0  0  0  0  0
  146.1710  135.2032  161.8933 H   0  0  0  0  0  0  0  0  0  0  0  0
  150.2558  136.6257  160.3649 H   0  0  0  0  0  0  0  0  0  0  0  0
  150.3753  135.9323  158.7668 H   0  0  0  0  0  0  0  0  0  0  0  0
  149.1002  138.5773  159.5999 H   0  0  0  0  0  0  0  0  0  0  0  0
  149.3790  136.6696  156.3850 H   0  0  0  0  0  0  0  0  0  0  0  0
  147.2821  143.0672  155.0604 H   0  0  0  0  0  0  0  0  0  0  0  0
  145.9853  141.8694  154.9097 H   0  0  0  0  0  0  0  0  0  0  0  0
  147.3059  141.9012  153.7179 H   0  0  0  0  0  0  0  0  0  0  0  0
  144.7659  138.9155  152.1447 H   0  0  0  0  0  0  0  0  0  0  0  0
  144.2601  137.3726  151.4897 H   0  0  0  0  0  0  0  0  0  0  0  0
  146.5740  134.2071  153.6379 H   0  0  0  0  0  0  0  0  0  0  0  0
  149.9708  139.6652  156.4921 H   0  0  0  0  0  0  0  0  0  0  0  0
  152.9395  138.2695  153.5831 H   0  0  0  0  0  0  0  0  0  0  0  0
  153.6531  137.3679  154.9297 H   0  0  0  0  0  0  0  0  0  0  0  0
  154.2798  138.9665  154.5043 H   0  0  0  0  0  0  0  0  0  0  0  0
  151.5326  137.7592  158.1914 H   0  0  0  0  0  0  0  0  0  0  0  0
  152.1660  142.2310  158.6157 H   0  0  0  0  0  0  0  0  0  0  0  0
  153.6090  141.6909  159.4868 H   0  0  0  0  0  0  0  0  0  0  0  0
  152.0200  141.5833  160.2567 H   0  0  0  0  0  0  0  0  0  0  0  0
  1  2  1  0  0  0  0
  1 33  1  0  0  0  0
  1 34  1  0  0  0  0
  1 35  1  0  0  0  0
  2  3  2  0  0  0  0
  2  4  1  0  0  0  0
  4  5  1  0  0  0  0
  5  6  1  0  0  0  0
  5 36  1  0  0  0  0
  5 37  1  0  0  0  0
  6 28  1  0  0  0  0
  6  7  1  0  0  0  0
  6 38  1  0  0  0  0
  7  8  1  0  0  0  0
  8  9  1  0  0  0  0
  8 23  1  0  0  0  0
  8 39  1  0  0  0  0
  9 22  1  0  0  0  0
  9 10  1  0  0  0  0
 10 11  1  0  0  0  0
 10 15  2  0  0  0  0
 11 12  1  0  0  0  0
 11 13  2  0  0  0  0
 11 14  2  0  0  0  0
 12 40  1  0  0  0  0
 12 41  1  0  0  0  0
 12 42  1  0  0  0  0
 15 16  1  0  0  0  0
 16 22  2  0  0  0  0
 16 17  1  0  0  0  0
 17 18  1  0  0  0  0
 17 19  2  0  0  0  0
 18 43  1  0  0  0  0
 18 44  1  0  0  0  0
 19 20  1  0  0  0  0
 20 21  2  0  0  0  0
 20 45  1  0  0  0  0
 21 22  1  0  0  0  0
 23 24  1  0  0  0  0
 23 28  1  0  0  0  0
 23 46  1  0  0  0  0
 24 25  1  0  0  0  0
 25 26  1  0  0  0  0
 25 27  2  0  0  0  0
 26 47  1  0  0  0  0
 26 48  1  0  0  0  0
 26 49  1  0  0  0  0
 28 29  1  0  0  0  0
 28 50  1  0  0  0  0
 29 30  1  0  0  0  0
 30 31  1  0  0  0  0
 30 32  2  0  0  0  0
 31 51  1  0  0  0  0
 31 52  1  0  0  0  0
 31 53  1  0  0  0  0
M  END
> <s_m_source_file>
AV-unprocessed.smi

> <i_m_source_file_index>
103

> <i_lp_mmshare_version>
43012

> <i_f3d_flags>
0

> <s_epik_input>
W0NIM11DKD1PKU9bQ0gyXVtDQEBIXTFPW0NASF0oW0NAQEhdKE9DKD1PKVtDSDNdKVtDQEhdMU9DKD1PKVtDSDNdKW4oYyhuMilTKD1PKSg9TylbQ0gzXSljKGMyMyluW2NIXW5jM1tOSDJd

> <s_epik_cmdline>
J2VwaWtfcHl0aG9uJywgJy1waCcsICc3LjAnLCAnLXRuJywgJzgnLCAnLW1hJywgJzIwMCcsICctbWV0YWxfYmluZGluZycsICctaW1hZScsICc8aW5maWxlLm1hZT4nLCAnLW9tYWUnLCAnPG91dGZpbGUubWFlPic=

> <r_lp_tautomer_probability>
1

> <r_epik_Ionization_Penalty>
1.51338e-05

> <r_epik_Ionization_Penalty_Charging>
0

> <r_epik_Ionization_Penalty_Neutral>
1.51338e-05

> <r_epik_State_Penalty>
-0

> <r_epik_Charging_Adjusted_Penalty>
0

> <i_epik_Tot_Q>
0

> <i_epik_Tot_abs_Q>
0

> <r_epik_Metal_State_Penalty>
-0

> <b_epik_Metal_Only>
0

> <s_epik_Chemistry_Notes>
This compound has an ester and may undergo hydrolysis at high or low pH. This compound contains an acetal/aminal-like group ( X-CH(R)-Y where X, Y are N, S, or O) that may be acid/base labile, releasing an aldehyde.

> <s_lp_Force_Field>
OPLS_2005

> <r_lp_Energy>
16.7775

> <b_lp_Chiralities_Consistent>
1

> <s_lp_Variant>
AV-unprocessed.smi:103-5

> <Gold.Version>
5.8.1

> <Gold.Id.Protein>
6NUR|6NUR_protein|mol2

> <Gold.PLP.Fitness>
38.8710

> <Gold.PLP.PLP>
-30.9010

> <Gold.PLP.part.hbond>
-5.8421

> <Gold.PLP.part.metal>
0.0000

> <Gold.PLP.part.buried>
-3.8739

> <Gold.PLP.part.nonpolar>
-21.4390

> <Gold.PLP.part.repulsive>
0.5598

> <Gold.PLP.ligand.clash>
0.0000

> <Gold.PLP.ligand.torsion>
2.9874

> <Gold.PLP.Chemscore.Hbond>
3.8720

> <Gold.PLP.Chemscore.CHOScore>
0.0000

> <Gold.PLP.Chemscore.Metal>
0.0000

> <Gold.Chemscore.Hbonds>
donor molecule, donor type, donor heavy atom, donor atom, acceptor molecule, acceptor atom, score
      L1  H    18    43       P1 10175  0.94
      L1  H    18    44       P1 10171  0.13
      P1  H  6931  6943       L1     3  1.00
      P1  H  6934  6947       L1     3  0.62
      P1  H  7997  8008       L1    27  1.00

> <Gold.PLP.Chemscore.Internal.Correction>
2.3289

> <Gold.Rescore>
     Score         DG    S(hbond)    S(metal)    S(lipo)     H(rot)  DE(clash)    DE(int)     intcor
      7.14     -12.62       3.78        0.00      46.02       4.25       1.57       3.92       ----

> <Gold.Chemscore.Fitness>
7.1373

> <Gold.Chemscore.DG>
-12.6215

> <Gold.Chemscore.ZeroCoef>
-5.4800

> <Gold.Chemscore.Hbond>
3.7803

> <Gold.Chemscore.Metal>
0.0000

> <Gold.Chemscore.Lipo>
46.0161

> <Gold.Chemscore.Internal_Hbond>
0.0000

> <Gold.Chemscore.DEClash>
1.5686

> <Gold.Chemscore.DEInternal>
3.9157

> <Gold.Chemscore.Rot>
4.2456

> <Gold.Chemscore.Internal.Correction>
   9.000000E+99

> <Gold.Chemscore.Hbonds>
donor molecule, donor type, donor heavy atom, donor atom, acceptor molecule, acceptor atom, score
      L1  H    18    43       P1 10175  0.91
      L1  H    18    44       P1 10171  0.14
      P1  H  6931  6943       L1     3  0.98
      P1  H  6934  6947       L1     3  0.60
      P1  H  7997  8008       L1    27  0.29
      P1  H  7997  8010       L1    32  0.01

> <Gold.Chemscore.Hbond.Weighted>
-12.6263

> <Gold.Chemscore.Metal.Weighted>
-0.0000

> <Gold.Chemscore.Lipo.Weighted>
-5.3839

> <Gold.Chemscore.Internal_Hbond.Weighted>
0.0000

> <Gold.Chemscore.DEClash.Weighted>
1.5686

> <Gold.Chemscore.DEInternal.Weighted>
3.9157

> <Gold.Chemscore.Rot.Weighted>
10.8687

> <Gold.Chemscore.Internal.Correction.Weighted>
   9.000000E+99

> <Gold.Protein.RotatedTorsions>
[ 6907 6896 6895 6894 ] final -151.24 input  -60.11 | X-H torsion
[ 7974 7965 7964 7962 ] final -131.82 input  175.53 | X-H torsion
[ 8008 7997 7996 7995 ] final  -23.83 input   59.86 | X-H torsion
[ 10167 10162 10161 10158 ] final  112.55 input  -65.29 | X-H torsion
[ 10718 10713 10712 10709 ] final  -23.08 input   66.30 | X-H torsion
[ 10763 10752 10751 10750 ] final  -86.26 input  -60.55 | X-H torsion
[ 11005 11000 10999 10996 ] final  103.57 input  -57.11 | X-H torsion

> <Gold.Protein.ActiveResidues>
 VAL166  LYS551  ARG553  GLY616  TRP617  ASP618  TYR619  PRO620  LYS621  CYS622 
 ASP623  PHE694  ASN695  SER759  ASP760  ASP761  ALA762  ILE779  LEU786  VAL792 
 PHE793  MET794  SER795  GLU796  ALA797  LYS798  CYS799  TRP800  GLU811  SER814 

> <Gold.Protein.RotatedAtoms>
  151.2102  133.4560  159.2597 H   0  0  0  0  0  0  0  0  0  0  0  0  # atno 6907 bound_to 6896
  151.0984  134.9958  159.8447 H   0  0  0  0  0  0  0  0  0  0  0  0  # atno 6908 bound_to 6896
  152.5441  134.2030  159.8772 H   0  0  0  0  0  0  0  0  0  0  0  0  # atno 6909 bound_to 6896
  144.9343  140.7165  143.4886 H   0  0  0  0  0  0  0  0  0  0  0  0  # atno 7974 bound_to 7965
  154.4563  140.1970  156.0371 H   0  0  0  0  0  0  0  0  0  0  0  0  # atno 8008 bound_to 7997
  156.0752  140.3279  155.7597 H   0  0  0  0  0  0  0  0  0  0  0  0  # atno 8009 bound_to 7997
  155.5200  140.0569  157.2899 H   0  0  0  0  0  0  0  0  0  0  0  0  # atno 8010 bound_to 7997
  139.6528  144.7128  151.2016 H   0  0  0  0  0  0  0  0  0  0  0  0  # atno 10167 bound_to 10162
  156.4959  130.4577  149.6728 H   0  0  0  0  0  0  0  0  0  0  0  0  # atno 10718 bound_to 10713
  154.6205  135.5455  153.7570 H   0  0  0  0  0  0  0  0  0  0  0  0  # atno 10763 bound_to 10752
  153.0236  135.6411  154.1448 H   0  0  0  0  0  0  0  0  0  0  0  0  # atno 10764 bound_to 10752
  154.1382  135.2910  155.3147 H   0  0  0  0  0  0  0  0  0  0  0  0  # atno 10765 bound_to 10752
  139.8785  134.9268  156.5229 H   0  0  0  0  0  0  0  0  0  0  0  0  # atno 11005 bound_to 11000
  145.3091  139.1824  143.4648 LP  0  0  0  0  0  0  0  0  0  0  0  0  # atno 17320 bound_to 7965
  146.3260  140.3093  142.8625 LP  0  0  0  0  0  0  0  0  0  0  0  0  # atno 17321 bound_to 7965
  140.7545  143.6122  150.8594 LP  0  0  0  0  0  0  0  0  0  0  0  0  # atno 17342 bound_to 10162
  139.9772  143.5991  152.2954 LP  0  0  0  0  0  0  0  0  0  0  0  0  # atno 17343 bound_to 10162
  156.3380  130.7367  151.2307 LP  0  0  0  0  0  0  0  0  0  0  0  0  # atno 17370 bound_to 10713
  157.7468  131.0411  150.4632 LP  0  0  0  0  0  0  0  0  0  0  0  0  # atno 17371 bound_to 10713
  140.8437  133.8185  155.9100 LP  0  0  0  0  0  0  0  0  0  0  0  0  # atno 17394 bound_to 11000
  140.9212  134.2139  157.4925 LP  0  0  0  0  0  0  0  0  0  0  0  0  # atno 17395 bound_to 11000

$$$$
