AV-unprocessed.smi:34|AV-procd|sdf|238|dock1
  -GOLD-   2262015583D 1   1.00000     0.00000
 Structure written by MMmdl.
 54 58  0  0  0  0  0  0  0  0  2 V2000
  142.5569  147.2709  155.6936 O   0  0  0  0  0  0  0  0  0  0  0  0
  141.9407  146.2067  155.6054 C   0  0  0  0  0  0  0  0  0  0  0  0
  142.4463  144.9475  155.6200 N   0  5  0  0  0  0  0  0  0  0  0  0
  143.5138  144.6441  154.8661 C   0  0  0  0  0  0  0  0  0  0  0  0
  143.6990  145.2489  153.6653 N   0  0  0  0  0  0  0  0  0  0  0  0
  144.7570  144.9374  152.9085 C   0  0  0  0  0  0  0  0  0  0  0  0
  145.7343  144.0594  153.1522 N   0  0  0  0  0  0  0  0  0  0  0  0
  145.5583  143.4376  154.3543 C   0  0  0  0  0  0  0  0  0  0  0  0
  144.4795  143.6759  155.2560 C   0  0  0  0  0  0  0  0  0  0  0  0
  144.5959  142.8806  156.3860 N   0  0  0  0  0  0  0  0  0  0  0  0
  145.7165  142.2114  156.1280 C   0  0  0  0  0  0  0  0  0  0  0  0
  146.3472  142.4734  154.9658 N   0  0  0  0  0  0  0  0  0  0  0  0
  147.6136  141.8382  154.4741 C   0  0  1  0  0  0  0  0  0  0  0  0
  148.4138  141.4847  155.5648 O   0  0  0  0  0  0  0  0  0  0  0  0
  148.6053  140.0734  155.5930 C   0  0  2  0  0  0  0  0  0  0  0  0
  149.9431  139.7201  156.2540 C   0  0  0  0  0  0  0  0  0  0  0  0
  150.2438  140.6795  157.2549 O   0  0  0  0  0  0  0  0  0  0  0  0
  151.4411  140.6569  157.8725 C   0  0  0  0  0  0  0  0  0  0  0  0
  152.1688  139.6627  157.9144 O   0  0  0  0  0  0  0  0  0  0  0  0
  151.7913  141.9601  158.5074 C   0  0  0  0  0  0  0  0  0  0  0  0
  152.6225  141.9718  159.6520 C   0  0  0  0  0  0  0  0  0  0  0  0
  152.9687  143.1865  160.2752 C   0  0  0  0  0  0  0  0  0  0  0  0
  152.4894  144.4051  159.7601 C   0  0  0  0  0  0  0  0  0  0  0  0
  151.6631  144.4073  158.6211 C   0  0  0  0  0  0  0  0  0  0  0  0
  151.3145  143.1932  157.9975 C   0  0  0  0  0  0  0  0  0  0  0  0
  148.4669  139.6456  154.1311 C   0  0  2  0  0  0  0  0  0  0  0  0
  149.5953  139.8838  153.4590 F   0  0  0  0  0  0  0  0  0  0  0  0
  147.3763  140.5716  153.6243 C   0  0  1  0  0  0  0  0  0  0  0  0
  146.0975  139.9829  153.7817 O   0  0  0  0  0  0  0  0  0  0  0  0
  140.4507  146.2459  155.3930 C   0  0  0  0  0  0  0  0  0  0  0  0
  139.8411  145.3091  154.5272 C   0  0  0  0  0  0  0  0  0  0  0  0
  138.4522  145.3457  154.2956 C   0  0  0  0  0  0  0  0  0  0  0  0
  137.6583  146.3255  154.9206 C   0  0  0  0  0  0  0  0  0  0  0  0
  138.2554  147.2722  155.7737 C   0  0  0  0  0  0  0  0  0  0  0  0
  139.6444  147.2364  156.0058 C   0  0  0  0  0  0  0  0  0  0  0  0
  144.8308  145.4683  151.9709 H   0  0  0  0  0  0  0  0  0  0  0  0
  146.1033  141.4859  156.8285 H   0  0  0  0  0  0  0  0  0  0  0  0
  148.1182  142.6283  153.9167 H   0  0  0  0  0  0  0  0  0  0  0  0
  147.7929  139.6306  156.1692 H   0  0  0  0  0  0  0  0  0  0  0  0
  149.9022  138.7167  156.6803 H   0  0  0  0  0  0  0  0  0  0  0  0
  150.7388  139.7245  155.5081 H   0  0  0  0  0  0  0  0  0  0  0  0
  153.0012  141.0484  160.0665 H   0  0  0  0  0  0  0  0  0  0  0  0
  153.6026  143.1822  161.1498 H   0  0  0  0  0  0  0  0  0  0  0  0
  152.7554  145.3367  160.2377 H   0  0  0  0  0  0  0  0  0  0  0  0
  151.2953  145.3421  158.2241 H   0  0  0  0  0  0  0  0  0  0  0  0
  150.6796  143.2306  157.1242 H   0  0  0  0  0  0  0  0  0  0  0  0
  148.2372  138.5861  154.0110 H   0  0  0  0  0  0  0  0  0  0  0  0
  147.5071  140.8126  152.5687 H   0  0  0  0  0  0  0  0  0  0  0  0
  145.4714  140.4851  153.2824 H   0  0  0  0  0  0  0  0  0  0  0  0
  140.4366  144.5513  154.0383 H   0  0  0  0  0  0  0  0  0  0  0  0
  137.9963  144.6217  153.6365 H   0  0  0  0  0  0  0  0  0  0  0  0
  136.5936  146.3537  154.7427 H   0  0  0  0  0  0  0  0  0  0  0  0
  137.6490  148.0288  156.2490 H   0  0  0  0  0  0  0  0  0  0  0  0
  140.0841  147.9793  156.6557 H   0  0  0  0  0  0  0  0  0  0  0  0
  1  2  2  0  0  0  0
  2  3  1  0  0  0  0
  2 30  1  0  0  0  0
  3  4  1  0  0  0  0
  4  9  1  0  0  0  0
  4  5  2  0  0  0  0
  5  6  1  0  0  0  0
  6  7  2  0  0  0  0
  6 36  1  0  0  0  0
  7  8  1  0  0  0  0
  8 12  1  0  0  0  0
  8  9  2  0  0  0  0
  9 10  1  0  0  0  0
 10 11  2  0  0  0  0
 11 12  1  0  0  0  0
 11 37  1  0  0  0  0
 12 13  1  0  0  0  0
 13 28  1  0  0  0  0
 13 14  1  0  0  0  0
 13 38  1  0  0  0  0
 14 15  1  0  0  0  0
 15 16  1  0  0  0  0
 15 26  1  0  0  0  0
 15 39  1  0  0  0  0
 16 17  1  0  0  0  0
 16 40  1  0  0  0  0
 16 41  1  0  0  0  0
 17 18  1  0  0  0  0
 18 19  2  0  0  0  0
 18 20  1  0  0  0  0
 20 25  1  0  0  0  0
 20 21  2  0  0  0  0
 21 22  1  0  0  0  0
 21 42  1  0  0  0  0
 22 23  2  0  0  0  0
 22 43  1  0  0  0  0
 23 24  1  0  0  0  0
 23 44  1  0  0  0  0
 24 25  2  0  0  0  0
 24 45  1  0  0  0  0
 25 46  1  0  0  0  0
 26 27  1  0  0  0  0
 26 28  1  0  0  0  0
 26 47  1  0  0  0  0
 28 29  1  0  0  0  0
 28 48  1  0  0  0  0
 29 49  1  0  0  0  0
 30 35  1  0  0  0  0
 30 31  2  0  0  0  0
 31 32  1  0  0  0  0
 31 50  1  0  0  0  0
 32 33  2  0  0  0  0
 32 51  1  0  0  0  0
 33 34  1  0  0  0  0
 33 52  1  0  0  0  0
 34 35  2  0  0  0  0
 34 53  1  0  0  0  0
 35 54  1  0  0  0  0
M  CHG  1   3  -1
M  END
> <s_m_source_file>
AV-unprocessed.smi

> <i_m_source_file_index>
34

> <i_lp_mmshare_version>
43012

> <i_f3d_flags>
0

> <s_epik_input>
W2NIXTFbY0hdW2NIXVtjSF1bY0hdYzFDKD1PKVtOSF1jKG5bY0hdbjIpYyhjMjMpbltjSF1uM1tDQEBIXTRPW0NASF0oW0NAQEhdKEYpW0NASF00W09IXSlbQ0gyXU9DKD1PKWM1W2NIXVtjSF1bY0hdW2NIXVtjSF01

> <s_epik_cmdline>
J2VwaWtfcHl0aG9uJywgJy1waCcsICc3LjAnLCAnLXRuJywgJzgnLCAnLW1hJywgJzIwMCcsICctbWV0YWxfYmluZGluZycsICctaW1hZScsICc8aW5maWxlLm1hZT4nLCAnLW9tYWUnLCAnPG91dGZpbGUubWFlPic=

> <r_lp_tautomer_probability>
1

> <r_epik_Ionization_Penalty>
4.33227

> <r_epik_Ionization_Penalty_Charging>
3.41027

> <r_epik_Ionization_Penalty_Neutral>
0.922001

> <r_epik_State_Penalty>
3.41358

> <r_epik_Charging_Adjusted_Penalty>
6.82385

> <i_epik_Tot_Q>
-1

> <i_epik_Tot_abs_Q>
1

> <r_epik_Metal_State_Penalty>
0.496292

> <b_epik_Metal_Only>
1

> <s_epik_Chemistry_Notes>
This compound has an ester and may undergo hydrolysis at high or low pH. This compound contains an acetal/aminal-like group ( X-CH(R)-Y where X, Y are N, S, or O) that may be acid/base labile, releasing an aldehyde.

> <s_lp_Force_Field>
OPLS_2005

> <r_lp_Energy>
49.908

> <b_lp_Chiralities_Consistent>
1

> <s_lp_Variant>
AV-unprocessed.smi:34-24

> <Gold.Version>
5.8.1

> <Gold.Id.Protein>
6NUR|6NUR_protein|mol2

> <Gold.PLP.Fitness>
59.6077

> <Gold.PLP.PLP>
-62.1389

> <Gold.PLP.part.hbond>
-3.5623

> <Gold.PLP.part.metal>
0.0000

> <Gold.PLP.part.buried>
-1.9239

> <Gold.PLP.part.nonpolar>
-56.3277

> <Gold.PLP.part.repulsive>
0.6233

> <Gold.PLP.ligand.clash>
0.0000

> <Gold.PLP.ligand.torsion>
2.9217

> <Gold.PLP.Chemscore.Hbond>
0.8320

> <Gold.PLP.Chemscore.CHOScore>
0.0000

> <Gold.PLP.Chemscore.Metal>
0.0000

> <Gold.Chemscore.Hbonds>
donor molecule, donor type, donor heavy atom, donor atom, acceptor molecule, acceptor atom, score
      L1  H    29    49       P1 10175  0.91

> <Gold.PLP.Chemscore.Internal.Correction>
0.8161

> <Gold.Rescore>
     Score         DG    S(hbond)    S(metal)    S(lipo)     H(rot)  DE(clash)    DE(int)     intcor
     10.79     -15.27       0.62        0.00     124.93       2.69       1.26       3.22       ----

> <Gold.Chemscore.Fitness>
10.7863

> <Gold.Chemscore.DG>
-15.2701

> <Gold.Chemscore.ZeroCoef>
-5.4800

> <Gold.Chemscore.Hbond>
0.6202

> <Gold.Chemscore.Metal>
0.0000

> <Gold.Chemscore.Lipo>
124.9254

> <Gold.Chemscore.Internal_Hbond>
0.0000

> <Gold.Chemscore.DEClash>
1.2605

> <Gold.Chemscore.DEInternal>
3.2233

> <Gold.Chemscore.Rot>
2.6944

> <Gold.Chemscore.Internal.Correction>
   9.000000E+99

> <Gold.Chemscore.Hbonds>
donor molecule, donor type, donor heavy atom, donor atom, acceptor molecule, acceptor atom, score
      L1  H    29    49       P1 10175  0.85

> <Gold.Chemscore.Hbond.Weighted>
-2.0714

> <Gold.Chemscore.Metal.Weighted>
-0.0000

> <Gold.Chemscore.Lipo.Weighted>
-14.6163

> <Gold.Chemscore.Internal_Hbond.Weighted>
0.0000

> <Gold.Chemscore.DEClash.Weighted>
1.2605

> <Gold.Chemscore.DEInternal.Weighted>
3.2233

> <Gold.Chemscore.Rot.Weighted>
6.8975

> <Gold.Chemscore.Internal.Correction.Weighted>
   9.000000E+99

> <Gold.Protein.RotatedTorsions>
[ 6907 6896 6895 6894 ] final  137.09 input  -60.11 | X-H torsion
[ 7974 7965 7964 7962 ] final   -9.89 input  175.53 | X-H torsion
[ 8008 7997 7996 7995 ] final    5.82 input   59.86 | X-H torsion
[ 10167 10162 10161 10158 ] final   61.01 input  -65.29 | X-H torsion
[ 10718 10713 10712 10709 ] final  119.05 input   66.30 | X-H torsion
[ 10763 10752 10751 10750 ] final  -40.74 input  -60.55 | X-H torsion
[ 11005 11000 10999 10996 ] final   -0.05 input  -57.11 | X-H torsion

> <Gold.Protein.ActiveResidues>
 VAL166  LYS551  ARG553  GLY616  TRP617  ASP618  TYR619  PRO620  LYS621  CYS622 
 ASP623  PHE694  ASN695  SER759  ASP760  ASP761  ALA762  ILE779  LEU786  VAL792 
 PHE793  MET794  SER795  GLU796  ALA797  LYS798  CYS799  TRP800  GLU811  SER814 

> <Gold.Protein.RotatedAtoms>
  152.2820  133.5479  159.5503 H   0  0  0  0  0  0  0  0  0  0  0  0  # atno 6907 bound_to 6896
  150.7200  134.0550  159.3820 H   0  0  0  0  0  0  0  0  0  0  0  0  # atno 6908 bound_to 6896
  151.8461  135.0574  160.0504 H   0  0  0  0  0  0  0  0  0  0  0  0  # atno 6909 bound_to 6896
  146.2238  140.2683  142.8355 H   0  0  0  0  0  0  0  0  0  0  0  0  # atno 7974 bound_to 7965
  154.7332  140.2734  155.6438 H   0  0  0  0  0  0  0  0  0  0  0  0  # atno 8008 bound_to 7997
  156.2855  140.2711  156.1963 H   0  0  0  0  0  0  0  0  0  0  0  0  # atno 8009 bound_to 7997
  155.0355  140.0371  157.2480 H   0  0  0  0  0  0  0  0  0  0  0  0  # atno 8010 bound_to 7997
  140.1594  144.4385  150.6717 H   0  0  0  0  0  0  0  0  0  0  0  0  # atno 10167 bound_to 10162
  157.5988  131.1054  150.7842 H   0  0  0  0  0  0  0  0  0  0  0  0  # atno 10718 bound_to 10713
  153.9509  135.6750  153.4744 H   0  0  0  0  0  0  0  0  0  0  0  0  # atno 10763 bound_to 10752
  153.0885  135.4887  154.8640 H   0  0  0  0  0  0  0  0  0  0  0  0  # atno 10764 bound_to 10752
  154.7325  135.3141  154.8825 H   0  0  0  0  0  0  0  0  0  0  0  0  # atno 10765 bound_to 10752
  140.6319  133.9567  155.8279 H   0  0  0  0  0  0  0  0  0  0  0  0  # atno 11005 bound_to 11000
  144.9287  140.7950  143.5703 LP  0  0  0  0  0  0  0  0  0  0  0  0  # atno 17320 bound_to 7965
  145.2625  139.1986  143.4884 LP  0  0  0  0  0  0  0  0  0  0  0  0  # atno 17321 bound_to 7965
  140.6652  143.2265  151.5759 LP  0  0  0  0  0  0  0  0  0  0  0  0  # atno 17342 bound_to 10162
  139.5388  144.2705  152.1308 LP  0  0  0  0  0  0  0  0  0  0  0  0  # atno 17343 bound_to 10162
  156.8246  130.4995  149.5339 LP  0  0  0  0  0  0  0  0  0  0  0  0  # atno 17370 bound_to 10713
  156.1057  130.6002  150.9966 LP  0  0  0  0  0  0  0  0  0  0  0  0  # atno 17371 bound_to 10713
  141.0669  134.0264  157.3581 LP  0  0  0  0  0  0  0  0  0  0  0  0  # atno 17394 bound_to 11000
  139.9113  135.0190  156.7701 LP  0  0  0  0  0  0  0  0  0  0  0  0  # atno 17395 bound_to 11000

$$$$
