AV-unprocessed.smi:234|AV-procd|sdf|1787|dock4
  -GOLD-   2262020343D 1   1.00000     0.00000
 Structure written by MMmdl.
 59 62  0  0  0  0  0  0  0  0  1 V2000
  150.9522  145.3808  159.5849 C   0  0  0  0  0  0  0  0  0  0  0  0
  150.9159  144.1162  160.4531 C   0  0  0  0  0  0  0  0  0  0  0  0
  149.8708  143.2341  160.0699 O   0  0  0  0  0  0  0  0  0  0  0  0
  149.7098  143.0767  158.6661 C   0  0  2  0  0  0  0  0  0  0  0  0
  149.0423  141.7496  158.3117 C   0  0  0  0  0  0  0  0  0  0  0  0
  150.0001  141.7092  157.1130 C   0  0  2  0  0  0  0  0  0  0  0  0
  150.4919  140.3685  156.7826 N   0  0  0  0  0  0  0  0  0  0  0  0
  151.2440  140.1902  155.5459 C   0  0  0  0  0  0  0  0  0  0  0  0
  149.6790  139.3159  157.0387 C   0  0  0  0  0  0  0  0  0  0  0  0
  148.5542  139.2085  156.2871 N   0  0  0  0  0  0  0  0  0  0  0  0
  147.7109  138.1906  156.4826 C   0  0  0  0  0  0  0  0  0  0  0  0
  147.7966  137.1929  157.3647 N   0  0  0  0  0  0  0  0  0  0  0  0
  148.9171  137.3059  158.1341 C   0  0  0  0  0  0  0  0  0  0  0  0
  149.9011  138.3314  158.0452 C   0  0  0  0  0  0  0  0  0  0  0  0
  150.8817  138.1268  159.0094 N   0  0  0  0  0  0  0  0  0  0  0  0
  150.5086  137.0362  159.6199 C   0  0  0  0  0  0  0  0  0  0  0  0
  149.3458  136.4690  159.1501 N   0  0  0  0  0  0  0  0  0  0  0  0
  148.7116  135.2526  159.6361 C   0  0  0  0  0  0  0  0  0  0  0  0
  147.7559  135.4959  160.8342 C   0  0  1  0  0  0  0  0  0  0  0  0
  148.3998  136.3806  161.7356 O   0  0  0  0  0  0  0  0  0  0  0  0
  146.4254  136.1284  160.4326 C   0  0  0  0  0  0  0  0  0  0  0  0
  145.4641  135.6112  161.4913 C   0  0  0  0  0  0  0  0  0  0  0  0
  145.8939  134.2729  161.6636 O   0  0  0  0  0  0  0  0  0  0  0  0
  147.3187  134.2392  161.6396 C   0  0  1  0  0  0  0  0  0  0  0  0
  147.7439  132.8725  161.0807 C   0  0  0  0  0  0  0  0  0  0  0  0
  150.9871  142.5847  157.9364 C   0  0  0  0  0  0  0  0  0  0  0  0
  151.7487  143.6576  157.1567 C   0  0  0  0  0  0  0  0  0  0  0  0
  152.0148  141.8538  158.8182 C   0  0  0  0  0  0  0  0  0  0  0  0
  151.8224  145.9907  159.8281 H   0  0  0  0  0  0  0  0  0  0  0  0
  150.0685  145.9991  159.7392 H   0  0  0  0  0  0  0  0  0  0  0  0
  151.0076  145.1272  158.5261 H   0  0  0  0  0  0  0  0  0  0  0  0
  151.8574  143.5793  160.3369 H   0  0  0  0  0  0  0  0  0  0  0  0
  150.8323  144.3696  161.5111 H   0  0  0  0  0  0  0  0  0  0  0  0
  149.2183  143.9126  158.1617 H   0  0  0  0  0  0  0  0  0  0  0  0
  149.2191  140.9654  159.0503 H   0  0  0  0  0  0  0  0  0  0  0  0
  147.9861  141.8301  158.0536 H   0  0  0  0  0  0  0  0  0  0  0  0
  149.6004  142.2538  156.2554 H   0  0  0  0  0  0  0  0  0  0  0  0
  150.6762  139.6202  154.8084 H   0  0  0  0  0  0  0  0  0  0  0  0
  152.1725  139.6559  155.7480 H   0  0  0  0  0  0  0  0  0  0  0  0
  151.4985  141.1475  155.0939 H   0  0  0  0  0  0  0  0  0  0  0  0
  146.8432  138.1727  155.8393 H   0  0  0  0  0  0  0  0  0  0  0  0
  151.0792  136.6100  160.4321 H   0  0  0  0  0  0  0  0  0  0  0  0
  148.1704  134.8093  158.7998 H   0  0  0  0  0  0  0  0  0  0  0  0
  149.4945  134.5437  159.9086 H   0  0  0  0  0  0  0  0  0  0  0  0
  148.1232  136.1686  162.6138 H   0  0  0  0  0  0  0  0  0  0  0  0
  146.4535  137.2173  160.3716 H   0  0  0  0  0  0  0  0  0  0  0  0
  146.1086  135.7497  159.4602 H   0  0  0  0  0  0  0  0  0  0  0  0
  145.5738  136.1604  162.4278 H   0  0  0  0  0  0  0  0  0  0  0  0
  144.4217  135.6629  161.1767 H   0  0  0  0  0  0  0  0  0  0  0  0
  147.6661  134.3099  162.6722 H   0  0  0  0  0  0  0  0  0  0  0  0
  148.8291  132.7760  161.0475 H   0  0  0  0  0  0  0  0  0  0  0  0
  147.3536  132.7108  160.0757 H   0  0  0  0  0  0  0  0  0  0  0  0
  147.3655  132.0668  161.7100 H   0  0  0  0  0  0  0  0  0  0  0  0
  152.5266  143.2260  156.5274 H   0  0  0  0  0  0  0  0  0  0  0  0
  152.2336  144.3689  157.8252 H   0  0  0  0  0  0  0  0  0  0  0  0
  151.0843  144.2258  156.5057 H   0  0  0  0  0  0  0  0  0  0  0  0
  152.8214  141.4226  158.2248 H   0  0  0  0  0  0  0  0  0  0  0  0
  151.5649  141.0400  159.3870 H   0  0  0  0  0  0  0  0  0  0  0  0
  152.4719  142.5318  159.5396 H   0  0  0  0  0  0  0  0  0  0  0  0
  1  2  1  0  0  0  0
  1 29  1  0  0  0  0
  1 30  1  0  0  0  0
  1 31  1  0  0  0  0
  2  3  1  0  0  0  0
  2 32  1  0  0  0  0
  2 33  1  0  0  0  0
  3  4  1  0  0  0  0
  4 26  1  0  0  0  0
  4  5  1  0  0  0  0
  4 34  1  0  0  0  0
  5  6  1  0  0  0  0
  5 35  1  0  0  0  0
  5 36  1  0  0  0  0
  6  7  1  0  0  0  0
  6 26  1  0  0  0  0
  6 37  1  0  0  0  0
  7  8  1  0  0  0  0
  7  9  1  0  0  0  0
  8 38  1  0  0  0  0
  8 39  1  0  0  0  0
  8 40  1  0  0  0  0
  9 14  1  0  0  0  0
  9 10  2  0  0  0  0
 10 11  1  0  0  0  0
 11 12  2  0  0  0  0
 11 41  1  0  0  0  0
 12 13  1  0  0  0  0
 13 17  1  0  0  0  0
 13 14  2  0  0  0  0
 14 15  1  0  0  0  0
 15 16  2  0  0  0  0
 16 17  1  0  0  0  0
 16 42  1  0  0  0  0
 17 18  1  0  0  0  0
 18 19  1  0  0  0  0
 18 43  1  0  0  0  0
 18 44  1  0  0  0  0
 19 24  1  0  0  0  0
 19 20  1  0  0  0  0
 19 21  1  0  0  0  0
 20 45  1  0  0  0  0
 21 22  1  0  0  0  0
 21 46  1  0  0  0  0
 21 47  1  0  0  0  0
 22 23  1  0  0  0  0
 22 48  1  0  0  0  0
 22 49  1  0  0  0  0
 23 24  1  0  0  0  0
 24 25  1  0  0  0  0
 24 50  1  0  0  0  0
 25 51  1  0  0  0  0
 25 52  1  0  0  0  0
 25 53  1  0  0  0  0
 26 27  1  0  0  0  0
 26 28  1  0  0  0  0
 27 54  1  0  0  0  0
 27 55  1  0  0  0  0
 27 56  1  0  0  0  0
 28 57  1  0  0  0  0
 28 58  1  0  0  0  0
 28 59  1  0  0  0  0
M  END
> <s_m_source_file>
AV-unprocessed.smi

> <i_m_source_file_index>
234

> <i_lp_mmshare_version>
43012

> <i_f3d_flags>
0

> <s_epik_input>
W0NIM11bQ0gyXU9bQ0BASF0oQzEoW0NIM10pW0NIM10pW0NIMl1bQ0BIXTFOKFtDSDNdKWMobltjSF1uMiljKGMyMyluW2NIXW4zW0NIMl1bQ0BAXTQoW09IXSlbQ0gyXVtDSDJdT1tDQEhdNFtDSDNd

> <s_epik_cmdline>
J2VwaWtfcHl0aG9uJywgJy1waCcsICc3LjAnLCAnLXRuJywgJzgnLCAnLW1hJywgJzIwMCcsICctbWV0YWxfYmluZGluZycsICctaW1hZScsICc8aW5maWxlLm1hZT4nLCAnLW9tYWUnLCAnPG91dGZpbGUubWFlPic=

> <r_lp_tautomer_probability>
1

> <r_epik_Ionization_Penalty>
0.00349132

> <r_epik_Ionization_Penalty_Charging>
0

> <r_epik_Ionization_Penalty_Neutral>
0.00349132

> <r_epik_State_Penalty>
0.00242418

> <r_epik_Charging_Adjusted_Penalty>
0.00242418

> <i_epik_Tot_Q>
0

> <i_epik_Tot_abs_Q>
0

> <r_epik_Metal_State_Penalty>
-0

> <b_epik_Metal_Only>
0

> <s_lp_Force_Field>
OPLS_2005

> <r_lp_Energy>
50.018

> <b_lp_Chiralities_Consistent>
1

> <s_lp_Variant>
AV-unprocessed.smi:234-3

> <Gold.Version>
5.8.1

> <Gold.Id.Protein>
6NUR|6NUR_protein|mol2

> <Gold.PLP.Fitness>
42.5972

> <Gold.PLP.PLP>
-41.9365

> <Gold.PLP.part.hbond>
-2.1728

> <Gold.PLP.part.metal>
0.0000

> <Gold.PLP.part.buried>
-6.3185

> <Gold.PLP.part.nonpolar>
-34.5539

> <Gold.PLP.part.repulsive>
0.1047

> <Gold.PLP.ligand.clash>
0.0072

> <Gold.PLP.ligand.torsion>
1.7102

> <Gold.PLP.Chemscore.Hbond>
1.0000

> <Gold.PLP.Chemscore.CHOScore>
0.0000

> <Gold.PLP.Chemscore.Metal>
0.0000

> <Gold.Chemscore.Hbonds>
donor molecule, donor type, donor heavy atom, donor atom, acceptor molecule, acceptor atom, score
      P1  H  6931  6943       L1    20  1.00
      P1  H  6933  6944       L1     3  0.01

> <Gold.PLP.Chemscore.Internal.Correction>
1.0884

> <Gold.Rescore>
     Score         DG    S(hbond)    S(metal)    S(lipo)     H(rot)  DE(clash)    DE(int)     intcor
     11.62     -15.36       0.92        0.00     115.60       2.62       1.94       1.80       ----

> <Gold.Chemscore.Fitness>
11.6243

> <Gold.Chemscore.DG>
-15.3634

> <Gold.Chemscore.ZeroCoef>
-5.4800

> <Gold.Chemscore.Hbond>
0.9193

> <Gold.Chemscore.Metal>
0.0000

> <Gold.Chemscore.Lipo>
115.5977

> <Gold.Chemscore.Internal_Hbond>
0.0000

> <Gold.Chemscore.DEClash>
1.9380

> <Gold.Chemscore.DEInternal>
1.8011

> <Gold.Chemscore.Rot>
2.6219

> <Gold.Chemscore.Internal.Correction>
   9.000000E+99

> <Gold.Chemscore.Hbonds>
donor molecule, donor type, donor heavy atom, donor atom, acceptor molecule, acceptor atom, score
      P1  H  6931  6943       L1    20  0.39
      P1  H  6933  6944       L1     3  0.06

> <Gold.Chemscore.Hbond.Weighted>
-3.0705

> <Gold.Chemscore.Metal.Weighted>
-0.0000

> <Gold.Chemscore.Lipo.Weighted>
-13.5249

> <Gold.Chemscore.Internal_Hbond.Weighted>
0.0000

> <Gold.Chemscore.DEClash.Weighted>
1.9380

> <Gold.Chemscore.DEInternal.Weighted>
1.8011

> <Gold.Chemscore.Rot.Weighted>
6.7121

> <Gold.Chemscore.Internal.Correction.Weighted>
   9.000000E+99

> <Gold.Protein.RotatedTorsions>
[ 6907 6896 6895 6894 ] final   31.87 input  -60.11 | X-H torsion
[ 7974 7965 7964 7962 ] final  167.69 input  175.53 | X-H torsion
[ 8008 7997 7996 7995 ] final -135.55 input   59.86 | X-H torsion
[ 10167 10162 10161 10158 ] final  -36.30 input  -65.29 | X-H torsion
[ 10718 10713 10712 10709 ] final  130.05 input   66.30 | X-H torsion
[ 10763 10752 10751 10750 ] final   61.99 input  -60.55 | X-H torsion
[ 11005 11000 10999 10996 ] final   55.70 input  -57.11 | X-H torsion

> <Gold.Protein.ActiveResidues>
 VAL166  LYS551  ARG553  GLY616  TRP617  ASP618  TYR619  PRO620  LYS621  CYS622 
 ASP623  PHE694  ASN695  SER759  ASP760  ASP761  ALA762  ILE779  LEU786  VAL792 
 PHE793  MET794  SER795  GLU796  ALA797  LYS798  CYS799  TRP800  GLU811  SER814 

> <Gold.Protein.RotatedAtoms>
  152.0664  134.9562  160.0574 H   0  0  0  0  0  0  0  0  0  0  0  0  # atno 6907 bound_to 6896
  152.0905  133.4193  159.4550 H   0  0  0  0  0  0  0  0  0  0  0  0  # atno 6908 bound_to 6896
  150.6837  134.2797  159.4665 H   0  0  0  0  0  0  0  0  0  0  0  0  # atno 6909 bound_to 6896
  144.7415  139.8798  143.6395 H   0  0  0  0  0  0  0  0  0  0  0  0  # atno 7974 bound_to 7965
  155.3806  140.0494  157.3043 H   0  0  0  0  0  0  0  0  0  0  0  0  # atno 8008 bound_to 7997
  154.5084  140.2183  155.9166 H   0  0  0  0  0  0  0  0  0  0  0  0  # atno 8009 bound_to 7997
  156.1554  140.3127  155.8722 H   0  0  0  0  0  0  0  0  0  0  0  0  # atno 8010 bound_to 7997
  140.7145  143.3418  151.2341 H   0  0  0  0  0  0  0  0  0  0  0  0  # atno 10167 bound_to 10162
  157.5098  131.1096  150.9310 H   0  0  0  0  0  0  0  0  0  0  0  0  # atno 10718 bound_to 10713
  152.9968  135.5481  154.6122 H   0  0  0  0  0  0  0  0  0  0  0  0  # atno 10763 bound_to 10752
  154.5440  135.2822  155.1071 H   0  0  0  0  0  0  0  0  0  0  0  0  # atno 10764 bound_to 10752
  154.2337  135.6429  153.5236 H   0  0  0  0  0  0  0  0  0  0  0  0  # atno 10765 bound_to 10752
  140.0586  134.5634  155.9178 H   0  0  0  0  0  0  0  0  0  0  0  0  # atno 11005 bound_to 11000
  146.1219  139.4239  143.0223 LP  0  0  0  0  0  0  0  0  0  0  0  0  # atno 17320 bound_to 7965
  145.7291  141.0048  143.1361 LP  0  0  0  0  0  0  0  0  0  0  0  0  # atno 17321 bound_to 7965
  139.6927  143.9665  152.2867 LP  0  0  0  0  0  0  0  0  0  0  0  0  # atno 17342 bound_to 10162
  139.9332  144.6728  150.8342 LP  0  0  0  0  0  0  0  0  0  0  0  0  # atno 17343 bound_to 10162
  156.9954  130.5579  149.5307 LP  0  0  0  0  0  0  0  0  0  0  0  0  # atno 17370 bound_to 10713
  156.0281  130.5374  150.8462 LP  0  0  0  0  0  0  0  0  0  0  0  0  # atno 17371 bound_to 10713
  141.1963  133.6591  156.5686 LP  0  0  0  0  0  0  0  0  0  0  0  0  # atno 17394 bound_to 11000
  140.3805  134.7527  157.4658 LP  0  0  0  0  0  0  0  0  0  0  0  0  # atno 17395 bound_to 11000

$$$$
