#       Name:                AV-unprocessed.smi:879
#       Creating user name   scv26
#       Creation time:       Fri Mar 27 01:52:43 2020


#       File generated by GOLD software.
#

@<TRIPOS>MOLECULE
AV-unprocessed.smi:879
    45    46     1
SMALL
NO_CHARGES


@<TRIPOS>ATOM
      1 ****        -5.9584   4.4260  -0.2899 C.3            1 S1                 0.0000
      2 ****        -5.3715   3.1043  -0.4499 N.am           1 S1                 0.0000
      3 ****        -4.0899   2.8107  -0.1867 C.2            1 S1                 0.0000
      4 ****        -3.2823   3.6469   0.2221 O.2            1 S1                 0.0000
      5 ****        -3.6773   1.3503  -0.4149 C.3            1 S1                 0.0000
      6 ****        -2.1922   1.1826  -0.5101 C.2            1 S1                 0.0000
      7 ****        -1.5602   1.2798  -1.6744 N.2            1 S1                 0.0000
      8 ****        -0.2188   1.0549  -1.3345 O.3            1 S1                 0.0000
      9 ****        -0.2050   0.8535   0.0054 C.2            1 S1                 0.0000
     10 ****         1.0930   0.5461   0.6798 C.3            1 S1                 0.0000
     11 ****         1.3880  -0.9646   0.8178 C.3            1 S1                 0.0000
     12 ****         2.6727  -1.2061   1.6427 C.3            1 S1                 0.0000
     13 ****         3.9884  -1.1932   0.8453 C.3            1 S1                 0.0000
     14 ****         4.3594  -2.5773   0.2862 C.3            1 S1                 0.0000
     15 ****         3.4849  -3.0559  -0.8824 C.3            1 S1                 0.0000
     16 ****         1.9747  -3.0910  -0.5892 C.3            1 S1                 0.0000
     17 ****         1.3414  -1.6897  -0.5488 C.3            1 S1                 0.0000
     18 ****        -1.4092   0.9022   0.5690 N.2            1 S1                 0.0000
     19 ****        -7.0208   4.3926  -0.5309 H              1 S1                 0.0000
     20 ****        -5.4797   5.1449  -0.9557 H              1 S1                 0.0000
     21 ****        -5.8527   4.7782   0.7372 H              1 S1                 0.0000
     22 ****        -5.9768   2.3669  -0.7809 H              1 S1                 0.0000
     23 ****        -4.0581   0.7412   0.4056 H              1 S1                 0.0000
     24 ****        -4.1415   0.9765  -1.3290 H              1 S1                 0.0000
     25 ****         1.8946   1.0337   0.1238 H              1 S1                 0.0000
     26 ****         1.0760   1.0158   1.6639 H              1 S1                 0.0000
     27 ****         0.5760  -1.3795   1.4174 H              1 S1                 0.0000
     28 ****         2.7320  -0.4560   2.4323 H              1 S1                 0.0000
     29 ****         2.5881  -2.1550   2.1741 H              1 S1                 0.0000
     30 ****         3.9640  -0.4424   0.0548 H              1 S1                 0.0000
     31 ****         4.7879  -0.8872   1.5208 H              1 S1                 0.0000
     32 ****         5.3951  -2.5493  -0.0537 H              1 S1                 0.0000
     33 ****         4.3348  -3.3158   1.0883 H              1 S1                 0.0000
     34 ****         3.6746  -2.4364  -1.7596 H              1 S1                 0.0000
     35 ****         3.8091  -4.0599  -1.1577 H              1 S1                 0.0000
     36 ****         1.4987  -3.6490  -1.3961 H              1 S1                 0.0000
     37 ****         1.7601  -3.6489   0.3230 H              1 S1                 0.0000
     38 ****         0.2961  -1.7801  -0.8474 H              1 S1                 0.0000
     39 ****         1.8047  -1.0682  -1.3161 H              1 S1                 0.0000
     40 ****        -3.5733   4.5919   0.3712 LP             1 S1                 0.0000
     41 ****        -2.3359   3.3804   0.4046 LP             1 S1                 0.0000
     42 ****        -1.9481   1.4681  -2.5767 LP             1 S1                 0.0000
     43 ****         0.3386   1.8502  -1.5727 LP             1 S1                 0.0000
     44 ****         0.1305   0.2482  -1.8113 LP             1 S1                 0.0000
     45 ****        -1.6691   0.7690   1.5254 LP             1 S1                 0.0000
@<TRIPOS>BOND
    1    1    2 1     
    2    1   19 1     
    3    1   20 1     
    4    1   21 1     
    5    2    3 am    
    6    2   22 1     
    7    3    4 2     
    8    3    5 1     
    9    5    6 1     
   10    5   23 1     
   11    5   24 1     
   12    6   18 1     
   13    6    7 2     
   14    7    8 1     
   15    8    9 1     
   16    9   10 1     
   17    9   18 2     
   18   10   11 1     
   19   10   25 1     
   20   10   26 1     
   21   11   17 1     
   22   11   12 1     
   23   11   27 1     
   24   12   13 1     
   25   12   28 1     
   26   12   29 1     
   27   13   14 1     
   28   13   30 1     
   29   13   31 1     
   30   14   15 1     
   31   14   32 1     
   32   14   33 1     
   33   15   16 1     
   34   15   34 1     
   35   15   35 1     
   36   16   17 1     
   37   16   36 1     
   38   16   37 1     
   39   17   38 1     
   40   17   39 1     
   41    4   40 1     
   42    4   41 1     
   43    7   42 1     
   44    8   43 1     
   45    8   44 1     
   46   18   45 1     
@<TRIPOS>SUBSTRUCTURE
      1 S1             1
@<TRIPOS>SET
LONE_PAIRS      STATIC     ATOMS    <user>   **** ""
6 40 41 42 43 44 45
DONOR_HYDROGENS      STATIC     ATOMS    <user>   **** ""
1 22
ATOM$BLUE        STATIC     ATOMS    COLORGROUP SYSTEM
6 40 41 42 43 44 45
ATOM$RED        STATIC     ATOMS    COLORGROUP SYSTEM
1 22
