AV-unprocessed.smi:1125|AV-procd|sdf|4835|dock9
  -GOLD-   22720 3403D 1   1.00000     0.00000
 Structure written by MMmdl.
 46 47  0  0  0  0  0  0  0  0  2 V2000
  145.0180  132.5804  149.8406 C   0  0  0  0  0  0  0  0  0  0  0  0
  145.1661  133.0886  151.2211 N   0  3  2  0  0  0  0  0  0  0  0  0
  144.3006  134.2657  151.4832 C   0  0  0  0  0  0  0  0  0  0  0  0
  144.3815  134.6970  152.9588 C   0  0  0  0  0  0  0  0  0  0  0  0
  145.8330  134.9687  153.3989 C   0  0  2  0  0  0  0  0  0  0  0  0
  146.3671  136.1705  152.7647 N   0  0  0  0  0  0  0  0  0  0  0  0
  145.7835  137.3793  152.7391 C   0  0  0  0  0  0  0  0  0  0  0  0
  144.6788  137.6084  153.2304 O   0  0  0  0  0  0  0  0  0  0  0  0
  146.5622  138.4980  152.0394 C   0  0  0  0  0  0  0  0  0  0  0  0
  147.4890  139.1859  153.0027 C   0  0  0  0  0  0  0  0  0  0  0  0
  147.3724  140.4631  153.4897 C   0  0  0  0  0  0  0  0  0  0  0  0
  148.6500  140.8495  154.6082 S   0  0  0  0  0  0  0  0  0  0  0  0
  149.3207  139.2316  154.3721 C   0  0  0  0  0  0  0  0  0  0  0  0
  150.5388  138.6848  155.0761 C   0  0  0  0  0  0  0  0  0  0  0  0
  151.2363  139.8154  155.8573 C   0  0  0  0  0  0  0  0  0  0  0  0
  151.5580  138.1097  154.0689 C   0  0  0  0  0  0  0  0  0  0  0  0
  150.1276  137.5429  156.0257 C   0  0  0  0  0  0  0  0  0  0  0  0
  148.6076  138.5093  153.5012 N   0  0  0  0  0  0  0  0  0  0  0  0
  146.7170  133.7561  153.0572 C   0  0  0  0  0  0  0  0  0  0  0  0
  146.5835  133.3455  151.5789 C   0  0  0  0  0  0  0  0  0  0  0  0
  145.3456  133.3237  149.1126 H   0  0  0  0  0  0  0  0  0  0  0  0
  143.9768  132.3324  149.6319 H   0  0  0  0  0  0  0  0  0  0  0  0
  145.6101  131.6760  149.6969 H   0  0  0  0  0  0  0  0  0  0  0  0
  144.5947  135.0893  150.8307 H   0  0  0  0  0  0  0  0  0  0  0  0
  143.2673  134.0207  151.2345 H   0  0  0  0  0  0  0  0  0  0  0  0
  143.7594  135.5770  153.1265 H   0  0  0  0  0  0  0  0  0  0  0  0
  143.9609  133.9080  153.5834 H   0  0  0  0  0  0  0  0  0  0  0  0
  145.8558  135.1125  154.4808 H   0  0  0  0  0  0  0  0  0  0  0  0
  147.2789  136.0908  152.3374 H   0  0  0  0  0  0  0  0  0  0  0  0
  147.1191  138.0715  151.2041 H   0  0  0  0  0  0  0  0  0  0  0  0
  145.8599  139.2123  151.6079 H   0  0  0  0  0  0  0  0  0  0  0  0
  146.6095  141.1943  153.2668 H   0  0  0  0  0  0  0  0  0  0  0  0
  152.1319  139.4551  156.3649 H   0  0  0  0  0  0  0  0  0  0  0  0
  150.5803  140.2393  156.6184 H   0  0  0  0  0  0  0  0  0  0  0  0
  151.5370  140.6280  155.1948 H   0  0  0  0  0  0  0  0  0  0  0  0
  151.9106  138.8709  153.3721 H   0  0  0  0  0  0  0  0  0  0  0  0
  151.1292  137.2951  153.4837 H   0  0  0  0  0  0  0  0  0  0  0  0
  152.4360  137.7111  154.5785 H   0  0  0  0  0  0  0  0  0  0  0  0
  150.9929  137.1179  156.5352 H   0  0  0  0  0  0  0  0  0  0  0  0
  149.6340  136.7352  155.4840 H   0  0  0  0  0  0  0  0  0  0  0  0
  149.4380  137.8913  156.7954 H   0  0  0  0  0  0  0  0  0  0  0  0
  147.7606  133.9699  153.2927 H   0  0  0  0  0  0  0  0  0  0  0  0
  146.4305  132.9141  153.6887 H   0  0  0  0  0  0  0  0  0  0  0  0
  147.1740  132.4464  151.3986 H   0  0  0  0  0  0  0  0  0  0  0  0
  146.9895  134.1232  150.9300 H   0  0  0  0  0  0  0  0  0  0  0  0
  144.8437  132.3523  151.8328 H   0  0  0  0  0  0  0  0  0  0  0  0
  1  2  1  0  0  0  0
  1 21  1  0  0  0  0
  1 22  1  0  0  0  0
  1 23  1  0  0  0  0
  2 20  1  0  0  0  0
  2  3  1  0  0  0  0
  2 46  1  0  0  0  0
  3  4  1  0  0  0  0
  3 24  1  0  0  0  0
  3 25  1  0  0  0  0
  4  5  1  0  0  0  0
  4 26  1  0  0  0  0
  4 27  1  0  0  0  0
  5  6  1  0  0  0  0
  5 19  1  0  0  0  0
  5 28  1  0  0  0  0
  6  7  1  0  0  0  0
  6 29  1  0  0  0  0
  7  8  2  0  0  0  0
  7  9  1  0  0  0  0
  9 10  1  0  0  0  0
  9 30  1  0  0  0  0
  9 31  1  0  0  0  0
 10 18  1  0  0  0  0
 10 11  2  0  0  0  0
 11 12  1  0  0  0  0
 11 32  1  0  0  0  0
 12 13  1  0  0  0  0
 13 14  1  0  0  0  0
 13 18  2  0  0  0  0
 14 15  1  0  0  0  0
 14 16  1  0  0  0  0
 14 17  1  0  0  0  0
 15 33  1  0  0  0  0
 15 34  1  0  0  0  0
 15 35  1  0  0  0  0
 16 36  1  0  0  0  0
 16 37  1  0  0  0  0
 16 38  1  0  0  0  0
 17 39  1  0  0  0  0
 17 40  1  0  0  0  0
 17 41  1  0  0  0  0
 19 20  1  0  0  0  0
 19 42  1  0  0  0  0
 19 43  1  0  0  0  0
 20 44  1  0  0  0  0
 20 45  1  0  0  0  0
M  CHG  1   2   1
M  END
> <s_m_source_file>
AV-unprocessed.smi

> <i_m_source_file_index>
1125

> <i_lp_mmshare_version>
43012

> <i_f3d_flags>
0

> <s_epik_input>
W0NIM11OMVtDSDJdW0NIMl1bQ0hdKFtDSDJdW0NIMl0xKVtOSF1DKD1PKVtDSDJdYzJbY0hdc2MobjIpQyhbQ0gzXSkoW0NIM10pW0NIM10=

> <s_epik_cmdline>
J2VwaWtfcHl0aG9uJywgJy1waCcsICc3LjAnLCAnLXRuJywgJzgnLCAnLW1hJywgJzIwMCcsICctbWV0YWxfYmluZGluZycsICctaW1hZScsICc8aW5maWxlLm1hZT4nLCAnLW9tYWUnLCAnPG91dGZpbGUubWFlPic=

> <r_epik_Ionization_Penalty>
0.00829478

> <r_epik_Ionization_Penalty_Charging>
0.0082618

> <r_epik_Ionization_Penalty_Neutral>
3.29858e-05

> <r_epik_State_Penalty>
0.00621662

> <r_epik_Charging_Adjusted_Penalty>
0.0144784

> <i_epik_Tot_Q>
1

> <i_epik_Tot_abs_Q>
1

> <r_epik_Metal_State_Penalty>
0.00621672

> <b_epik_Metal_Only>
0

> <s_lp_Force_Field>
OPLS_2005

> <r_lp_Energy>
6.26884

> <b_lp_Chiralities_Consistent>
1

> <s_lp_Variant>
AV-unprocessed.smi:1125-2

> <Gold.Version>
5.8.1

> <Gold.Id.Protein>
6NUR|6NUR_protein|mol2

> <Gold.PLP.Fitness>
36.3061

> <Gold.PLP.PLP>
-32.0001

> <Gold.PLP.part.hbond>
-1.0000

> <Gold.PLP.part.metal>
0.0000

> <Gold.PLP.part.buried>
-4.6818

> <Gold.PLP.part.nonpolar>
-30.2022

> <Gold.PLP.part.repulsive>
2.1899

> <Gold.PLP.ligand.clash>
0.0000

> <Gold.PLP.ligand.torsion>
0.6767

> <Gold.PLP.Chemscore.Hbond>
1.0000

> <Gold.PLP.Chemscore.CHOScore>
0.8808

> <Gold.PLP.Chemscore.Metal>
0.0000

> <Gold.Chemscore.Hbonds>
donor molecule, donor type, donor heavy atom, donor atom, acceptor molecule, acceptor atom, score
      L1  H     6    29       P1  7948  1.00

> <Gold.PLP.Chemscore.Internal.Correction>
0.0170

> <Gold.Rescore>
     Score         DG    S(hbond)    S(metal)    S(lipo)     H(rot)  DE(clash)    DE(int)     intcor
     13.12     -15.68       1.00        0.00      89.40       1.40       0.39       2.17       ----

> <Gold.Chemscore.Fitness>
13.1195

> <Gold.Chemscore.DG>
-15.6768

> <Gold.Chemscore.ZeroCoef>
-5.4800

> <Gold.Chemscore.Hbond>
0.9966

> <Gold.Chemscore.Metal>
0.0000

> <Gold.Chemscore.Lipo>
89.4018

> <Gold.Chemscore.Internal_Hbond>
0.0000

> <Gold.Chemscore.DEClash>
0.3897

> <Gold.Chemscore.DEInternal>
2.1677

> <Gold.Chemscore.Rot>
1.4030

> <Gold.Chemscore.Internal.Correction>
   9.000000E+99

> <Gold.Chemscore.Hbonds>
donor molecule, donor type, donor heavy atom, donor atom, acceptor molecule, acceptor atom, score
      L1  H     6    29       P1  7948  1.00

> <Gold.Chemscore.Hbond.Weighted>
-3.3286

> <Gold.Chemscore.Metal.Weighted>
-0.0000

> <Gold.Chemscore.Lipo.Weighted>
-10.4600

> <Gold.Chemscore.Internal_Hbond.Weighted>
0.0000

> <Gold.Chemscore.DEClash.Weighted>
0.3897

> <Gold.Chemscore.DEInternal.Weighted>
2.1677

> <Gold.Chemscore.Rot.Weighted>
3.5917

> <Gold.Chemscore.Internal.Correction.Weighted>
   9.000000E+99

> <Gold.Protein.RotatedTorsions>
[ 6907 6896 6895 6894 ] final  -54.46 input  -60.11 | X-H torsion
[ 7974 7965 7964 7962 ] final  -81.88 input  175.53 | X-H torsion
[ 8008 7997 7996 7995 ] final  -95.98 input   59.86 | X-H torsion
[ 10167 10162 10161 10158 ] final   65.68 input  -65.29 | X-H torsion
[ 10718 10713 10712 10709 ] final   92.52 input   66.30 | X-H torsion
[ 10763 10752 10751 10750 ] final  173.01 input  -60.55 | X-H torsion
[ 11005 11000 10999 10996 ] final  106.76 input  -57.11 | X-H torsion

> <Gold.Protein.ActiveResidues>
 VAL166  LYS551  ARG553  GLY616  TRP617  ASP618  TYR619  PRO620  LYS621  CYS622 
 ASP623  PHE694  ASN695  SER759  ASP760  ASP761  ALA762  ILE779  LEU786  VAL792 
 PHE793  MET794  SER795  GLU796  ALA797  LYS798  CYS799  TRP800  GLU811  SER814 

> <Gold.Protein.RotatedAtoms>
  150.8336  134.7599  159.6873 H   0  0  0  0  0  0  0  0  0  0  0  0  # atno 6907 bound_to 6896
  152.4436  134.5537  159.9884 H   0  0  0  0  0  0  0  0  0  0  0  0  # atno 6908 bound_to 6896
  151.5692  133.3354  159.3022 H   0  0  0  0  0  0  0  0  0  0  0  0  # atno 6909 bound_to 6896
  145.5407  140.9510  143.1552 H   0  0  0  0  0  0  0  0  0  0  0  0  # atno 7974 bound_to 7965
  154.7684  140.0475  157.1031 H   0  0  0  0  0  0  0  0  0  0  0  0  # atno 8008 bound_to 7997
  154.9851  140.3106  155.4910 H   0  0  0  0  0  0  0  0  0  0  0  0  # atno 8009 bound_to 7997
  156.2917  140.2229  156.4952 H   0  0  0  0  0  0  0  0  0  0  0  0  # atno 8010 bound_to 7997
  140.1086  144.4839  150.6992 H   0  0  0  0  0  0  0  0  0  0  0  0  # atno 10167 bound_to 10162
  157.6958  131.0446  150.3894 H   0  0  0  0  0  0  0  0  0  0  0  0  # atno 10718 bound_to 10713
  154.4340  135.2760  155.1893 H   0  0  0  0  0  0  0  0  0  0  0  0  # atno 10763 bound_to 10752
  154.3787  135.6092  153.5782 H   0  0  0  0  0  0  0  0  0  0  0  0  # atno 10764 bound_to 10752
  152.9837  135.5875  154.4657 H   0  0  0  0  0  0  0  0  0  0  0  0  # atno 10765 bound_to 10752
  139.8818  134.9379  156.5715 H   0  0  0  0  0  0  0  0  0  0  0  0  # atno 11005 bound_to 11000
  144.7578  139.7031  143.7247 LP  0  0  0  0  0  0  0  0  0  0  0  0  # atno 17320 bound_to 7965
  146.1983  139.5262  142.9760 LP  0  0  0  0  0  0  0  0  0  0  0  0  # atno 17321 bound_to 7965
  140.6938  143.2391  151.5057 LP  0  0  0  0  0  0  0  0  0  0  0  0  # atno 17342 bound_to 10162
  139.5631  144.2107  152.1723 LP  0  0  0  0  0  0  0  0  0  0  0  0  # atno 17343 bound_to 10162
  156.4299  130.3970  149.6767 LP  0  0  0  0  0  0  0  0  0  0  0  0  # atno 17370 bound_to 10713
  156.3988  130.7664  151.2671 LP  0  0  0  0  0  0  0  0  0  0  0  0  # atno 17371 bound_to 10713
  140.8095  133.8441  155.8797 LP  0  0  0  0  0  0  0  0  0  0  0  0  # atno 17394 bound_to 11000
  140.9519  134.1767  157.4721 LP  0  0  0  0  0  0  0  0  0  0  0  0  # atno 17395 bound_to 11000

$$$$
