#       Name:                AV-unprocessed.smi:658
#       Creating user name   scv26
#       Creation time:       Fri Mar 27 00:18:28 2020


#       File generated by GOLD software.
#

@<TRIPOS>MOLECULE
AV-unprocessed.smi:658
    39    39     1
SMALL
NO_CHARGES


@<TRIPOS>ATOM
      1 ****        -1.4350  -1.4259  -1.7490 C.3            1 S1                 0.0000
      2 ****        -0.9514  -0.5682  -0.5655 C.3            1 S1                 0.0000
      3 ****         0.5265  -0.4913  -0.6050 N.4            1 S1                 1.0000
      4 ****         1.0759   0.8793  -0.5893 C.3            1 S1                 0.0000
      5 ****         2.6069   0.8541  -0.5540 C.3            1 S1                 0.0000
      6 ****         3.2120   2.2627  -0.5410 C.3            1 S1                 0.0000
      7 ****         5.0496   2.1860  -0.4760 S.o2           1 S1                 0.0000
      8 ****         5.4196   3.7554  -0.4990 N.pl3          1 S1                -1.0000
      9 ****         5.3758   1.5449   0.8071 O.2            1 S1                 0.0000
     10 ****         5.4667   1.4915  -1.7032 O.2            1 S1                 0.0000
     11 ****        -1.4359  -1.1061   0.8086 C.3            1 S1                 0.0000
     12 ****        -1.0348  -0.1999   1.9887 C.3            1 S1                 0.0000
     13 ****        -2.8749  -1.3369   0.8245 N.pl3          1 S1                 0.0000
     14 ****        -3.5474  -2.5328   0.9723 C.2            1 S1                 0.0000
     15 ****        -4.8840  -2.2583   0.9230 C.2            1 S1                 0.0000
     16 ****        -4.9340  -0.8485   0.7405 C.2            1 S1                 0.0000
     17 ****        -3.7314  -0.3003   0.6796 N.2            1 S1                 0.0000
     18 ****        -2.5218  -1.4218  -1.8358 H              1 S1                 0.0000
     19 ****        -1.1129  -2.4626  -1.6455 H              1 S1                 0.0000
     20 ****        -1.0391  -1.0481  -2.6924 H              1 S1                 0.0000
     21 ****        -1.3617   0.4329  -0.7115 H              1 S1                 0.0000
     22 ****         0.8971  -1.0004   0.1845 H              1 S1                 0.0000
     23 ****         0.7310   1.4125  -1.4762 H              1 S1                 0.0000
     24 ****         0.6950   1.4175   0.2793 H              1 S1                 0.0000
     25 ****         2.9417   0.3088   0.3293 H              1 S1                 0.0000
     26 ****         2.9843   0.3060  -1.4182 H              1 S1                 0.0000
     27 ****         2.9289   2.8164  -1.4365 H              1 S1                 0.0000
     28 ****         2.8674   2.8286   0.3248 H              1 S1                 0.0000
     29 ****         5.5316   4.0714   0.4717 H              1 S1                 0.0000
     30 ****        -0.9652  -2.0772   0.9712 H              1 S1                 0.0000
     31 ****         0.0478  -0.1440   2.1007 H              1 S1                 0.0000
     32 ****        -1.4336  -0.5831   2.9285 H              1 S1                 0.0000
     33 ****        -1.4086   0.8164   1.8599 H              1 S1                 0.0000
     34 ****        -3.0252  -3.4698   1.0986 H              1 S1                 0.0000
     35 ****        -5.7026  -2.9578   1.0063 H              1 S1                 0.0000
     36 ****        -5.8019  -0.2121   0.6511 H              1 S1                 0.0000
     37 ****         0.8453  -0.9404  -1.4517 H              1 S1                 0.0000
     38 ****         5.5221   4.3224  -1.3164 LP             1 S1                 0.0000
     39 ****        -3.5059   0.6659   0.5543 LP             1 S1                 0.0000
@<TRIPOS>BOND
    1    1    2 1     
    2    1   18 1     
    3    1   19 1     
    4    1   20 1     
    5    2    3 1     
    6    2   11 1     
    7    2   21 1     
    8    3    4 1     
    9    3   22 1     
   10    3   37 1     
   11    4    5 1     
   12    4   23 1     
   13    4   24 1     
   14    5    6 1     
   15    5   25 1     
   16    5   26 1     
   17    6    7 1     
   18    6   27 1     
   19    6   28 1     
   20    7    8 1     
   21    7    9 2     
   22    7   10 2     
   23    8   29 1     
   24   11   12 1     
   25   11   13 1     
   26   11   30 1     
   27   12   31 1     
   28   12   32 1     
   29   12   33 1     
   30   13   17 1     
   31   13   14 1     
   32   14   15 2     
   33   14   34 1     
   34   15   16 1     
   35   15   35 1     
   36   16   17 2     
   37   16   36 1     
   38    8   38 1     
   39   17   39 1     
@<TRIPOS>SUBSTRUCTURE
      1 S1             1
@<TRIPOS>SET
LONE_PAIRS      STATIC     ATOMS    <user>   **** ""
4 38 9 10 39
DONOR_HYDROGENS      STATIC     ATOMS    <user>   **** ""
3 22 37 29
ATOM$BLUE        STATIC     ATOMS    COLORGROUP SYSTEM
4 38 9 10 39
ATOM$RED        STATIC     ATOMS    COLORGROUP SYSTEM
3 22 37 29
