AV-unprocessed.smi:3010|AV-procd|sdf|11455|dock2
  -GOLD-   2272016383D 1   1.00000     0.00000
 Structure written by MMmdl.
 38 40  0  0  0  0  0  0  0  0  1 V2000
  152.0038  142.0096  158.5457 C   0  0  0  0  0  0  0  0  0  0  0  0
  151.5614  141.1657  157.4197 N   0  0  0  0  0  0  0  0  0  0  0  0
  150.5711  141.6436  156.6020 C   0  0  0  0  0  0  0  0  0  0  0  0
  150.0135  142.7346  156.7302 O   0  0  0  0  0  0  0  0  0  0  0  0
  150.2036  140.7268  155.5197 C   0  0  0  0  0  0  0  0  0  0  0  0
  150.7913  139.5195  155.3426 C   0  0  0  0  0  0  0  0  0  0  0  0
  150.2572  138.8517  154.2463 N   0  0  0  0  0  0  0  0  0  0  0  0
  149.3450  139.7215  153.8093 C   0  0  0  0  0  0  0  0  0  0  0  0
  149.2482  140.8667  154.5155 N   0  0  0  0  0  0  0  0  0  0  0  0
  148.3392  141.9716  154.2526 C   0  0  0  0  0  0  0  0  0  0  0  0
  146.8639  141.5286  154.1902 C   0  0  2  0  0  0  0  0  0  0  0  0
  146.6410  140.7552  153.0263 O   0  0  0  0  0  0  0  0  0  0  0  0
  145.9277  142.7236  154.2776 C   0  0  0  0  0  0  0  0  0  0  0  0
  145.8356  143.6251  153.1955 C   0  0  0  0  0  0  0  0  0  0  0  0
  144.9642  144.7298  153.2638 C   0  0  0  0  0  0  0  0  0  0  0  0
  144.1777  144.9373  154.4133 C   0  0  0  0  0  0  0  0  0  0  0  0
  144.2615  144.0387  155.4940 C   0  0  0  0  0  0  0  0  0  0  0  0
  145.1328  142.9341  155.4263 C   0  0  0  0  0  0  0  0  0  0  0  0
  151.8085  139.1206  156.2447 N   0  0  0  0  0  0  0  0  0  0  0  0
  152.4222  137.8083  156.0220 C   0  0  0  0  0  0  0  0  0  0  0  0
  152.1899  139.9389  157.2809 C   0  0  0  0  0  0  0  0  0  0  0  0
  153.0718  139.5872  158.0692 O   0  0  0  0  0  0  0  0  0  0  0  0
  151.5103  142.9796  158.6143 H   0  0  0  0  0  0  0  0  0  0  0  0
  153.0734  142.2131  158.4730 H   0  0  0  0  0  0  0  0  0  0  0  0
  151.8234  141.5005  159.4939 H   0  0  0  0  0  0  0  0  0  0  0  0
  148.7236  139.5180  152.9495 H   0  0  0  0  0  0  0  0  0  0  0  0
  148.4805  142.7270  155.0260 H   0  0  0  0  0  0  0  0  0  0  0  0
  148.6306  142.4423  153.3123 H   0  0  0  0  0  0  0  0  0  0  0  0
  146.6540  140.8733  155.0361 H   0  0  0  0  0  0  0  0  0  0  0  0
  145.7502  140.4395  153.0436 H   0  0  0  0  0  0  0  0  0  0  0  0
  146.4319  143.4717  152.3077 H   0  0  0  0  0  0  0  0  0  0  0  0
  144.8984  145.4174  152.4335 H   0  0  0  0  0  0  0  0  0  0  0  0
  143.5089  145.7839  154.4651 H   0  0  0  0  0  0  0  0  0  0  0  0
  143.6565  144.1955  156.3749 H   0  0  0  0  0  0  0  0  0  0  0  0
  145.1864  142.2476  156.2586 H   0  0  0  0  0  0  0  0  0  0  0  0
  153.1957  137.5433  156.7432 H   0  0  0  0  0  0  0  0  0  0  0  0
  152.8778  137.7751  155.0317 H   0  0  0  0  0  0  0  0  0  0  0  0
  151.6597  137.0298  156.0644 H   0  0  0  0  0  0  0  0  0  0  0  0
  1  2  1  0  0  0  0
  1 23  1  0  0  0  0
  1 24  1  0  0  0  0
  1 25  1  0  0  0  0
  2 21  1  0  0  0  0
  2  3  1  0  0  0  0
  3  4  2  0  0  0  0
  3  5  1  0  0  0  0
  5  9  1  0  0  0  0
  5  6  2  0  0  0  0
  6  7  1  0  0  0  0
  6 19  1  0  0  0  0
  7  8  2  0  0  0  0
  8  9  1  0  0  0  0
  8 26  1  0  0  0  0
  9 10  1  0  0  0  0
 10 11  1  0  0  0  0
 10 27  1  0  0  0  0
 10 28  1  0  0  0  0
 11 12  1  0  0  0  0
 11 13  1  0  0  0  0
 11 29  1  0  0  0  0
 12 30  1  0  0  0  0
 13 18  1  0  0  0  0
 13 14  2  0  0  0  0
 14 15  1  0  0  0  0
 14 31  1  0  0  0  0
 15 16  2  0  0  0  0
 15 32  1  0  0  0  0
 16 17  1  0  0  0  0
 16 33  1  0  0  0  0
 17 18  2  0  0  0  0
 17 34  1  0  0  0  0
 18 35  1  0  0  0  0
 19 20  1  0  0  0  0
 19 21  1  0  0  0  0
 20 36  1  0  0  0  0
 20 37  1  0  0  0  0
 20 38  1  0  0  0  0
 21 22  2  0  0  0  0
M  END
> <s_m_source_file>
AV-unprocessed.smi

> <i_m_source_file_index>
3010

> <i_lp_mmshare_version>
43012

> <i_f3d_flags>
0

> <s_epik_input>
Tz1jMW4oW0NIM10pYyg9TyluKFtDSDNdKWMoYzEyKW5bY0hdbjJbQ0gyXVtDQEhdKFtPSF0pYzNbY0hdW2NIXVtjSF1bY0hdW2NIXTM=

> <s_epik_cmdline>
J2VwaWtfcHl0aG9uJywgJy1waCcsICc3LjAnLCAnLXRuJywgJzgnLCAnLW1hJywgJzIwMCcsICctbWV0YWxfYmluZGluZycsICctaW1hZScsICc8aW5maWxlLm1hZT4nLCAnLW9tYWUnLCAnPG91dGZpbGUubWFlPic=

> <r_lp_tautomer_probability>
1

> <r_epik_Ionization_Penalty>
1.43747e-06

> <r_epik_Ionization_Penalty_Charging>
3.74189e-09

> <r_epik_Ionization_Penalty_Neutral>
1.43373e-06

> <r_epik_State_Penalty>
-0

> <r_epik_Charging_Adjusted_Penalty>
3.74189e-09

> <i_epik_Tot_Q>
0

> <i_epik_Tot_abs_Q>
0

> <r_epik_Metal_State_Penalty>
-0

> <b_epik_Metal_Only>
0

> <s_lp_Force_Field>
OPLS_2005

> <r_lp_Energy>
35.6617

> <b_lp_Chiralities_Consistent>
1

> <s_lp_Variant>
AV-unprocessed.smi:3010-1

> <Gold.Version>
5.8.1

> <Gold.Id.Protein>
6NUR|6NUR_protein|mol2

> <Gold.PLP.Fitness>
45.6632

> <Gold.PLP.PLP>
-38.3959

> <Gold.PLP.part.hbond>
-2.0000

> <Gold.PLP.part.metal>
0.0000

> <Gold.PLP.part.buried>
-0.9239

> <Gold.PLP.part.nonpolar>
-40.4770

> <Gold.PLP.part.repulsive>
4.3076

> <Gold.PLP.ligand.clash>
0.0372

> <Gold.PLP.ligand.torsion>
0.2416

> <Gold.PLP.Chemscore.Hbond>
2.0000

> <Gold.PLP.Chemscore.CHOScore>
0.5855

> <Gold.PLP.Chemscore.Metal>
0.0000

> <Gold.Chemscore.Hbonds>
donor molecule, donor type, donor heavy atom, donor atom, acceptor molecule, acceptor atom, score
      L1  H    12    30       P1 10175  0.73
      P1  H  7997  8010       L1    22  0.65
      L1  C     8    26       P1  7957  0.68

> <Gold.PLP.Chemscore.Internal.Correction>
0.0312

> <Gold.Rescore>
     Score         DG    S(hbond)    S(metal)    S(lipo)     H(rot)  DE(clash)    DE(int)     intcor
      9.10     -13.71       1.63        0.00      70.71       2.15       3.27       1.34       ----

> <Gold.Chemscore.Fitness>
9.1029

> <Gold.Chemscore.DG>
-13.7125

> <Gold.Chemscore.ZeroCoef>
-5.4800

> <Gold.Chemscore.Hbond>
1.6337

> <Gold.Chemscore.Metal>
0.0000

> <Gold.Chemscore.Lipo>
70.7132

> <Gold.Chemscore.Internal_Hbond>
0.0000

> <Gold.Chemscore.DEClash>
3.2664

> <Gold.Chemscore.DEInternal>
1.3432

> <Gold.Chemscore.Rot>
2.1474

> <Gold.Chemscore.Internal.Correction>
   9.000000E+99

> <Gold.Chemscore.Hbonds>
donor molecule, donor type, donor heavy atom, donor atom, acceptor molecule, acceptor atom, score
      L1  H    12    30       P1 10175  0.62
      P1  H  7997  8010       L1    22  0.06

> <Gold.Chemscore.Hbond.Weighted>
-5.4564

> <Gold.Chemscore.Metal.Weighted>
-0.0000

> <Gold.Chemscore.Lipo.Weighted>
-8.2734

> <Gold.Chemscore.Internal_Hbond.Weighted>
0.0000

> <Gold.Chemscore.DEClash.Weighted>
3.2664

> <Gold.Chemscore.DEInternal.Weighted>
1.3432

> <Gold.Chemscore.Rot.Weighted>
5.4974

> <Gold.Chemscore.Internal.Correction.Weighted>
   9.000000E+99

> <Gold.Protein.RotatedTorsions>
[ 6907 6896 6895 6894 ] final  -51.81 input  -60.11 | X-H torsion
[ 7974 7965 7964 7962 ] final  -99.15 input  175.53 | X-H torsion
[ 8008 7997 7996 7995 ] final   47.59 input   59.86 | X-H torsion
[ 10167 10162 10161 10158 ] final  -37.63 input  -65.29 | X-H torsion
[ 10718 10713 10712 10709 ] final -158.96 input   66.30 | X-H torsion
[ 10763 10752 10751 10750 ] final   68.68 input  -60.55 | X-H torsion
[ 11005 11000 10999 10996 ] final  128.72 input  -57.11 | X-H torsion

> <Gold.Protein.ActiveResidues>
 VAL166  LYS551  ARG553  GLY616  TRP617  ASP618  TYR619  PRO620  LYS621  CYS622 
 ASP623  PHE694  ASN695  SER759  ASP760  ASP761  ALA762  ILE779  LEU786  VAL792 
 PHE793  MET794  SER795  GLU796  ALA797  LYS798  CYS799  TRP800  GLU811  SER814 

> <Gold.Protein.RotatedAtoms>
  150.8576  134.7920  159.7057 H   0  0  0  0  0  0  0  0  0  0  0  0  # atno 6907 bound_to 6896
  152.4623  134.5152  159.9776 H   0  0  0  0  0  0  0  0  0  0  0  0  # atno 6908 bound_to 6896
  151.5262  133.3419  159.2945 H   0  0  0  0  0  0  0  0  0  0  0  0  # atno 6909 bound_to 6896
  145.3113  140.9401  143.2768 H   0  0  0  0  0  0  0  0  0  0  0  0  # atno 7974 bound_to 7965
  155.3716  140.3424  155.4243 H   0  0  0  0  0  0  0  0  0  0  0  0  # atno 8008 bound_to 7997
  156.1659  140.1616  156.8566 H   0  0  0  0  0  0  0  0  0  0  0  0  # atno 8009 bound_to 7997
  154.5185  140.0772  156.8108 H   0  0  0  0  0  0  0  0  0  0  0  0  # atno 8010 bound_to 7997
  140.7113  143.3329  151.2527 H   0  0  0  0  0  0  0  0  0  0  0  0  # atno 10167 bound_to 10162
  156.5614  130.8649  151.2811 H   0  0  0  0  0  0  0  0  0  0  0  0  # atno 10718 bound_to 10713
  153.0247  135.5238  154.7171 H   0  0  0  0  0  0  0  0  0  0  0  0  # atno 10763 bound_to 10752
  154.6237  135.2892  155.0299 H   0  0  0  0  0  0  0  0  0  0  0  0  # atno 10764 bound_to 10752
  154.1276  135.6598  153.4968 H   0  0  0  0  0  0  0  0  0  0  0  0  # atno 10765 bound_to 10752
  139.9576  134.9609  156.9043 H   0  0  0  0  0  0  0  0  0  0  0  0  # atno 11005 bound_to 11000
  144.9014  139.4645  143.6631 LP  0  0  0  0  0  0  0  0  0  0  0  0  # atno 17320 bound_to 7965
  146.3117  139.7770  142.9015 LP  0  0  0  0  0  0  0  0  0  0  0  0  # atno 17321 bound_to 7965
  139.6816  143.9844  152.2812 LP  0  0  0  0  0  0  0  0  0  0  0  0  # atno 17342 bound_to 10162
  139.9476  144.6641  150.8204 LP  0  0  0  0  0  0  0  0  0  0  0  0  # atno 17343 bound_to 10162
  157.7367  130.9784  150.2154 LP  0  0  0  0  0  0  0  0  0  0  0  0  # atno 17370 bound_to 10713
  156.2795  130.3731  149.7949 LP  0  0  0  0  0  0  0  0  0  0  0  0  # atno 17371 bound_to 10713
  140.5574  134.0568  155.7388 LP  0  0  0  0  0  0  0  0  0  0  0  0  # atno 17394 bound_to 11000
  141.1249  133.9399  157.2655 LP  0  0  0  0  0  0  0  0  0  0  0  0  # atno 17395 bound_to 11000

$$$$
