AV-unprocessed.smi:1412|AV-procd|sdf|5743|dock1
  -GOLD-   22720 5373D 1   1.00000     0.00000
 Structure written by MMmdl.
 42 43  0  0  0  0  0  0  0  0  2 V2000
  142.2820  136.2770  154.0891 C   0  0  0  0  0  0  0  0  0  0  0  0
  142.9279  135.1497  153.2645 C   0  0  0  0  0  0  0  0  0  0  0  0
  144.4669  135.2615  153.0382 C   0  0  2  0  0  0  0  0  0  0  0  0
  145.1831  135.2848  154.4139 C   0  0  0  0  0  0  0  0  0  0  0  0
  144.7915  136.6063  152.3143 C   0  0  0  0  0  0  0  0  0  0  0  0
  146.1617  137.0797  152.5203 N   0  0  0  0  0  0  0  0  0  0  0  0
  146.5111  138.2015  153.1662 C   0  0  0  0  0  0  0  0  0  0  0  0
  145.6989  138.9590  153.6967 O   0  0  0  0  0  0  0  0  0  0  0  0
  147.8446  138.3758  153.1521 N   0  0  0  0  0  0  0  0  0  0  0  0
  148.5980  139.4373  153.7206 C   0  0  0  0  0  0  0  0  0  0  0  0
  149.8829  139.3223  154.0909 N   0  0  0  0  0  0  0  0  0  0  0  0
  150.3798  140.5074  154.6173 N   0  0  0  0  0  0  0  0  0  0  0  0
  149.4520  141.4687  154.6227 C   0  0  0  0  0  0  0  0  0  0  0  0
  147.8807  141.0212  153.9812 S   0  0  0  0  0  0  0  0  0  0  0  0
  144.9791  134.0968  152.2254 N   0  3  0  0  0  0  0  0  0  0  0  0
  144.2473  133.8012  150.9607 C   0  0  0  0  0  0  0  0  0  0  0  0
  144.7457  132.4820  150.3463 C   0  0  0  0  0  0  0  0  0  0  0  0
  146.1463  132.5531  150.1191 O   0  0  0  0  0  0  0  0  0  0  0  0
  146.8670  132.7514  151.3270 C   0  0  0  0  0  0  0  0  0  0  0  0
  146.4461  134.0864  151.9617 C   0  0  0  0  0  0  0  0  0  0  0  0
  141.2108  136.1030  154.1925 H   0  0  0  0  0  0  0  0  0  0  0  0
  142.4031  137.2501  153.6145 H   0  0  0  0  0  0  0  0  0  0  0  0
  142.6949  136.3354  155.0958 H   0  0  0  0  0  0  0  0  0  0  0  0
  142.6920  134.2083  153.7596 H   0  0  0  0  0  0  0  0  0  0  0  0
  142.4109  135.1183  152.3058 H   0  0  0  0  0  0  0  0  0  0  0  0
  145.0424  136.2356  154.9285 H   0  0  0  0  0  0  0  0  0  0  0  0
  146.2586  135.1374  154.3111 H   0  0  0  0  0  0  0  0  0  0  0  0
  144.8065  134.5142  155.0868 H   0  0  0  0  0  0  0  0  0  0  0  0
  144.6491  136.4996  151.2389 H   0  0  0  0  0  0  0  0  0  0  0  0
  144.0862  137.3856  152.6067 H   0  0  0  0  0  0  0  0  0  0  0  0
  146.8976  136.5272  152.1050 H   0  0  0  0  0  0  0  0  0  0  0  0
  148.3856  137.6746  152.6682 H   0  0  0  0  0  0  0  0  0  0  0  0
  149.6949  142.4483  155.0069 H   0  0  0  0  0  0  0  0  0  0  0  0
  143.1764  133.7016  151.1264 H   0  0  0  0  0  0  0  0  0  0  0  0
  144.3887  134.6102  150.2440 H   0  0  0  0  0  0  0  0  0  0  0  0
  144.5120  131.6372  150.9964 H   0  0  0  0  0  0  0  0  0  0  0  0
  144.2444  132.2990  149.3956 H   0  0  0  0  0  0  0  0  0  0  0  0
  146.6944  131.9204  152.0130 H   0  0  0  0  0  0  0  0  0  0  0  0
  147.9337  132.7623  151.1023 H   0  0  0  0  0  0  0  0  0  0  0  0
  146.7158  134.9008  151.2890 H   0  0  0  0  0  0  0  0  0  0  0  0
  147.0203  134.2237  152.8760 H   0  0  0  0  0  0  0  0  0  0  0  0
  144.8110  133.2937  152.8144 H   0  0  0  0  0  0  0  0  0  0  0  0
  1  2  1  0  0  0  0
  1 21  1  0  0  0  0
  1 22  1  0  0  0  0
  1 23  1  0  0  0  0
  2  3  1  0  0  0  0
  2 24  1  0  0  0  0
  2 25  1  0  0  0  0
  3  4  1  0  0  0  0
  3  5  1  0  0  0  0
  3 15  1  0  0  0  0
  4 26  1  0  0  0  0
  4 27  1  0  0  0  0
  4 28  1  0  0  0  0
  5  6  1  0  0  0  0
  5 29  1  0  0  0  0
  5 30  1  0  0  0  0
  6  7  1  0  0  0  0
  6 31  1  0  0  0  0
  7  8  2  0  0  0  0
  7  9  1  0  0  0  0
  9 10  1  0  0  0  0
  9 32  1  0  0  0  0
 10 14  1  0  0  0  0
 10 11  2  0  0  0  0
 11 12  1  0  0  0  0
 12 13  2  0  0  0  0
 13 14  1  0  0  0  0
 13 33  1  0  0  0  0
 15 20  1  0  0  0  0
 15 16  1  0  0  0  0
 15 42  1  0  0  0  0
 16 17  1  0  0  0  0
 16 34  1  0  0  0  0
 16 35  1  0  0  0  0
 17 18  1  0  0  0  0
 17 36  1  0  0  0  0
 17 37  1  0  0  0  0
 18 19  1  0  0  0  0
 19 20  1  0  0  0  0
 19 38  1  0  0  0  0
 19 39  1  0  0  0  0
 20 40  1  0  0  0  0
 20 41  1  0  0  0  0
M  CHG  1  15   1
M  END
> <s_m_source_file>
AV-unprocessed.smi

> <i_m_source_file_index>
1412

> <i_lp_mmshare_version>
43012

> <i_f3d_flags>
0

> <s_epik_input>
W0NIMl0xW0NIMl1PW0NIMl1bQ0gyXU4xW0NAQF0oW0NIM10pKFtDSDJdW0NIM10pW0NIMl1bTkhdQyg9TylbTkhdYzJubltjSF1zMg==

> <s_epik_cmdline>
J2VwaWtfcHl0aG9uJywgJy1waCcsICc3LjAnLCAnLXRuJywgJzgnLCAnLW1hJywgJzIwMCcsICctbWV0YWxfYmluZGluZycsICctaW1hZScsICc8aW5maWxlLm1hZT4nLCAnLW9tYWUnLCAnPG91dGZpbGUubWFlPic=

> <r_lp_tautomer_probability>
1

> <r_epik_Ionization_Penalty>
0.554649

> <r_epik_Ionization_Penalty_Charging>
0.553838

> <r_epik_Ionization_Penalty_Neutral>
0.000811527

> <r_epik_State_Penalty>
0.564424

> <r_epik_Charging_Adjusted_Penalty>
1.11826

> <i_epik_Tot_Q>
1

> <i_epik_Tot_abs_Q>
1

> <r_epik_Metal_State_Penalty>
0.786249

> <b_epik_Metal_Only>
0

> <s_lp_Force_Field>
OPLS_2005

> <r_lp_Energy>
32.8849

> <b_lp_Chiralities_Consistent>
1

> <s_lp_Variant>
AV-unprocessed.smi:1412-4

> <Gold.Version>
5.8.1

> <Gold.Id.Protein>
6NUR|6NUR_protein|mol2

> <Gold.PLP.Fitness>
37.5818

> <Gold.PLP.PLP>
-26.4602

> <Gold.PLP.part.hbond>
-3.5643

> <Gold.PLP.part.metal>
0.0000

> <Gold.PLP.part.buried>
-2.9522

> <Gold.PLP.part.nonpolar>
-21.7482

> <Gold.PLP.part.repulsive>
2.4663

> <Gold.PLP.ligand.clash>
0.0000

> <Gold.PLP.ligand.torsion>
0.5645

> <Gold.PLP.Chemscore.Hbond>
2.9833

> <Gold.PLP.Chemscore.CHOScore>
1.0000

> <Gold.PLP.Chemscore.Metal>
0.0000

> <Gold.Chemscore.Hbonds>
donor molecule, donor type, donor heavy atom, donor atom, acceptor molecule, acceptor atom, score
      L1  H     6    31       P1  7948  0.86
      L1  H     9    32       P1  7948  1.00
      P1  H  7989  7998       L1    12  0.98
      L1  C    13    33       P1  8028  1.00

> <Gold.PLP.Chemscore.Internal.Correction>
0.3007

> <Gold.Rescore>
     Score         DG    S(hbond)    S(metal)    S(lipo)     H(rot)  DE(clash)    DE(int)     intcor
     11.40     -13.84       1.94        0.00      57.98       1.91       0.09       2.34       ----

> <Gold.Chemscore.Fitness>
11.4041

> <Gold.Chemscore.DG>
-13.8373

> <Gold.Chemscore.ZeroCoef>
-5.4800

> <Gold.Chemscore.Hbond>
1.9383

> <Gold.Chemscore.Metal>
0.0000

> <Gold.Chemscore.Lipo>
57.9757

> <Gold.Chemscore.Internal_Hbond>
0.0000

> <Gold.Chemscore.DEClash>
0.0899

> <Gold.Chemscore.DEInternal>
2.3432

> <Gold.Chemscore.Rot>
1.9140

> <Gold.Chemscore.Internal.Correction>
   9.000000E+99

> <Gold.Chemscore.Hbonds>
donor molecule, donor type, donor heavy atom, donor atom, acceptor molecule, acceptor atom, score
      L1  H     6    31       P1  7948  0.80
      L1  H     9    32       P1  7948  1.00
      P1  H  7989  7998       L1    12  0.21

> <Gold.Chemscore.Hbond.Weighted>
-6.4740

> <Gold.Chemscore.Metal.Weighted>
-0.0000

> <Gold.Chemscore.Lipo.Weighted>
-6.7832

> <Gold.Chemscore.Internal_Hbond.Weighted>
0.0000

> <Gold.Chemscore.DEClash.Weighted>
0.0899

> <Gold.Chemscore.DEInternal.Weighted>
2.3432

> <Gold.Chemscore.Rot.Weighted>
4.8998

> <Gold.Chemscore.Internal.Correction.Weighted>
   9.000000E+99

> <Gold.Protein.RotatedTorsions>
[ 6907 6896 6895 6894 ] final  -52.14 input  -60.11 | X-H torsion
[ 7974 7965 7964 7962 ] final  112.96 input  175.53 | X-H torsion
[ 8008 7997 7996 7995 ] final   -1.32 input   59.86 | X-H torsion
[ 10167 10162 10161 10158 ] final  150.29 input  -65.29 | X-H torsion
[ 10718 10713 10712 10709 ] final -143.55 input   66.30 | X-H torsion
[ 10763 10752 10751 10750 ] final -172.37 input  -60.55 | X-H torsion
[ 11005 11000 10999 10996 ] final   98.09 input  -57.11 | X-H torsion

> <Gold.Protein.ActiveResidues>
 VAL166  LYS551  ARG553  GLY616  TRP617  ASP618  TYR619  PRO620  LYS621  CYS622 
 ASP623  PHE694  ASN695  SER759  ASP760  ASP761  ALA762  ILE779  LEU786  VAL792 
 PHE793  MET794  SER795  GLU796  ALA797  LYS798  CYS799  TRP800  GLU811  SER814 

> <Gold.Protein.RotatedAtoms>
  150.8546  134.7880  159.7034 H   0  0  0  0  0  0  0  0  0  0  0  0  # atno 6907 bound_to 6896
  152.4601  134.5200  159.9789 H   0  0  0  0  0  0  0  0  0  0  0  0  # atno 6908 bound_to 6896
  151.5315  133.3410  159.2955 H   0  0  0  0  0  0  0  0  0  0  0  0  # atno 6909 bound_to 6896
  145.2230  139.2853  143.4208 H   0  0  0  0  0  0  0  0  0  0  0  0  # atno 7974 bound_to 7965
  154.6481  140.2562  155.7245 H   0  0  0  0  0  0  0  0  0  0  0  0  # atno 8008 bound_to 7997
  156.2562  140.2873  156.0824 H   0  0  0  0  0  0  0  0  0  0  0  0  # atno 8009 bound_to 7997
  155.1493  140.0382  157.2807 H   0  0  0  0  0  0  0  0  0  0  0  0  # atno 8010 bound_to 7997
  139.4852  144.5533  151.7361 H   0  0  0  0  0  0  0  0  0  0  0  0  # atno 10167 bound_to 10162
  156.3593  130.7730  151.1895 H   0  0  0  0  0  0  0  0  0  0  0  0  # atno 10718 bound_to 10713
  154.6200  135.2874  155.0337 H   0  0  0  0  0  0  0  0  0  0  0  0  # atno 10763 bound_to 10752
  154.1535  135.6499  153.4973 H   0  0  0  0  0  0  0  0  0  0  0  0  # atno 10764 bound_to 10752
  153.0232  135.5361  154.6986 H   0  0  0  0  0  0  0  0  0  0  0  0  # atno 10765 bound_to 10752
  139.8773  134.9032  156.4405 H   0  0  0  0  0  0  0  0  0  0  0  0  # atno 11005 bound_to 11000
  146.3371  140.2542  142.8599 LP  0  0  0  0  0  0  0  0  0  0  0  0  # atno 17320 bound_to 7965
  144.9748  140.8403  143.5433 LP  0  0  0  0  0  0  0  0  0  0  0  0  # atno 17321 bound_to 7965
  140.5091  144.1052  150.5990 LP  0  0  0  0  0  0  0  0  0  0  0  0  # atno 17342 bound_to 10162
  140.3972  143.2722  151.9991 LP  0  0  0  0  0  0  0  0  0  0  0  0  # atno 17343 bound_to 10162
  157.7471  131.0405  150.4599 LP  0  0  0  0  0  0  0  0  0  0  0  0  # atno 17370 bound_to 10713
  156.4807  130.4073  149.6463 LP  0  0  0  0  0  0  0  0  0  0  0  0  # atno 17371 bound_to 10713
  140.9003  133.7784  155.9672 LP  0  0  0  0  0  0  0  0  0  0  0  0  # atno 17394 bound_to 11000
  140.8658  134.2786  157.5214 LP  0  0  0  0  0  0  0  0  0  0  0  0  # atno 17395 bound_to 11000

$$$$
