AV-unprocessed.smi:3255|AV-procd|sdf|12459|dock7
  -GOLD-   2272018353D 1   1.00000     0.00000
 Structure written by MMmdl.
 39 40  0  0  0  0  0  0  0  0  2 V2000
  148.0333  140.2324  154.4436 C   0  0  0  0  0  0  0  0  0  0  0  0
  149.1403  139.2436  154.0508 C   0  0  2  0  0  0  0  0  0  0  0  0
  148.5377  137.9366  153.7911 N   0  0  0  0  0  0  0  0  0  0  0  0
  147.6464  137.3193  154.5793 C   0  0  0  0  0  0  0  0  0  0  0  0
  147.2287  137.7773  155.6433 O   0  0  0  0  0  0  0  0  0  0  0  0
  147.2405  136.1535  154.0565 N   0  0  0  0  0  0  0  0  0  0  0  0
  146.2449  135.2680  154.6547 C   0  0  0  0  0  0  0  0  0  0  0  0
  145.9186  134.0606  153.7534 C   0  0  0  0  0  0  0  0  0  0  0  0
  145.1668  134.4258  152.5481 N   0  0  0  0  0  0  0  0  0  0  0  0
  145.5881  135.2240  151.5157 C   0  0  0  0  0  0  0  0  0  0  0  0
  144.5475  135.2940  150.6257 C   0  0  0  0  0  0  0  0  0  0  0  0
  143.5396  134.5282  151.1471 N   0  3  0  0  0  0  0  0  0  0  0  0
  143.9207  133.9950  152.3125 C   0  0  0  0  0  0  0  0  0  0  0  0
  150.2250  139.1360  155.1431 C   0  0  1  0  0  0  0  0  0  0  0  0
  151.3152  138.0971  154.8827 C   0  0  0  0  0  0  0  0  0  0  0  0
  152.4355  138.5688  155.7863 C   0  0  0  0  0  0  0  0  0  0  0  0
  152.2174  140.0822  155.8657 C   0  0  0  0  0  0  0  0  0  0  0  0
  150.9728  140.3410  155.2222 O   0  0  0  0  0  0  0  0  0  0  0  0
  148.4389  141.2306  154.6104 H   0  0  0  0  0  0  0  0  0  0  0  0
  147.5284  139.9222  155.3591 H   0  0  0  0  0  0  0  0  0  0  0  0
  147.2810  140.3124  153.6582 H   0  0  0  0  0  0  0  0  0  0  0  0
  149.6067  139.6202  153.1388 H   0  0  0  0  0  0  0  0  0  0  0  0
  148.8149  137.4753  152.9371 H   0  0  0  0  0  0  0  0  0  0  0  0
  147.6430  135.8599  153.1782 H   0  0  0  0  0  0  0  0  0  0  0  0
  146.6543  134.9076  155.5987 H   0  0  0  0  0  0  0  0  0  0  0  0
  145.3372  135.8170  154.9115 H   0  0  0  0  0  0  0  0  0  0  0  0
  146.8336  133.5529  153.4450 H   0  0  0  0  0  0  0  0  0  0  0  0
  145.3224  133.3318  154.3034 H   0  0  0  0  0  0  0  0  0  0  0  0
  146.5674  135.6800  151.4958 H   0  0  0  0  0  0  0  0  0  0  0  0
  144.4511  135.8187  149.6863 H   0  0  0  0  0  0  0  0  0  0  0  0
  143.3314  133.3562  152.9457 H   0  0  0  0  0  0  0  0  0  0  0  0
  149.7673  138.9450  156.1159 H   0  0  0  0  0  0  0  0  0  0  0  0
  150.9949  137.0793  155.1047 H   0  0  0  0  0  0  0  0  0  0  0  0
  151.6368  138.1360  153.8408 H   0  0  0  0  0  0  0  0  0  0  0  0
  152.3299  138.1257  156.7774 H   0  0  0  0  0  0  0  0  0  0  0  0
  153.4206  138.3038  155.4013 H   0  0  0  0  0  0  0  0  0  0  0  0
  152.1807  140.4173  156.9028 H   0  0  0  0  0  0  0  0  0  0  0  0
  153.0106  140.6329  155.3595 H   0  0  0  0  0  0  0  0  0  0  0  0
  142.6342  134.3873  150.7170 H   0  0  0  0  0  0  0  0  0  0  0  0
  1  2  1  0  0  0  0
  1 19  1  0  0  0  0
  1 20  1  0  0  0  0
  1 21  1  0  0  0  0
  2  3  1  0  0  0  0
  2 14  1  0  0  0  0
  2 22  1  0  0  0  0
  3  4  1  0  0  0  0
  3 23  1  0  0  0  0
  4  5  2  0  0  0  0
  4  6  1  0  0  0  0
  6  7  1  0  0  0  0
  6 24  1  0  0  0  0
  7  8  1  0  0  0  0
  7 25  1  0  0  0  0
  7 26  1  0  0  0  0
  8  9  1  0  0  0  0
  8 27  1  0  0  0  0
  8 28  1  0  0  0  0
  9 13  1  0  0  0  0
  9 10  1  0  0  0  0
 10 11  2  0  0  0  0
 10 29  1  0  0  0  0
 11 12  1  0  0  0  0
 11 30  1  0  0  0  0
 12 13  2  0  0  0  0
 12 39  1  0  0  0  0
 13 31  1  0  0  0  0
 14 18  1  0  0  0  0
 14 15  1  0  0  0  0
 14 32  1  0  0  0  0
 15 16  1  0  0  0  0
 15 33  1  0  0  0  0
 15 34  1  0  0  0  0
 16 17  1  0  0  0  0
 16 35  1  0  0  0  0
 16 36  1  0  0  0  0
 17 18  1  0  0  0  0
 17 37  1  0  0  0  0
 17 38  1  0  0  0  0
M  CHG  1  12   1
M  END
> <s_m_source_file>
AV-unprocessed.smi

> <i_m_source_file_index>
3255

> <i_lp_mmshare_version>
43012

> <i_f3d_flags>
0

> <s_epik_input>
TzFbQ0gyXVtDSDJdW0NIMl1bQ0BIXTFbQ0BIXShbQ0gzXSlbTkhdQyg9TylbTkhdW0NIMl1bQ0gyXW4yW2NIXVtjSF1uW2NIXTI=

> <s_epik_cmdline>
J2VwaWtfcHl0aG9uJywgJy1waCcsICc3LjAnLCAnLXRuJywgJzgnLCAnLW1hJywgJzIwMCcsICctbWV0YWxfYmluZGluZycsICctaW1hZScsICc8aW5maWxlLm1hZT4nLCAnLW9tYWUnLCAnPG91dGZpbGUubWFlPic=

> <r_lp_tautomer_probability>
1

> <r_epik_Ionization_Penalty>
0.256241

> <r_epik_Ionization_Penalty_Charging>
0

> <r_epik_Ionization_Penalty_Neutral>
0.256241

> <r_epik_State_Penalty>
0.247735

> <r_epik_Charging_Adjusted_Penalty>
0.247735

> <i_epik_Tot_Q>
1

> <i_epik_Tot_abs_Q>
1

> <r_epik_Metal_State_Penalty>
0.537184

> <b_epik_Metal_Only>
0

> <s_lp_Force_Field>
OPLS_2005

> <r_lp_Energy>
17.3031

> <b_lp_Chiralities_Consistent>
1

> <s_lp_Variant>
AV-unprocessed.smi:3255-3

> <Gold.Version>
5.8.1

> <Gold.Id.Protein>
6NUR|6NUR_protein|mol2

> <Gold.PLP.Fitness>
45.3236

> <Gold.PLP.PLP>
-25.2366

> <Gold.PLP.part.hbond>
-4.0000

> <Gold.PLP.part.metal>
0.0000

> <Gold.PLP.part.buried>
-2.4446

> <Gold.PLP.part.nonpolar>
-19.6466

> <Gold.PLP.part.repulsive>
0.0795

> <Gold.PLP.ligand.clash>
0.0000

> <Gold.PLP.ligand.torsion>
0.2897

> <Gold.PLP.Chemscore.Hbond>
4.8780

> <Gold.PLP.Chemscore.CHOScore>
2.0000

> <Gold.PLP.Chemscore.Metal>
0.0000

> <Gold.Chemscore.Hbonds>
donor molecule, donor type, donor heavy atom, donor atom, acceptor molecule, acceptor atom, score
      L1  H     3    23       P1  7948  1.00
      L1  H     6    24       P1  7948  0.93
      L1  H    12    39       P1 10186  2.00
      P1  H  7989  7998       L1    18  0.95
      L1  C    10    29       P1  7948  1.00
      L1  C    13    31       P1 10957  1.00

> <Gold.PLP.Chemscore.Internal.Correction>
0.0324

> <Gold.Rescore>
     Score         DG    S(hbond)    S(metal)    S(lipo)     H(rot)  DE(clash)    DE(int)     intcor
     15.02     -16.89       3.31        0.00      52.56       2.26       0.20       1.67       ----

> <Gold.Chemscore.Fitness>
15.0153

> <Gold.Chemscore.DG>
-16.8931

> <Gold.Chemscore.ZeroCoef>
-5.4800

> <Gold.Chemscore.Hbond>
3.3112

> <Gold.Chemscore.Metal>
0.0000

> <Gold.Chemscore.Lipo>
52.5602

> <Gold.Chemscore.Internal_Hbond>
0.0000

> <Gold.Chemscore.DEClash>
0.2047

> <Gold.Chemscore.DEInternal>
1.6731

> <Gold.Chemscore.Rot>
2.2640

> <Gold.Chemscore.Internal.Correction>
   9.000000E+99

> <Gold.Chemscore.Hbonds>
donor molecule, donor type, donor heavy atom, donor atom, acceptor molecule, acceptor atom, score
      L1  H     3    23       P1  7948  0.99
      L1  H     6    24       P1  7948  0.89
      L1  H    12    39       P1 10186  0.34
      P1  H  7989  7998       L1    18  0.17

> <Gold.Chemscore.Hbond.Weighted>
-11.0594

> <Gold.Chemscore.Metal.Weighted>
-0.0000

> <Gold.Chemscore.Lipo.Weighted>
-6.1495

> <Gold.Chemscore.Internal_Hbond.Weighted>
0.0000

> <Gold.Chemscore.DEClash.Weighted>
0.2047

> <Gold.Chemscore.DEInternal.Weighted>
1.6731

> <Gold.Chemscore.Rot.Weighted>
5.7958

> <Gold.Chemscore.Internal.Correction.Weighted>
   9.000000E+99

> <Gold.Protein.RotatedTorsions>
[ 6907 6896 6895 6894 ] final  -50.51 input  -60.11 | X-H torsion
[ 7974 7965 7964 7962 ] final  150.01 input  175.53 | X-H torsion
[ 8008 7997 7996 7995 ] final -177.92 input   59.86 | X-H torsion
[ 10167 10162 10161 10158 ] final  -25.52 input  -65.29 | X-H torsion
[ 10718 10713 10712 10709 ] final  -14.19 input   66.30 | X-H torsion
[ 10763 10752 10751 10750 ] final   26.85 input  -60.55 | X-H torsion
[ 11005 11000 10999 10996 ] final  176.19 input  -57.11 | X-H torsion

> <Gold.Protein.ActiveResidues>
 VAL166  LYS551  ARG553  GLY616  TRP617  ASP618  TYR619  PRO620  LYS621  CYS622 
 ASP623  PHE694  ASN695  SER759  ASP760  ASP761  ALA762  ILE779  LEU786  VAL792 
 PHE793  MET794  SER795  GLU796  ALA797  LYS798  CYS799  TRP800  GLU811  SER814 

> <Gold.Protein.RotatedAtoms>
  150.8701  134.8072  159.7147 H   0  0  0  0  0  0  0  0  0  0  0  0  # atno 6907 bound_to 6896
  152.4708  134.4961  159.9720 H   0  0  0  0  0  0  0  0  0  0  0  0  # atno 6908 bound_to 6896
  151.5051  133.3458  159.2911 H   0  0  0  0  0  0  0  0  0  0  0  0  # atno 6909 bound_to 6896
  144.8395  139.6354  143.6023 H   0  0  0  0  0  0  0  0  0  0  0  0  # atno 7974 bound_to 7965
  156.0127  140.1244  157.0437 H   0  0  0  0  0  0  0  0  0  0  0  0  # atno 8008 bound_to 7997
  154.4282  140.1084  156.5922 H   0  0  0  0  0  0  0  0  0  0  0  0  # atno 8009 bound_to 7997
  155.6057  140.3471  155.4609 H   0  0  0  0  0  0  0  0  0  0  0  0  # atno 8010 bound_to 7997
  140.7286  143.4257  151.0880 H   0  0  0  0  0  0  0  0  0  0  0  0  # atno 10167 bound_to 10162
  156.6195  130.4871  149.6170 H   0  0  0  0  0  0  0  0  0  0  0  0  # atno 10718 bound_to 10713
  153.0595  135.6550  154.0497 H   0  0  0  0  0  0  0  0  0  0  0  0  # atno 10763 bound_to 10752
  154.0168  135.2923  155.3387 H   0  0  0  0  0  0  0  0  0  0  0  0  # atno 10764 bound_to 10752
  154.6926  135.5276  153.8481 H   0  0  0  0  0  0  0  0  0  0  0  0  # atno 10765 bound_to 10752
  140.3704  134.7034  157.4389 H   0  0  0  0  0  0  0  0  0  0  0  0  # atno 11005 bound_to 11000
  146.2690  139.6588  142.9309 LP  0  0  0  0  0  0  0  0  0  0  0  0  # atno 17320 bound_to 7965
  145.4723  141.0436  143.2692 LP  0  0  0  0  0  0  0  0  0  0  0  0  # atno 17321 bound_to 7965
  139.7908  143.8221  152.3151 LP  0  0  0  0  0  0  0  0  0  0  0  0  # atno 17342 bound_to 10162
  139.8204  144.7298  150.9580 LP  0  0  0  0  0  0  0  0  0  0  0  0  # atno 17343 bound_to 10162
  156.2323  130.6802  151.1476 LP  0  0  0  0  0  0  0  0  0  0  0  0  # atno 17370 bound_to 10713
  157.7232  131.0668  150.6048 LP  0  0  0  0  0  0  0  0  0  0  0  0  # atno 17371 bound_to 10713
  140.0556  134.6068  155.8809 LP  0  0  0  0  0  0  0  0  0  0  0  0  # atno 17394 bound_to 11000
  141.1956  133.6588  156.5651 LP  0  0  0  0  0  0  0  0  0  0  0  0  # atno 17395 bound_to 11000

$$$$
