AV-unprocessed.smi:2342|AV-procd|sdf|9355|dock3
  -GOLD-   2272012573D 1   1.00000     0.00000
 Structure written by MMmdl.
 38 38  0  0  0  0  0  0  0  0  2 V2000
  151.9442  140.2507  155.9906 C   0  0  0  0  0  0  0  0  0  0  0  0
  152.6126  139.0866  155.2287 C   0  0  1  0  0  0  0  0  0  0  0  0
  153.3800  138.1179  156.1647 C   0  0  0  0  0  0  0  0  0  0  0  0
  152.9935  138.2830  157.5611 N   0  0  0  0  0  0  0  0  0  0  0  0
  153.8042  138.6853  158.5520 C   0  0  0  0  0  0  0  0  0  0  0  0
  155.0116  138.8779  158.4096 O   0  0  0  0  0  0  0  0  0  0  0  0
  153.1436  138.9273  159.9100 C   0  0  0  0  0  0  0  0  0  0  0  0
  153.0714  140.4021  160.1839 C   0  0  0  0  0  0  0  0  0  0  0  0
  153.6703  141.0791  161.2160 C   0  0  0  0  0  0  0  0  0  0  0  0
  153.3633  142.7906  161.1332 S   0  0  0  0  0  0  0  0  0  0  0  0
  152.4035  142.5286  159.6722 C   0  0  0  0  0  0  0  0  0  0  0  0
  151.7317  143.6160  158.8689 C   0  0  0  0  0  0  0  0  0  0  0  0
  150.7060  144.3552  159.7502 C   0  0  0  0  0  0  0  0  0  0  0  0
  150.9737  143.0315  157.6574 C   0  0  0  0  0  0  0  0  0  0  0  0
  152.7892  144.5968  158.3264 C   0  0  0  0  0  0  0  0  0  0  0  0
  152.3456  141.2372  159.3282 N   0  0  0  0  0  0  0  0  0  0  0  0
  151.5665  138.3516  154.3677 C   0  0  0  0  0  0  0  0  0  0  0  0
  150.7544  139.0317  153.7011 O   0  0  0  0  0  0  0  0  0  0  0  0
  151.5915  137.1010  154.3940 O   0  5  0  0  0  0  0  0  0  0  0  0
  151.3731  140.8999  155.3261 H   0  0  0  0  0  0  0  0  0  0  0  0
  152.6880  140.8807  156.4779 H   0  0  0  0  0  0  0  0  0  0  0  0
  151.2662  139.8830  156.7613 H   0  0  0  0  0  0  0  0  0  0  0  0
  153.3288  139.5177  154.5279 H   0  0  0  0  0  0  0  0  0  0  0  0
  153.1705  137.0834  155.8897 H   0  0  0  0  0  0  0  0  0  0  0  0
  154.4587  138.2533  156.0658 H   0  0  0  0  0  0  0  0  0  0  0  0
  152.0163  138.1506  157.7777 H   0  0  0  0  0  0  0  0  0  0  0  0
  152.1488  138.4797  159.9131 H   0  0  0  0  0  0  0  0  0  0  0  0
  153.7149  138.4185  160.6874 H   0  0  0  0  0  0  0  0  0  0  0  0
  154.2845  140.6768  162.0082 H   0  0  0  0  0  0  0  0  0  0  0  0
  150.1965  145.1428  159.1938 H   0  0  0  0  0  0  0  0  0  0  0  0
  151.1823  144.8232  160.6126 H   0  0  0  0  0  0  0  0  0  0  0  0
  149.9434  143.6732  160.1282 H   0  0  0  0  0  0  0  0  0  0  0  0
  150.1911  142.3380  157.9678 H   0  0  0  0  0  0  0  0  0  0  0  0
  151.6441  142.4974  156.9830 H   0  0  0  0  0  0  0  0  0  0  0  0
  150.4918  143.8178  157.0750 H   0  0  0  0  0  0  0  0  0  0  0  0
  152.3311  145.3845  157.7274 H   0  0  0  0  0  0  0  0  0  0  0  0
  153.5185  144.0854  157.6968 H   0  0  0  0  0  0  0  0  0  0  0  0
  153.3365  145.0822  159.1351 H   0  0  0  0  0  0  0  0  0  0  0  0
  1  2  1  0  0  0  0
  1 20  1  0  0  0  0
  1 21  1  0  0  0  0
  1 22  1  0  0  0  0
  2  3  1  0  0  0  0
  2 17  1  0  0  0  0
  2 23  1  0  0  0  0
  3  4  1  0  0  0  0
  3 24  1  0  0  0  0
  3 25  1  0  0  0  0
  4  5  1  0  0  0  0
  4 26  1  0  0  0  0
  5  6  2  0  0  0  0
  5  7  1  0  0  0  0
  7  8  1  0  0  0  0
  7 27  1  0  0  0  0
  7 28  1  0  0  0  0
  8 16  1  0  0  0  0
  8  9  2  0  0  0  0
  9 10  1  0  0  0  0
  9 29  1  0  0  0  0
 10 11  1  0  0  0  0
 11 12  1  0  0  0  0
 11 16  2  0  0  0  0
 12 13  1  0  0  0  0
 12 14  1  0  0  0  0
 12 15  1  0  0  0  0
 13 30  1  0  0  0  0
 13 31  1  0  0  0  0
 13 32  1  0  0  0  0
 14 33  1  0  0  0  0
 14 34  1  0  0  0  0
 14 35  1  0  0  0  0
 15 36  1  0  0  0  0
 15 37  1  0  0  0  0
 15 38  1  0  0  0  0
 17 18  2  0  0  0  0
 17 19  1  0  0  0  0
M  CHG  1  19  -1
M  END
> <s_m_source_file>
AV-unprocessed.smi

> <i_m_source_file_index>
2342

> <i_lp_mmshare_version>
43012

> <i_f3d_flags>
0

> <s_epik_input>
Tz1DKFtPSF0pW0NASF0oW0NIM10pW0NIMl1bTkhdQyg9TylbQ0gyXWMxW2NIXXNjKG4xKUMoW0NIM10pKFtDSDNdKVtDSDNd

> <s_epik_cmdline>
J2VwaWtfcHl0aG9uJywgJy1waCcsICc3LjAnLCAnLXRuJywgJzgnLCAnLW1hJywgJzIwMCcsICctbWV0YWxfYmluZGluZycsICctaW1hZScsICc8aW5maWxlLm1hZT4nLCAnLW9tYWUnLCAnPG91dGZpbGUubWFlPic=

> <r_epik_Ionization_Penalty>
0.00120065

> <r_epik_Ionization_Penalty_Charging>
0.00115909

> <r_epik_Ionization_Penalty_Neutral>
4.15663e-05

> <r_epik_State_Penalty>
0.00076313

> <r_epik_Charging_Adjusted_Penalty>
0.00192222

> <i_epik_Tot_Q>
-1

> <i_epik_Tot_abs_Q>
1

> <r_epik_Metal_State_Penalty>
-0

> <b_epik_Metal_Only>
0

> <s_lp_Force_Field>
OPLS_2005

> <r_lp_Energy>
-2.08659

> <b_lp_Chiralities_Consistent>
1

> <s_lp_Variant>
AV-unprocessed.smi:2342-2

> <Gold.Version>
5.8.1

> <Gold.Id.Protein>
6NUR|6NUR_protein|mol2

> <Gold.PLP.Fitness>
45.8841

> <Gold.PLP.PLP>
-37.3838

> <Gold.PLP.part.hbond>
-3.0000

> <Gold.PLP.part.metal>
0.0000

> <Gold.PLP.part.buried>
-1.0678

> <Gold.PLP.part.nonpolar>
-33.0781

> <Gold.PLP.part.repulsive>
1.3419

> <Gold.PLP.ligand.clash>
0.8113

> <Gold.PLP.ligand.torsion>
1.0784

> <Gold.PLP.Chemscore.Hbond>
3.7899

> <Gold.PLP.Chemscore.CHOScore>
0.0000

> <Gold.PLP.Chemscore.Metal>
0.0000

> <Gold.Chemscore.Hbonds>
donor molecule, donor type, donor heavy atom, donor atom, acceptor molecule, acceptor atom, score
      P1  H  7989  7998       L1    18  0.94
      P1  H  7997  8009       L1     6  1.00
      P1  H 10752 10765       L1    19  2.00

> <Gold.PLP.Chemscore.Internal.Correction>
0.0987

> <Gold.Rescore>
     Score         DG    S(hbond)    S(metal)    S(lipo)     H(rot)  DE(clash)    DE(int)     intcor
     17.34     -20.87       2.47        0.00     113.09       2.38       2.61       0.92       ----

> <Gold.Chemscore.Fitness>
17.3387

> <Gold.Chemscore.DG>
-20.8706

> <Gold.Chemscore.ZeroCoef>
-5.4800

> <Gold.Chemscore.Hbond>
2.4717

> <Gold.Chemscore.Metal>
0.0000

> <Gold.Chemscore.Lipo>
113.0857

> <Gold.Chemscore.Internal_Hbond>
0.0000

> <Gold.Chemscore.DEClash>
2.6108

> <Gold.Chemscore.DEInternal>
0.9211

> <Gold.Chemscore.Rot>
2.3812

> <Gold.Chemscore.Internal.Correction>
   9.000000E+99

> <Gold.Chemscore.Hbonds>
donor molecule, donor type, donor heavy atom, donor atom, acceptor molecule, acceptor atom, score
      P1  H  7989  7998       L1    18  0.47
      P1  H  7997  8009       L1     6  0.75
      P1  H 10752 10765       L1    19  0.97

> <Gold.Chemscore.Hbond.Weighted>
-8.2555

> <Gold.Chemscore.Metal.Weighted>
-0.0000

> <Gold.Chemscore.Lipo.Weighted>
-13.2310

> <Gold.Chemscore.Internal_Hbond.Weighted>
0.0000

> <Gold.Chemscore.DEClash.Weighted>
2.6108

> <Gold.Chemscore.DEInternal.Weighted>
0.9211

> <Gold.Chemscore.Rot.Weighted>
6.0959

> <Gold.Chemscore.Internal.Correction.Weighted>
   9.000000E+99

> <Gold.Protein.RotatedTorsions>
[ 6907 6896 6895 6894 ] final  -88.18 input  -60.11 | X-H torsion
[ 7974 7965 7964 7962 ] final  125.21 input  175.53 | X-H torsion
[ 8008 7997 7996 7995 ] final  110.96 input   59.86 | X-H torsion
[ 10167 10162 10161 10158 ] final   98.33 input  -65.29 | X-H torsion
[ 10718 10713 10712 10709 ] final -174.81 input   66.30 | X-H torsion
[ 10763 10752 10751 10750 ] final  156.60 input  -60.55 | X-H torsion
[ 11005 11000 10999 10996 ] final  174.15 input  -57.11 | X-H torsion

> <Gold.Protein.ActiveResidues>
 VAL166  LYS551  ARG553  GLY616  TRP617  ASP618  TYR619  PRO620  LYS621  CYS622 
 ASP623  PHE694  ASN695  SER759  ASP760  ASP761  ALA762  ILE779  LEU786  VAL792 
 PHE793  MET794  SER795  GLU796  ALA797  LYS798  CYS799  TRP800  GLU811  SER814 

> <Gold.Protein.RotatedAtoms>
  150.6868  134.2782  159.4615 H   0  0  0  0  0  0  0  0  0  0  0  0  # atno 6907 bound_to 6896
  152.0698  134.9538  160.0584 H   0  0  0  0  0  0  0  0  0  0  0  0  # atno 6908 bound_to 6896
  152.0932  133.4176  159.4590 H   0  0  0  0  0  0  0  0  0  0  0  0  # atno 6909 bound_to 6896
  145.0756  139.3696  143.4935 H   0  0  0  0  0  0  0  0  0  0  0  0  # atno 7974 bound_to 7965
  156.2090  140.3028  155.9691 H   0  0  0  0  0  0  0  0  0  0  0  0  # atno 8008 bound_to 7997
  155.2770  140.0436  157.3029 H   0  0  0  0  0  0  0  0  0  0  0  0  # atno 8009 bound_to 7997
  154.5673  140.2338  155.8252 H   0  0  0  0  0  0  0  0  0  0  0  0  # atno 8010 bound_to 7997
  139.7719  144.6919  151.0144 H   0  0  0  0  0  0  0  0  0  0  0  0  # atno 10167 bound_to 10162
  156.7906  130.9516  151.3120 H   0  0  0  0  0  0  0  0  0  0  0  0  # atno 10718 bound_to 10713
  154.1869  135.2797  155.3034 H   0  0  0  0  0  0  0  0  0  0  0  0  # atno 10763 bound_to 10752
  154.5959  135.5545  153.7329 H   0  0  0  0  0  0  0  0  0  0  0  0  # atno 10764 bound_to 10752
  153.0123  135.6380  154.2007 H   0  0  0  0  0  0  0  0  0  0  0  0  # atno 10765 bound_to 10752
  140.3482  134.7218  157.4249 H   0  0  0  0  0  0  0  0  0  0  0  0  # atno 11005 bound_to 11000
  146.3530  140.0522  142.8635 LP  0  0  0  0  0  0  0  0  0  0  0  0  # atno 17320 bound_to 7965
  145.1240  140.9479  143.4584 LP  0  0  0  0  0  0  0  0  0  0  0  0  # atno 17321 bound_to 7965
  140.7814  143.4579  151.0319 LP  0  0  0  0  0  0  0  0  0  0  0  0  # atno 17342 bound_to 10162
  139.8262  143.7752  152.3178 LP  0  0  0  0  0  0  0  0  0  0  0  0  # atno 17343 bound_to 10162
  157.6602  130.8959  149.9814 LP  0  0  0  0  0  0  0  0  0  0  0  0  # atno 17370 bound_to 10713
  156.1161  130.3648  149.9965 LP  0  0  0  0  0  0  0  0  0  0  0  0  # atno 17371 bound_to 10713
  140.0725  134.5843  155.8626 LP  0  0  0  0  0  0  0  0  0  0  0  0  # atno 17394 bound_to 11000
  141.2020  133.6622  156.5980 LP  0  0  0  0  0  0  0  0  0  0  0  0  # atno 17395 bound_to 11000

$$$$
