AV-unprocessed.smi:3116|AV-procd|sdf|11869|dock4
  -GOLD-   2272017253D 1   1.00000     0.00000
 Structure written by MMmdl.
 34 34  0  0  0  0  0  0  0  0  2 V2000
  146.7969  137.6221  154.6727 C   0  0  0  0  0  0  0  0  0  0  0  0
  147.0788  138.6729  153.5883 C   0  0  1  0  0  0  0  0  0  0  0  0
  148.5209  138.6661  153.2493 N   0  3  0  0  0  0  0  0  0  0  0  0
  149.4551  138.9202  154.3733 C   0  0  1  0  0  0  0  0  0  0  0  0
  150.7266  138.0775  154.1671 C   0  0  0  0  0  0  0  0  0  0  0  0
  149.7051  140.4440  154.5373 C   0  0  1  0  0  0  0  0  0  0  0  0
  148.4436  141.2829  154.2527 C   0  0  0  0  0  0  0  0  0  0  0  0
  150.3110  140.7881  155.8212 N   0  0  0  0  0  0  0  0  0  0  0  0
  150.7157  142.0338  156.2574 C   0  0  0  0  0  0  0  0  0  0  0  0
  151.2515  141.8796  157.5037 C   0  0  0  0  0  0  0  0  0  0  0  0
  151.1363  140.4838  157.7507 C   0  0  0  0  0  0  0  0  0  0  0  0
  150.5825  139.8335  156.7409 N   0  0  0  0  0  0  0  0  0  0  0  0
  146.2084  138.3975  152.3544 C   0  0  0  0  0  0  0  0  0  0  0  0
  146.2375  139.3031  151.3738 N   0  0  0  0  0  0  0  0  0  0  0  0
  145.5073  137.3890  152.2934 O   0  0  0  0  0  0  0  0  0  0  0  0
  145.7448  137.6216  154.9609 H   0  0  0  0  0  0  0  0  0  0  0  0
  147.3792  137.8237  155.5724 H   0  0  0  0  0  0  0  0  0  0  0  0
  147.0493  136.6163  154.3337 H   0  0  0  0  0  0  0  0  0  0  0  0
  146.8252  139.6519  153.9992 H   0  0  0  0  0  0  0  0  0  0  0  0
  148.7463  137.7561  152.8742 H   0  0  0  0  0  0  0  0  0  0  0  0
  148.9899  138.5725  155.2970 H   0  0  0  0  0  0  0  0  0  0  0  0
  151.4482  138.2365  154.9680 H   0  0  0  0  0  0  0  0  0  0  0  0
  151.2189  138.3085  153.2221 H   0  0  0  0  0  0  0  0  0  0  0  0
  150.4878  137.0136  154.1550 H   0  0  0  0  0  0  0  0  0  0  0  0
  150.4257  140.7389  153.7737 H   0  0  0  0  0  0  0  0  0  0  0  0
  148.0604  141.0842  153.2515 H   0  0  0  0  0  0  0  0  0  0  0  0
  148.6640  142.3494  154.3105 H   0  0  0  0  0  0  0  0  0  0  0  0
  147.6398  141.0741  154.9586 H   0  0  0  0  0  0  0  0  0  0  0  0
  150.5886  142.9191  155.6516 H   0  0  0  0  0  0  0  0  0  0  0  0
  151.6633  142.6471  158.1424 H   0  0  0  0  0  0  0  0  0  0  0  0
  151.4395  139.9271  158.6254 H   0  0  0  0  0  0  0  0  0  0  0  0
  145.6881  139.1665  150.5376 H   0  0  0  0  0  0  0  0  0  0  0  0
  146.8177  140.1245  151.4695 H   0  0  0  0  0  0  0  0  0  0  0  0
  148.6808  139.3547  152.5277 H   0  0  0  0  0  0  0  0  0  0  0  0
  1  2  1  0  0  0  0
  1 16  1  0  0  0  0
  1 17  1  0  0  0  0
  1 18  1  0  0  0  0
  2  3  1  0  0  0  0
  2 13  1  0  0  0  0
  2 19  1  0  0  0  0
  3  4  1  0  0  0  0
  3 20  1  0  0  0  0
  3 34  1  0  0  0  0
  4  5  1  0  0  0  0
  4  6  1  0  0  0  0
  4 21  1  0  0  0  0
  5 22  1  0  0  0  0
  5 23  1  0  0  0  0
  5 24  1  0  0  0  0
  6  7  1  0  0  0  0
  6  8  1  0  0  0  0
  6 25  1  0  0  0  0
  7 26  1  0  0  0  0
  7 27  1  0  0  0  0
  7 28  1  0  0  0  0
  8 12  1  0  0  0  0
  8  9  1  0  0  0  0
  9 10  2  0  0  0  0
  9 29  1  0  0  0  0
 10 11  1  0  0  0  0
 10 30  1  0  0  0  0
 11 12  2  0  0  0  0
 11 31  1  0  0  0  0
 13 14  1  0  0  0  0
 13 15  2  0  0  0  0
 14 32  1  0  0  0  0
 14 33  1  0  0  0  0
M  CHG  1   3   1
M  END
> <s_m_source_file>
AV-unprocessed.smi

> <i_m_source_file_index>
3116

> <i_lp_mmshare_version>
43012

> <i_f3d_flags>
0

> <s_epik_input>
W05IMl1DKD1PKVtDQEhdKFtDSDNdKVtOSF1bQ0BIXShbQ0gzXSlbQ0BIXShbQ0gzXSluMVtjSF1bY0hdW2NIXW4x

> <s_epik_cmdline>
J2VwaWtfcHl0aG9uJywgJy1waCcsICc3LjAnLCAnLXRuJywgJzgnLCAnLW1hJywgJzIwMCcsICctbWV0YWxfYmluZGluZycsICctaW1hZScsICc8aW5maWxlLm1hZT4nLCAnLW9tYWUnLCAnPG91dGZpbGUubWFlPic=

> <r_lp_tautomer_probability>
1

> <r_epik_Ionization_Penalty>
0.15658

> <r_epik_Ionization_Penalty_Charging>
0.156568

> <r_epik_Ionization_Penalty_Neutral>
1.19778e-05

> <r_epik_State_Penalty>
0.145866

> <r_epik_Charging_Adjusted_Penalty>
0.302434

> <i_epik_Tot_Q>
1

> <i_epik_Tot_abs_Q>
1

> <r_epik_Metal_State_Penalty>
0.146064

> <b_epik_Metal_Only>
0

> <s_lp_Force_Field>
OPLS_2005

> <r_lp_Energy>
10.8176

> <b_lp_Chiralities_Consistent>
1

> <s_lp_Variant>
AV-unprocessed.smi:3116-8

> <Gold.Version>
5.8.1

> <Gold.Id.Protein>
6NUR|6NUR_protein|mol2

> <Gold.PLP.Fitness>
43.4793

> <Gold.PLP.PLP>
-30.0568

> <Gold.PLP.part.hbond>
-3.9930

> <Gold.PLP.part.metal>
0.0000

> <Gold.PLP.part.buried>
-4.4918

> <Gold.PLP.part.nonpolar>
-23.2077

> <Gold.PLP.part.repulsive>
0.3711

> <Gold.PLP.ligand.clash>
0.0000

> <Gold.PLP.ligand.torsion>
0.8254

> <Gold.PLP.Chemscore.Hbond>
3.9600

> <Gold.PLP.Chemscore.CHOScore>
1.0000

> <Gold.PLP.Chemscore.Metal>
0.0000

> <Gold.Chemscore.Hbonds>
donor molecule, donor type, donor heavy atom, donor atom, acceptor molecule, acceptor atom, score
      L1  H     3    20       P1  7948  2.00
      L1  H     3    34       P1  7957  1.00
      L1  H    14    32       P1 10171  0.91
      L1  C     9    29       P1  8028  1.00

> <Gold.PLP.Chemscore.Internal.Correction>
0.1932

> <Gold.Rescore>
     Score         DG    S(hbond)    S(metal)    S(lipo)     H(rot)  DE(clash)    DE(int)     intcor
     14.31     -15.32       2.88        0.00      55.36       2.45       0.00       1.01       ----

> <Gold.Chemscore.Fitness>
14.3128

> <Gold.Chemscore.DG>
-15.3234

> <Gold.Chemscore.ZeroCoef>
-5.4800

> <Gold.Chemscore.Hbond>
2.8832

> <Gold.Chemscore.Metal>
0.0000

> <Gold.Chemscore.Lipo>
55.3566

> <Gold.Chemscore.Internal_Hbond>
0.0000

> <Gold.Chemscore.DEClash>
0.0048

> <Gold.Chemscore.DEInternal>
1.0058

> <Gold.Chemscore.Rot>
2.4465

> <Gold.Chemscore.Internal.Correction>
   9.000000E+99

> <Gold.Chemscore.Hbonds>
donor molecule, donor type, donor heavy atom, donor atom, acceptor molecule, acceptor atom, score
      L1  H     3    20       P1  7948  1.00
      L1  H     3    34       P1  7957  0.97
      L1  H    14    32       P1 10171  0.85

> <Gold.Chemscore.Hbond.Weighted>
-9.6298

> <Gold.Chemscore.Metal.Weighted>
-0.0000

> <Gold.Chemscore.Lipo.Weighted>
-6.4767

> <Gold.Chemscore.Internal_Hbond.Weighted>
0.0000

> <Gold.Chemscore.DEClash.Weighted>
0.0048

> <Gold.Chemscore.DEInternal.Weighted>
1.0058

> <Gold.Chemscore.Rot.Weighted>
6.2631

> <Gold.Chemscore.Internal.Correction.Weighted>
   9.000000E+99

> <Gold.Protein.RotatedTorsions>
[ 6907 6896 6895 6894 ] final  135.54 input  -60.11 | X-H torsion
[ 7974 7965 7964 7962 ] final -137.82 input  175.53 | X-H torsion
[ 8008 7997 7996 7995 ] final -152.87 input   59.86 | X-H torsion
[ 10167 10162 10161 10158 ] final   34.36 input  -65.29 | X-H torsion
[ 10718 10713 10712 10709 ] final  -66.23 input   66.30 | X-H torsion
[ 10763 10752 10751 10750 ] final  110.50 input  -60.55 | X-H torsion
[ 11005 11000 10999 10996 ] final   25.05 input  -57.11 | X-H torsion

> <Gold.Protein.ActiveResidues>
 VAL166  LYS551  ARG553  GLY616  TRP617  ASP618  TYR619  PRO620  LYS621  CYS622 
 ASP623  PHE694  ASN695  SER759  ASP760  ASP761  ALA762  ILE779  LEU786  VAL792 
 PHE793  MET794  SER795  GLU796  ALA797  LYS798  CYS799  TRP800  GLU811  SER814 

> <Gold.Protein.RotatedAtoms>
  152.2993  133.5639  159.5607 H   0  0  0  0  0  0  0  0  0  0  0  0  # atno 6907 bound_to 6896
  150.7270  134.0315  159.3744 H   0  0  0  0  0  0  0  0  0  0  0  0  # atno 6908 bound_to 6896
  151.8216  135.0650  160.0476 H   0  0  0  0  0  0  0  0  0  0  0  0  # atno 6909 bound_to 6896
  144.8809  140.6506  143.5206 H   0  0  0  0  0  0  0  0  0  0  0  0  # atno 7974 bound_to 7965
  155.6620  140.0723  157.2550 H   0  0  0  0  0  0  0  0  0  0  0  0  # atno 8008 bound_to 7997
  154.4140  140.1714  156.1837 H   0  0  0  0  0  0  0  0  0  0  0  0  # atno 8009 bound_to 7997
  155.9689  140.3363  155.6561 H   0  0  0  0  0  0  0  0  0  0  0  0  # atno 8010 bound_to 7997
  140.4322  144.1308  150.6161 H   0  0  0  0  0  0  0  0  0  0  0  0  # atno 10167 bound_to 10162
  156.0624  130.4259  150.1678 H   0  0  0  0  0  0  0  0  0  0  0  0  # atno 10718 bound_to 10713
  153.4499  135.3746  155.2278 H   0  0  0  0  0  0  0  0  0  0  0  0  # atno 10763 bound_to 10752
  154.8756  135.3883  154.4051 H   0  0  0  0  0  0  0  0  0  0  0  0  # atno 10764 bound_to 10752
  153.4609  135.7086  153.6115 H   0  0  0  0  0  0  0  0  0  0  0  0  # atno 10765 bound_to 10752
  140.3521  134.2218  155.7679 H   0  0  0  0  0  0  0  0  0  0  0  0  # atno 11005 bound_to 11000
  145.3955  139.1608  143.4205 LP  0  0  0  0  0  0  0  0  0  0  0  0  # atno 17320 bound_to 7965
  146.2994  140.4048  142.8709 LP  0  0  0  0  0  0  0  0  0  0  0  0  # atno 17321 bound_to 7965
  140.4414  143.2525  151.9468 LP  0  0  0  0  0  0  0  0  0  0  0  0  # atno 17342 bound_to 10162
  139.4785  144.5651  151.8178 LP  0  0  0  0  0  0  0  0  0  0  0  0  # atno 17343 bound_to 10162
  156.9744  130.9845  151.3451 LP  0  0  0  0  0  0  0  0  0  0  0  0  # atno 17370 bound_to 10713
  157.5642  130.8266  149.8306 LP  0  0  0  0  0  0  0  0  0  0  0  0  # atno 17371 bound_to 10713
  141.2009  133.7976  157.0466 LP  0  0  0  0  0  0  0  0  0  0  0  0  # atno 17394 bound_to 11000
  140.0695  134.9710  157.1443 LP  0  0  0  0  0  0  0  0  0  0  0  0  # atno 17395 bound_to 11000

$$$$
