AV-unprocessed.smi:2573|AV-procd|sdf|10112|dock4
  -GOLD-   2272014133D 1   1.00000     0.00000
 Structure written by MMmdl.
 38 39  0  0  0  0  0  0  0  0  1 V2000
  153.5156  137.3964  160.8133 C   0  0  0  0  0  0  0  0  0  0  0  0
  153.0938  138.4871  159.8192 C   0  0  0  0  0  0  0  0  0  0  0  0
  153.5382  139.9053  160.2218 C   0  0  0  0  0  0  0  0  0  0  0  0
  152.8479  140.9446  159.4587 N   0  0  0  0  0  0  0  0  0  0  0  0
  152.4309  140.8660  158.1726 C   0  0  0  0  0  0  0  0  0  0  0  0
  152.5597  139.8945  157.4279 O   0  0  0  0  0  0  0  0  0  0  0  0
  151.8408  142.0404  157.8488 N   0  0  0  0  0  0  0  0  0  0  0  0
  151.2341  142.3830  156.5635 C   0  0  0  0  0  0  0  0  0  0  0  0
  150.4204  141.2052  155.9888 C   0  0  2  0  0  0  0  0  0  0  0  0
  151.3131  140.3546  155.2963 O   0  0  0  0  0  0  0  0  0  0  0  0
  149.3404  141.6836  154.9957 C   0  0  0  0  0  0  0  0  0  0  0  0
  148.3866  140.5805  154.5004 C   0  0  0  0  0  0  0  0  0  0  0  0
  147.6108  140.1933  155.5125 F   0  0  0  0  0  0  0  0  0  0  0  0
  147.6039  141.0208  153.5156 F   0  0  0  0  0  0  0  0  0  0  0  0
  149.0807  139.5262  154.0721 F   0  0  0  0  0  0  0  0  0  0  0  0
  151.8679  142.8907  158.9641 C   0  0  0  0  0  0  0  0  0  0  0  0
  151.3775  144.1956  159.1467 C   0  0  0  0  0  0  0  0  0  0  0  0
  151.5682  144.7859  160.4182 C   0  0  0  0  0  0  0  0  0  0  0  0
  152.2274  144.0783  161.4570 C   0  0  0  0  0  0  0  0  0  0  0  0
  152.7081  142.7647  161.2470 C   0  0  0  0  0  0  0  0  0  0  0  0
  152.5050  142.2020  159.9751 C   0  0  0  0  0  0  0  0  0  0  0  0
  153.2392  136.4088  160.4439 H   0  0  0  0  0  0  0  0  0  0  0  0
  153.0338  137.5302  161.7818 H   0  0  0  0  0  0  0  0  0  0  0  0
  154.5945  137.4036  160.9701 H   0  0  0  0  0  0  0  0  0  0  0  0
  153.5184  138.2531  158.8427 H   0  0  0  0  0  0  0  0  0  0  0  0
  152.0114  138.4596  159.6903 H   0  0  0  0  0  0  0  0  0  0  0  0
  153.3798  140.0539  161.2911 H   0  0  0  0  0  0  0  0  0  0  0  0
  154.6121  140.0112  160.0642 H   0  0  0  0  0  0  0  0  0  0  0  0
  150.5826  143.2416  156.7292 H   0  0  0  0  0  0  0  0  0  0  0  0
  151.9889  142.7258  155.8532 H   0  0  0  0  0  0  0  0  0  0  0  0
  149.9451  140.6494  156.7981 H   0  0  0  0  0  0  0  0  0  0  0  0
  151.5251  139.6207  155.8531 H   0  0  0  0  0  0  0  0  0  0  0  0
  148.7336  142.4491  155.4809 H   0  0  0  0  0  0  0  0  0  0  0  0
  149.8125  142.1740  154.1430 H   0  0  0  0  0  0  0  0  0  0  0  0
  150.8747  144.7291  158.3538 H   0  0  0  0  0  0  0  0  0  0  0  0
  151.2073  145.7873  160.6008 H   0  0  0  0  0  0  0  0  0  0  0  0
  152.3631  144.5475  162.4204 H   0  0  0  0  0  0  0  0  0  0  0  0
  153.2090  142.2202  162.0336 H   0  0  0  0  0  0  0  0  0  0  0  0
  1  2  1  0  0  0  0
  1 22  1  0  0  0  0
  1 23  1  0  0  0  0
  1 24  1  0  0  0  0
  2  3  1  0  0  0  0
  2 25  1  0  0  0  0
  2 26  1  0  0  0  0
  3  4  1  0  0  0  0
  3 27  1  0  0  0  0
  3 28  1  0  0  0  0
  4 21  1  0  0  0  0
  4  5  1  0  0  0  0
  5  6  2  0  0  0  0
  5  7  1  0  0  0  0
  7  8  1  0  0  0  0
  7 16  1  0  0  0  0
  8  9  1  0  0  0  0
  8 29  1  0  0  0  0
  8 30  1  0  0  0  0
  9 10  1  0  0  0  0
  9 11  1  0  0  0  0
  9 31  1  0  0  0  0
 10 32  1  0  0  0  0
 11 12  1  0  0  0  0
 11 33  1  0  0  0  0
 11 34  1  0  0  0  0
 12 13  1  0  0  0  0
 12 14  1  0  0  0  0
 12 15  1  0  0  0  0
 16 21  2  0  0  0  0
 16 17  1  0  0  0  0
 17 18  2  0  0  0  0
 17 35  1  0  0  0  0
 18 19  1  0  0  0  0
 18 36  1  0  0  0  0
 19 20  2  0  0  0  0
 19 37  1  0  0  0  0
 20 21  1  0  0  0  0
 20 38  1  0  0  0  0
M  END
> <s_m_source_file>
AV-unprocessed.smi

> <i_m_source_file_index>
2573

> <i_lp_mmshare_version>
43012

> <i_f3d_flags>
0

> <s_epik_input>
W2NIXTFbY0hdW2NIXVtjSF1jKGMxMiluKFtDSDJdW0NIMl1bQ0gzXSljKD1PKW4yW0NIMl1bQ0BIXShbT0hdKVtDSDJdQyhGKShGKUY=

> <s_epik_cmdline>
J2VwaWtfcHl0aG9uJywgJy1waCcsICc3LjAnLCAnLXRuJywgJzgnLCAnLW1hJywgJzIwMCcsICctbWV0YWxfYmluZGluZycsICctaW1hZScsICc8aW5maWxlLm1hZT4nLCAnLW9tYWUnLCAnPG91dGZpbGUubWFlPic=

> <r_lp_tautomer_probability>
1

> <r_epik_Ionization_Penalty>
2.4024e-06

> <r_epik_Ionization_Penalty_Charging>
3.10219e-09

> <r_epik_Ionization_Penalty_Neutral>
2.3993e-06

> <r_epik_State_Penalty>
-0

> <r_epik_Charging_Adjusted_Penalty>
3.10219e-09

> <i_epik_Tot_Q>
0

> <i_epik_Tot_abs_Q>
0

> <r_epik_Metal_State_Penalty>
-0

> <b_epik_Metal_Only>
0

> <s_lp_Force_Field>
OPLS_2005

> <r_lp_Energy>
43.3878

> <b_lp_Chiralities_Consistent>
1

> <s_lp_Variant>
AV-unprocessed.smi:2573-1

> <Gold.Version>
5.8.1

> <Gold.Id.Protein>
6NUR|6NUR_protein|mol2

> <Gold.PLP.Fitness>
52.4763

> <Gold.PLP.PLP>
-48.4668

> <Gold.PLP.part.hbond>
-2.0000

> <Gold.PLP.part.metal>
0.0000

> <Gold.PLP.part.buried>
-4.4417

> <Gold.PLP.part.nonpolar>
-41.7358

> <Gold.PLP.part.repulsive>
0.0000

> <Gold.PLP.ligand.clash>
0.0000

> <Gold.PLP.ligand.torsion>
1.0093

> <Gold.PLP.Chemscore.Hbond>
1.9760

> <Gold.PLP.Chemscore.CHOScore>
0.0000

> <Gold.PLP.Chemscore.Metal>
0.0000

> <Gold.Chemscore.Hbonds>
donor molecule, donor type, donor heavy atom, donor atom, acceptor molecule, acceptor atom, score
      P1  H  7989  7998       L1    10  0.98
      P1  H  7997  8010       L1     6  1.00

> <Gold.PLP.Chemscore.Internal.Correction>
0.1001

> <Gold.Rescore>
     Score         DG    S(hbond)    S(metal)    S(lipo)     H(rot)  DE(clash)    DE(int)     intcor
     13.05     -18.22       1.80        0.00     111.72       2.48       0.01       5.15       ----

> <Gold.Chemscore.Fitness>
13.0522

> <Gold.Chemscore.DG>
-18.2152

> <Gold.Chemscore.ZeroCoef>
-5.4800

> <Gold.Chemscore.Hbond>
1.8010

> <Gold.Chemscore.Metal>
0.0000

> <Gold.Chemscore.Lipo>
111.7229

> <Gold.Chemscore.Internal_Hbond>
0.0000

> <Gold.Chemscore.DEClash>
0.0114

> <Gold.Chemscore.DEInternal>
5.1516

> <Gold.Chemscore.Rot>
2.4812

> <Gold.Chemscore.Internal.Correction>
   9.000000E+99

> <Gold.Chemscore.Hbonds>
donor molecule, donor type, donor heavy atom, donor atom, acceptor molecule, acceptor atom, score
      P1  H  7989  7998       L1    10  0.82
      P1  H  7997  8010       L1     6  0.43

> <Gold.Chemscore.Hbond.Weighted>
-6.0155

> <Gold.Chemscore.Metal.Weighted>
-0.0000

> <Gold.Chemscore.Lipo.Weighted>
-13.0716

> <Gold.Chemscore.Internal_Hbond.Weighted>
0.0000

> <Gold.Chemscore.DEClash.Weighted>
0.0114

> <Gold.Chemscore.DEInternal.Weighted>
5.1516

> <Gold.Chemscore.Rot.Weighted>
6.3518

> <Gold.Chemscore.Internal.Correction.Weighted>
   9.000000E+99

> <Gold.Protein.RotatedTorsions>
[ 6907 6896 6895 6894 ] final -133.00 input  -60.11 | X-H torsion
[ 7974 7965 7964 7962 ] final   63.41 input  175.53 | X-H torsion
[ 8008 7997 7996 7995 ] final   57.81 input   59.86 | X-H torsion
[ 10167 10162 10161 10158 ] final  -67.31 input  -65.29 | X-H torsion
[ 10718 10713 10712 10709 ] final  -77.66 input   66.30 | X-H torsion
[ 10763 10752 10751 10750 ] final -134.32 input  -60.55 | X-H torsion
[ 11005 11000 10999 10996 ] final  -79.27 input  -57.11 | X-H torsion

> <Gold.Protein.ActiveResidues>
 VAL166  LYS551  ARG553  GLY616  TRP617  ASP618  TYR619  PRO620  LYS621  CYS622 
 ASP623  PHE694  ASN695  SER759  ASP760  ASP761  ALA762  ILE779  LEU786  VAL792 
 PHE793  MET794  SER795  GLU796  ALA797  LYS798  CYS799  TRP800  GLU811  SER814 

> <Gold.Protein.RotatedAtoms>
  150.9689  133.6365  159.2741 H   0  0  0  0  0  0  0  0  0  0  0  0  # atno 6907 bound_to 6896
  151.3661  135.0912  159.9460 H   0  0  0  0  0  0  0  0  0  0  0  0  # atno 6908 bound_to 6896
  152.5175  133.9253  159.7608 H   0  0  0  0  0  0  0  0  0  0  0  0  # atno 6909 bound_to 6896
  145.8621  139.3322  143.0813 H   0  0  0  0  0  0  0  0  0  0  0  0  # atno 7974 bound_to 7965
  155.5398  140.3484  155.4444 H   0  0  0  0  0  0  0  0  0  0  0  0  # atno 8008 bound_to 7997
  156.0659  140.1351  156.9912 H   0  0  0  0  0  0  0  0  0  0  0  0  # atno 8009 bound_to 7997
  154.4503  140.0975  156.6571 H   0  0  0  0  0  0  0  0  0  0  0  0  # atno 8010 bound_to 7997
  140.5592  143.2312  151.6761 H   0  0  0  0  0  0  0  0  0  0  0  0  # atno 10167 bound_to 10162
  156.0139  130.4497  150.3379 H   0  0  0  0  0  0  0  0  0  0  0  0  # atno 10718 bound_to 10713
  154.8721  135.3738  154.4717 H   0  0  0  0  0  0  0  0  0  0  0  0  # atno 10763 bound_to 10752
  153.5377  135.7027  153.5657 H   0  0  0  0  0  0  0  0  0  0  0  0  # atno 10764 bound_to 10752
  153.3833  135.3991  155.1837 H   0  0  0  0  0  0  0  0  0  0  0  0  # atno 10765 bound_to 10752
  141.1667  133.7099  156.8098 H   0  0  0  0  0  0  0  0  0  0  0  0  # atno 11005 bound_to 11000
  145.9236  140.9098  143.0392 LP  0  0  0  0  0  0  0  0  0  0  0  0  # atno 17320 bound_to 7965
  144.6726  140.1322  143.7443 LP  0  0  0  0  0  0  0  0  0  0  0  0  # atno 17321 bound_to 7965
  139.5062  144.3690  152.0489 LP  0  0  0  0  0  0  0  0  0  0  0  0  # atno 17342 bound_to 10162
  140.2814  144.3855  150.6117 LP  0  0  0  0  0  0  0  0  0  0  0  0  # atno 17343 bound_to 10162
  157.1475  131.0312  151.2900 LP  0  0  0  0  0  0  0  0  0  0  0  0  # atno 17370 bound_to 10713
  157.4420  130.7549  149.7077 LP  0  0  0  0  0  0  0  0  0  0  0  0  # atno 17371 bound_to 10713
  140.2196  134.8767  157.3363 LP  0  0  0  0  0  0  0  0  0  0  0  0  # atno 17394 bound_to 11000
  140.2002  134.4264  155.7667 LP  0  0  0  0  0  0  0  0  0  0  0  0  # atno 17395 bound_to 11000

$$$$
