#       Name:                AV-unprocessed.smi:1953
#       Creating user name   scv26
#       Creation time:       Fri Mar 27 10:05:01 2020


#       File generated by GOLD software.
#

@<TRIPOS>MOLECULE
AV-unprocessed.smi:1953
    50    52     1
SMALL
NO_CHARGES


@<TRIPOS>ATOM
      1 ****        -4.4929  -4.8196  -1.9435 N.1            1 S1                 0.0000
      2 ****        -3.9230  -3.8131  -1.9002 C.1            1 S1                 0.0000
      3 ****        -3.2486  -2.5584  -1.8493 C.2            1 S1                 0.0000
      4 ****        -3.9191  -1.3888  -1.8947 C.2            1 S1                 0.0000
      5 ****        -3.2838  -0.1678  -1.8318 N.am           1 S1                 0.0000
      6 ****        -3.9984   1.0626  -2.0238 C.3            1 S1                 0.0000
      7 ****        -3.9296   2.1534  -0.9725 C.3            1 S1                 0.0000
      8 ****        -5.2001   1.3603  -1.1534 C.3            1 S1                 0.0000
      9 ****        -1.8741  -0.1018  -1.8000 C.2            1 S1                 0.0000
     10 ****        -1.2855   0.9823  -1.8228 O.2            1 S1                 0.0000
     11 ****        -1.1542  -1.3202  -1.7425 N.am           1 S1                 0.0000
     12 ****         0.3205  -1.2590  -1.6439 C.3            1 S1                 0.0000
     13 ****         0.8163  -1.0767  -0.2019 C.2            1 S1                 0.0000
     14 ****         0.1558  -1.4963   0.7496 O.2            1 S1                 0.0000
     15 ****         1.9953  -0.4525  -0.0600 N.am           1 S1                 0.0000
     16 ****         2.6464  -0.1556   1.2123 C.3            1 S1                 0.0000
     17 ****         2.0049   1.0815   1.8767 C.3            1 S1                 0.0000
     18 ****         2.7314   1.4635   3.1763 C.3            1 S1                 0.0000
     19 ****         4.2315   1.6874   2.9316 C.3            1 S1                 0.0000
     20 ****         4.8753   0.4540   2.2795 C.3            1 S1                 0.0000
     21 ****         4.1524   0.0698   0.9784 C.3            1 S1                 0.0000
     22 ****        -1.7911  -2.5876  -1.7489 C.2            1 S1                 0.0000
     23 ****        -1.1366  -3.6288  -1.6738 O.2            1 S1                 0.0000
     24 ****        -4.9966  -1.4071  -1.9738 H              1 S1                 0.0000
     25 ****        -4.0657   1.4037  -3.0554 H              1 S1                 0.0000
     26 ****        -3.3507   1.9637  -0.0704 H              1 S1                 0.0000
     27 ****        -3.9252   3.1844  -1.3199 H              1 S1                 0.0000
     28 ****        -6.0439   1.8638  -1.6203 H              1 S1                 0.0000
     29 ****        -5.4575   0.6484  -0.3716 H              1 S1                 0.0000
     30 ****         0.7907  -2.1543  -2.0526 H              1 S1                 0.0000
     31 ****         0.7095  -0.4504  -2.2656 H              1 S1                 0.0000
     32 ****         2.4721  -0.1473  -0.8961 H              1 S1                 0.0000
     33 ****         2.5304  -1.0142   1.8768 H              1 S1                 0.0000
     34 ****         2.0305   1.9263   1.1868 H              1 S1                 0.0000
     35 ****         0.9527   0.8928   2.0926 H              1 S1                 0.0000
     36 ****         2.2848   2.3632   3.6003 H              1 S1                 0.0000
     37 ****         2.5954   0.6730   3.9155 H              1 S1                 0.0000
     38 ****         4.3718   2.5569   2.2881 H              1 S1                 0.0000
     39 ****         4.7322   1.9151   3.8730 H              1 S1                 0.0000
     40 ****         5.9285   0.6487   2.0754 H              1 S1                 0.0000
     41 ****         4.8450  -0.3852   2.9757 H              1 S1                 0.0000
     42 ****         4.6047  -0.8303   0.5601 H              1 S1                 0.0000
     43 ****         4.2976   0.8600   0.2402 H              1 S1                 0.0000
     44 ****        -4.9853  -5.6892  -1.9809 LP             1 S1                 0.0000
     45 ****        -1.8078   1.8340  -1.8645 LP             1 S1                 0.0000
     46 ****        -0.2861   1.0092  -1.7996 LP             1 S1                 0.0000
     47 ****        -0.7142  -1.9619   0.5877 LP             1 S1                 0.0000
     48 ****         0.4897  -1.3713   1.6839 LP             1 S1                 0.0000
     49 ****        -1.6023  -4.5137  -1.6798 LP             1 S1                 0.0000
     50 ****        -0.1396  -3.5890  -1.6069 LP             1 S1                 0.0000
@<TRIPOS>BOND
    1    1    2 3     
    2    2    3 1     
    3    3   22 1     
    4    3    4 2     
    5    4    5 1     
    6    4   24 1     
    7    5    6 1     
    8    5    9 am    
    9    6    8 1     
   10    6    7 1     
   11    6   25 1     
   12    7    8 1     
   13    7   26 1     
   14    7   27 1     
   15    8   28 1     
   16    8   29 1     
   17    9   10 2     
   18    9   11 am    
   19   11   12 1     
   20   11   22 am    
   21   12   13 1     
   22   12   30 1     
   23   12   31 1     
   24   13   14 2     
   25   13   15 am    
   26   15   16 1     
   27   15   32 1     
   28   16   21 1     
   29   16   17 1     
   30   16   33 1     
   31   17   18 1     
   32   17   34 1     
   33   17   35 1     
   34   18   19 1     
   35   18   36 1     
   36   18   37 1     
   37   19   20 1     
   38   19   38 1     
   39   19   39 1     
   40   20   21 1     
   41   20   40 1     
   42   20   41 1     
   43   21   42 1     
   44   21   43 1     
   45   22   23 2     
   46    1   44 1     
   47   10   45 1     
   48   10   46 1     
   49   14   47 1     
   50   14   48 1     
   51   23   49 1     
   52   23   50 1     
@<TRIPOS>SUBSTRUCTURE
      1 S1             1
@<TRIPOS>SET
LONE_PAIRS      STATIC     ATOMS    <user>   **** ""
7 44 45 46 47 48 49 50
DONOR_HYDROGENS      STATIC     ATOMS    <user>   **** ""
1 32
ATOM$BLUE        STATIC     ATOMS    COLORGROUP SYSTEM
7 44 45 46 47 48 49 50
ATOM$RED        STATIC     ATOMS    COLORGROUP SYSTEM
1 32
