AV-unprocessed.smi:1417|AV-procd|sdf|5769|dock4
  -GOLD-   22720 5413D 1   1.00000     0.00000
 Structure written by MMmdl.
 39 40  0  0  0  0  0  0  0  0  3 V2000
  152.7425  141.5424  159.1772 C   0  0  0  0  0  0  0  0  0  0  0  0
  152.0806  141.1554  157.8990 C   0  0  0  0  0  0  0  0  0  0  0  0
  151.0588  141.7077  157.1801 C   0  0  0  0  0  0  0  0  0  0  0  0
  150.9286  140.8278  156.0713 C   0  0  0  0  0  0  0  0  0  0  0  0
  150.0512  140.9556  155.0641 N   0  5  0  0  0  0  0  0  0  0  0  0
  148.9112  140.2278  155.0587 C   0  0  0  0  0  0  0  0  0  0  0  0
  148.2652  139.8714  156.0469 O   0  0  0  0  0  0  0  0  0  0  0  0
  148.4937  139.8919  153.8297 N   0  0  0  0  0  0  0  0  0  0  0  0
  147.3022  139.1100  153.5150 C   0  0  2  0  0  0  0  0  0  0  0  0
  147.3459  137.7434  154.2216 C   0  0  0  0  0  0  0  0  0  0  0  0
  146.1466  136.8724  153.8168 C   0  0  0  0  0  0  0  0  0  0  0  0
  146.0827  136.7004  152.3407 N   0  3  1  0  0  0  0  0  0  0  0  0
  145.0164  135.7603  151.9109 C   0  0  0  0  0  0  0  0  0  0  0  0
  145.2344  135.2198  150.4941 C   0  0  0  0  0  0  0  0  0  0  0  0
  145.1227  136.0937  149.4914 N   0  0  0  0  0  0  0  0  0  0  0  0
  145.5148  134.0374  150.3053 O   0  0  0  0  0  0  0  0  0  0  0  0
  146.0017  138.0077  151.6408 C   0  0  0  0  0  0  0  0  0  0  0  0
  147.2007  138.9014  151.9962 C   0  0  0  0  0  0  0  0  0  0  0  0
  151.8061  139.8387  156.1047 N   0  0  0  0  0  0  0  0  0  0  0  0
  152.5445  140.0378  157.2775 O   0  0  0  0  0  0  0  0  0  0  0  0
  153.1211  142.5629  159.1217 H   0  0  0  0  0  0  0  0  0  0  0  0
  153.5807  140.8827  159.4022 H   0  0  0  0  0  0  0  0  0  0  0  0
  152.0375  141.4877  160.0068 H   0  0  0  0  0  0  0  0  0  0  0  0
  150.4914  142.5967  157.4119 H   0  0  0  0  0  0  0  0  0  0  0  0
  149.0549  140.2061  153.0515 H   0  0  0  0  0  0  0  0  0  0  0  0
  146.4158  139.6565  153.8436 H   0  0  0  0  0  0  0  0  0  0  0  0
  148.2723  137.2247  153.9704 H   0  0  0  0  0  0  0  0  0  0  0  0
  147.3514  137.8781  155.3040 H   0  0  0  0  0  0  0  0  0  0  0  0
  146.2315  135.9015  154.3055 H   0  0  0  0  0  0  0  0  0  0  0  0
  145.2195  137.3241  154.1731 H   0  0  0  0  0  0  0  0  0  0  0  0
  144.9284  134.9414  152.6270 H   0  0  0  0  0  0  0  0  0  0  0  0
  144.0542  136.2741  151.9032 H   0  0  0  0  0  0  0  0  0  0  0  0
  145.2547  135.7920  148.5367 H   0  0  0  0  0  0  0  0  0  0  0  0
  144.9036  137.0596  149.6912 H   0  0  0  0  0  0  0  0  0  0  0  0
  145.9842  137.8480  150.5620 H   0  0  0  0  0  0  0  0  0  0  0  0
  145.0676  138.5067  151.9043 H   0  0  0  0  0  0  0  0  0  0  0  0
  147.1060  139.8638  151.4916 H   0  0  0  0  0  0  0  0  0  0  0  0
  148.1176  138.4441  151.6206 H   0  0  0  0  0  0  0  0  0  0  0  0
  146.9570  136.2812  152.0565 H   0  0  0  0  0  0  0  0  0  0  0  0
  1  2  1  0  0  0  0
  1 21  1  0  0  0  0
  1 22  1  0  0  0  0
  1 23  1  0  0  0  0
  2 20  1  0  0  0  0
  2  3  2  0  0  0  0
  3  4  1  0  0  0  0
  3 24  1  0  0  0  0
  4  5  1  0  0  0  0
  4 19  2  0  0  0  0
  5  6  1  0  0  0  0
  6  7  2  0  0  0  0
  6  8  1  0  0  0  0
  8  9  1  0  0  0  0
  8 25  1  0  0  0  0
  9 18  1  0  0  0  0
  9 10  1  0  0  0  0
  9 26  1  0  0  0  0
 10 11  1  0  0  0  0
 10 27  1  0  0  0  0
 10 28  1  0  0  0  0
 11 12  1  0  0  0  0
 11 29  1  0  0  0  0
 11 30  1  0  0  0  0
 12 13  1  0  0  0  0
 12 17  1  0  0  0  0
 12 39  1  0  0  0  0
 13 14  1  0  0  0  0
 13 31  1  0  0  0  0
 13 32  1  0  0  0  0
 14 15  1  0  0  0  0
 14 16  2  0  0  0  0
 15 33  1  0  0  0  0
 15 34  1  0  0  0  0
 17 18  1  0  0  0  0
 17 35  1  0  0  0  0
 17 36  1  0  0  0  0
 18 37  1  0  0  0  0
 18 38  1  0  0  0  0
 19 20  1  0  0  0  0
M  CHG  1   5  -1
M  CHG  1  12   1
M  END
> <s_m_source_file>
AV-unprocessed.smi

> <i_m_source_file_index>
1417

> <i_lp_mmshare_version>
43012

> <i_f3d_flags>
0

> <s_epik_input>
W0NIM11jMVtjSF1jKG5vMSlbTkhdQyg9TylbTkhdW0NIXTJbQ0gyXVtDSDJdTihbQ0gyXVtDSDJdMilbQ0gyXUMoPU8pW05IMl0=

> <s_epik_cmdline>
J2VwaWtfcHl0aG9uJywgJy1waCcsICc3LjAnLCAnLXRuJywgJzgnLCAnLW1hJywgJzIwMCcsICctbWV0YWxfYmluZGluZycsICctaW1hZScsICc8aW5maWxlLm1hZT4nLCAnLW9tYWUnLCAnPG91dGZpbGUubWFlPic=

> <r_epik_Ionization_Penalty>
7.07562

> <r_epik_Ionization_Penalty_Charging>
7.07548

> <r_epik_Ionization_Penalty_Neutral>
0.00013758

> <r_epik_State_Penalty>
7.16607

> <r_epik_Charging_Adjusted_Penalty>
14.2416

> <i_epik_Tot_Q>
0

> <i_epik_Tot_abs_Q>
2

> <r_epik_Metal_State_Penalty>
3.11438

> <b_epik_Metal_Only>
1

> <s_lp_Force_Field>
OPLS_2005

> <r_lp_Energy>
-1.46184

> <b_lp_Chiralities_Consistent>
1

> <s_lp_Variant>
AV-unprocessed.smi:1417-5

> <Gold.Version>
5.8.1

> <Gold.Id.Protein>
6NUR|6NUR_protein|mol2

> <Gold.PLP.Fitness>
46.0996

> <Gold.PLP.PLP>
-28.9676

> <Gold.PLP.part.hbond>
-5.8743

> <Gold.PLP.part.metal>
0.0000

> <Gold.PLP.part.buried>
2.1176

> <Gold.PLP.part.nonpolar>
-25.0463

> <Gold.PLP.part.repulsive>
0.5907

> <Gold.PLP.ligand.clash>
0.0000

> <Gold.PLP.ligand.torsion>
1.1437

> <Gold.PLP.Chemscore.Hbond>
6.4589

> <Gold.PLP.Chemscore.CHOScore>
0.0000

> <Gold.PLP.Chemscore.Metal>
0.0000

> <Gold.Chemscore.Hbonds>
donor molecule, donor type, donor heavy atom, donor atom, acceptor molecule, acceptor atom, score
      L1  H     8    25       P1  7957  1.00
      L1  H    12    39       P1  7948  2.00
      L1  H    15    33       P1  7921  0.86
      L1  H    15    34       P1 10171  1.00
      P1  H  7989  7998       L1     5  0.27
      P1  H  7997  8009       L1    20  1.00

> <Gold.PLP.Chemscore.Internal.Correction>
0.0428

> <Gold.Rescore>
     Score         DG    S(hbond)    S(metal)    S(lipo)     H(rot)  DE(clash)    DE(int)     intcor
     17.99     -22.15       4.60        0.00      55.47       2.02       1.97       2.19       ----

> <Gold.Chemscore.Fitness>
17.9897

> <Gold.Chemscore.DG>
-22.1473

> <Gold.Chemscore.ZeroCoef>
-5.4800

> <Gold.Chemscore.Hbond>
4.5972

> <Gold.Chemscore.Metal>
0.0000

> <Gold.Chemscore.Lipo>
55.4651

> <Gold.Chemscore.Internal_Hbond>
0.0000

> <Gold.Chemscore.DEClash>
1.9700

> <Gold.Chemscore.DEInternal>
2.1877

> <Gold.Chemscore.Rot>
2.0222

> <Gold.Chemscore.Internal.Correction>
   9.000000E+99

> <Gold.Chemscore.Hbonds>
donor molecule, donor type, donor heavy atom, donor atom, acceptor molecule, acceptor atom, score
      L1  H     8    25       P1  7957  0.92
      L1  H    12    39       P1  7948  0.95
      L1  H    15    33       P1  7921  0.83
      L1  H    15    34       P1 10171  0.99
      P1  H  7989  7998       L1     5  0.03
      P1  H  7997  8009       L1    20  0.50

> <Gold.Chemscore.Hbond.Weighted>
-15.3548

> <Gold.Chemscore.Metal.Weighted>
-0.0000

> <Gold.Chemscore.Lipo.Weighted>
-6.4894

> <Gold.Chemscore.Internal_Hbond.Weighted>
0.0000

> <Gold.Chemscore.DEClash.Weighted>
1.9700

> <Gold.Chemscore.DEInternal.Weighted>
2.1877

> <Gold.Chemscore.Rot.Weighted>
5.1769

> <Gold.Chemscore.Internal.Correction.Weighted>
   9.000000E+99

> <Gold.Protein.RotatedTorsions>
[ 6907 6896 6895 6894 ] final -143.18 input  -60.11 | X-H torsion
[ 7974 7965 7964 7962 ] final    1.10 input  175.53 | X-H torsion
[ 8008 7997 7996 7995 ] final  174.29 input   59.86 | X-H torsion
[ 10167 10162 10161 10158 ] final  112.99 input  -65.29 | X-H torsion
[ 10718 10713 10712 10709 ] final    7.87 input   66.30 | X-H torsion
[ 10763 10752 10751 10750 ] final  -99.17 input  -60.55 | X-H torsion
[ 11005 11000 10999 10996 ] final  154.60 input  -57.11 | X-H torsion

> <Gold.Protein.ActiveResidues>
 VAL166  LYS551  ARG553  GLY616  TRP617  ASP618  TYR619  PRO620  LYS621  CYS622 
 ASP623  PHE694  ASN695  SER759  ASP760  ASP761  ALA762  ILE779  LEU786  VAL792 
 PHE793  MET794  SER795  GLU796  ALA797  LYS798  CYS799  TRP800  GLU811  SER814 

> <Gold.Protein.RotatedAtoms>
  151.0970  133.5272  159.2611 H   0  0  0  0  0  0  0  0  0  0  0  0  # atno 6907 bound_to 6896
  151.2117  135.0483  159.8924 H   0  0  0  0  0  0  0  0  0  0  0  0  # atno 6908 bound_to 6896
  152.5439  134.0785  159.8278 H   0  0  0  0  0  0  0  0  0  0  0  0  # atno 6909 bound_to 6896
  146.2438  140.1038  142.8346 H   0  0  0  0  0  0  0  0  0  0  0  0  # atno 7974 bound_to 7965
  156.0989  140.1438  156.9494 H   0  0  0  0  0  0  0  0  0  0  0  0  # atno 8008 bound_to 7997
  154.4689  140.0916  156.7139 H   0  0  0  0  0  0  0  0  0  0  0  0  # atno 8009 bound_to 7997
  155.4794  140.3444  155.4339 H   0  0  0  0  0  0  0  0  0  0  0  0  # atno 8010 bound_to 7997
  139.6494  144.7128  151.2077 H   0  0  0  0  0  0  0  0  0  0  0  0  # atno 10167 bound_to 10162
  156.9433  130.5869  149.5653 H   0  0  0  0  0  0  0  0  0  0  0  0  # atno 10718 bound_to 10713
  154.7475  135.4982  153.9231 H   0  0  0  0  0  0  0  0  0  0  0  0  # atno 10763 bound_to 10752
  153.1108  135.6708  153.9512 H   0  0  0  0  0  0  0  0  0  0  0  0  # atno 10764 bound_to 10752
  153.9272  135.3082  155.3425 H   0  0  0  0  0  0  0  0  0  0  0  0  # atno 10765 bound_to 10752
  140.1504  134.8678  157.2447 H   0  0  0  0  0  0  0  0  0  0  0  0  # atno 11005 bound_to 11000
  145.0546  140.9043  143.4975 LP  0  0  0  0  0  0  0  0  0  0  0  0  # atno 17320 bound_to 7965
  145.1142  139.2737  143.5622 LP  0  0  0  0  0  0  0  0  0  0  0  0  # atno 17321 bound_to 7965
  140.7530  143.6175  150.8545 LP  0  0  0  0  0  0  0  0  0  0  0  0  # atno 17342 bound_to 10162
  139.9821  143.5939  152.2939 LP  0  0  0  0  0  0  0  0  0  0  0  0  # atno 17343 bound_to 10162
  156.0395  130.5479  150.8735 LP  0  0  0  0  0  0  0  0  0  0  0  0  # atno 17370 bound_to 10713
  157.5770  131.0946  150.9330 LP  0  0  0  0  0  0  0  0  0  0  0  0  # atno 17371 bound_to 10713
  140.2612  134.3569  155.7406 LP  0  0  0  0  0  0  0  0  0  0  0  0  # atno 17394 bound_to 11000
  141.2198  133.7370  156.9082 LP  0  0  0  0  0  0  0  0  0  0  0  0  # atno 17395 bound_to 11000

$$$$
