AV-unprocessed.smi:3126|AV-procd|sdf|11910|dock2
  -GOLD-   2272017293D 1   1.00000     0.00000
 Structure written by MMmdl.
 42 43  0  0  0  0  0  0  0  0  2 V2000
  144.3965  132.0853  150.3253 C   0  0  0  0  0  0  0  0  0  0  0  0
  145.7020  132.8294  150.0121 C   0  0  0  0  0  0  0  0  0  0  0  0
  145.9734  134.0392  150.9293 C   0  0  2  0  0  0  0  0  0  0  0  0
  146.1215  133.6333  152.4114 C   0  0  0  0  0  0  0  0  0  0  0  0
  146.3607  134.8524  153.3150 C   0  0  0  0  0  0  0  0  0  0  0  0
  145.2444  135.8955  153.1531 C   0  0  0  0  0  0  0  0  0  0  0  0
  145.0673  136.3297  151.6825 C   0  0  1  0  0  0  0  0  0  0  0  0
  146.2042  137.1440  151.1924 N   0  3  0  0  0  0  0  0  0  0  0  0
  146.4043  138.4350  151.8827 C   0  0  0  0  0  0  0  0  0  0  0  0
  147.1258  138.2356  153.2217 C   0  0  0  0  0  0  0  0  0  0  0  0
  147.7669  139.5170  153.7162 C   0  0  0  0  0  0  0  0  0  0  0  0
  147.0190  140.7080  153.8228 C   0  0  0  0  0  0  0  0  0  0  0  0
  147.6629  141.8746  154.2780 C   0  0  0  0  0  0  0  0  0  0  0  0
  149.0309  141.8006  154.6088 C   0  0  0  0  0  0  0  0  0  0  0  0
  149.7564  140.6658  154.5107 N   0  0  0  0  0  0  0  0  0  0  0  0
  149.1315  139.5515  154.0744 C   0  0  0  0  0  0  0  0  0  0  0  0
  144.8586  135.0984  150.7784 C   0  0  0  0  0  0  0  0  0  0  0  0
  144.2990  131.1999  149.6967 H   0  0  0  0  0  0  0  0  0  0  0  0
  143.5214  132.7089  150.1439 H   0  0  0  0  0  0  0  0  0  0  0  0
  144.3686  131.7570  151.3645 H   0  0  0  0  0  0  0  0  0  0  0  0
  146.5235  132.1185  150.1083 H   0  0  0  0  0  0  0  0  0  0  0  0
  145.7003  133.1460  148.9685 H   0  0  0  0  0  0  0  0  0  0  0  0
  146.9116  134.4932  150.6071 H   0  0  0  0  0  0  0  0  0  0  0  0
  145.2243  133.1074  152.7410 H   0  0  0  0  0  0  0  0  0  0  0  0
  146.9494  132.9358  152.5359 H   0  0  0  0  0  0  0  0  0  0  0  0
  146.4188  134.5330  154.3560 H   0  0  0  0  0  0  0  0  0  0  0  0
  147.3260  135.3014  153.0783 H   0  0  0  0  0  0  0  0  0  0  0  0
  144.3079  135.4618  153.5065 H   0  0  0  0  0  0  0  0  0  0  0  0
  145.4324  136.7514  153.8007 H   0  0  0  0  0  0  0  0  0  0  0  0
  144.1710  136.9469  151.6062 H   0  0  0  0  0  0  0  0  0  0  0  0
  147.0497  136.5953  151.2582 H   0  0  0  0  0  0  0  0  0  0  0  0
  146.9885  139.0985  151.2434 H   0  0  0  0  0  0  0  0  0  0  0  0
  145.4420  138.9167  152.0554 H   0  0  0  0  0  0  0  0  0  0  0  0
  146.4252  137.8742  153.9761 H   0  0  0  0  0  0  0  0  0  0  0  0
  147.8962  137.4693  153.1236 H   0  0  0  0  0  0  0  0  0  0  0  0
  145.9721  140.7302  153.5580 H   0  0  0  0  0  0  0  0  0  0  0  0
  147.1225  142.8050  154.3710 H   0  0  0  0  0  0  0  0  0  0  0  0
  149.5559  142.6765  154.9600 H   0  0  0  0  0  0  0  0  0  0  0  0
  149.7403  138.6621  154.0041 H   0  0  0  0  0  0  0  0  0  0  0  0
  144.7801  135.4157  149.7376 H   0  0  0  0  0  0  0  0  0  0  0  0
  143.8991  134.6406  151.0240 H   0  0  0  0  0  0  0  0  0  0  0  0
  146.0326  137.3496  150.2186 H   0  0  0  0  0  0  0  0  0  0  0  0
  1  2  1  0  0  0  0
  1 18  1  0  0  0  0
  1 19  1  0  0  0  0
  1 20  1  0  0  0  0
  2  3  1  0  0  0  0
  2 21  1  0  0  0  0
  2 22  1  0  0  0  0
  3 17  1  0  0  0  0
  3  4  1  0  0  0  0
  3 23  1  0  0  0  0
  4  5  1  0  0  0  0
  4 24  1  0  0  0  0
  4 25  1  0  0  0  0
  5  6  1  0  0  0  0
  5 26  1  0  0  0  0
  5 27  1  0  0  0  0
  6  7  1  0  0  0  0
  6 28  1  0  0  0  0
  6 29  1  0  0  0  0
  7  8  1  0  0  0  0
  7 17  1  0  0  0  0
  7 30  1  0  0  0  0
  8  9  1  0  0  0  0
  8 31  1  0  0  0  0
  8 42  1  0  0  0  0
  9 10  1  0  0  0  0
  9 32  1  0  0  0  0
  9 33  1  0  0  0  0
 10 11  1  0  0  0  0
 10 34  1  0  0  0  0
 10 35  1  0  0  0  0
 11 16  1  0  0  0  0
 11 12  2  0  0  0  0
 12 13  1  0  0  0  0
 12 36  1  0  0  0  0
 13 14  2  0  0  0  0
 13 37  1  0  0  0  0
 14 15  1  0  0  0  0
 14 38  1  0  0  0  0
 15 16  2  0  0  0  0
 16 39  1  0  0  0  0
 17 40  1  0  0  0  0
 17 41  1  0  0  0  0
M  CHG  1   8   1
M  END
> <s_m_source_file>
AV-unprocessed.smi

> <i_m_source_file_index>
3126

> <i_lp_mmshare_version>
43012

> <i_f3d_flags>
0

> <s_epik_input>
W0NIM11bQ0gyXVtDQEBIXTFbQ0gyXVtDSDJdW0NIMl1bQ0BIXShbQ0gyXTEpW05IXVtDSDJdW0NIMl1jMltjSF1bY0hdW2NIXW5bY0hdMg==

> <s_epik_cmdline>
J2VwaWtfcHl0aG9uJywgJy1waCcsICc3LjAnLCAnLXRuJywgJzgnLCAnLW1hJywgJzIwMCcsICctbWV0YWxfYmluZGluZycsICctaW1hZScsICc8aW5maWxlLm1hZT4nLCAnLW9tYWUnLCAnPG91dGZpbGUubWFlPic=

> <r_lp_tautomer_probability>
1

> <r_epik_Ionization_Penalty>
0.000947364

> <r_epik_Ionization_Penalty_Charging>
0.000286103

> <r_epik_Ionization_Penalty_Neutral>
0.000661261

> <r_epik_State_Penalty>
-0

> <r_epik_Charging_Adjusted_Penalty>
0.000286103

> <i_epik_Tot_Q>
1

> <i_epik_Tot_abs_Q>
1

> <r_epik_Metal_State_Penalty>
-0

> <b_epik_Metal_Only>
0

> <s_lp_Force_Field>
OPLS_2005

> <r_lp_Energy>
17.7549

> <b_lp_Chiralities_Consistent>
1

> <s_lp_Variant>
AV-unprocessed.smi:3126-1

> <Gold.Version>
5.8.1

> <Gold.Id.Protein>
6NUR|6NUR_protein|mol2

> <Gold.PLP.Fitness>
44.8965

> <Gold.PLP.PLP>
-33.9278

> <Gold.PLP.part.hbond>
-2.5762

> <Gold.PLP.part.metal>
0.0000

> <Gold.PLP.part.buried>
1.6072

> <Gold.PLP.part.nonpolar>
-32.5145

> <Gold.PLP.part.repulsive>
0.2109

> <Gold.PLP.ligand.clash>
0.0000

> <Gold.PLP.ligand.torsion>
0.2533

> <Gold.PLP.Chemscore.Hbond>
2.8480

> <Gold.PLP.Chemscore.CHOScore>
0.9710

> <Gold.PLP.Chemscore.Metal>
0.0000

> <Gold.Chemscore.Hbonds>
donor molecule, donor type, donor heavy atom, donor atom, acceptor molecule, acceptor atom, score
      L1  H     8    31       P1  7948  2.00
      P1  H  7989  7998       L1    15  0.56
      L1  C    14    38       P1  8028  1.00

> <Gold.PLP.Chemscore.Internal.Correction>
0.0183

> <Gold.Rescore>
     Score         DG    S(hbond)    S(metal)    S(lipo)     H(rot)  DE(clash)    DE(int)     intcor
     16.04     -18.18       1.49        0.00      95.60       1.35       1.27       0.87       ----

> <Gold.Chemscore.Fitness>
16.0421

> <Gold.Chemscore.DG>
-18.1845

> <Gold.Chemscore.ZeroCoef>
-5.4800

> <Gold.Chemscore.Hbond>
1.4902

> <Gold.Chemscore.Metal>
0.0000

> <Gold.Chemscore.Lipo>
95.5979

> <Gold.Chemscore.Internal_Hbond>
0.0000

> <Gold.Chemscore.DEClash>
1.2703

> <Gold.Chemscore.DEInternal>
0.8721

> <Gold.Chemscore.Rot>
1.3507

> <Gold.Chemscore.Internal.Correction>
   9.000000E+99

> <Gold.Chemscore.Hbonds>
donor molecule, donor type, donor heavy atom, donor atom, acceptor molecule, acceptor atom, score
      L1  H     8    31       P1  7948  0.95
      P1  H  7989  7998       L1    15  0.36

> <Gold.Chemscore.Hbond.Weighted>
-4.9774

> <Gold.Chemscore.Metal.Weighted>
-0.0000

> <Gold.Chemscore.Lipo.Weighted>
-11.1850

> <Gold.Chemscore.Internal_Hbond.Weighted>
0.0000

> <Gold.Chemscore.DEClash.Weighted>
1.2703

> <Gold.Chemscore.DEInternal.Weighted>
0.8721

> <Gold.Chemscore.Rot.Weighted>
3.4579

> <Gold.Chemscore.Internal.Correction.Weighted>
   9.000000E+99

> <Gold.Protein.RotatedTorsions>
[ 6907 6896 6895 6894 ] final    2.80 input  -60.11 | X-H torsion
[ 7974 7965 7964 7962 ] final -163.74 input  175.53 | X-H torsion
[ 8008 7997 7996 7995 ] final -115.74 input   59.86 | X-H torsion
[ 10167 10162 10161 10158 ] final  -15.97 input  -65.29 | X-H torsion
[ 10718 10713 10712 10709 ] final   14.33 input   66.30 | X-H torsion
[ 10763 10752 10751 10750 ] final  -47.85 input  -60.55 | X-H torsion
[ 11005 11000 10999 10996 ] final   30.45 input  -57.11 | X-H torsion

> <Gold.Protein.ActiveResidues>
 VAL166  LYS551  ARG553  GLY616  TRP617  ASP618  TYR619  PRO620  LYS621  CYS622 
 ASP623  PHE694  ASN695  SER759  ASP760  ASP761  ALA762  ILE779  LEU786  VAL792 
 PHE793  MET794  SER795  GLU796  ALA797  LYS798  CYS799  TRP800  GLU811  SER814 

> <Gold.Protein.RotatedAtoms>
  151.6148  135.1037  160.0088 H   0  0  0  0  0  0  0  0  0  0  0  0  # atno 6907 bound_to 6896
  152.4189  133.7080  159.6473 H   0  0  0  0  0  0  0  0  0  0  0  0  # atno 6908 bound_to 6896
  150.8077  133.8406  159.3219 H   0  0  0  0  0  0  0  0  0  0  0  0  # atno 6909 bound_to 6896
  144.7317  140.3063  143.6196 H   0  0  0  0  0  0  0  0  0  0  0  0  # atno 7974 bound_to 7965
  155.0569  140.0393  157.2563 H   0  0  0  0  0  0  0  0  0  0  0  0  # atno 8008 bound_to 7997
  154.7092  140.2689  155.6621 H   0  0  0  0  0  0  0  0  0  0  0  0  # atno 8009 bound_to 7997
  156.2784  140.2725  156.1727 H   0  0  0  0  0  0  0  0  0  0  0  0  # atno 8010 bound_to 7997
  140.7227  143.5164  150.9687 H   0  0  0  0  0  0  0  0  0  0  0  0  # atno 10167 bound_to 10162
  157.0375  130.6218  149.5745 H   0  0  0  0  0  0  0  0  0  0  0  0  # atno 10718 bound_to 10713
  154.0682  135.6608  153.4821 H   0  0  0  0  0  0  0  0  0  0  0  0  # atno 10763 bound_to 10752
  153.0401  135.5151  154.7593 H   0  0  0  0  0  0  0  0  0  0  0  0  # atno 10764 bound_to 10752
  154.6650  135.3020  154.9784 H   0  0  0  0  0  0  0  0  0  0  0  0  # atno 10765 bound_to 10752
  140.2943  134.2829  155.7768 H   0  0  0  0  0  0  0  0  0  0  0  0  # atno 11005 bound_to 11000
  145.7709  139.1857  143.2213 LP  0  0  0  0  0  0  0  0  0  0  0  0  # atno 17320 bound_to 7965
  146.0911  140.7654  142.9595 LP  0  0  0  0  0  0  0  0  0  0  0  0  # atno 17321 bound_to 7965
  139.8879  143.6989  152.3149 LP  0  0  0  0  0  0  0  0  0  0  0  0  # atno 17342 bound_to 10162
  139.7295  144.7585  151.0825 LP  0  0  0  0  0  0  0  0  0  0  0  0  # atno 17343 bound_to 10162
  156.0049  130.5134  150.7794 LP  0  0  0  0  0  0  0  0  0  0  0  0  # atno 17370 bound_to 10713
  157.5130  131.0927  151.0174 LP  0  0  0  0  0  0  0  0  0  0  0  0  # atno 17371 bound_to 10713
  141.2140  133.7605  156.9672 LP  0  0  0  0  0  0  0  0  0  0  0  0  # atno 17394 bound_to 11000
  140.1167  134.9443  157.2144 LP  0  0  0  0  0  0  0  0  0  0  0  0  # atno 17395 bound_to 11000

$$$$
