AV-unprocessed.smi:703|AV-procd|sdf|3429|dock3
  -GOLD-   22720 0413D 1   1.00000     0.00000
 Structure written by MMmdl.
 38 39  0  0  0  0  0  0  0  0  2 V2000
  144.7410  134.3851  151.1175 C   0  0  0  0  0  0  0  0  0  0  0  0
  145.1590  134.5373  152.5861 C   0  0  0  0  0  0  0  0  0  0  0  0
  146.6211  134.3856  152.7708 N   0  3  2  0  0  0  0  0  0  0  0  0
  147.1617  133.0517  152.4478 C   0  0  0  0  0  0  0  0  0  0  0  0
  148.5572  133.0326  153.0766 C   0  0  2  0  0  0  0  0  0  0  0  0
  149.0620  131.6238  153.4158 C   0  0  0  0  0  0  0  0  0  0  0  0
  148.4391  133.9653  154.2966 C   0  0  1  0  0  0  0  0  0  0  0  0
  149.5462  134.9260  154.3160 N   0  0  0  0  0  0  0  0  0  0  0  0
  149.9276  135.7050  155.8057 S   0  0  0  0  0  0  0  0  0  0  0  0
  149.0457  135.1348  156.8355 O   0  0  0  0  0  0  0  0  0  0  0  0
  151.3877  135.6465  155.9746 O   0  0  0  0  0  0  0  0  0  0  0  0
  149.4394  137.4524  155.4852 C   0  0  0  0  0  0  0  0  0  0  0  0
  150.6709  138.2997  155.3382 C   0  0  0  0  0  0  0  0  0  0  0  0
  151.6259  138.2966  154.2842 C   0  0  0  0  0  0  0  0  0  0  0  0
  152.5231  139.2528  154.6644 C   0  0  0  0  0  0  0  0  0  0  0  0
  152.1596  139.7998  155.8517 O   0  0  0  0  0  0  0  0  0  0  0  0
  150.9765  139.1836  156.2749 N   0  0  0  0  0  0  0  0  0  0  0  0
  147.0916  134.6884  154.1371 C   0  0  0  0  0  0  0  0  0  0  0  0
  143.6721  134.5649  151.0014 H   0  0  0  0  0  0  0  0  0  0  0  0
  144.9447  133.3820  150.7420 H   0  0  0  0  0  0  0  0  0  0  0  0
  145.2668  135.0971  150.4807 H   0  0  0  0  0  0  0  0  0  0  0  0
  144.8670  135.5302  152.9306 H   0  0  0  0  0  0  0  0  0  0  0  0
  144.6251  133.8191  153.2100 H   0  0  0  0  0  0  0  0  0  0  0  0
  146.5303  132.2842  152.8993 H   0  0  0  0  0  0  0  0  0  0  0  0
  147.1942  132.8740  151.3723 H   0  0  0  0  0  0  0  0  0  0  0  0
  149.2430  133.4755  152.3517 H   0  0  0  0  0  0  0  0  0  0  0  0
  148.4093  131.1285  154.1353 H   0  0  0  0  0  0  0  0  0  0  0  0
  150.0628  131.6636  153.8472 H   0  0  0  0  0  0  0  0  0  0  0  0
  149.1100  130.9997  152.5233 H   0  0  0  0  0  0  0  0  0  0  0  0
  148.4306  133.3955  155.2275 H   0  0  0  0  0  0  0  0  0  0  0  0
  149.4676  135.6025  153.5570 H   0  0  0  0  0  0  0  0  0  0  0  0
  148.8270  137.4782  154.5832 H   0  0  0  0  0  0  0  0  0  0  0  0
  148.8246  137.7989  156.3156 H   0  0  0  0  0  0  0  0  0  0  0  0
  151.6474  137.6916  153.3901 H   0  0  0  0  0  0  0  0  0  0  0  0
  153.4283  139.6401  154.2206 H   0  0  0  0  0  0  0  0  0  0  0  0
  147.1536  135.7649  154.3030 H   0  0  0  0  0  0  0  0  0  0  0  0
  146.3817  134.2866  154.8624 H   0  0  0  0  0  0  0  0  0  0  0  0
  147.0810  135.0437  152.1577 H   0  0  0  0  0  0  0  0  0  0  0  0
  1  2  1  0  0  0  0
  1 19  1  0  0  0  0
  1 20  1  0  0  0  0
  1 21  1  0  0  0  0
  2  3  1  0  0  0  0
  2 22  1  0  0  0  0
  2 23  1  0  0  0  0
  3 18  1  0  0  0  0
  3  4  1  0  0  0  0
  3 38  1  0  0  0  0
  4  5  1  0  0  0  0
  4 24  1  0  0  0  0
  4 25  1  0  0  0  0
  5  6  1  0  0  0  0
  5  7  1  0  0  0  0
  5 26  1  0  0  0  0
  6 27  1  0  0  0  0
  6 28  1  0  0  0  0
  6 29  1  0  0  0  0
  7  8  1  0  0  0  0
  7 18  1  0  0  0  0
  7 30  1  0  0  0  0
  8  9  1  0  0  0  0
  8 31  1  0  0  0  0
  9 10  2  0  0  0  0
  9 11  2  0  0  0  0
  9 12  1  0  0  0  0
 12 13  1  0  0  0  0
 12 32  1  0  0  0  0
 12 33  1  0  0  0  0
 13 17  2  0  0  0  0
 13 14  1  0  0  0  0
 14 15  2  0  0  0  0
 14 34  1  0  0  0  0
 15 16  1  0  0  0  0
 15 35  1  0  0  0  0
 16 17  1  0  0  0  0
 18 36  1  0  0  0  0
 18 37  1  0  0  0  0
M  CHG  1   3   1
M  END
> <s_m_source_file>
AV-unprocessed.smi

> <i_m_source_file_index>
703

> <i_lp_mmshare_version>
43012

> <i_f3d_flags>
0

> <s_epik_input>
W0NIM11bQ0gyXU4xW0NIMl1bQ0BASF0oW0NIM10pW0NASF0oW0NIMl0xKVtOSF1TKD1PKSg9TylbQ0gyXWMyW2NIXVtjSF1vbjI=

> <s_epik_cmdline>
J2VwaWtfcHl0aG9uJywgJy1waCcsICc3LjAnLCAnLXRuJywgJzgnLCAnLW1hJywgJzIwMCcsICctbWV0YWxfYmluZGluZycsICctaW1hZScsICc8aW5maWxlLm1hZT4nLCAnLW9tYWUnLCAnPG91dGZpbGUubWFlPic=

> <r_epik_Ionization_Penalty>
0.00324529

> <r_epik_Ionization_Penalty_Charging>
0.0019384

> <r_epik_Ionization_Penalty_Neutral>
0.00130689

> <r_epik_State_Penalty>
0.00218682

> <r_epik_Charging_Adjusted_Penalty>
0.00412522

> <i_epik_Tot_Q>
1

> <i_epik_Tot_abs_Q>
1

> <r_epik_Metal_State_Penalty>
0.310831

> <b_epik_Metal_Only>
0

> <s_lp_Force_Field>
OPLS_2005

> <r_lp_Energy>
19.0381

> <b_lp_Chiralities_Consistent>
1

> <s_lp_Variant>
AV-unprocessed.smi:703-4

> <Gold.Version>
5.8.1

> <Gold.Id.Protein>
6NUR|6NUR_protein|mol2

> <Gold.PLP.Fitness>
41.5474

> <Gold.PLP.PLP>
-28.5040

> <Gold.PLP.part.hbond>
-4.0000

> <Gold.PLP.part.metal>
0.0000

> <Gold.PLP.part.buried>
-3.5902

> <Gold.PLP.part.nonpolar>
-21.2627

> <Gold.PLP.part.repulsive>
0.0180

> <Gold.PLP.ligand.clash>
0.0000

> <Gold.PLP.ligand.torsion>
0.6562

> <Gold.PLP.Chemscore.Hbond>
4.7200

> <Gold.PLP.Chemscore.CHOScore>
0.0000

> <Gold.PLP.Chemscore.Metal>
0.0000

> <Gold.Chemscore.Hbonds>
donor molecule, donor type, donor heavy atom, donor atom, acceptor molecule, acceptor atom, score
      L1  H     3    38       P1  7948  1.00
      L1  H     8    31       P1  7948  1.00
      P1  H  7997  8010       L1    16  0.16
      P1  H 10752 10765       L1    11  1.00

> <Gold.PLP.Chemscore.Internal.Correction>
0.1958

> <Gold.Rescore>
     Score         DG    S(hbond)    S(metal)    S(lipo)     H(rot)  DE(clash)    DE(int)     intcor
     16.48     -17.35       2.92        0.00      60.48       1.94       0.07       0.81       ----

> <Gold.Chemscore.Fitness>
16.4779

> <Gold.Chemscore.DG>
-17.3521

> <Gold.Chemscore.ZeroCoef>
-5.4800

> <Gold.Chemscore.Hbond>
2.9229

> <Gold.Chemscore.Metal>
0.0000

> <Gold.Chemscore.Lipo>
60.4800

> <Gold.Chemscore.Internal_Hbond>
0.0000

> <Gold.Chemscore.DEClash>
0.0658

> <Gold.Chemscore.DEInternal>
0.8084

> <Gold.Chemscore.Rot>
1.9400

> <Gold.Chemscore.Internal.Correction>
   9.000000E+99

> <Gold.Chemscore.Hbonds>
donor molecule, donor type, donor heavy atom, donor atom, acceptor molecule, acceptor atom, score
      L1  H     3    38       P1  7948  0.48
      L1  H     8    31       P1  7948  0.25
      P1  H  7997  8010       L1    16  0.01
      P1  H 10752 10765       L1    11  0.93

> <Gold.Chemscore.Hbond.Weighted>
-9.7624

> <Gold.Chemscore.Metal.Weighted>
-0.0000

> <Gold.Chemscore.Lipo.Weighted>
-7.0762

> <Gold.Chemscore.Internal_Hbond.Weighted>
0.0000

> <Gold.Chemscore.DEClash.Weighted>
0.0658

> <Gold.Chemscore.DEInternal.Weighted>
0.8084

> <Gold.Chemscore.Rot.Weighted>
4.9665

> <Gold.Chemscore.Internal.Correction.Weighted>
   9.000000E+99

> <Gold.Protein.RotatedTorsions>
[ 6907 6896 6895 6894 ] final -133.26 input  -60.11 | X-H torsion
[ 7974 7965 7964 7962 ] final -149.50 input  175.53 | X-H torsion
[ 8008 7997 7996 7995 ] final   63.49 input   59.86 | X-H torsion
[ 10167 10162 10161 10158 ] final  -59.22 input  -65.29 | X-H torsion
[ 10718 10713 10712 10709 ] final  -47.95 input   66.30 | X-H torsion
[ 10763 10752 10751 10750 ] final -144.86 input  -60.55 | X-H torsion
[ 11005 11000 10999 10996 ] final  -33.24 input  -57.11 | X-H torsion

> <Gold.Protein.ActiveResidues>
 VAL166  LYS551  ARG553  GLY616  TRP617  ASP618  TYR619  PRO620  LYS621  CYS622 
 ASP623  PHE694  ASN695  SER759  ASP760  ASP761  ALA762  ILE779  LEU786  VAL792 
 PHE793  MET794  SER795  GLU796  ALA797  LYS798  CYS799  TRP800  GLU811  SER814 

> <Gold.Protein.RotatedAtoms>
  150.9720  133.6334  159.2736 H   0  0  0  0  0  0  0  0  0  0  0  0  # atno 6907 bound_to 6896
  151.3620  135.0905  159.9447 H   0  0  0  0  0  0  0  0  0  0  0  0  # atno 6908 bound_to 6896
  152.5186  133.9292  159.7626 H   0  0  0  0  0  0  0  0  0  0  0  0  # atno 6909 bound_to 6896
  144.7964  140.5056  143.5737 H   0  0  0  0  0  0  0  0  0  0  0  0  # atno 7974 bound_to 7965
  155.6310  140.3496  155.4683 H   0  0  0  0  0  0  0  0  0  0  0  0  # atno 8008 bound_to 7997
  156.0003  140.1212  157.0578 H   0  0  0  0  0  0  0  0  0  0  0  0  # atno 8009 bound_to 7997
  154.4246  140.1102  156.5673 H   0  0  0  0  0  0  0  0  0  0  0  0  # atno 8010 bound_to 7997
  140.6149  143.2399  151.5622 H   0  0  0  0  0  0  0  0  0  0  0  0  # atno 10167 bound_to 10162
  156.2035  130.4157  149.9209 H   0  0  0  0  0  0  0  0  0  0  0  0  # atno 10718 bound_to 10713
  154.8409  135.3429  154.6413 H   0  0  0  0  0  0  0  0  0  0  0  0  # atno 10763 bound_to 10752
  153.7025  135.6969  153.5064 H   0  0  0  0  0  0  0  0  0  0  0  0  # atno 10764 bound_to 10752
  153.2512  135.4353  155.0754 H   0  0  0  0  0  0  0  0  0  0  0  0  # atno 10765 bound_to 10752
  140.9618  133.7160  156.1382 H   0  0  0  0  0  0  0  0  0  0  0  0  # atno 11005 bound_to 11000
  145.5663  139.1481  143.3313 LP  0  0  0  0  0  0  0  0  0  0  0  0  # atno 17320 bound_to 7965
  146.2233  140.5798  142.9007 LP  0  0  0  0  0  0  0  0  0  0  0  0  # atno 17321 bound_to 7965
  139.5390  144.2699  152.1312 LP  0  0  0  0  0  0  0  0  0  0  0  0  # atno 17342 bound_to 10162
  140.1906  144.4755  150.6481 LP  0  0  0  0  0  0  0  0  0  0  0  0  # atno 17343 bound_to 10162
  156.6911  130.8896  151.3588 LP  0  0  0  0  0  0  0  0  0  0  0  0  # atno 17370 bound_to 10713
  157.6999  130.9322  150.0754 LP  0  0  0  0  0  0  0  0  0  0  0  0  # atno 17371 bound_to 10713
  140.7456  134.4102  157.5549 LP  0  0  0  0  0  0  0  0  0  0  0  0  # atno 17394 bound_to 11000
  139.8881  134.8866  156.2494 LP  0  0  0  0  0  0  0  0  0  0  0  0  # atno 17395 bound_to 11000

$$$$
