AV-unprocessed.smi:2288|AV-procd|sdf|9206|dock1
  -GOLD-   2272012423D 1   1.00000     0.00000
 Structure written by MMmdl.
 40 41  0  0  0  0  0  0  0  0  1 V2000
  151.8074  145.0294  159.8398 C   0  0  0  0  0  0  0  0  0  0  0  0
  152.2512  143.5818  159.7977 C   0  0  0  0  0  0  0  0  0  0  0  0
  153.0469  143.0497  160.8328 C   0  0  0  0  0  0  0  0  0  0  0  0
  153.4577  141.7022  160.7898 C   0  0  0  0  0  0  0  0  0  0  0  0
  154.3147  141.1408  161.9056 C   0  0  0  0  0  0  0  0  0  0  0  0
  153.0705  140.8857  159.7072 C   0  0  0  0  0  0  0  0  0  0  0  0
  152.2747  141.4105  158.6668 C   0  0  0  0  0  0  0  0  0  0  0  0
  151.8543  140.5180  157.5088 C   0  0  2  0  0  0  0  0  0  0  0  0
  152.8937  139.6318  157.1437 O   0  0  0  0  0  0  0  0  0  0  0  0
  151.4558  141.3625  156.2773 C   0  0  0  0  0  0  0  0  0  0  0  0
  150.0140  141.2813  155.9857 N   0  0  0  0  0  0  0  0  0  0  0  0
  149.1539  141.8663  156.9305 C   0  0  0  0  0  0  0  0  0  0  0  0
  147.8696  141.8476  156.7846 N   0  0  0  0  0  0  0  0  0  0  0  0
  147.3048  141.2317  155.6642 C   0  0  0  0  0  0  0  0  0  0  0  0
  145.7884  141.2645  155.5934 C   0  0  0  0  0  0  0  0  0  0  0  0
  148.0816  140.6463  154.7123 C   0  0  0  0  0  0  0  0  0  0  0  0
  147.5222  139.9633  153.4704 C   0  0  0  0  0  0  0  0  0  0  0  0
  149.5460  140.6616  154.8638 C   0  0  0  0  0  0  0  0  0  0  0  0
  150.3062  140.1511  154.0393 O   0  0  0  0  0  0  0  0  0  0  0  0
  151.8642  142.7606  158.7197 C   0  0  0  0  0  0  0  0  0  0  0  0
  152.3711  145.5951  160.5823 H   0  0  0  0  0  0  0  0  0  0  0  0
  150.7489  145.0914  160.0922 H   0  0  0  0  0  0  0  0  0  0  0  0
  151.9580  145.5022  158.8691 H   0  0  0  0  0  0  0  0  0  0  0  0
  153.3433  143.6747  161.6629 H   0  0  0  0  0  0  0  0  0  0  0  0
  154.4801  140.0702  161.7818 H   0  0  0  0  0  0  0  0  0  0  0  0
  153.8333  141.3006  162.8707 H   0  0  0  0  0  0  0  0  0  0  0  0
  155.2857  141.6364  161.9198 H   0  0  0  0  0  0  0  0  0  0  0  0
  153.3843  139.8524  159.6753 H   0  0  0  0  0  0  0  0  0  0  0  0
  151.0083  139.9122  157.8365 H   0  0  0  0  0  0  0  0  0  0  0  0
  152.5793  138.7458  157.2394 H   0  0  0  0  0  0  0  0  0  0  0  0
  151.7072  142.4083  156.4674 H   0  0  0  0  0  0  0  0  0  0  0  0
  152.0672  141.0959  155.4130 H   0  0  0  0  0  0  0  0  0  0  0  0
  149.6456  142.3280  157.7887 H   0  0  0  0  0  0  0  0  0  0  0  0
  145.3850  140.2516  155.5799 H   0  0  0  0  0  0  0  0  0  0  0  0
  145.4581  141.7841  154.6936 H   0  0  0  0  0  0  0  0  0  0  0  0
  145.3617  141.7815  156.4538 H   0  0  0  0  0  0  0  0  0  0  0  0
  147.8834  140.4651  152.5722 H   0  0  0  0  0  0  0  0  0  0  0  0
  146.4343  139.9655  153.4320 H   0  0  0  0  0  0  0  0  0  0  0  0
  147.8492  138.9237  153.4323 H   0  0  0  0  0  0  0  0  0  0  0  0
  151.2491  143.1684  157.9304 H   0  0  0  0  0  0  0  0  0  0  0  0
  1  2  1  0  0  0  0
  1 21  1  0  0  0  0
  1 22  1  0  0  0  0
  1 23  1  0  0  0  0
  2 20  1  0  0  0  0
  2  3  2  0  0  0  0
  3  4  1  0  0  0  0
  3 24  1  0  0  0  0
  4  5  1  0  0  0  0
  4  6  2  0  0  0  0
  5 25  1  0  0  0  0
  5 26  1  0  0  0  0
  5 27  1  0  0  0  0
  6  7  1  0  0  0  0
  6 28  1  0  0  0  0
  7  8  1  0  0  0  0
  7 20  2  0  0  0  0
  8  9  1  0  0  0  0
  8 10  1  0  0  0  0
  8 29  1  0  0  0  0
  9 30  1  0  0  0  0
 10 11  1  0  0  0  0
 10 31  1  0  0  0  0
 10 32  1  0  0  0  0
 11 18  1  0  0  0  0
 11 12  1  0  0  0  0
 12 13  2  0  0  0  0
 12 33  1  0  0  0  0
 13 14  1  0  0  0  0
 14 15  1  0  0  0  0
 14 16  2  0  0  0  0
 15 34  1  0  0  0  0
 15 35  1  0  0  0  0
 15 36  1  0  0  0  0
 16 17  1  0  0  0  0
 16 18  1  0  0  0  0
 17 37  1  0  0  0  0
 17 38  1  0  0  0  0
 17 39  1  0  0  0  0
 18 19  2  0  0  0  0
 20 40  1  0  0  0  0
M  END
> <s_m_source_file>
AV-unprocessed.smi

> <i_m_source_file_index>
2288

> <i_lp_mmshare_version>
43012

> <i_f3d_flags>
0

> <s_epik_input>
W0NIM11jMVtjSF1jKFtDSDNdKVtjSF1jKFtjSF0xKVtDQEhdKFtPSF0pW0NIMl1uMltjSF1uYyhbQ0gzXSljKFtDSDNdKWMyPU8=

> <s_epik_cmdline>
J2VwaWtfcHl0aG9uJywgJy1waCcsICc3LjAnLCAnLXRuJywgJzgnLCAnLW1hJywgJzIwMCcsICctbWV0YWxfYmluZGluZycsICctaW1hZScsICc8aW5maWxlLm1hZT4nLCAnLW9tYWUnLCAnPG91dGZpbGUubWFlPic=

> <r_lp_tautomer_probability>
1

> <r_epik_Ionization_Penalty>
5.07027e-05

> <r_epik_Ionization_Penalty_Charging>
7.56727e-08

> <r_epik_Ionization_Penalty_Neutral>
5.06271e-05

> <r_epik_State_Penalty>
-0

> <r_epik_Charging_Adjusted_Penalty>
7.56727e-08

> <i_epik_Tot_Q>
0

> <i_epik_Tot_abs_Q>
0

> <r_epik_Metal_State_Penalty>
-0

> <b_epik_Metal_Only>
0

> <s_lp_Force_Field>
OPLS_2005

> <r_lp_Energy>
20.195

> <b_lp_Chiralities_Consistent>
1

> <s_lp_Variant>
AV-unprocessed.smi:2288-1

> <Gold.Version>
5.8.1

> <Gold.Id.Protein>
6NUR|6NUR_protein|mol2

> <Gold.PLP.Fitness>
44.6650

> <Gold.PLP.PLP>
-41.5112

> <Gold.PLP.part.hbond>
-2.0000

> <Gold.PLP.part.metal>
0.0000

> <Gold.PLP.part.buried>
-4.1496

> <Gold.PLP.part.nonpolar>
-35.3975

> <Gold.PLP.part.repulsive>
1.1789

> <Gold.PLP.ligand.clash>
0.0000

> <Gold.PLP.ligand.torsion>
1.3965

> <Gold.PLP.Chemscore.Hbond>
1.9760

> <Gold.PLP.Chemscore.CHOScore>
0.0000

> <Gold.PLP.Chemscore.Metal>
0.0000

> <Gold.Chemscore.Hbonds>
donor molecule, donor type, donor heavy atom, donor atom, acceptor molecule, acceptor atom, score
      P1  H  7989  7998       L1    19  0.98
      P1  H  7997  8009       L1     9  1.00

> <Gold.PLP.Chemscore.Internal.Correction>
0.0189

> <Gold.Rescore>
     Score         DG    S(hbond)    S(metal)    S(lipo)     H(rot)  DE(clash)    DE(int)     intcor
     19.23     -20.50       1.95        0.00     114.05       1.89       0.19       1.07       ----

> <Gold.Chemscore.Fitness>
19.2335

> <Gold.Chemscore.DG>
-20.4992

> <Gold.Chemscore.ZeroCoef>
-5.4800

> <Gold.Chemscore.Hbond>
1.9507

> <Gold.Chemscore.Metal>
0.0000

> <Gold.Chemscore.Lipo>
114.0524

> <Gold.Chemscore.Internal_Hbond>
0.0000

> <Gold.Chemscore.DEClash>
0.1937

> <Gold.Chemscore.DEInternal>
1.0720

> <Gold.Chemscore.Rot>
1.8907

> <Gold.Chemscore.Internal.Correction>
   9.000000E+99

> <Gold.Chemscore.Hbonds>
donor molecule, donor type, donor heavy atom, donor atom, acceptor molecule, acceptor atom, score
      P1  H  7989  7998       L1    19  0.91
      P1  H  7997  8009       L1     9  0.99

> <Gold.Chemscore.Hbond.Weighted>
-6.5152

> <Gold.Chemscore.Metal.Weighted>
-0.0000

> <Gold.Chemscore.Lipo.Weighted>
-13.3441

> <Gold.Chemscore.Internal_Hbond.Weighted>
0.0000

> <Gold.Chemscore.DEClash.Weighted>
0.1937

> <Gold.Chemscore.DEInternal.Weighted>
1.0720

> <Gold.Chemscore.Rot.Weighted>
4.8401

> <Gold.Chemscore.Internal.Correction.Weighted>
   9.000000E+99

> <Gold.Protein.RotatedTorsions>
[ 6907 6896 6895 6894 ] final  160.91 input  -60.11 | X-H torsion
[ 7974 7965 7964 7962 ] final  -88.03 input  175.53 | X-H torsion
[ 8008 7997 7996 7995 ] final  173.47 input   59.86 | X-H torsion
[ 10167 10162 10161 10158 ] final  110.78 input  -65.29 | X-H torsion
[ 10718 10713 10712 10709 ] final  178.70 input   66.30 | X-H torsion
[ 10763 10752 10751 10750 ] final -140.04 input  -60.55 | X-H torsion
[ 11005 11000 10999 10996 ] final   76.33 input  -57.11 | X-H torsion

> <Gold.Protein.ActiveResidues>
 VAL166  LYS551  ARG553  GLY616  TRP617  ASP618  TYR619  PRO620  LYS621  CYS622 
 ASP623  PHE694  ASN695  SER759  ASP760  ASP761  ALA762  ILE779  LEU786  VAL792 
 PHE793  MET794  SER795  GLU796  ALA797  LYS798  CYS799  TRP800  GLU811  SER814 

> <Gold.Protein.RotatedAtoms>
  151.9636  133.3703  159.4044 H   0  0  0  0  0  0  0  0  0  0  0  0  # atno 6907 bound_to 6896
  150.6960  134.4214  159.5216 H   0  0  0  0  0  0  0  0  0  0  0  0  # atno 6908 bound_to 6896
  152.1907  134.8674  160.0568 H   0  0  0  0  0  0  0  0  0  0  0  0  # atno 6909 bound_to 6896
  145.4586  140.9561  143.1982 H   0  0  0  0  0  0  0  0  0  0  0  0  # atno 7974 bound_to 7965
  156.1072  140.1459  156.9388 H   0  0  0  0  0  0  0  0  0  0  0  0  # atno 8008 bound_to 7997
  154.4742  140.0900  156.7264 H   0  0  0  0  0  0  0  0  0  0  0  0  # atno 8009 bound_to 7997
  155.4659  140.3440  155.4321 H   0  0  0  0  0  0  0  0  0  0  0  0  # atno 8010 bound_to 7997
  139.6662  144.7127  151.1772 H   0  0  0  0  0  0  0  0  0  0  0  0  # atno 10167 bound_to 10162
  156.8866  130.9833  151.3055 H   0  0  0  0  0  0  0  0  0  0  0  0  # atno 10718 bound_to 10713
  154.8591  135.3565  154.5643 H   0  0  0  0  0  0  0  0  0  0  0  0  # atno 10763 bound_to 10752
  153.6257  135.7004  153.5298 H   0  0  0  0  0  0  0  0  0  0  0  0  # atno 10764 bound_to 10752
  153.3091  135.4184  155.1280 H   0  0  0  0  0  0  0  0  0  0  0  0  # atno 10765 bound_to 10752
  139.9303  134.7592  156.1383 H   0  0  0  0  0  0  0  0  0  0  0  0  # atno 11005 bound_to 11000
  144.8017  139.6128  143.7069 LP  0  0  0  0  0  0  0  0  0  0  0  0  # atno 17320 bound_to 7965
  146.2464  139.6107  142.9457 LP  0  0  0  0  0  0  0  0  0  0  0  0  # atno 17321 bound_to 7965
  140.7600  143.5916  150.8791 LP  0  0  0  0  0  0  0  0  0  0  0  0  # atno 17342 bound_to 10162
  139.9577  143.6199  152.3011 LP  0  0  0  0  0  0  0  0  0  0  0  0  # atno 17343 bound_to 10162
  157.6108  130.8582  149.8949 LP  0  0  0  0  0  0  0  0  0  0  0  0  # atno 17370 bound_to 10713
  156.0650  130.3693  150.0899 LP  0  0  0  0  0  0  0  0  0  0  0  0  # atno 17371 bound_to 10713
  141.0887  133.6723  156.2493 LP  0  0  0  0  0  0  0  0  0  0  0  0  # atno 17394 bound_to 11000
  140.6221  134.5351  157.5549 LP  0  0  0  0  0  0  0  0  0  0  0  0  # atno 17395 bound_to 11000

$$$$
