AV-unprocessed.smi:284|AV-procd|sdf|2160|dock5
  -GOLD-   2262021513D 1   1.00000     0.00000
 Structure written by MMmdl.
 60 62  0  0  0  0  0  0  0  0  1 V2000
  158.3341  144.6497  168.9049 C   0  0  0  0  0  0  0  0  0  0  0  0
  158.2626  144.0068  167.5288 C   0  0  0  0  0  0  0  0  0  0  0  0
  159.2701  144.1139  166.6323 C   0  0  0  0  0  0  0  0  0  0  0  0
  159.2376  143.5423  165.3739 N   0  0  0  0  0  0  0  0  0  0  0  0
  160.3928  143.6974  164.4090 C   0  0  1  0  0  0  0  0  0  0  0  0
  159.9002  144.2535  163.0710 C   0  0  0  0  0  0  0  0  0  0  0  0
  160.2664  145.7193  163.1858 C   0  0  2  0  0  0  0  0  0  0  0  0
  160.4642  146.2923  161.9097 O   0  0  0  0  0  0  0  0  0  0  0  0
  161.5565  145.6622  164.0077 C   0  0  1  0  0  0  0  0  0  0  0  0
  161.8686  146.9673  164.7570 C   0  0  0  0  0  0  0  0  0  0  0  0
  160.7499  147.3690  165.5185 O   0  0  0  0  0  0  0  0  0  0  0  0
  161.3144  144.6068  164.9365 O   0  0  0  0  0  0  0  0  0  0  0  0
  158.0940  142.8285  164.9619 C   0  0  0  0  0  0  0  0  0  0  0  0
  158.0285  142.3344  163.8338 O   0  0  0  0  0  0  0  0  0  0  0  0
  157.0230  142.6978  165.8747 N   0  0  0  0  0  0  0  0  0  0  0  0
  155.8348  141.9213  165.4555 C   0  0  0  0  0  0  0  0  0  0  0  0
  154.9356  142.6785  164.4657 C   0  0  0  0  0  0  0  0  0  0  0  0
  154.5666  143.8263  164.7169 O   0  0  0  0  0  0  0  0  0  0  0  0
  154.6422  142.0123  163.3339 N   0  0  0  0  0  0  0  0  0  0  0  0
  153.8179  142.4132  162.2470 C   0  0  0  0  0  0  0  0  0  0  0  0
  153.9174  141.6692  161.0554 C   0  0  0  0  0  0  0  0  0  0  0  0
  153.1197  141.9867  159.9393 C   0  0  0  0  0  0  0  0  0  0  0  0
  152.1930  143.0568  159.9905 C   0  0  0  0  0  0  0  0  0  0  0  0
  151.3013  143.4357  158.7925 C   0  0  0  0  0  0  0  0  0  0  0  0
  150.2900  144.5199  159.2205 C   0  0  0  0  0  0  0  0  0  0  0  0
  150.4960  142.2390  158.2375 C   0  0  0  0  0  0  0  0  0  0  0  0
  152.1788  143.9810  157.6468 C   0  0  0  0  0  0  0  0  0  0  0  0
  152.0914  143.7917  161.1951 C   0  0  0  0  0  0  0  0  0  0  0  0
  152.8857  143.4742  162.3131 C   0  0  0  0  0  0  0  0  0  0  0  0
  157.0556  143.2548  167.1770 C   0  0  0  0  0  0  0  0  0  0  0  0
  156.1098  143.0985  167.9516 O   0  0  0  0  0  0  0  0  0  0  0  0
  159.2725  145.1844  169.0551 H   0  0  0  0  0  0  0  0  0  0  0  0
  158.2543  143.8916  169.6848 H   0  0  0  0  0  0  0  0  0  0  0  0
  157.5198  145.3632  169.0351 H   0  0  0  0  0  0  0  0  0  0  0  0
  160.1413  144.6816  166.9217 H   0  0  0  0  0  0  0  0  0  0  0  0
  160.8699  142.7200  164.3262 H   0  0  0  0  0  0  0  0  0  0  0  0
  160.4659  143.7680  162.2741 H   0  0  0  0  0  0  0  0  0  0  0  0
  158.8369  144.0715  162.9093 H   0  0  0  0  0  0  0  0  0  0  0  0
  159.4864  146.2616  163.7221 H   0  0  0  0  0  0  0  0  0  0  0  0
  160.3198  147.2242  161.9719 H   0  0  0  0  0  0  0  0  0  0  0  0
  162.3855  145.3722  163.3588 H   0  0  0  0  0  0  0  0  0  0  0  0
  162.6948  146.8120  165.4516 H   0  0  0  0  0  0  0  0  0  0  0  0
  162.1671  147.7607  164.0716 H   0  0  0  0  0  0  0  0  0  0  0  0
  160.9578  147.2684  166.4350 H   0  0  0  0  0  0  0  0  0  0  0  0
  156.1135  140.9703  164.9998 H   0  0  0  0  0  0  0  0  0  0  0  0
  155.2459  141.6300  166.3273 H   0  0  0  0  0  0  0  0  0  0  0  0
  155.0974  141.1183  163.2213 H   0  0  0  0  0  0  0  0  0  0  0  0
  154.6140  140.8462  160.9892 H   0  0  0  0  0  0  0  0  0  0  0  0
  153.2422  141.3853  159.0524 H   0  0  0  0  0  0  0  0  0  0  0  0
  149.6289  144.7930  158.3970 H   0  0  0  0  0  0  0  0  0  0  0  0
  150.7819  145.4351  159.5498 H   0  0  0  0  0  0  0  0  0  0  0  0
  149.6620  144.1718  160.0415 H   0  0  0  0  0  0  0  0  0  0  0  0
  149.8264  141.8193  158.9894 H   0  0  0  0  0  0  0  0  0  0  0  0
  151.1503  141.4418  157.8823 H   0  0  0  0  0  0  0  0  0  0  0  0
  149.8754  142.5394  157.3925 H   0  0  0  0  0  0  0  0  0  0  0  0
  151.5772  144.2393  156.7746 H   0  0  0  0  0  0  0  0  0  0  0  0
  152.9153  143.2420  157.3289 H   0  0  0  0  0  0  0  0  0  0  0  0
  152.7217  144.8807  157.9371 H   0  0  0  0  0  0  0  0  0  0  0  0
  151.3924  144.6105  161.2768 H   0  0  0  0  0  0  0  0  0  0  0  0
  152.7486  144.0528  163.2130 H   0  0  0  0  0  0  0  0  0  0  0  0
  1  2  1  0  0  0  0
  1 32  1  0  0  0  0
  1 33  1  0  0  0  0
  1 34  1  0  0  0  0
  2 30  1  0  0  0  0
  2  3  2  0  0  0  0
  3  4  1  0  0  0  0
  3 35  1  0  0  0  0
  4  5  1  0  0  0  0
  4 13  1  0  0  0  0
  5 12  1  0  0  0  0
  5  6  1  0  0  0  0
  5 36  1  0  0  0  0
  6  7  1  0  0  0  0
  6 37  1  0  0  0  0
  6 38  1  0  0  0  0
  7  8  1  0  0  0  0
  7  9  1  0  0  0  0
  7 39  1  0  0  0  0
  8 40  1  0  0  0  0
  9 10  1  0  0  0  0
  9 12  1  0  0  0  0
  9 41  1  0  0  0  0
 10 11  1  0  0  0  0
 10 42  1  0  0  0  0
 10 43  1  0  0  0  0
 11 44  1  0  0  0  0
 13 14  2  0  0  0  0
 13 15  1  0  0  0  0
 15 16  1  0  0  0  0
 15 30  1  0  0  0  0
 16 17  1  0  0  0  0
 16 45  1  0  0  0  0
 16 46  1  0  0  0  0
 17 18  2  0  0  0  0
 17 19  1  0  0  0  0
 19 20  1  0  0  0  0
 19 47  1  0  0  0  0
 20 29  1  0  0  0  0
 20 21  2  0  0  0  0
 21 22  1  0  0  0  0
 21 48  1  0  0  0  0
 22 23  2  0  0  0  0
 22 49  1  0  0  0  0
 23 24  1  0  0  0  0
 23 28  1  0  0  0  0
 24 25  1  0  0  0  0
 24 26  1  0  0  0  0
 24 27  1  0  0  0  0
 25 50  1  0  0  0  0
 25 51  1  0  0  0  0
 25 52  1  0  0  0  0
 26 53  1  0  0  0  0
 26 54  1  0  0  0  0
 26 55  1  0  0  0  0
 27 56  1  0  0  0  0
 27 57  1  0  0  0  0
 27 58  1  0  0  0  0
 28 29  2  0  0  0  0
 28 59  1  0  0  0  0
 29 60  1  0  0  0  0
 30 31  2  0  0  0  0
M  END
> <s_m_source_file>
AV-unprocessed.smi

> <i_m_source_file_index>
284

> <i_lp_mmshare_version>
43012

> <i_f3d_flags>
0

> <s_epik_input>
W09IXVtDSDJdW0NAQEhdKE8xKVtDQEhdKFtPSF0pW0NIMl1bQ0BIXTFuKFtjSF1jMltDSDNdKWMoPU8pbihjMj1PKVtDSDJdQyg9TylbTkhdYzNbY0hdW2NIXWMoQyhbQ0gzXSkoW0NIM10pW0NIM10pW2NIXVtjSF0z

> <s_epik_cmdline>
J2VwaWtfcHl0aG9uJywgJy1waCcsICc3LjAnLCAnLXRuJywgJzgnLCAnLW1hJywgJzIwMCcsICctbWV0YWxfYmluZGluZycsICctaW1hZScsICc8aW5maWxlLm1hZT4nLCAnLW9tYWUnLCAnPG91dGZpbGUubWFlPic=

> <r_lp_tautomer_probability>
1

> <r_epik_Ionization_Penalty>
4.92358e-06

> <r_epik_Ionization_Penalty_Charging>
1.29777e-07

> <r_epik_Ionization_Penalty_Neutral>
4.79381e-06

> <r_epik_State_Penalty>
-0

> <r_epik_Charging_Adjusted_Penalty>
1.29777e-07

> <i_epik_Tot_Q>
0

> <i_epik_Tot_abs_Q>
0

> <r_epik_Metal_State_Penalty>
-0

> <b_epik_Metal_Only>
0

> <s_epik_Chemistry_Notes>
This compound contains an acetal/aminal-like group ( X-CH(R)-Y where X, Y are N, S, or O) that may be acid/base labile, releasing an aldehyde.

> <s_lp_Force_Field>
OPLS_2005

> <r_lp_Energy>
39.3511

> <b_lp_Chiralities_Consistent>
1

> <s_lp_Variant>
AV-unprocessed.smi:284-4

> <Gold.Version>
5.8.1

> <Gold.Id.Protein>
6NUR|6NUR_protein|mol2

> <Gold.PLP.Fitness>
51.0744

> <Gold.PLP.PLP>
-52.1404

> <Gold.PLP.part.hbond>
-3.4194

> <Gold.PLP.part.metal>
0.0000

> <Gold.PLP.part.buried>
-6.3546

> <Gold.PLP.part.nonpolar>
-41.3094

> <Gold.PLP.part.repulsive>
0.1370

> <Gold.PLP.ligand.clash>
0.0000

> <Gold.PLP.ligand.torsion>
0.5784

> <Gold.PLP.Chemscore.Hbond>
0.0000

> <Gold.PLP.Chemscore.CHOScore>
0.0000

> <Gold.PLP.Chemscore.Metal>
0.0000

> <Gold.PLP.Chemscore.Internal.Correction>
0.0908

> <Gold.Rescore>
     Score         DG    S(hbond)    S(metal)    S(lipo)     H(rot)  DE(clash)    DE(int)     intcor
      8.39     -12.36       0.00        0.00     130.43       3.27       0.71       3.26       ----

> <Gold.Chemscore.Fitness>
8.3945

> <Gold.Chemscore.DG>
-12.3605

> <Gold.Chemscore.ZeroCoef>
-5.4800

> <Gold.Chemscore.Hbond>
0.0000

> <Gold.Chemscore.Metal>
0.0000

> <Gold.Chemscore.Lipo>
130.4319

> <Gold.Chemscore.Internal_Hbond>
0.0000

> <Gold.Chemscore.DEClash>
0.7083

> <Gold.Chemscore.DEInternal>
3.2577

> <Gold.Chemscore.Rot>
3.2735

> <Gold.Chemscore.Internal.Correction>
   9.000000E+99

> <Gold.Chemscore.Hbond.Weighted>
-0.0000

> <Gold.Chemscore.Metal.Weighted>
-0.0000

> <Gold.Chemscore.Lipo.Weighted>
-15.2605

> <Gold.Chemscore.Internal_Hbond.Weighted>
0.0000

> <Gold.Chemscore.DEClash.Weighted>
0.7083

> <Gold.Chemscore.DEInternal.Weighted>
3.2577

> <Gold.Chemscore.Rot.Weighted>
8.3801

> <Gold.Chemscore.Internal.Correction.Weighted>
   9.000000E+99

> <Gold.Protein.RotatedTorsions>
[ 6907 6896 6895 6894 ] final   97.81 input  -60.11 | X-H torsion
[ 7974 7965 7964 7962 ] final  -10.00 input  175.53 | X-H torsion
[ 8008 7997 7996 7995 ] final   45.29 input   59.86 | X-H torsion
[ 10167 10162 10161 10158 ] final -108.07 input  -65.29 | X-H torsion
[ 10718 10713 10712 10709 ] final -128.48 input   66.30 | X-H torsion
[ 10763 10752 10751 10750 ] final  -22.91 input  -60.55 | X-H torsion
[ 11005 11000 10999 10996 ] final  128.71 input  -57.11 | X-H torsion

> <Gold.Protein.ActiveResidues>
 VAL166  LYS551  ARG553  GLY616  TRP617  ASP618  TYR619  PRO620  LYS621  CYS622 
 ASP623  PHE694  ASN695  SER759  ASP760  ASP761  ALA762  ILE779  LEU786  VAL792 
 PHE793  MET794  SER795  GLU796  ALA797  LYS798  CYS799  TRP800  GLU811  SER814 

> <Gold.Protein.RotatedAtoms>
  152.5418  134.0677  159.8179 H   0  0  0  0  0  0  0  0  0  0  0  0  # atno 6907 bound_to 6896
  151.0796  133.5393  159.2629 H   0  0  0  0  0  0  0  0  0  0  0  0  # atno 6908 bound_to 6896
  151.2226  135.0532  159.9010 H   0  0  0  0  0  0  0  0  0  0  0  0  # atno 6909 bound_to 6896
  146.2234  140.2700  142.8356 H   0  0  0  0  0  0  0  0  0  0  0  0  # atno 7974 bound_to 7965
  155.3334  140.3404  155.4239 H   0  0  0  0  0  0  0  0  0  0  0  0  # atno 8008 bound_to 7997
  156.1850  140.1677  156.8239 H   0  0  0  0  0  0  0  0  0  0  0  0  # atno 8009 bound_to 7997
  154.5376  140.0732  156.8437 H   0  0  0  0  0  0  0  0  0  0  0  0  # atno 8010 bound_to 7997
  140.1701  143.4050  152.1361 H   0  0  0  0  0  0  0  0  0  0  0  0  # atno 10167 bound_to 10162
  156.1955  130.6823  151.0476 H   0  0  0  0  0  0  0  0  0  0  0  0  # atno 10718 bound_to 10713
  153.6594  135.6977  153.5182 H   0  0  0  0  0  0  0  0  0  0  0  0  # atno 10763 bound_to 10752
  153.2643  135.4235  155.0924 H   0  0  0  0  0  0  0  0  0  0  0  0  # atno 10764 bound_to 10752
  154.8456  135.3562  154.6139 H   0  0  0  0  0  0  0  0  0  0  0  0  # atno 10765 bound_to 10752
  139.9575  134.9609  156.9042 H   0  0  0  0  0  0  0  0  0  0  0  0  # atno 11005 bound_to 11000
  144.9275  140.7938  143.5710 LP  0  0  0  0  0  0  0  0  0  0  0  0  # atno 17320 bound_to 7965
  145.2641  139.1980  143.4876 LP  0  0  0  0  0  0  0  0  0  0  0  0  # atno 17321 bound_to 7965
  139.5342  144.7191  151.4952 LP  0  0  0  0  0  0  0  0  0  0  0  0  # atno 17342 bound_to 10162
  140.6587  143.8544  150.6864 LP  0  0  0  0  0  0  0  0  0  0  0  0  # atno 17343 bound_to 10162
  157.6955  131.0795  150.6982 LP  0  0  0  0  0  0  0  0  0  0  0  0  # atno 17370 bound_to 10713
  156.7039  130.4631  149.5565 LP  0  0  0  0  0  0  0  0  0  0  0  0  # atno 17371 bound_to 10713
  140.5575  134.0567  155.7388 LP  0  0  0  0  0  0  0  0  0  0  0  0  # atno 17394 bound_to 11000
  141.1249  133.9400  157.2656 LP  0  0  0  0  0  0  0  0  0  0  0  0  # atno 17395 bound_to 11000

$$$$
