AV-unprocessed.smi:528|AV-procd|sdf|2834|dock6
  -GOLD-   2262023323D 1   1.00000     0.00000
 Structure written by MMmdl.
 45 47  0  0  0  0  0  0  0  0  1 V2000
  150.9258  140.3704  157.6387 C   0  0  0  0  0  0  0  0  0  0  0  0
  151.0568  141.8452  157.2240 C   0  0  1  0  0  0  0  0  0  0  0  0
  150.0627  142.1187  156.1877 N   0  0  0  0  0  0  0  0  0  0  0  0
  149.8300  141.3678  155.0995 C   0  0  0  0  0  0  0  0  0  0  0  0
  150.4184  140.3119  154.8623 O   0  0  0  0  0  0  0  0  0  0  0  0
  148.7603  141.8949  154.1341 C   0  0  0  0  0  0  0  0  0  0  0  0
  147.3915  141.5910  154.5835 N   0  0  0  0  0  0  0  0  0  0  0  0
  146.5208  142.6805  154.7821 C   0  0  0  0  0  0  0  0  0  0  0  0
  145.2515  142.5358  155.2086 C   0  0  0  0  0  0  0  0  0  0  0  0
  144.3180  143.7266  155.3629 C   0  0  0  0  0  0  0  0  0  0  0  0
  144.6886  144.4968  156.3861 F   0  0  0  0  0  0  0  0  0  0  0  0
  144.3423  144.4673  154.2561 F   0  0  0  0  0  0  0  0  0  0  0  0
  143.0615  143.3309  155.5701 F   0  0  0  0  0  0  0  0  0  0  0  0
  144.7955  141.1774  155.4288 C   0  0  0  0  0  0  0  0  0  0  0  0
  145.6130  140.1238  155.2369 C   0  0  0  0  0  0  0  0  0  0  0  0
  146.9983  140.2986  154.7948 C   0  0  0  0  0  0  0  0  0  0  0  0
  147.7573  139.3438  154.6238 O   0  0  0  0  0  0  0  0  0  0  0  0
  150.8663  142.8117  158.4209 C   0  0  1  0  0  0  0  0  0  0  0  0
  151.8043  142.5049  159.6144 C   0  0  0  0  0  0  0  0  0  0  0  0
  152.4999  143.8521  159.8773 C   0  0  2  0  0  0  0  0  0  0  0  0
  151.4833  144.8524  160.4560 C   0  0  0  0  0  0  0  0  0  0  0  0
  150.6026  145.1802  159.2366 C   0  0  0  0  0  0  0  0  0  0  0  0
  151.2102  144.2969  158.1301 C   0  0  1  0  0  0  0  0  0  0  0  0
  152.6963  144.3768  158.4613 C   0  0  0  0  0  0  0  0  0  0  0  0
  151.6793  140.0906  158.3747 H   0  0  0  0  0  0  0  0  0  0  0  0
  151.0534  139.7107  156.7799 H   0  0  0  0  0  0  0  0  0  0  0  0
  149.9464  140.1647  158.0721 H   0  0  0  0  0  0  0  0  0  0  0  0
  152.0609  141.9831  156.8203 H   0  0  0  0  0  0  0  0  0  0  0  0
  149.5250  142.9668  156.2942 H   0  0  0  0  0  0  0  0  0  0  0  0
  148.9044  142.9704  154.0235 H   0  0  0  0  0  0  0  0  0  0  0  0
  148.9231  141.4805  153.1370 H   0  0  0  0  0  0  0  0  0  0  0  0
  146.9535  143.6471  154.5684 H   0  0  0  0  0  0  0  0  0  0  0  0
  143.7824  141.0010  155.7592 H   0  0  0  0  0  0  0  0  0  0  0  0
  145.2402  139.1256  155.4145 H   0  0  0  0  0  0  0  0  0  0  0  0
  149.8261  142.7431  158.7438 H   0  0  0  0  0  0  0  0  0  0  0  0
  151.2602  142.1407  160.4865 H   0  0  0  0  0  0  0  0  0  0  0  0
  152.5506  141.7530  159.3551 H   0  0  0  0  0  0  0  0  0  0  0  0
  153.4125  143.7645  160.4675 H   0  0  0  0  0  0  0  0  0  0  0  0
  150.9109  144.4274  161.2813 H   0  0  0  0  0  0  0  0  0  0  0  0
  151.9831  145.7505  160.8206 H   0  0  0  0  0  0  0  0  0  0  0  0
  149.5478  144.9660  159.4120 H   0  0  0  0  0  0  0  0  0  0  0  0
  150.6879  146.2362  158.9767 H   0  0  0  0  0  0  0  0  0  0  0  0
  150.9477  144.6445  157.1315 H   0  0  0  0  0  0  0  0  0  0  0  0
  153.0934  145.3928  158.4270 H   0  0  0  0  0  0  0  0  0  0  0  0
  153.3172  143.7304  157.8392 H   0  0  0  0  0  0  0  0  0  0  0  0
  1  2  1  0  0  0  0
  1 25  1  0  0  0  0
  1 26  1  0  0  0  0
  1 27  1  0  0  0  0
  2  3  1  0  0  0  0
  2 18  1  0  0  0  0
  2 28  1  0  0  0  0
  3  4  1  0  0  0  0
  3 29  1  0  0  0  0
  4  5  2  0  0  0  0
  4  6  1  0  0  0  0
  6  7  1  0  0  0  0
  6 30  1  0  0  0  0
  6 31  1  0  0  0  0
  7 16  1  0  0  0  0
  7  8  1  0  0  0  0
  8  9  2  0  0  0  0
  8 32  1  0  0  0  0
  9 10  1  0  0  0  0
  9 14  1  0  0  0  0
 10 11  1  0  0  0  0
 10 12  1  0  0  0  0
 10 13  1  0  0  0  0
 14 15  2  0  0  0  0
 14 33  1  0  0  0  0
 15 16  1  0  0  0  0
 15 34  1  0  0  0  0
 16 17  2  0  0  0  0
 18 23  1  0  0  0  0
 18 19  1  0  0  0  0
 18 35  1  0  0  0  0
 19 20  1  0  0  0  0
 19 36  1  0  0  0  0
 19 37  1  0  0  0  0
 20 24  1  0  0  0  0
 20 21  1  0  0  0  0
 20 38  1  0  0  0  0
 21 22  1  0  0  0  0
 21 39  1  0  0  0  0
 21 40  1  0  0  0  0
 22 23  1  0  0  0  0
 22 41  1  0  0  0  0
 22 42  1  0  0  0  0
 23 24  1  0  0  0  0
 23 43  1  0  0  0  0
 24 44  1  0  0  0  0
 24 45  1  0  0  0  0
M  END
> <s_m_source_file>
AV-unprocessed.smi

> <i_m_source_file_index>
528

> <i_lp_mmshare_version>
43012

> <i_f3d_flags>
0

> <s_epik_input>
W0NIMl0xW0NIMl1bQ0BASF0oW0NIMl0yKVtDQEBIXShbQ0gyXVtDQEhdMTIpW0NASF0oW0NIM10pW05IXUMoPU8pW0NIMl1uM1tjSF1jKEMoRikoRilGKVtjSF1bY0hdYzM9Tw==

> <s_epik_cmdline>
J2VwaWtfcHl0aG9uJywgJy1waCcsICc3LjAnLCAnLXRuJywgJzgnLCAnLW1hJywgJzIwMCcsICctbWV0YWxfYmluZGluZycsICctaW1hZScsICc8aW5maWxlLm1hZT4nLCAnLW9tYWUnLCAnPG91dGZpbGUubWFlPic=

> <r_lp_tautomer_probability>
1

> <r_epik_Ionization_Penalty>
4.09479e-08

> <r_epik_Ionization_Penalty_Charging>
1.9321e-08

> <r_epik_Ionization_Penalty_Neutral>
2.16269e-08

> <r_epik_State_Penalty>
-0

> <r_epik_Charging_Adjusted_Penalty>
1.9321e-08

> <i_epik_Tot_Q>
0

> <i_epik_Tot_abs_Q>
0

> <r_epik_Metal_State_Penalty>
-0

> <b_epik_Metal_Only>
0

> <s_lp_Force_Field>
OPLS_2005

> <r_lp_Energy>
62.5946

> <b_lp_Chiralities_Consistent>
1

> <s_lp_Variant>
AV-unprocessed.smi:528-4

> <Gold.Version>
5.8.1

> <Gold.Id.Protein>
6NUR|6NUR_protein|mol2

> <Gold.PLP.Fitness>
55.4471

> <Gold.PLP.PLP>
-49.6287

> <Gold.PLP.part.hbond>
-2.0000

> <Gold.PLP.part.metal>
0.0000

> <Gold.PLP.part.buried>
-4.1809

> <Gold.PLP.part.nonpolar>
-44.5709

> <Gold.PLP.part.repulsive>
0.2503

> <Gold.PLP.ligand.clash>
0.0000

> <Gold.PLP.ligand.torsion>
0.6686

> <Gold.PLP.Chemscore.Hbond>
2.0000

> <Gold.PLP.Chemscore.CHOScore>
0.3647

> <Gold.PLP.Chemscore.Metal>
0.0000

> <Gold.Chemscore.Hbonds>
donor molecule, donor type, donor heavy atom, donor atom, acceptor molecule, acceptor atom, score
      L1  H     3    29       P1  8028  1.00
      P1  H  7989  7998       L1     5  1.00
      L1  C     8    32       P1  8028  0.38

> <Gold.PLP.Chemscore.Internal.Correction>
0.0615

> <Gold.Rescore>
     Score         DG    S(hbond)    S(metal)    S(lipo)     H(rot)  DE(clash)    DE(int)     intcor
     16.23     -20.55       1.67        0.00     118.68       1.71       0.60       3.72       ----

> <Gold.Chemscore.Fitness>
16.2256

> <Gold.Chemscore.DG>
-20.5465

> <Gold.Chemscore.ZeroCoef>
-5.4800

> <Gold.Chemscore.Hbond>
1.6662

> <Gold.Chemscore.Metal>
0.0000

> <Gold.Chemscore.Lipo>
118.6769

> <Gold.Chemscore.Internal_Hbond>
0.0000

> <Gold.Chemscore.DEClash>
0.5971

> <Gold.Chemscore.DEInternal>
3.7238

> <Gold.Chemscore.Rot>
1.7125

> <Gold.Chemscore.Internal.Correction>
   9.000000E+99

> <Gold.Chemscore.Hbonds>
donor molecule, donor type, donor heavy atom, donor atom, acceptor molecule, acceptor atom, score
      L1  H     3    29       P1  8028  0.95
      P1  H  7989  7998       L1     5  0.25

> <Gold.Chemscore.Hbond.Weighted>
-5.5652

> <Gold.Chemscore.Metal.Weighted>
-0.0000

> <Gold.Chemscore.Lipo.Weighted>
-13.8852

> <Gold.Chemscore.Internal_Hbond.Weighted>
0.0000

> <Gold.Chemscore.DEClash.Weighted>
0.5971

> <Gold.Chemscore.DEInternal.Weighted>
3.7238

> <Gold.Chemscore.Rot.Weighted>
4.3840

> <Gold.Chemscore.Internal.Correction.Weighted>
   9.000000E+99

> <Gold.Protein.RotatedTorsions>
[ 6907 6896 6895 6894 ] final -160.09 input  -60.11 | X-H torsion
[ 7974 7965 7964 7962 ] final  112.60 input  175.53 | X-H torsion
[ 8008 7997 7996 7995 ] final  -25.74 input   59.86 | X-H torsion
[ 10167 10162 10161 10158 ] final -115.03 input  -65.29 | X-H torsion
[ 10718 10713 10712 10709 ] final  104.03 input   66.30 | X-H torsion
[ 10763 10752 10751 10750 ] final   -9.36 input  -60.55 | X-H torsion
[ 11005 11000 10999 10996 ] final -158.94 input  -57.11 | X-H torsion

> <Gold.Protein.ActiveResidues>
 VAL166  LYS551  ARG553  GLY616  TRP617  ASP618  TYR619  PRO620  LYS621  CYS622 
 ASP623  PHE694  ASN695  SER759  ASP760  ASP761  ALA762  ILE779  LEU786  VAL792 
 PHE793  MET794  SER795  GLU796  ALA797  LYS798  CYS799  TRP800  GLU811  SER814 

> <Gold.Protein.RotatedAtoms>
  151.3437  133.3952  159.2673 H   0  0  0  0  0  0  0  0  0  0  0  0  # atno 6907 bound_to 6896
  150.9857  134.9204  159.7881 H   0  0  0  0  0  0  0  0  0  0  0  0  # atno 6908 bound_to 6896
  152.5231  134.3401  159.9266 H   0  0  0  0  0  0  0  0  0  0  0  0  # atno 6909 bound_to 6896
  145.2275  139.2834  143.4185 H   0  0  0  0  0  0  0  0  0  0  0  0  # atno 7974 bound_to 7965
  154.4460  140.1918  156.0666 H   0  0  0  0  0  0  0  0  0  0  0  0  # atno 8008 bound_to 7997
  156.0543  140.3304  155.7360 H   0  0  0  0  0  0  0  0  0  0  0  0  # atno 8009 bound_to 7997
  155.5510  140.0595  157.2841 H   0  0  0  0  0  0  0  0  0  0  0  0  # atno 8010 bound_to 7997
  140.0945  143.4669  152.1850 H   0  0  0  0  0  0  0  0  0  0  0  0  # atno 10167 bound_to 10162
  157.6753  131.0794  150.5645 H   0  0  0  0  0  0  0  0  0  0  0  0  # atno 10718 bound_to 10713
  153.4536  135.7015  153.6093 H   0  0  0  0  0  0  0  0  0  0  0  0  # atno 10763 bound_to 10752
  153.4418  135.3778  155.2232 H   0  0  0  0  0  0  0  0  0  0  0  0  # atno 10764 bound_to 10752
  154.8728  135.3975  154.3952 H   0  0  0  0  0  0  0  0  0  0  0  0  # atno 10765 bound_to 10752
  140.6481  134.4479  157.5234 H   0  0  0  0  0  0  0  0  0  0  0  0  # atno 11005 bound_to 11000
  146.3361  140.2600  142.8601 LP  0  0  0  0  0  0  0  0  0  0  0  0  # atno 17320 bound_to 7965
  144.9707  140.8366  143.5457 LP  0  0  0  0  0  0  0  0  0  0  0  0  # atno 17321 bound_to 7965
  139.5706  144.7460  151.3902 LP  0  0  0  0  0  0  0  0  0  0  0  0  # atno 17342 bound_to 10162
  140.7011  143.7630  150.7404 LP  0  0  0  0  0  0  0  0  0  0  0  0  # atno 17343 bound_to 10162
  156.5947  130.4338  149.5922 LP  0  0  0  0  0  0  0  0  0  0  0  0  # atno 17370 bound_to 10713
  156.2555  130.6932  151.1683 LP  0  0  0  0  0  0  0  0  0  0  0  0  # atno 17371 bound_to 10713
  139.9055  134.8458  156.1722 LP  0  0  0  0  0  0  0  0  0  0  0  0  # atno 17394 bound_to 11000
  141.0557  133.6866  156.1856 LP  0  0  0  0  0  0  0  0  0  0  0  0  # atno 17395 bound_to 11000

$$$$
