AV-unprocessed.smi:2801|AV-procd|sdf|10801|dock1
  -GOLD-   2272015233D 1   1.00000     0.00000
 Structure written by MMmdl.
 31 31  0  0  0  0  0  0  0  0  2 V2000
  153.4635  142.1855  162.2284 C   0  0  0  0  0  0  0  0  0  0  0  0
  152.5026  143.2587  161.7125 C   0  0  0  0  0  0  0  0  0  0  0  0
  151.7279  142.7046  160.6557 O   0  0  0  0  0  0  0  0  0  0  0  0
  152.1525  143.0520  159.3392 C   0  0  2  0  0  0  0  0  0  0  0  0
  152.2289  144.5885  159.2573 C   0  0  0  0  0  0  0  0  0  0  0  0
  150.9288  145.2726  159.6982 C   0  0  0  0  0  0  0  0  0  0  0  0
  151.1697  142.4874  158.2998 C   0  0  0  0  0  0  0  0  0  0  0  0
  149.9830  142.8107  158.3496 O   0  0  0  0  0  0  0  0  0  0  0  0
  151.7004  141.6322  157.4066 N   0  0  0  0  0  0  0  0  0  0  0  0
  151.0816  140.9396  156.3273 C   0  0  0  0  0  0  0  0  0  0  0  0
  149.9293  141.4027  155.6466 C   0  0  0  0  0  0  0  0  0  0  0  0
  149.4202  140.6367  154.5796 C   0  0  0  0  0  0  0  0  0  0  0  0
  149.9746  139.4811  154.1592 N   0  0  0  0  0  0  0  0  0  0  0  0
  151.0793  139.0467  154.8008 C   0  0  0  0  0  0  0  0  0  0  0  0
  151.6720  139.7332  155.8809 C   0  0  0  0  0  0  0  0  0  0  0  0
  152.7956  139.2237  156.4723 O   0  5  0  0  0  0  0  0  0  0  0  0
  154.0785  142.5718  163.0413 H   0  0  0  0  0  0  0  0  0  0  0  0
  154.1306  141.8451  161.4362 H   0  0  0  0  0  0  0  0  0  0  0  0
  152.9181  141.3191  162.6031 H   0  0  0  0  0  0  0  0  0  0  0  0
  151.8497  143.5898  162.5215 H   0  0  0  0  0  0  0  0  0  0  0  0
  153.0721  144.1244  161.3730 H   0  0  0  0  0  0  0  0  0  0  0  0
  153.1497  142.6452  159.1576 H   0  0  0  0  0  0  0  0  0  0  0  0
  153.0423  144.9504  159.8880 H   0  0  0  0  0  0  0  0  0  0  0  0
  152.4706  144.8970  158.2390 H   0  0  0  0  0  0  0  0  0  0  0  0
  151.0217  146.3570  159.6392 H   0  0  0  0  0  0  0  0  0  0  0  0
  150.6784  145.0157  160.7278 H   0  0  0  0  0  0  0  0  0  0  0  0
  150.0917  144.9767  159.0653 H   0  0  0  0  0  0  0  0  0  0  0  0
  152.6755  141.4054  157.5402 H   0  0  0  0  0  0  0  0  0  0  0  0
  149.4342  142.3246  155.9052 H   0  0  0  0  0  0  0  0  0  0  0  0
  148.5432  140.9671  154.0431 H   0  0  0  0  0  0  0  0  0  0  0  0
  151.5044  138.1223  154.4377 H   0  0  0  0  0  0  0  0  0  0  0  0
  1  2  1  0  0  0  0
  1 17  1  0  0  0  0
  1 18  1  0  0  0  0
  1 19  1  0  0  0  0
  2  3  1  0  0  0  0
  2 20  1  0  0  0  0
  2 21  1  0  0  0  0
  3  4  1  0  0  0  0
  4  5  1  0  0  0  0
  4  7  1  0  0  0  0
  4 22  1  0  0  0  0
  5  6  1  0  0  0  0
  5 23  1  0  0  0  0
  5 24  1  0  0  0  0
  6 25  1  0  0  0  0
  6 26  1  0  0  0  0
  6 27  1  0  0  0  0
  7  8  2  0  0  0  0
  7  9  1  0  0  0  0
  9 28  1  0  0  0  0
  9 10  1  0  0  0  0
 10 11  2  0  0  0  0
 10 15  1  0  0  0  0
 11 12  1  0  0  0  0
 11 29  1  0  0  0  0
 12 13  2  0  0  0  0
 12 30  1  0  0  0  0
 13 14  1  0  0  0  0
 14 15  2  0  0  0  0
 14 31  1  0  0  0  0
 15 16  1  0  0  0  0
M  CHG  1  16  -1
M  END
> <s_m_source_file>
AV-unprocessed.smi

> <i_m_source_file_index>
2801

> <i_lp_mmshare_version>
43012

> <i_f3d_flags>
0

> <s_epik_input>
W0NIM11bQ0gyXU9bQ0BIXShbQ0gyXVtDSDNdKUMoPU8pW05IXWMxW2NIXVtjSF1uW2NIXWMxW09IXQ==

> <s_epik_cmdline>
J2VwaWtfcHl0aG9uJywgJy1waCcsICc3LjAnLCAnLXRuJywgJzgnLCAnLW1hJywgJzIwMCcsICctbWV0YWxfYmluZGluZycsICctaW1hZScsICc8aW5maWxlLm1hZT4nLCAnLW9tYWUnLCAnPG91dGZpbGUubWFlPic=

> <r_lp_tautomer_probability>
0.56342

> <r_epik_Ionization_Penalty>
4.38321

> <r_epik_Ionization_Penalty_Charging>
2.0641

> <r_epik_Ionization_Penalty_Neutral>
2.31912

> <r_epik_State_Penalty>
2.63873

> <r_epik_Charging_Adjusted_Penalty>
4.70283

> <i_epik_Tot_Q>
-1

> <i_epik_Tot_abs_Q>
1

> <r_epik_Metal_State_Penalty>
0.606608

> <b_epik_Metal_Only>
1

> <s_lp_Force_Field>
OPLS_2005

> <r_lp_Energy>
9.76409

> <b_lp_Chiralities_Consistent>
1

> <s_lp_Variant>
AV-unprocessed.smi:2801-5

> <Gold.Version>
5.8.1

> <Gold.Id.Protein>
6NUR|6NUR_protein|mol2

> <Gold.PLP.Fitness>
45.3056

> <Gold.PLP.PLP>
-40.1445

> <Gold.PLP.part.hbond>
-2.9365

> <Gold.PLP.part.metal>
0.0000

> <Gold.PLP.part.buried>
-3.1615

> <Gold.PLP.part.nonpolar>
-34.6411

> <Gold.PLP.part.repulsive>
1.2014

> <Gold.PLP.ligand.clash>
0.0000

> <Gold.PLP.ligand.torsion>
0.4758

> <Gold.PLP.Chemscore.Hbond>
2.0000

> <Gold.PLP.Chemscore.CHOScore>
0.0000

> <Gold.PLP.Chemscore.Metal>
0.0000

> <Gold.Chemscore.Hbonds>
donor molecule, donor type, donor heavy atom, donor atom, acceptor molecule, acceptor atom, score
      P1  H  7997  8010       L1    16  2.00

> <Gold.PLP.Chemscore.Internal.Correction>
0.1127

> <Gold.Rescore>
     Score         DG    S(hbond)    S(metal)    S(lipo)     H(rot)  DE(clash)    DE(int)     intcor
     15.05     -15.72       0.95        0.00      94.16       1.55       0.02       0.65       ----

> <Gold.Chemscore.Fitness>
15.0532

> <Gold.Chemscore.DG>
-15.7165

> <Gold.Chemscore.ZeroCoef>
-5.4800

> <Gold.Chemscore.Hbond>
0.9517

> <Gold.Chemscore.Metal>
0.0000

> <Gold.Chemscore.Lipo>
94.1561

> <Gold.Chemscore.Internal_Hbond>
0.0000

> <Gold.Chemscore.DEClash>
0.0174

> <Gold.Chemscore.DEInternal>
0.6459

> <Gold.Chemscore.Rot>
1.5462

> <Gold.Chemscore.Internal.Correction>
   9.000000E+99

> <Gold.Chemscore.Hbonds>
donor molecule, donor type, donor heavy atom, donor atom, acceptor molecule, acceptor atom, score
      P1  H  7997  8010       L1    16  0.99

> <Gold.Chemscore.Hbond.Weighted>
-3.1786

> <Gold.Chemscore.Metal.Weighted>
-0.0000

> <Gold.Chemscore.Lipo.Weighted>
-11.0163

> <Gold.Chemscore.Internal_Hbond.Weighted>
0.0000

> <Gold.Chemscore.DEClash.Weighted>
0.0174

> <Gold.Chemscore.DEInternal.Weighted>
0.6459

> <Gold.Chemscore.Rot.Weighted>
3.9583

> <Gold.Chemscore.Internal.Correction.Weighted>
   9.000000E+99

> <Gold.Protein.RotatedTorsions>
[ 6907 6896 6895 6894 ] final -137.09 input  -60.11 | X-H torsion
[ 7974 7965 7964 7962 ] final  -87.03 input  175.53 | X-H torsion
[ 8008 7997 7996 7995 ] final   66.54 input   59.86 | X-H torsion
[ 10167 10162 10161 10158 ] final  -21.69 input  -65.29 | X-H torsion
[ 10718 10713 10712 10709 ] final   56.58 input   66.30 | X-H torsion
[ 10763 10752 10751 10750 ] final  -66.07 input  -60.55 | X-H torsion
[ 11005 11000 10999 10996 ] final  -14.80 input  -57.11 | X-H torsion

> <Gold.Protein.ActiveResidues>
 VAL166  LYS551  ARG553  GLY616  TRP617  ASP618  TYR619  PRO620  LYS621  CYS622 
 ASP623  PHE694  ASN695  SER759  ASP760  ASP761  ALA762  ILE779  LEU786  VAL792 
 PHE793  MET794  SER795  GLU796  ALA797  LYS798  CYS799  TRP800  GLU811  SER814 

> <Gold.Protein.RotatedAtoms>
  151.0182  133.5902  159.2674 H   0  0  0  0  0  0  0  0  0  0  0  0  # atno 6907 bound_to 6896
  151.3028  135.0772  159.9254 H   0  0  0  0  0  0  0  0  0  0  0  0  # atno 6908 bound_to 6896
  152.5316  133.9860  159.7883 H   0  0  0  0  0  0  0  0  0  0  0  0  # atno 6909 bound_to 6896
  145.4719  140.9559  143.1912 H   0  0  0  0  0  0  0  0  0  0  0  0  # atno 7974 bound_to 7965
  155.6790  140.3496  155.4848 H   0  0  0  0  0  0  0  0  0  0  0  0  # atno 8008 bound_to 7997
  155.9623  140.1139  157.0907 H   0  0  0  0  0  0  0  0  0  0  0  0  # atno 8009 bound_to 7997
  154.4146  140.1173  156.5182 H   0  0  0  0  0  0  0  0  0  0  0  0  # atno 8010 bound_to 7997
  140.7283  143.4604  151.0388 H   0  0  0  0  0  0  0  0  0  0  0  0  # atno 10167 bound_to 10162
  157.5443  130.8719  149.8868 H   0  0  0  0  0  0  0  0  0  0  0  0  # atno 10718 bound_to 10713
  154.3544  135.6129  153.5659 H   0  0  0  0  0  0  0  0  0  0  0  0  # atno 10763 bound_to 10752
  152.9796  135.5800  154.4706 H   0  0  0  0  0  0  0  0  0  0  0  0  # atno 10764 bound_to 10752
  154.4432  135.2851  155.1810 H   0  0  0  0  0  0  0  0  0  0  0  0  # atno 10765 bound_to 10752
  140.7901  133.8294  155.9372 H   0  0  0  0  0  0  0  0  0  0  0  0  # atno 11005 bound_to 11000
  144.7940  139.6271  143.7101 LP  0  0  0  0  0  0  0  0  0  0  0  0  # atno 17320 bound_to 7965
  146.2391  139.5966  142.9503 LP  0  0  0  0  0  0  0  0  0  0  0  0  # atno 17321 bound_to 7965
  139.8288  143.7719  152.3179 LP  0  0  0  0  0  0  0  0  0  0  0  0  # atno 17342 bound_to 10162
  139.7827  144.7438  151.0065 LP  0  0  0  0  0  0  0  0  0  0  0  0  # atno 17343 bound_to 10162
  156.0522  130.3715  150.1174 LP  0  0  0  0  0  0  0  0  0  0  0  0  # atno 17370 bound_to 10713
  156.9352  130.9726  151.3526 LP  0  0  0  0  0  0  0  0  0  0  0  0  # atno 17371 bound_to 10713
  140.9398  134.1916  157.4806 LP  0  0  0  0  0  0  0  0  0  0  0  0  # atno 17394 bound_to 11000
  139.8732  134.9867  156.5335 LP  0  0  0  0  0  0  0  0  0  0  0  0  # atno 17395 bound_to 11000

$$$$
