AV-unprocessed.smi:3156|AV-procd|sdf|12036|dock10
  -GOLD-   2272017453D 1   1.00000     0.00000
 Structure written by MMmdl.
 41 42  0  0  0  0  0  0  0  0  2 V2000
  151.5434  141.0927  155.3850 C   0  0  0  0  0  0  0  0  0  0  0  0
  150.1093  141.4933  155.7681 C   0  0  1  0  0  0  0  0  0  0  0  0
  150.1656  142.7410  156.5651 N   0  3  0  0  0  0  0  0  0  0  0  0
  150.0108  142.5591  158.0234 C   0  0  0  0  0  0  0  0  0  0  0  0
  151.1409  143.2516  158.7988 C   0  0  1  0  0  0  0  0  0  0  0  0
  150.6520  144.5022  159.5604 C   0  0  0  0  0  0  0  0  0  0  0  0
  151.7812  145.0950  160.4102 C   0  0  0  0  0  0  0  0  0  0  0  0
  152.3753  144.0061  161.3087 C   0  0  0  0  0  0  0  0  0  0  0  0
  152.7779  142.7839  160.4692 C   0  0  0  0  0  0  0  0  0  0  0  0
  151.6534  142.3075  159.7360 O   0  0  0  0  0  0  0  0  0  0  0  0
  149.1881  141.6853  154.5321 C   0  0  1  0  0  0  0  0  0  0  0  0
  149.1793  140.4716  153.5824 C   0  0  0  0  0  0  0  0  0  0  0  0
  147.8230  142.0147  154.9282 N   0  0  0  0  0  0  0  0  0  0  0  0
  146.7620  142.3713  154.1208 C   0  0  0  0  0  0  0  0  0  0  0  0
  145.6902  142.6055  154.9335 C   0  0  0  0  0  0  0  0  0  0  0  0
  146.1963  142.3608  156.2402 C   0  0  0  0  0  0  0  0  0  0  0  0
  147.4720  142.0109  156.2342 N   0  0  0  0  0  0  0  0  0  0  0  0
  151.5736  140.1197  154.8956 H   0  0  0  0  0  0  0  0  0  0  0  0
  152.1775  141.0206  156.2694 H   0  0  0  0  0  0  0  0  0  0  0  0
  151.9946  141.8217  154.7112 H   0  0  0  0  0  0  0  0  0  0  0  0
  149.7042  140.6912  156.3879 H   0  0  0  0  0  0  0  0  0  0  0  0
  151.0524  143.1934  156.3946 H   0  0  0  0  0  0  0  0  0  0  0  0
  149.0470  142.9469  158.3546 H   0  0  0  0  0  0  0  0  0  0  0  0
  150.0129  141.4894  158.2367 H   0  0  0  0  0  0  0  0  0  0  0  0
  151.9376  143.5233  158.1036 H   0  0  0  0  0  0  0  0  0  0  0  0
  150.2801  145.2551  158.8652 H   0  0  0  0  0  0  0  0  0  0  0  0
  149.8143  144.2353  160.2065 H   0  0  0  0  0  0  0  0  0  0  0  0
  152.5581  145.5008  159.7609 H   0  0  0  0  0  0  0  0  0  0  0  0
  151.4099  145.9247  161.0124 H   0  0  0  0  0  0  0  0  0  0  0  0
  153.2378  144.3927  161.8523 H   0  0  0  0  0  0  0  0  0  0  0  0
  151.6411  143.7072  162.0580 H   0  0  0  0  0  0  0  0  0  0  0  0
  153.5926  143.0313  159.7871 H   0  0  0  0  0  0  0  0  0  0  0  0
  153.1377  141.9861  161.1190 H   0  0  0  0  0  0  0  0  0  0  0  0
  149.5630  142.5370  153.9626 H   0  0  0  0  0  0  0  0  0  0  0  0
  150.1534  140.3129  153.1209 H   0  0  0  0  0  0  0  0  0  0  0  0
  148.4647  140.6172  152.7716 H   0  0  0  0  0  0  0  0  0  0  0  0
  148.9039  139.5549  154.1048 H   0  0  0  0  0  0  0  0  0  0  0  0
  146.8561  142.4318  153.0464 H   0  0  0  0  0  0  0  0  0  0  0  0
  144.6948  142.9041  154.6396 H   0  0  0  0  0  0  0  0  0  0  0  0
  145.6794  142.4285  157.1861 H   0  0  0  0  0  0  0  0  0  0  0  0
  149.4281  143.3498  156.2404 H   0  0  0  0  0  0  0  0  0  0  0  0
  1  2  1  0  0  0  0
  1 18  1  0  0  0  0
  1 19  1  0  0  0  0
  1 20  1  0  0  0  0
  2  3  1  0  0  0  0
  2 11  1  0  0  0  0
  2 21  1  0  0  0  0
  3  4  1  0  0  0  0
  3 22  1  0  0  0  0
  3 41  1  0  0  0  0
  4  5  1  0  0  0  0
  4 23  1  0  0  0  0
  4 24  1  0  0  0  0
  5 10  1  0  0  0  0
  5  6  1  0  0  0  0
  5 25  1  0  0  0  0
  6  7  1  0  0  0  0
  6 26  1  0  0  0  0
  6 27  1  0  0  0  0
  7  8  1  0  0  0  0
  7 28  1  0  0  0  0
  7 29  1  0  0  0  0
  8  9  1  0  0  0  0
  8 30  1  0  0  0  0
  8 31  1  0  0  0  0
  9 10  1  0  0  0  0
  9 32  1  0  0  0  0
  9 33  1  0  0  0  0
 11 12  1  0  0  0  0
 11 13  1  0  0  0  0
 11 34  1  0  0  0  0
 12 35  1  0  0  0  0
 12 36  1  0  0  0  0
 12 37  1  0  0  0  0
 13 17  1  0  0  0  0
 13 14  1  0  0  0  0
 14 15  2  0  0  0  0
 14 38  1  0  0  0  0
 15 16  1  0  0  0  0
 15 39  1  0  0  0  0
 16 17  2  0  0  0  0
 16 40  1  0  0  0  0
M  CHG  1   3   1
M  END
> <s_m_source_file>
AV-unprocessed.smi

> <i_m_source_file_index>
3156

> <i_lp_mmshare_version>
43012

> <i_f3d_flags>
0

> <s_epik_input>
bjFbY0hdW2NIXVtjSF1uMVtDQEBIXShbQ0gzXSlbQ0BIXShbQ0gzXSlbTkhdW0NIMl1bQ0BASF0yW0NIMl1bQ0gyXVtDSDJdW0NIMl1PMg==

> <s_epik_cmdline>
J2VwaWtfcHl0aG9uJywgJy1waCcsICc3LjAnLCAnLXRuJywgJzgnLCAnLW1hJywgJzIwMCcsICctbWV0YWxfYmluZGluZycsICctaW1hZScsICc8aW5maWxlLm1hZT4nLCAnLW9tYWUnLCAnPG91dGZpbGUubWFlPic=

> <r_lp_tautomer_probability>
1

> <r_epik_Ionization_Penalty>
0.00658015

> <r_epik_Ionization_Penalty_Charging>
0.00656881

> <r_epik_Ionization_Penalty_Neutral>
1.13431e-05

> <r_epik_State_Penalty>
0.0048654

> <r_epik_Charging_Adjusted_Penalty>
0.0114342

> <i_epik_Tot_Q>
1

> <i_epik_Tot_abs_Q>
1

> <r_epik_Metal_State_Penalty>
-0

> <b_epik_Metal_Only>
0

> <s_lp_Force_Field>
OPLS_2005

> <r_lp_Energy>
18.5215

> <b_lp_Chiralities_Consistent>
1

> <s_lp_Variant>
AV-unprocessed.smi:3156-8

> <Gold.Version>
5.8.1

> <Gold.Id.Protein>
6NUR|6NUR_protein|mol2

> <Gold.PLP.Fitness>
43.7669

> <Gold.PLP.PLP>
-41.1482

> <Gold.PLP.part.hbond>
-2.0000

> <Gold.PLP.part.metal>
0.0000

> <Gold.PLP.part.buried>
-3.0720

> <Gold.PLP.part.nonpolar>
-35.6593

> <Gold.PLP.part.repulsive>
1.0087

> <Gold.PLP.ligand.clash>
0.0000

> <Gold.PLP.ligand.torsion>
1.7242

> <Gold.PLP.Chemscore.Hbond>
2.0000

> <Gold.PLP.Chemscore.CHOScore>
0.0000

> <Gold.PLP.Chemscore.Metal>
0.0000

> <Gold.Chemscore.Hbonds>
donor molecule, donor type, donor heavy atom, donor atom, acceptor molecule, acceptor atom, score
      L1  H     3    41       P1  8028  2.00

> <Gold.PLP.Chemscore.Internal.Correction>
0.0672

> <Gold.Rescore>
     Score         DG    S(hbond)    S(metal)    S(lipo)     H(rot)  DE(clash)    DE(int)     intcor
     13.36     -16.56       0.89        0.00     104.17       1.59       0.15       3.05       ----

> <Gold.Chemscore.Fitness>
13.3565

> <Gold.Chemscore.DG>
-16.5597

> <Gold.Chemscore.ZeroCoef>
-5.4800

> <Gold.Chemscore.Hbond>
0.8899

> <Gold.Chemscore.Metal>
0.0000

> <Gold.Chemscore.Lipo>
104.1691

> <Gold.Chemscore.Internal_Hbond>
0.0000

> <Gold.Chemscore.DEClash>
0.1527

> <Gold.Chemscore.DEInternal>
3.0505

> <Gold.Chemscore.Rot>
1.5938

> <Gold.Chemscore.Internal.Correction>
   9.000000E+99

> <Gold.Chemscore.Hbonds>
donor molecule, donor type, donor heavy atom, donor atom, acceptor molecule, acceptor atom, score
      L1  H     3    41       P1  8028  0.95

> <Gold.Chemscore.Hbond.Weighted>
-2.9722

> <Gold.Chemscore.Metal.Weighted>
-0.0000

> <Gold.Chemscore.Lipo.Weighted>
-12.1878

> <Gold.Chemscore.Internal_Hbond.Weighted>
0.0000

> <Gold.Chemscore.DEClash.Weighted>
0.1527

> <Gold.Chemscore.DEInternal.Weighted>
3.0505

> <Gold.Chemscore.Rot.Weighted>
4.0802

> <Gold.Chemscore.Internal.Correction.Weighted>
   9.000000E+99

> <Gold.Protein.RotatedTorsions>
[ 6907 6896 6895 6894 ] final -132.16 input  -60.11 | X-H torsion
[ 7974 7965 7964 7962 ] final  -72.39 input  175.53 | X-H torsion
[ 8008 7997 7996 7995 ] final  126.39 input   59.86 | X-H torsion
[ 10167 10162 10161 10158 ] final  -23.90 input  -65.29 | X-H torsion
[ 10718 10713 10712 10709 ] final   26.12 input   66.30 | X-H torsion
[ 10763 10752 10751 10750 ] final  -55.85 input  -60.55 | X-H torsion
[ 11005 11000 10999 10996 ] final -114.98 input  -57.11 | X-H torsion

> <Gold.Protein.ActiveResidues>
 VAL166  LYS551  ARG553  GLY616  TRP617  ASP618  TYR619  PRO620  LYS621  CYS622 
 ASP623  PHE694  ASN695  SER759  ASP760  ASP761  ALA762  ILE779  LEU786  VAL792 
 PHE793  MET794  SER795  GLU796  ALA797  LYS798  CYS799  TRP800  GLU811  SER814 

> <Gold.Protein.RotatedAtoms>
  150.9592  133.6464  159.2757 H   0  0  0  0  0  0  0  0  0  0  0  0  # atno 6907 bound_to 6896
  151.3792  135.0935  159.9500 H   0  0  0  0  0  0  0  0  0  0  0  0  # atno 6908 bound_to 6896
  152.5141  133.9130  159.7552 H   0  0  0  0  0  0  0  0  0  0  0  0  # atno 6909 bound_to 6896
  145.6658  140.9237  143.0909 H   0  0  0  0  0  0  0  0  0  0  0  0  # atno 7974 bound_to 7965
  156.2862  140.2694  156.2104 H   0  0  0  0  0  0  0  0  0  0  0  0  # atno 8008 bound_to 7997
  155.0271  140.0386  157.2477 H   0  0  0  0  0  0  0  0  0  0  0  0  # atno 8009 bound_to 7997
  154.7386  140.2720  155.6398 H   0  0  0  0  0  0  0  0  0  0  0  0  # atno 8010 bound_to 7997
  140.7288  143.4402  151.0669 H   0  0  0  0  0  0  0  0  0  0  0  0  # atno 10167 bound_to 10162
  157.2025  130.6896  149.6194 H   0  0  0  0  0  0  0  0  0  0  0  0  # atno 10718 bound_to 10713
  154.1973  135.6417  153.5077 H   0  0  0  0  0  0  0  0  0  0  0  0  # atno 10763 bound_to 10752
  153.0020  135.5443  154.6352 H   0  0  0  0  0  0  0  0  0  0  0  0  # atno 10764 bound_to 10752
  154.5756  135.2920  155.0757 H   0  0  0  0  0  0  0  0  0  0  0  0  # atno 10765 bound_to 10752
  141.0517  133.9676  157.2824 H   0  0  0  0  0  0  0  0  0  0  0  0  # atno 11005 bound_to 11000
  144.7073  139.8508  143.7426 LP  0  0  0  0  0  0  0  0  0  0  0  0  # atno 17320 bound_to 7965
  146.1087  139.4089  143.0301 LP  0  0  0  0  0  0  0  0  0  0  0  0  # atno 17321 bound_to 7965
  139.8068  143.8007  152.3168 LP  0  0  0  0  0  0  0  0  0  0  0  0  # atno 17342 bound_to 10162
  139.8042  144.7362  150.9783 LP  0  0  0  0  0  0  0  0  0  0  0  0  # atno 17343 bound_to 10162
  155.9699  130.4578  150.5975 LP  0  0  0  0  0  0  0  0  0  0  0  0  # atno 17370 bound_to 10713
  157.3753  131.0772  151.1523 LP  0  0  0  0  0  0  0  0  0  0  0  0  # atno 17371 bound_to 10713
  139.9356  135.0196  156.8545 LP  0  0  0  0  0  0  0  0  0  0  0  0  # atno 17394 bound_to 11000
  140.6042  134.0143  155.7549 LP  0  0  0  0  0  0  0  0  0  0  0  0  # atno 17395 bound_to 11000

$$$$
