AV-unprocessed.smi:1756|AV-procd|sdf|7072|dock6
  -GOLD-   22720 8293D 1   1.00000     0.00000
 Structure written by MMmdl.
 38 39  0  0  0  0  0  0  0  0  1 V2000
  147.9538  144.3179  161.3173 O   0  0  0  0  0  0  0  0  0  0  0  0
  147.9631  144.4272  160.0916 C   0  0  0  0  0  0  0  0  0  0  0  0
  149.0682  144.7066  159.3862 N   0  0  0  0  0  0  0  0  0  0  0  0
  150.4032  144.9041  159.9435 C   0  0  0  0  0  0  0  0  0  0  0  0
  151.4133  143.8663  159.4206 C   0  0  1  0  0  0  0  0  0  0  0  0
  152.6899  143.7597  160.2825 C   0  0  0  0  0  0  0  0  0  0  0  0
  153.5984  142.6357  159.7718 C   0  0  0  0  0  0  0  0  0  0  0  0
  152.8004  141.3328  159.6639 C   0  0  0  0  0  0  0  0  0  0  0  0
  151.5282  141.5566  158.8325 C   0  0  0  0  0  0  0  0  0  0  0  0
  150.7517  142.6031  159.4073 O   0  0  0  0  0  0  0  0  0  0  0  0
  146.8957  144.3094  159.2804 N   0  0  0  0  0  0  0  0  0  0  0  0
  145.5597  144.0105  159.5986 C   0  0  0  0  0  0  0  0  0  0  0  0
  144.4726  144.5940  159.0288 C   0  0  0  0  0  0  0  0  0  0  0  0
  143.1163  144.2418  159.4145 C   0  0  0  0  0  0  0  0  0  0  0  0
  141.9075  144.8384  158.7107 C   0  0  0  0  0  0  0  0  0  0  0  0
  141.1083  143.8846  158.2309 F   0  0  0  0  0  0  0  0  0  0  0  0
  141.2038  145.5770  159.5673 F   0  0  0  0  0  0  0  0  0  0  0  0
  142.2808  145.6207  157.6979 F   0  0  0  0  0  0  0  0  0  0  0  0
  142.9885  143.2981  160.3652 C   0  0  0  0  0  0  0  0  0  0  0  0
  144.1001  142.7103  160.9726 N   0  0  0  0  0  0  0  0  0  0  0  0
  145.3818  143.0013  160.6559 C   0  0  0  0  0  0  0  0  0  0  0  0
  146.3079  142.4368  161.2372 O   0  0  0  0  0  0  0  0  0  0  0  0
  143.9208  142.0226  161.6902 H   0  0  0  0  0  0  0  0  0  0  0  0
  148.9815  144.7868  158.3836 H   0  0  0  0  0  0  0  0  0  0  0  0
  150.7654  145.9165  159.7572 H   0  0  0  0  0  0  0  0  0  0  0  0
  150.3185  144.8094  161.0263 H   0  0  0  0  0  0  0  0  0  0  0  0
  151.6847  144.1284  158.3962 H   0  0  0  0  0  0  0  0  0  0  0  0
  153.2394  144.7008  160.2759 H   0  0  0  0  0  0  0  0  0  0  0  0
  152.4164  143.5649  161.3204 H   0  0  0  0  0  0  0  0  0  0  0  0
  153.9988  142.9037  158.7933 H   0  0  0  0  0  0  0  0  0  0  0  0
  154.4528  142.5053  160.4362 H   0  0  0  0  0  0  0  0  0  0  0  0
  153.4128  140.5499  159.2158 H   0  0  0  0  0  0  0  0  0  0  0  0
  152.5273  140.9856  160.6612 H   0  0  0  0  0  0  0  0  0  0  0  0
  151.7756  141.7978  157.7977 H   0  0  0  0  0  0  0  0  0  0  0  0
  150.9295  140.6458  158.8119 H   0  0  0  0  0  0  0  0  0  0  0  0
  147.0593  144.4903  158.3006 H   0  0  0  0  0  0  0  0  0  0  0  0
  144.5809  145.3588  158.2778 H   0  0  0  0  0  0  0  0  0  0  0  0
  142.0423  142.9208  160.7248 H   0  0  0  0  0  0  0  0  0  0  0  0
  1  2  2  0  0  0  0
  2  3  1  0  0  0  0
  2 11  1  0  0  0  0
  3  4  1  0  0  0  0
  3 24  1  0  0  0  0
  4  5  1  0  0  0  0
  4 25  1  0  0  0  0
  4 26  1  0  0  0  0
  5 10  1  0  0  0  0
  5  6  1  0  0  0  0
  5 27  1  0  0  0  0
  6  7  1  0  0  0  0
  6 28  1  0  0  0  0
  6 29  1  0  0  0  0
  7  8  1  0  0  0  0
  7 30  1  0  0  0  0
  7 31  1  0  0  0  0
  8  9  1  0  0  0  0
  8 32  1  0  0  0  0
  8 33  1  0  0  0  0
  9 10  1  0  0  0  0
  9 34  1  0  0  0  0
  9 35  1  0  0  0  0
 11 12  1  0  0  0  0
 11 36  1  0  0  0  0
 12 21  1  0  0  0  0
 12 13  2  0  0  0  0
 13 14  1  0  0  0  0
 13 37  1  0  0  0  0
 14 15  1  0  0  0  0
 14 19  2  0  0  0  0
 15 16  1  0  0  0  0
 15 17  1  0  0  0  0
 15 18  1  0  0  0  0
 19 20  1  0  0  0  0
 19 38  1  0  0  0  0
 20 23  1  0  0  0  0
 20 21  1  0  0  0  0
 21 22  2  0  0  0  0
M  END
> <s_m_source_file>
AV-unprocessed.smi

> <i_m_source_file_index>
1756

> <i_lp_mmshare_version>
43012

> <i_f3d_flags>
0

> <s_epik_input>
Tz1jMVtuSF1bY0hdYyhDKEYpKEYpRilbY0hdYzFbTkhdQyg9TylbTkhdW0NIMl1bQ0BASF0yW0NIMl1bQ0gyXVtDSDJdW0NIMl1PMg==

> <s_epik_cmdline>
J2VwaWtfcHl0aG9uJywgJy1waCcsICc3LjAnLCAnLXRuJywgJzgnLCAnLW1hJywgJzIwMCcsICctbWV0YWxfYmluZGluZycsICctaW1hZScsICc8aW5maWxlLm1hZT4nLCAnLW9tYWUnLCAnPG91dGZpbGUubWFlPic=

> <r_lp_tautomer_probability>
1

> <r_epik_Ionization_Penalty>
0.00380944

> <r_epik_Ionization_Penalty_Charging>
0.00379057

> <r_epik_Ionization_Penalty_Neutral>
1.88732e-05

> <r_epik_State_Penalty>
-0

> <r_epik_Charging_Adjusted_Penalty>
0.00379057

> <i_epik_Tot_Q>
0

> <i_epik_Tot_abs_Q>
0

> <r_epik_Metal_State_Penalty>
0.371099

> <b_epik_Metal_Only>
0

> <s_lp_Force_Field>
OPLS_2005

> <r_lp_Energy>
19.4394

> <b_lp_Chiralities_Consistent>
1

> <s_lp_Variant>
AV-unprocessed.smi:1756-2

> <Gold.Version>
5.8.1

> <Gold.Id.Protein>
6NUR|6NUR_protein|mol2

> <Gold.PLP.Fitness>
40.3870

> <Gold.PLP.PLP>
-31.9322

> <Gold.PLP.part.hbond>
-6.0000

> <Gold.PLP.part.metal>
0.0000

> <Gold.PLP.part.buried>
-6.0505

> <Gold.PLP.part.nonpolar>
-20.5739

> <Gold.PLP.part.repulsive>
0.5593

> <Gold.PLP.ligand.clash>
0.0000

> <Gold.PLP.ligand.torsion>
0.5769

> <Gold.PLP.Chemscore.Hbond>
3.1900

> <Gold.PLP.Chemscore.CHOScore>
0.0000

> <Gold.PLP.Chemscore.Metal>
0.0000

> <Gold.Chemscore.Hbonds>
donor molecule, donor type, donor heavy atom, donor atom, acceptor molecule, acceptor atom, score
      L1  H     3    24       P1  8029  0.64
      L1  H    11    36       P1  8029  0.72
      P1  H  6933  6944       L1     1  0.95
      P1  H  6934  6946       L1    22  0.85

> <Gold.PLP.Chemscore.Internal.Correction>
0.0387

> <Gold.Rescore>
     Score         DG    S(hbond)    S(metal)    S(lipo)     H(rot)  DE(clash)    DE(int)     intcor
     17.66     -22.73       3.56        0.00      74.97       1.33       0.09       4.98       ----

> <Gold.Chemscore.Fitness>
17.6586

> <Gold.Chemscore.DG>
-22.7304

> <Gold.Chemscore.ZeroCoef>
-5.4800

> <Gold.Chemscore.Hbond>
3.5614

> <Gold.Chemscore.Metal>
0.0000

> <Gold.Chemscore.Lipo>
74.9694

> <Gold.Chemscore.Internal_Hbond>
0.0000

> <Gold.Chemscore.DEClash>
0.0881

> <Gold.Chemscore.DEInternal>
4.9837

> <Gold.Chemscore.Rot>
1.3344

> <Gold.Chemscore.Internal.Correction>
   9.000000E+99

> <Gold.Chemscore.Hbonds>
donor molecule, donor type, donor heavy atom, donor atom, acceptor molecule, acceptor atom, score
      L1  H     3    24       P1  8029  0.42
      L1  H    11    36       P1  8029  0.58
      P1  H  6933  6944       L1    22  0.36
      P1  H  6934  6946       L1    22  0.83

> <Gold.Chemscore.Hbond.Weighted>
-11.8950

> <Gold.Chemscore.Metal.Weighted>
-0.0000

> <Gold.Chemscore.Lipo.Weighted>
-8.7714

> <Gold.Chemscore.Internal_Hbond.Weighted>
0.0000

> <Gold.Chemscore.DEClash.Weighted>
0.0881

> <Gold.Chemscore.DEInternal.Weighted>
4.9837

> <Gold.Chemscore.Rot.Weighted>
3.4160

> <Gold.Chemscore.Internal.Correction.Weighted>
   9.000000E+99

> <Gold.Protein.RotatedTorsions>
[ 6907 6896 6895 6894 ] final   69.98 input  -60.11 | X-H torsion
[ 7974 7965 7964 7962 ] final  -32.57 input  175.53 | X-H torsion
[ 8008 7997 7996 7995 ] final  115.48 input   59.86 | X-H torsion
[ 10167 10162 10161 10158 ] final   58.70 input  -65.29 | X-H torsion
[ 10718 10713 10712 10709 ] final  -59.78 input   66.30 | X-H torsion
[ 10763 10752 10751 10750 ] final -165.60 input  -60.55 | X-H torsion
[ 11005 11000 10999 10996 ] final   44.47 input  -57.11 | X-H torsion

> <Gold.Protein.ActiveResidues>
 VAL166  LYS551  ARG553  GLY616  TRP617  ASP618  TYR619  PRO620  LYS621  CYS622 
 ASP623  PHE694  ASN695  SER759  ASP760  ASP761  ALA762  ILE779  LEU786  VAL792 
 PHE793  MET794  SER795  GLU796  ALA797  LYS798  CYS799  TRP800  GLU811  SER814 

> <Gold.Protein.RotatedAtoms>
  152.4720  134.4936  159.9702 H   0  0  0  0  0  0  0  0  0  0  0  0  # atno 6907 bound_to 6896
  151.4961  133.3508  159.2869 H   0  0  0  0  0  0  0  0  0  0  0  0  # atno 6908 bound_to 6896
  150.8736  134.8142  159.7235 H   0  0  0  0  0  0  0  0  0  0  0  0  # atno 6909 bound_to 6896
  146.0980  140.5808  142.8834 H   0  0  0  0  0  0  0  0  0  0  0  0  # atno 7974 bound_to 7965
  156.2384  140.2937  156.0375 H   0  0  0  0  0  0  0  0  0  0  0  0  # atno 8008 bound_to 7997
  155.2025  140.0410  157.2937 H   0  0  0  0  0  0  0  0  0  0  0  0  # atno 8009 bound_to 7997
  154.6121  140.2454  155.7663 H   0  0  0  0  0  0  0  0  0  0  0  0  # atno 8010 bound_to 7997
  140.1843  144.4150  150.6600 H   0  0  0  0  0  0  0  0  0  0  0  0  # atno 10167 bound_to 10162
  156.1037  130.4183  150.0763 H   0  0  0  0  0  0  0  0  0  0  0  0  # atno 10718 bound_to 10713
  154.6916  135.2972  154.9471 H   0  0  0  0  0  0  0  0  0  0  0  0  # atno 10763 bound_to 10752
  154.0433  135.6654  153.4796 H   0  0  0  0  0  0  0  0  0  0  0  0  # atno 10764 bound_to 10752
  153.0616  135.5112  154.8011 H   0  0  0  0  0  0  0  0  0  0  0  0  # atno 10765 bound_to 10752
  140.1549  134.4415  155.8356 H   0  0  0  0  0  0  0  0  0  0  0  0  # atno 11005 bound_to 11000
  144.7410  140.4942  143.6869 LP  0  0  0  0  0  0  0  0  0  0  0  0  # atno 17320 bound_to 7965
  145.5911  139.1496  143.3182 LP  0  0  0  0  0  0  0  0  0  0  0  0  # atno 17321 bound_to 7965
  140.6498  143.2222  151.6102 LP  0  0  0  0  0  0  0  0  0  0  0  0  # atno 17342 bound_to 10162
  139.5282  144.2994  152.1086 LP  0  0  0  0  0  0  0  0  0  0  0  0  # atno 17343 bound_to 10162
  156.8744  130.9535  151.3606 LP  0  0  0  0  0  0  0  0  0  0  0  0  # atno 17370 bound_to 10713
  157.6211  130.8655  149.9110 LP  0  0  0  0  0  0  0  0  0  0  0  0  # atno 17371 bound_to 10713
  141.2203  133.6888  156.7489 LP  0  0  0  0  0  0  0  0  0  0  0  0  # atno 17394 bound_to 11000
  140.2560  134.8504  157.3713 LP  0  0  0  0  0  0  0  0  0  0  0  0  # atno 17395 bound_to 11000

$$$$
