AV-unprocessed.smi:618|AV-procd|sdf|3083|dock2
  -GOLD-   22720 0 03D 1   1.00000     0.00000
 Structure written by MMmdl.
 40 42  0  0  0  0  0  0  0  0  1 V2000
  150.4835  134.7985  155.9885 O   0  0  0  0  0  0  0  0  0  0  0  0
  149.9598  135.2175  154.9568 C   0  0  0  0  0  0  0  0  0  0  0  0
  149.9247  136.5130  154.6149 N   0  0  0  0  0  0  0  0  0  0  0  0
  150.5216  137.6052  155.3766 C   0  0  0  0  0  0  0  0  0  0  0  0
  150.4266  138.9417  154.6106 C   0  0  1  0  0  0  0  0  0  0  0  0
  149.2295  139.8107  155.0652 C   0  0  0  0  0  0  0  0  0  0  0  0
  149.5039  140.4364  156.3449 N   0  0  0  0  0  0  0  0  0  0  0  0
  148.5067  141.3531  156.8470 C   0  0  0  0  0  0  0  0  0  0  0  0
  149.2355  142.1429  157.9479 C   0  0  0  0  0  0  0  0  0  0  0  0
  150.7346  141.9571  157.6263 C   0  0  0  0  0  0  0  0  0  0  0  0
  150.7054  141.2226  156.2847 C   0  0  1  0  0  0  0  0  0  0  0  0
  151.9115  140.3417  155.9374 C   0  0  0  0  0  0  0  0  0  0  0  0
  151.6513  139.6897  154.6897 O   0  0  0  0  0  0  0  0  0  0  0  0
  149.3714  134.4547  154.0200 N   0  0  0  0  0  0  0  0  0  0  0  0
  149.2145  133.0424  154.0005 C   0  0  0  0  0  0  0  0  0  0  0  0
  150.0253  132.1398  154.7309 C   0  0  0  0  0  0  0  0  0  0  0  0
  149.7576  130.7604  154.6401 C   0  0  0  0  0  0  0  0  0  0  0  0
  148.6865  130.3345  153.8309 C   0  0  0  0  0  0  0  0  0  0  0  0
  147.8970  131.1843  153.1406 N   0  0  0  0  0  0  0  0  0  0  0  0
  148.1598  132.5053  153.2324 C   0  0  0  0  0  0  0  0  0  0  0  0
  149.4726  136.7618  153.7475 H   0  0  0  0  0  0  0  0  0  0  0  0
  149.9694  137.6854  156.3132 H   0  0  0  0  0  0  0  0  0  0  0  0
  151.5510  137.3774  155.6570 H   0  0  0  0  0  0  0  0  0  0  0  0
  150.2755  138.7019  153.5575 H   0  0  0  0  0  0  0  0  0  0  0  0
  149.0425  140.5814  154.3159 H   0  0  0  0  0  0  0  0  0  0  0  0
  148.3218  139.2096  155.1265 H   0  0  0  0  0  0  0  0  0  0  0  0
  148.1860  142.0317  156.0550 H   0  0  0  0  0  0  0  0  0  0  0  0
  147.6271  140.8269  157.2192 H   0  0  0  0  0  0  0  0  0  0  0  0
  148.9421  143.1930  157.9382 H   0  0  0  0  0  0  0  0  0  0  0  0
  149.0067  141.7393  158.9348 H   0  0  0  0  0  0  0  0  0  0  0  0
  151.2738  142.9029  157.5660 H   0  0  0  0  0  0  0  0  0  0  0  0
  151.2094  141.3433  158.3930 H   0  0  0  0  0  0  0  0  0  0  0  0
  150.5972  141.9729  155.4986 H   0  0  0  0  0  0  0  0  0  0  0  0
  152.8144  140.9449  155.8434 H   0  0  0  0  0  0  0  0  0  0  0  0
  152.0972  139.6082  156.7219 H   0  0  0  0  0  0  0  0  0  0  0  0
  149.0576  134.9361  153.1899 H   0  0  0  0  0  0  0  0  0  0  0  0
  150.8315  132.4741  155.3651 H   0  0  0  0  0  0  0  0  0  0  0  0
  150.3576  130.0447  155.1827 H   0  0  0  0  0  0  0  0  0  0  0  0
  148.4538  129.2839  153.7404 H   0  0  0  0  0  0  0  0  0  0  0  0
  147.5066  133.1555  152.6682 H   0  0  0  0  0  0  0  0  0  0  0  0
  1  2  2  0  0  0  0
  2  3  1  0  0  0  0
  2 14  1  0  0  0  0
  3  4  1  0  0  0  0
  3 21  1  0  0  0  0
  4  5  1  0  0  0  0
  4 22  1  0  0  0  0
  4 23  1  0  0  0  0
  5 13  1  0  0  0  0
  5  6  1  0  0  0  0
  5 24  1  0  0  0  0
  6  7  1  0  0  0  0
  6 25  1  0  0  0  0
  6 26  1  0  0  0  0
  7 11  1  0  0  0  0
  7  8  1  0  0  0  0
  8  9  1  0  0  0  0
  8 27  1  0  0  0  0
  8 28  1  0  0  0  0
  9 10  1  0  0  0  0
  9 29  1  0  0  0  0
  9 30  1  0  0  0  0
 10 11  1  0  0  0  0
 10 31  1  0  0  0  0
 10 32  1  0  0  0  0
 11 12  1  0  0  0  0
 11 33  1  0  0  0  0
 12 13  1  0  0  0  0
 12 34  1  0  0  0  0
 12 35  1  0  0  0  0
 14 15  1  0  0  0  0
 14 36  1  0  0  0  0
 15 20  1  0  0  0  0
 15 16  2  0  0  0  0
 16 17  1  0  0  0  0
 16 37  1  0  0  0  0
 17 18  2  0  0  0  0
 17 38  1  0  0  0  0
 18 19  1  0  0  0  0
 18 39  1  0  0  0  0
 19 20  2  0  0  0  0
 20 40  1  0  0  0  0
M  END
> <s_m_source_file>
AV-unprocessed.smi

> <i_m_source_file_index>
618

> <i_lp_mmshare_version>
43012

> <i_f3d_flags>
0

> <s_epik_input>
W2NIXTFuW2NIXVtjSF1bY0hdYzFbTkhdQyg9TylbTkhdW0NIMl1bQ0BIXShbQ0gyXTIpT1tDSDJdW0NAQEhdKE4yMylbQ0gyXVtDSDJdW0NIMl0z

> <s_epik_cmdline>
J2VwaWtfcHl0aG9uJywgJy1waCcsICc3LjAnLCAnLXRuJywgJzgnLCAnLW1hJywgJzIwMCcsICctbWV0YWxfYmluZGluZycsICctaW1hZScsICc8aW5maWxlLm1hZT4nLCAnLW9tYWUnLCAnPG91dGZpbGUubWFlPic=

> <r_epik_Ionization_Penalty>
1.07277

> <r_epik_Ionization_Penalty_Charging>
0

> <r_epik_Ionization_Penalty_Neutral>
1.07277

> <r_epik_State_Penalty>
1.13623

> <r_epik_Charging_Adjusted_Penalty>
1.13623

> <i_epik_Tot_Q>
0

> <i_epik_Tot_abs_Q>
0

> <r_epik_Metal_State_Penalty>
1.13277

> <b_epik_Metal_Only>
0

> <s_lp_Force_Field>
OPLS_2005

> <r_lp_Energy>
52.4756

> <b_lp_Chiralities_Consistent>
1

> <s_lp_Variant>
AV-unprocessed.smi:618-10

> <Gold.Version>
5.8.1

> <Gold.Id.Protein>
6NUR|6NUR_protein|mol2

> <Gold.PLP.Fitness>
40.2815

> <Gold.PLP.PLP>
-32.8999

> <Gold.PLP.part.hbond>
-3.0000

> <Gold.PLP.part.metal>
0.0000

> <Gold.PLP.part.buried>
-5.6207

> <Gold.PLP.part.nonpolar>
-25.2771

> <Gold.PLP.part.repulsive>
0.2822

> <Gold.PLP.ligand.clash>
0.0000

> <Gold.PLP.ligand.torsion>
0.7054

> <Gold.PLP.Chemscore.Hbond>
2.9280

> <Gold.PLP.Chemscore.CHOScore>
0.0000

> <Gold.PLP.Chemscore.Metal>
0.0000

> <Gold.Chemscore.Hbonds>
donor molecule, donor type, donor heavy atom, donor atom, acceptor molecule, acceptor atom, score
      L1  H     3    21       P1  7948  0.94
      L1  H    14    36       P1  7948  0.80
      P1  H  7989  7998       L1    13  1.00

> <Gold.PLP.Chemscore.Internal.Correction>
0.0084

> <Gold.Rescore>
     Score         DG    S(hbond)    S(metal)    S(lipo)     H(rot)  DE(clash)    DE(int)     intcor
     15.58     -17.37       2.19        0.00      66.41       1.25       0.06       1.73       ----

> <Gold.Chemscore.Fitness>
15.5804

> <Gold.Chemscore.DG>
-17.3691

> <Gold.Chemscore.ZeroCoef>
-5.4800

> <Gold.Chemscore.Hbond>
2.1882

> <Gold.Chemscore.Metal>
0.0000

> <Gold.Chemscore.Lipo>
66.4143

> <Gold.Chemscore.Internal_Hbond>
0.0000

> <Gold.Chemscore.DEClash>
0.0562

> <Gold.Chemscore.DEInternal>
1.7325

> <Gold.Chemscore.Rot>
1.2461

> <Gold.Chemscore.Internal.Correction>
   9.000000E+99

> <Gold.Chemscore.Hbonds>
donor molecule, donor type, donor heavy atom, donor atom, acceptor molecule, acceptor atom, score
      L1  H     3    21       P1  7948  0.77
      L1  H    14    36       P1  7948  0.12
      P1  H  7989  7998       L1    13  0.45

> <Gold.Chemscore.Hbond.Weighted>
-7.3087

> <Gold.Chemscore.Metal.Weighted>
-0.0000

> <Gold.Chemscore.Lipo.Weighted>
-7.7705

> <Gold.Chemscore.Internal_Hbond.Weighted>
0.0000

> <Gold.Chemscore.DEClash.Weighted>
0.0562

> <Gold.Chemscore.DEInternal.Weighted>
1.7325

> <Gold.Chemscore.Rot.Weighted>
3.1901

> <Gold.Chemscore.Internal.Correction.Weighted>
   9.000000E+99

> <Gold.Protein.RotatedTorsions>
[ 6907 6896 6895 6894 ] final  -29.60 input  -60.11 | X-H torsion
[ 7974 7965 7964 7962 ] final  -82.49 input  175.53 | X-H torsion
[ 8008 7997 7996 7995 ] final   91.14 input   59.86 | X-H torsion
[ 10167 10162 10161 10158 ] final -134.30 input  -65.29 | X-H torsion
[ 10718 10713 10712 10709 ] final -128.46 input   66.30 | X-H torsion
[ 10763 10752 10751 10750 ] final  -25.05 input  -60.55 | X-H torsion
[ 11005 11000 10999 10996 ] final  -61.44 input  -57.11 | X-H torsion

> <Gold.Protein.ActiveResidues>
 VAL166  LYS551  ARG553  GLY616  TRP617  ASP618  TYR619  PRO620  LYS621  CYS622 
 ASP623  PHE694  ASN695  SER759  ASP760  ASP761  ALA762  ILE779  LEU786  VAL792 
 PHE793  MET794  SER795  GLU796  ALA797  LYS798  CYS799  TRP800  GLU811  SER814 

> <Gold.Protein.RotatedAtoms>
  151.1169  135.0058  159.8520 H   0  0  0  0  0  0  0  0  0  0  0  0  # atno 6907 bound_to 6896
  152.5446  134.1769  159.8629 H   0  0  0  0  0  0  0  0  0  0  0  0  # atno 6908 bound_to 6896
  151.1824  133.4672  159.2627 H   0  0  0  0  0  0  0  0  0  0  0  0  # atno 6909 bound_to 6896
  145.5326  140.9519  143.1594 H   0  0  0  0  0  0  0  0  0  0  0  0  # atno 7974 bound_to 7965
  156.0202  140.3341  155.7031 H   0  0  0  0  0  0  0  0  0  0  0  0  # atno 8008 bound_to 7997
  155.6033  140.0658  157.2744 H   0  0  0  0  0  0  0  0  0  0  0  0  # atno 8009 bound_to 7997
  154.4313  140.1806  156.1183 H   0  0  0  0  0  0  0  0  0  0  0  0  # atno 8010 bound_to 7997
  139.8894  143.6741  152.2614 H   0  0  0  0  0  0  0  0  0  0  0  0  # atno 10167 bound_to 10162
  156.1953  130.6822  151.0474 H   0  0  0  0  0  0  0  0  0  0  0  0  # atno 10718 bound_to 10713
  153.6936  135.6960  153.5083 H   0  0  0  0  0  0  0  0  0  0  0  0  # atno 10763 bound_to 10752
  153.2395  135.4311  155.0681 H   0  0  0  0  0  0  0  0  0  0  0  0  # atno 10764 bound_to 10752
  154.8365  135.3504  154.6477 H   0  0  0  0  0  0  0  0  0  0  0  0  # atno 10765 bound_to 10752
  141.1324  133.6630  156.5376 H   0  0  0  0  0  0  0  0  0  0  0  0  # atno 11005 bound_to 11000
  144.7618  139.6939  143.7231 LP  0  0  0  0  0  0  0  0  0  0  0  0  # atno 17320 bound_to 7965
  146.2034  139.5342  142.9728 LP  0  0  0  0  0  0  0  0  0  0  0  0  # atno 17321 bound_to 7965
  139.7123  144.7618  151.1092 LP  0  0  0  0  0  0  0  0  0  0  0  0  # atno 17342 bound_to 10162
  140.7729  143.5315  150.9418 LP  0  0  0  0  0  0  0  0  0  0  0  0  # atno 17343 bound_to 10162
  157.6954  131.0796  150.6985 LP  0  0  0  0  0  0  0  0  0  0  0  0  # atno 17370 bound_to 10713
  156.7042  130.4632  149.5564 LP  0  0  0  0  0  0  0  0  0  0  0  0  # atno 17371 bound_to 10713
  140.4165  134.7225  157.4866 LP  0  0  0  0  0  0  0  0  0  0  0  0  # atno 17394 bound_to 11000
  140.0390  134.6295  155.9006 LP  0  0  0  0  0  0  0  0  0  0  0  0  # atno 17395 bound_to 11000

$$$$
