#       Name:                AV-unprocessed.smi:3139
#       Creating user name   scv26
#       Creation time:       Fri Mar 27 17:35:40 2020


#       File generated by GOLD software.
#

@<TRIPOS>MOLECULE
AV-unprocessed.smi:3139
    40    40     1
SMALL
NO_CHARGES


@<TRIPOS>ATOM
      1 ****        -2.3814   1.9014  -2.2518 C.3            1 S1                 0.0000
      2 ****        -1.7682   0.7435  -1.4362 C.3            1 S1                 0.0000
      3 ****        -0.2331   0.7493  -1.4584 C.2            1 S1                 0.0000
      4 ****         0.3933   1.8015  -1.5914 O.2            1 S1                 0.0000
      5 ****         0.3545  -0.4443  -1.2854 N.am           1 S1                 0.0000
      6 ****         1.7805  -0.6760  -1.0625 C.3            1 S1                 0.0000
      7 ****         2.1291  -0.9573   0.4284 C.3            1 S1                 0.0000
      8 ****         3.5960  -1.4239   0.5272 C.3            1 S1                 0.0000
      9 ****         1.9595   0.3351   1.2648 C.3            1 S1                 0.0000
     10 ****         1.2233  -2.0864   0.9885 C.2            1 S1                 0.0000
     11 ****         0.5610  -1.8691   2.0281 O.co2          1 S1                 0.0000
     12 ****         1.2014  -3.1642   0.3527 O.co2          1 S1                -1.0000
     13 ****        -2.2323   0.7106  -0.0521 N.pl3          1 S1                 0.0000
     14 ****        -2.4102  -0.3979   0.7521 C.2            1 S1                 0.0000
     15 ****        -2.7877   0.0440   1.9872 C.2            1 S1                 0.0000
     16 ****        -2.7982   1.4592   1.8496 C.2            1 S1                 0.0000
     17 ****        -2.4578   1.8555   0.6344 N.2            1 S1                 0.0000
     18 ****        -2.0649   1.8558  -3.2943 H              1 S1                 0.0000
     19 ****        -2.0917   2.8787  -1.8631 H              1 S1                 0.0000
     20 ****        -3.4705   1.8501  -2.2392 H              1 S1                 0.0000
     21 ****        -2.0991  -0.1859  -1.9029 H              1 S1                 0.0000
     22 ****        -0.2449  -1.2517  -1.1916 H              1 S1                 0.0000
     23 ****         2.0633  -1.5307  -1.6787 H              1 S1                 0.0000
     24 ****         2.3741   0.1594  -1.4374 H              1 S1                 0.0000
     25 ****         4.2782  -0.6513   0.1714 H              1 S1                 0.0000
     26 ****         3.7792  -2.3175  -0.0712 H              1 S1                 0.0000
     27 ****         3.8736  -1.6551   1.5566 H              1 S1                 0.0000
     28 ****         2.5603   1.1479   0.8560 H              1 S1                 0.0000
     29 ****         2.2760   0.1898   2.2986 H              1 S1                 0.0000
     30 ****         0.9243   0.6789   1.2846 H              1 S1                 0.0000
     31 ****        -2.2451  -1.4002   0.3848 H              1 S1                 0.0000
     32 ****        -3.0087  -0.5536   2.8589 H              1 S1                 0.0000
     33 ****        -3.0345   2.2056   2.5934 H              1 S1                 0.0000
     34 ****        -0.0980   2.6672  -1.6868 LP             1 S1                 0.0000
     35 ****         1.3932   1.7899  -1.6041 LP             1 S1                 0.0000
     36 ****        -0.0334  -2.5819   2.4004 LP             1 S1                 0.0000
     37 ****         0.6263  -0.9827   2.4864 LP             1 S1                 0.0000
     38 ****         0.6283  -3.9200   0.6694 LP             1 S1                 0.0000
     39 ****         1.7571  -3.2696  -0.4720 LP             1 S1                 0.0000
     40 ****        -2.3834   2.7939   0.2971 LP             1 S1                 0.0000
@<TRIPOS>BOND
    1    1    2 1     
    2    1   18 1     
    3    1   19 1     
    4    1   20 1     
    5    2    3 1     
    6    2   13 1     
    7    2   21 1     
    8    3    4 2     
    9    3    5 am    
   10    5    6 1     
   11    5   22 1     
   12    6    7 1     
   13    6   23 1     
   14    6   24 1     
   15    7    8 1     
   16    7    9 1     
   17    7   10 1     
   18    8   25 1     
   19    8   26 1     
   20    8   27 1     
   21    9   28 1     
   22    9   29 1     
   23    9   30 1     
   24   10   11 ar    
   25   10   12 ar    
   26   13   17 1     
   27   13   14 1     
   28   14   15 2     
   29   14   31 1     
   30   15   16 1     
   31   15   32 1     
   32   16   17 2     
   33   16   33 1     
   34    4   34 1     
   35    4   35 1     
   36   11   36 1     
   37   11   37 1     
   38   12   38 1     
   39   12   39 1     
   40   17   40 1     
@<TRIPOS>SUBSTRUCTURE
      1 S1             1
@<TRIPOS>SET
LONE_PAIRS      STATIC     ATOMS    <user>   **** ""
7 34 35 36 37 38 39 40
DONOR_HYDROGENS      STATIC     ATOMS    <user>   **** ""
1 22
ATOM$BLUE        STATIC     ATOMS    COLORGROUP SYSTEM
7 34 35 36 37 38 39 40
ATOM$RED        STATIC     ATOMS    COLORGROUP SYSTEM
1 22
