#       Name:                AV-unprocessed.smi:3056
#       Creating user name   scv26
#       Creation time:       Fri Mar 27 17:06:09 2020


#       File generated by GOLD software.
#

@<TRIPOS>MOLECULE
AV-unprocessed.smi:3056
    53    54     1
SMALL
NO_CHARGES


@<TRIPOS>ATOM
      1 ****        -4.8958  -2.9388  -0.2882 C.3            1 S1                 0.0000
      2 ****        -4.0526  -1.7554  -0.6660 C.2            1 S1                 0.0000
      3 ****        -3.7650  -0.6009   0.1151 C.2            1 S1                 0.0000
      4 ****        -2.9814   0.2606  -0.5117 N.2            1 S1                 0.0000
      5 ****        -2.7452  -0.3040  -1.7179 N.pl3          1 S1                 0.0000
      6 ****        -1.8813   0.3534  -2.6964 C.3            1 S1                 0.0000
      7 ****        -2.2424   1.8400  -2.8873 C.3            1 S1                 0.0000
      8 ****        -0.3673   0.1200  -2.4394 C.3            1 S1                 0.0000
      9 ****        -0.0076  -1.3785  -2.3705 C.3            1 S1                 0.0000
     10 ****         0.0376   0.7868  -1.2040 N.3            1 S1                 0.0000
     11 ****         1.4798   1.0552  -1.1386 C.3            1 S1                 0.0000
     12 ****         1.8688   1.7113   0.1910 C.2            1 S1                 0.0000
     13 ****         2.1598   2.9076   0.1752 O.2            1 S1                 0.0000
     14 ****         1.8865   0.9736   1.3283 N.am           1 S1                 0.0000
     15 ****         1.5977  -0.4597   1.4405 C.3            1 S1                 0.0000
     16 ****         2.8760  -1.1756   1.9091 C.3            1 S1                 0.0000
     17 ****         3.3114  -0.6198   3.1478 O.3            1 S1                 0.0000
     18 ****         3.5766   0.7804   3.0785 C.3            1 S1                 0.0000
     19 ****         4.0566   1.2461   4.4572 C.3            1 S1                 0.0000
     20 ****         2.2984   1.5149   2.6264 C.3            1 S1                 0.0000
     21 ****        -3.3776  -1.5254  -1.8310 C.2            1 S1                 0.0000
     22 ****        -4.9471  -3.0701   0.7929 H              1 S1                 0.0000
     23 ****        -4.5010  -3.8656  -0.7048 H              1 S1                 0.0000
     24 ****        -5.9189  -2.8335  -0.6490 H              1 S1                 0.0000
     25 ****        -4.0983  -0.3665   1.1152 H              1 S1                 0.0000
     26 ****        -2.1040  -0.1240  -3.6519 H              1 S1                 0.0000
     27 ****        -1.6552   2.2832  -3.6918 H              1 S1                 0.0000
     28 ****        -2.0606   2.4261  -1.9861 H              1 S1                 0.0000
     29 ****        -3.2947   1.9546  -3.1483 H              1 S1                 0.0000
     30 ****         0.1720   0.5697  -3.2748 H              1 S1                 0.0000
     31 ****        -0.3976  -1.9100  -3.2389 H              1 S1                 0.0000
     32 ****        -0.4216  -1.8529  -1.4799 H              1 S1                 0.0000
     33 ****         1.0696  -1.5409  -2.3591 H              1 S1                 0.0000
     34 ****        -0.4905   1.6433  -1.1128 H              1 S1                 0.0000
     35 ****         2.0626   0.1453  -1.2761 H              1 S1                 0.0000
     36 ****         1.7571   1.7238  -1.9552 H              1 S1                 0.0000
     37 ****         0.7979  -0.6076   2.1672 H              1 S1                 0.0000
     38 ****         1.2444  -0.9148   0.5175 H              1 S1                 0.0000
     39 ****         2.6829  -2.2393   2.0486 H              1 S1                 0.0000
     40 ****         3.6663  -1.0889   1.1617 H              1 S1                 0.0000
     41 ****         4.3747   0.9547   2.3545 H              1 S1                 0.0000
     42 ****         4.2879   2.3115   4.4528 H              1 S1                 0.0000
     43 ****         4.9588   0.7121   4.7563 H              1 S1                 0.0000
     44 ****         3.2972   1.0711   5.2197 H              1 S1                 0.0000
     45 ****         2.4810   2.5899   2.5971 H              1 S1                 0.0000
     46 ****         1.4960   1.3652   3.3504 H              1 S1                 0.0000
     47 ****        -3.2929  -2.1272  -2.7239 H              1 S1                 0.0000
     48 ****        -2.6392   1.1357  -0.1696 LP             1 S1                 0.0000
     49 ****        -0.1581   0.1705  -0.4411 LP             1 S1                 0.0000
     50 ****         2.1372   3.4163  -0.6854 LP             1 S1                 0.0000
     51 ****         2.4188   3.3704   1.0230 LP             1 S1                 0.0000
     52 ****         4.1496  -1.0877   3.4280 LP             1 S1                 0.0000
     53 ****         2.5989  -0.7740   3.8323 LP             1 S1                 0.0000
@<TRIPOS>BOND
    1    1    2 1     
    2    1   22 1     
    3    1   23 1     
    4    1   24 1     
    5    2   21 2     
    6    2    3 1     
    7    3    4 2     
    8    3   25 1     
    9    4    5 1     
   10    5    6 1     
   11    5   21 1     
   12    6    7 1     
   13    6    8 1     
   14    6   26 1     
   15    7   27 1     
   16    7   28 1     
   17    7   29 1     
   18    8    9 1     
   19    8   10 1     
   20    8   30 1     
   21    9   31 1     
   22    9   32 1     
   23    9   33 1     
   24   10   11 1     
   25   10   34 1     
   26   11   12 1     
   27   11   35 1     
   28   11   36 1     
   29   12   13 2     
   30   12   14 am    
   31   14   20 1     
   32   14   15 1     
   33   15   16 1     
   34   15   37 1     
   35   15   38 1     
   36   16   17 1     
   37   16   39 1     
   38   16   40 1     
   39   17   18 1     
   40   18   19 1     
   41   18   20 1     
   42   18   41 1     
   43   19   42 1     
   44   19   43 1     
   45   19   44 1     
   46   20   45 1     
   47   20   46 1     
   48   21   47 1     
   49    4   48 1     
   50   10   49 1     
   51   13   50 1     
   52   13   51 1     
   53   17   52 1     
   54   17   53 1     
@<TRIPOS>SUBSTRUCTURE
      1 S1             1
@<TRIPOS>SET
LONE_PAIRS      STATIC     ATOMS    <user>   **** ""
6 48 49 50 51 52 53
DONOR_HYDROGENS      STATIC     ATOMS    <user>   **** ""
1 34
ATOM$BLUE        STATIC     ATOMS    COLORGROUP SYSTEM
6 48 49 50 51 52 53
ATOM$RED        STATIC     ATOMS    COLORGROUP SYSTEM
1 34
