AV-unprocessed.smi:926|AV-procd|sdf|4183|dock7
  -GOLD-   22720 2 83D 1   1.00000     0.00000
 Structure written by MMmdl.
 37 39  0  0  0  0  0  0  0  0  1 V2000
  154.3741  139.0819  158.4838 O   0  0  0  0  0  0  0  0  0  0  0  0
  153.1843  139.3718  158.6082 C   0  0  0  0  0  0  0  0  0  0  0  0
  152.1300  138.6380  157.7803 C   0  0  0  0  0  0  0  0  0  0  0  0
  151.5260  139.5303  156.8090 N   0  0  0  0  0  0  0  0  0  0  0  0
  151.4357  139.4491  155.4796 C   0  0  0  0  0  0  0  0  0  0  0  0
  150.8043  140.4948  154.9681 N   0  0  0  0  0  0  0  0  0  0  0  0
  150.4963  141.2538  156.0849 N   0  0  0  0  0  0  0  0  0  0  0  0
  150.9219  140.6864  157.1802 N   0  0  0  0  0  0  0  0  0  0  0  0
  152.7369  140.3264  159.4393 N   0  0  0  0  0  0  0  0  0  0  0  0
  153.5851  141.1691  160.2725 C   0  0  0  0  0  0  0  0  0  0  0  0
  152.7696  142.2815  160.9542 C   0  0  0  0  0  0  0  0  0  0  0  0
  152.7836  143.6130  160.1780 C   0  0  2  0  0  0  0  0  0  0  0  0
  151.9059  144.7153  160.8093 C   0  0  0  0  0  0  0  0  0  0  0  0
  151.0551  145.2026  159.6215 C   0  0  2  0  0  0  0  0  0  0  0  0
  149.9929  144.1381  159.2894 C   0  0  0  0  0  0  0  0  0  0  0  0
  150.8268  143.0211  158.6357 C   0  0  0  0  0  0  0  0  0  0  0  0
  152.2642  143.5749  158.7191 C   0  0  1  0  0  0  0  0  0  0  0  0
  152.0236  145.0576  158.4533 C   0  0  0  0  0  0  0  0  0  0  0  0
  152.5860  137.8010  157.2498 H   0  0  0  0  0  0  0  0  0  0  0  0
  151.3572  138.2268  158.4320 H   0  0  0  0  0  0  0  0  0  0  0  0
  151.8331  138.6344  154.8923 H   0  0  0  0  0  0  0  0  0  0  0  0
  151.7422  140.4966  159.4786 H   0  0  0  0  0  0  0  0  0  0  0  0
  154.0601  140.5399  161.0257 H   0  0  0  0  0  0  0  0  0  0  0  0
  154.3892  141.5909  159.6677 H   0  0  0  0  0  0  0  0  0  0  0  0
  151.7437  141.9506  161.1140 H   0  0  0  0  0  0  0  0  0  0  0  0
  153.1757  142.4559  161.9513 H   0  0  0  0  0  0  0  0  0  0  0  0
  153.8140  143.9718  160.1558 H   0  0  0  0  0  0  0  0  0  0  0  0
  151.2859  144.3500  161.6291 H   0  0  0  0  0  0  0  0  0  0  0  0
  152.5280  145.5213  161.2008 H   0  0  0  0  0  0  0  0  0  0  0  0
  150.6431  146.2027  159.7599 H   0  0  0  0  0  0  0  0  0  0  0  0
  149.4604  143.7943  160.1768 H   0  0  0  0  0  0  0  0  0  0  0  0
  149.2558  144.5273  158.5859 H   0  0  0  0  0  0  0  0  0  0  0  0
  150.7026  142.0558  159.1251 H   0  0  0  0  0  0  0  0  0  0  0  0
  150.5307  142.8920  157.5939 H   0  0  0  0  0  0  0  0  0  0  0  0
  152.9546  143.1000  158.0214 H   0  0  0  0  0  0  0  0  0  0  0  0
  151.5650  145.2568  157.4830 H   0  0  0  0  0  0  0  0  0  0  0  0
  152.9213  145.6698  158.5562 H   0  0  0  0  0  0  0  0  0  0  0  0
  1  2  2  0  0  0  0
  2  3  1  0  0  0  0
  2  9  1  0  0  0  0
  3  4  1  0  0  0  0
  3 19  1  0  0  0  0
  3 20  1  0  0  0  0
  4  8  1  0  0  0  0
  4  5  1  0  0  0  0
  5  6  2  0  0  0  0
  5 21  1  0  0  0  0
  6  7  1  0  0  0  0
  7  8  2  0  0  0  0
  9 10  1  0  0  0  0
  9 22  1  0  0  0  0
 10 11  1  0  0  0  0
 10 23  1  0  0  0  0
 10 24  1  0  0  0  0
 11 12  1  0  0  0  0
 11 25  1  0  0  0  0
 11 26  1  0  0  0  0
 12 17  1  0  0  0  0
 12 13  1  0  0  0  0
 12 27  1  0  0  0  0
 13 14  1  0  0  0  0
 13 28  1  0  0  0  0
 13 29  1  0  0  0  0
 14 18  1  0  0  0  0
 14 15  1  0  0  0  0
 14 30  1  0  0  0  0
 15 16  1  0  0  0  0
 15 31  1  0  0  0  0
 15 32  1  0  0  0  0
 16 17  1  0  0  0  0
 16 33  1  0  0  0  0
 16 34  1  0  0  0  0
 17 18  1  0  0  0  0
 17 35  1  0  0  0  0
 18 36  1  0  0  0  0
 18 37  1  0  0  0  0
M  END
> <s_m_source_file>
AV-unprocessed.smi

> <i_m_source_file_index>
926

> <i_lp_mmshare_version>
43012

> <i_f3d_flags>
0

> <s_epik_input>
bjFubltjSF1uMVtDSDJdQyg9TylbTkhdW0NIMl1bQ0gyXVtDQEhdKFtDSDJdW0NASF0yMylbQ0BIXShbQ0gyXTMpW0NIMl1bQ0gyXTI=

> <s_epik_cmdline>
J2VwaWtfcHl0aG9uJywgJy1waCcsICc3LjAnLCAnLXRuJywgJzgnLCAnLW1hJywgJzIwMCcsICctbWV0YWxfYmluZGluZycsICctaW1hZScsICc8aW5maWxlLm1hZT4nLCAnLW9tYWUnLCAnPG91dGZpbGUubWFlPic=

> <r_lp_tautomer_probability>
1

> <r_epik_Ionization_Penalty>
4.22645e-07

> <r_epik_Ionization_Penalty_Charging>
0

> <r_epik_Ionization_Penalty_Neutral>
4.22645e-07

> <r_epik_State_Penalty>
-0

> <r_epik_Charging_Adjusted_Penalty>
0

> <i_epik_Tot_Q>
0

> <i_epik_Tot_abs_Q>
0

> <r_epik_Metal_State_Penalty>
-0

> <b_epik_Metal_Only>
0

> <s_lp_Force_Field>
OPLS_2005

> <r_lp_Energy>
51.1932

> <b_lp_Chiralities_Consistent>
1

> <s_lp_Variant>
AV-unprocessed.smi:926-1

> <Gold.Version>
5.8.1

> <Gold.Id.Protein>
6NUR|6NUR_protein|mol2

> <Gold.PLP.Fitness>
46.6609

> <Gold.PLP.PLP>
-41.3187

> <Gold.PLP.part.hbond>
-2.0000

> <Gold.PLP.part.metal>
0.0000

> <Gold.PLP.part.buried>
-6.2045

> <Gold.PLP.part.nonpolar>
-33.5121

> <Gold.PLP.part.repulsive>
0.2530

> <Gold.PLP.ligand.clash>
0.0000

> <Gold.PLP.ligand.torsion>
0.3365

> <Gold.PLP.Chemscore.Hbond>
2.0000

> <Gold.PLP.Chemscore.CHOScore>
0.0000

> <Gold.PLP.Chemscore.Metal>
0.0000

> <Gold.Chemscore.Hbonds>
donor molecule, donor type, donor heavy atom, donor atom, acceptor molecule, acceptor atom, score
      P1  H  7989  7998       L1     6  1.00
      P1  H  7997  8009       L1     1  1.00

> <Gold.PLP.Chemscore.Internal.Correction>
0.0151

> <Gold.Rescore>
     Score         DG    S(hbond)    S(metal)    S(lipo)     H(rot)  DE(clash)    DE(int)     intcor
     16.26     -16.66       1.77        0.00     100.74       2.54       0.04       0.36       ----

> <Gold.Chemscore.Fitness>
16.2622

> <Gold.Chemscore.DG>
-16.6631

> <Gold.Chemscore.ZeroCoef>
-5.4800

> <Gold.Chemscore.Hbond>
1.7689

> <Gold.Chemscore.Metal>
0.0000

> <Gold.Chemscore.Lipo>
100.7414

> <Gold.Chemscore.Internal_Hbond>
0.0000

> <Gold.Chemscore.DEClash>
0.0361

> <Gold.Chemscore.DEInternal>
0.3648

> <Gold.Chemscore.Rot>
2.5436

> <Gold.Chemscore.Internal.Correction>
   9.000000E+99

> <Gold.Chemscore.Hbonds>
donor molecule, donor type, donor heavy atom, donor atom, acceptor molecule, acceptor atom, score
      P1  H  7989  7998       L1     6  0.53
      P1  H  7997  8009       L1     1  0.74

> <Gold.Chemscore.Hbond.Weighted>
-5.9081

> <Gold.Chemscore.Metal.Weighted>
-0.0000

> <Gold.Chemscore.Lipo.Weighted>
-11.7867

> <Gold.Chemscore.Internal_Hbond.Weighted>
0.0000

> <Gold.Chemscore.DEClash.Weighted>
0.0361

> <Gold.Chemscore.DEInternal.Weighted>
0.3648

> <Gold.Chemscore.Rot.Weighted>
6.5117

> <Gold.Chemscore.Internal.Correction.Weighted>
   9.000000E+99

> <Gold.Protein.RotatedTorsions>
[ 6907 6896 6895 6894 ] final  -41.30 input  -60.11 | X-H torsion
[ 7974 7965 7964 7962 ] final -159.09 input  175.53 | X-H torsion
[ 8008 7997 7996 7995 ] final  123.81 input   59.86 | X-H torsion
[ 10167 10162 10161 10158 ] final  -50.37 input  -65.29 | X-H torsion
[ 10718 10713 10712 10709 ] final   92.27 input   66.30 | X-H torsion
[ 10763 10752 10751 10750 ] final  -23.11 input  -60.55 | X-H torsion
[ 11005 11000 10999 10996 ] final   85.73 input  -57.11 | X-H torsion

> <Gold.Protein.ActiveResidues>
 VAL166  LYS551  ARG553  GLY616  TRP617  ASP618  TYR619  PRO620  LYS621  CYS622 
 ASP623  PHE694  ASN695  SER759  ASP760  ASP761  ALA762  ILE779  LEU786  VAL792 
 PHE793  MET794  SER795  GLU796  ALA797  LYS798  CYS799  TRP800  GLU811  SER814 

> <Gold.Protein.RotatedAtoms>
  150.9683  134.9060  159.7772 H   0  0  0  0  0  0  0  0  0  0  0  0  # atno 6907 bound_to 6896
  152.5181  134.3576  159.9283 H   0  0  0  0  0  0  0  0  0  0  0  0  # atno 6908 bound_to 6896
  151.3586  133.3857  159.2722 H   0  0  0  0  0  0  0  0  0  0  0  0  # atno 6909 bound_to 6896
  144.7479  140.3734  143.6071 H   0  0  0  0  0  0  0  0  0  0  0  0  # atno 7974 bound_to 7965
  156.2779  140.2754  156.1688 H   0  0  0  0  0  0  0  0  0  0  0  0  # atno 8008 bound_to 7997
  155.0676  140.0387  157.2616 H   0  0  0  0  0  0  0  0  0  0  0  0  # atno 8009 bound_to 7997
  154.7066  140.2660  155.6674 H   0  0  0  0  0  0  0  0  0  0  0  0  # atno 8010 bound_to 7997
  140.6641  143.2660  151.4349 H   0  0  0  0  0  0  0  0  0  0  0  0  # atno 10167 bound_to 10162
  157.6959  131.0437  150.3857 H   0  0  0  0  0  0  0  0  0  0  0  0  # atno 10718 bound_to 10713
  153.6627  135.6975  153.5172 H   0  0  0  0  0  0  0  0  0  0  0  0  # atno 10763 bound_to 10752
  153.2619  135.4242  155.0902 H   0  0  0  0  0  0  0  0  0  0  0  0  # atno 10764 bound_to 10752
  154.8448  135.3557  154.6171 H   0  0  0  0  0  0  0  0  0  0  0  0  # atno 10765 bound_to 10752
  139.8963  134.8307  156.2623 H   0  0  0  0  0  0  0  0  0  0  0  0  # atno 11005 bound_to 11000
  145.7053  139.1671  143.2569 LP  0  0  0  0  0  0  0  0  0  0  0  0  # atno 17320 bound_to 7965
  146.1386  140.7089  142.9378 LP  0  0  0  0  0  0  0  0  0  0  0  0  # atno 17321 bound_to 7965
  139.5883  144.1554  152.2057 LP  0  0  0  0  0  0  0  0  0  0  0  0  # atno 17342 bound_to 10162
  140.0901  144.5628  150.7061 LP  0  0  0  0  0  0  0  0  0  0  0  0  # atno 17343 bound_to 10162
  156.4266  130.3963  149.6789 LP  0  0  0  0  0  0  0  0  0  0  0  0  # atno 17370 bound_to 10713
  156.4021  130.7680  151.2688 LP  0  0  0  0  0  0  0  0  0  0  0  0  # atno 17371 bound_to 10713
  141.0155  133.7071  156.1181 LP  0  0  0  0  0  0  0  0  0  0  0  0  # atno 17394 bound_to 11000
  140.7308  134.4256  157.5566 LP  0  0  0  0  0  0  0  0  0  0  0  0  # atno 17395 bound_to 11000

$$$$
